data_PCOD9379606
_publ_section_title
;
Structure prediction by ZEFSAII (Michael W. Deem and Ramdas Pophale) SiO2 
 PCOD9379606
Probable space group: I M A 2
;
_chemical_formula_sum "Si O2"
_cell_formula_units_Z 56
_cell_length_a 13.808254
_cell_length_b 11.373768
_cell_length_c 12.858884
_cell_angle_alpha 90.000000
_cell_angle_beta 90.000000
_cell_angle_gamma 90.000000
_cell_volume 2019.511875
_symmetry_space_group_name_H-M "I M A 2"
_symmetry_group_IT_number 46
_symmetry_cell_setting 'orthorhombic'
loop_
_space_group_symop_operation_xyz
x,y,z
-x,-y,z
1/2-x,y,z
1/2+x,-y,z
1/2+x,1/2+y,1/2+z
1/2-x,1/2-y,1/2+z
-x,1/2+y,1/2+z
x,1/2-y,1/2+z
loop_
_atom_site_type_symbol
_atom_site_label
_atom_site_fract_x
_atom_site_fract_y
_atom_site_fract_z
Si Si1 0.362053 0.288016 0.237740
Si Si2 0.884861 0.986257 0.321204
Si Si3 0.885298 0.017408 0.869486
Si Si4 0.571505 0.237507 0.333702
Si Si5 0.889963 0.040276 0.103810
Si Si6 0.867678 0.294160 0.055951
Si Si7 0.639307 0.561198 0.052659
O O1 0.250000 0.241345 0.240843
O O2 0.352168 0.407124 0.304650
O O3 0.461747 0.230729 0.286202
O O4 0.394385 0.329814 0.122150
O O5 0.859793 0.123742 0.333529
O O6 0.854263 0.964126 0.202490
O O7 0.858856 0.921745 0.427739
O O8 0.000000 0.000000 0.324729
O O9 0.873902 0.140593 0.808346
O O10 0.849235 0.020891 0.988502
O O11 0.000000 0.000000 0.874857
O O12 0.565203 0.248020 0.459576
O O13 0.881511 0.180132 0.129920
O O14 0.000000 0.000000 0.097456
O O15 0.750000 0.297053 0.037270
O O16 0.900957 0.429462 0.074455
O O17 0.750000 0.551996 0.086383
#
# Coordination Sequence:
#
# PCOD9379606 Si02
#       7
#     8   8   8   8   8   8   8
#     4  10  20  36  61  91 123 158 203 258 311 371
#     4  10  21  37  58  86 117 165 206 249 309 374
#     4   8  16  31  51  80 116 146 190 250 304 353
#     4   9  19  36  56  88 121 157 205 250 307 371
#     4   9  18  33  53  81 117 150 202 250 298 371
#     4   9  18  35  59  87 123 161 201 258 320 376
#     4   9  20  38  57  86 124 158 202 256 315 382
#
# _framework density 27.729472000000001
#
# number of rings (size 3 to 8) (size 9 to 14) (size 15 to 20)
#    0.000    2.857    0.000    0.857    2.000    4.571 
#    5.143    0.714    0.000    0.857    0.000    4.000 
#    0.000    0.000    0.000    0.000    0.000    0.000 
#
# Total GULP energy -156120.275200 kJ/mol
# GULP energy per Si atom -5575.724114 kJ/mol
# Density = 2.766636 g / cm^3
# Si number density = 27.729472 Si / 1000 Ang^3
#
#
#
# Elastic Constant Matrix: (Units=GPa)
#
#
# Indices 1 2 3 4 5 6 
#
# 1 192.2805 43.4998 26.8169 0.0000 0.0000 0.0000
# 2 43.4998 102.2348 21.0939 0.0000 0.0000 0.0000
# 3 26.8169 21.0939 164.1144 0.0000 0.0000 0.0000
# 4 0.0000 0.0000 0.0000 42.0707 0.0000 0.0000
# 5 0.0000 0.0000 0.0000 0.0000 -151.9633 0.0000
# 6 0.0000 0.0000 0.0000 0.0000 0.0000 29.6439
#
#
#
# Elastic Compliance Matrix: (Units=1/GPa)
#
#
# Indices 1 2 3 4 5 6 
#
# 1 0.005821 -0.002343 -0.000650 0.000000 0.000000 0.000000
# 2 -0.002343 0.010991 -0.001030 0.000000 0.000000 0.000000
# 3 -0.000650 -0.001030 0.006332 0.000000 0.000000 0.000000
# 4 0.000000 0.000000 0.000000 0.023770 0.000000 0.000000
# 5 0.000000 0.000000 0.000000 0.000000 -0.006581 0.000000
# 6 0.000000 0.000000 0.000000 0.000000 0.000000 0.033734
#
#
# Mechanical properties :
#
#
# Convention : Reuss Voigt Hill
#
# Bulk Modulus (GPa) = 66.23163 71.27236 68.75199
# Shear Modulus (GPa) = 57.37548 8.43151 32.90350
#
# Velocity S-wave (km/s) = 4.55369 1.74563 3.44843
# Velocity P-wave (km/s) = 7.18226 5.46091 6.37991
#
# Compressibility (1/GPa) = 0.01509853
#
# Stress axis : x y z
#
# Youngs Moduli (GPa) = 171.77931 90.98578 157.93029
#
# Poissons Ratio (x) = 0.21316 0.10267
# Poissons Ratio (y) = 0.40245 0.16264
# Poissons Ratio (z) = 0.11168 0.09370
#
# Static dielectric constant tensor:
#      x y z
#    x 2.131830 0.000000 0.000000 
#    y 0.000000 2.329080 0.000000 
#    z 0.000000 0.000000 2.258470 
# 
# From -- ./inp_files/11155.got.cif
#   From: 2010.05.17/outbox.cif.g08.bks.cpg/sg46_6_cif.got.tgz:11155.got - 2010.06.03 19:58:25.
