data_PCOD9379559
_publ_section_title
;
Structure prediction by ZEFSAII (Michael W. Deem and Ramdas Pophale) SiO2 
 PCOD9379559
Probable space group: I M A 2
;
_chemical_formula_sum "Si O2"
_cell_formula_units_Z 48
_cell_length_a 8.799388
_cell_length_b 20.881982
_cell_length_c 14.733931
_cell_angle_alpha 90.000000
_cell_angle_beta 90.000000
_cell_angle_gamma 90.000000
_cell_volume 2707.340105
_symmetry_space_group_name_H-M "I M A 2"
_symmetry_group_IT_number 46
_symmetry_cell_setting 'orthorhombic'
loop_
_space_group_symop_operation_xyz
x,y,z
-x,-y,z
1/2-x,y,z
1/2+x,-y,z
1/2+x,1/2+y,1/2+z
1/2-x,1/2-y,1/2+z
-x,1/2+y,1/2+z
x,1/2-y,1/2+z
loop_
_atom_site_type_symbol
_atom_site_label
_atom_site_fract_x
_atom_site_fract_y
_atom_site_fract_z
Si Si1 0.433115 0.873113 0.119800
Si Si2 0.432041 0.569129 0.814709
Si Si3 0.068511 0.269303 0.119744
Si Si4 0.432484 0.689885 0.304803
Si Si5 0.067175 0.931098 0.926609
Si Si6 0.432035 0.190333 0.415447
O O1 0.250000 0.864649 0.117438
O O2 0.471591 0.911816 0.210753
O O3 0.508599 0.803495 0.122849
O O4 0.479766 0.909558 0.028112
O O5 0.500000 0.500000 0.836306
O O6 0.250000 0.568001 0.822218
O O7 0.498986 0.624774 0.877755
O O8 0.250000 0.269379 0.131063
O O9 0.992397 0.306988 0.202483
O O10 0.031665 0.298047 0.021133
O O11 0.250000 0.694770 0.305932
O O12 0.477748 0.625238 0.357447
O O13 0.500112 0.750761 0.358046
O O14 0.250000 0.935145 0.925806
O O15 0.000000 0.000000 0.904036
O O16 0.250000 0.189884 0.404780
#
# Coordination Sequence:
#
# PCOD9379559 Si02
#       6
#     8   8   8   8   8   8
#     4  10  20  36  58  87 122 156 192 236 294 356
#     4  11  23  38  60  88 121 162 197 243 298 353
#     4  11  23  37  59  90 120 153 196 247 294 345
#     4  11  22  38  61  87 118 157 198 243 294 352
#     4  10  22  38  58  86 120 157 196 239 292 351
#     4  11  23  39  60  88 119 155 199 246 296 351
#
# _framework density 17.729578
#
# number of rings (size 3 to 8) (size 9 to 14) (size 15 to 20)
#    0.000    1.333    3.333    2.500    0.000    4.667 
#    0.000    0.833    0.000    2.000    0.000    0.000 
#    0.000    0.000    0.000    0.000    0.000    0.000 
#
# Total GULP energy -134152.310895 kJ/mol
# GULP energy per Si atom -5589.679621 kJ/mol
# Density = 1.768922 g / cm^3
# Si number density = 17.729578 Si / 1000 Ang^3
#
#
#
# Elastic Constant Matrix: (Units=GPa)
#
#
# Indices 1 2 3 4 5 6 
#
# 1 42.3297 46.3280 48.4933 0.0000 0.0000 0.0000
# 2 46.3280 160.3352 70.1790 0.0000 0.0000 0.0000
# 3 48.4933 70.1790 121.7453 0.0000 0.0000 0.0000
# 4 0.0000 0.0000 0.0000 21.3221 0.0000 0.0000
# 5 0.0000 0.0000 0.0000 0.0000 28.1255 0.0000
# 6 0.0000 0.0000 0.0000 0.0000 0.0000 32.8111
#
#
#
# Elastic Compliance Matrix: (Units=1/GPa)
#
#
# Indices 1 2 3 4 5 6 
#
# 1 0.049511 -0.007589 -0.015347 0.000000 0.000000 0.000000
# 2 -0.007589 0.009505 -0.002456 0.000000 0.000000 0.000000
# 3 -0.015347 -0.002456 0.015743 0.000000 0.000000 0.000000
# 4 0.000000 0.000000 0.000000 0.046900 0.000000 0.000000
# 5 0.000000 0.000000 0.000000 0.000000 0.035555 0.000000
# 6 0.000000 0.000000 0.000000 0.000000 0.000000 0.030477
#
#
# Mechanical properties :
#
#
# Convention : Reuss Voigt Hill
#
# Bulk Modulus (GPa) = 41.71003 72.71232 57.21118
# Shear Modulus (GPa) = 20.28691 27.07907 23.68299
#
# Velocity S-wave (km/s) = 3.38633 3.91236 3.65881
# Velocity P-wave (km/s) = 6.23429 7.84281 7.08435
#
# Compressibility (1/GPa) = 0.02397505
#
# Stress axis : x y z
#
# Youngs Moduli (GPa) = 20.19773 105.21083 63.52217
#
# Poissons Ratio (x) = 0.79840 0.97484
# Poissons Ratio (y) = 0.15327 0.15603
# Poissons Ratio (z) = 0.30996 0.25842
#
# Static dielectric constant tensor:
#      x y z
#    x 1.593890 0.000000 0.000000 
#    y 0.000000 1.564290 0.000000 
#    z 0.000000 0.000000 1.601030 
# 
# From -- ./inp_files/13874.got.cif
#   From: 2010.05.17/outbox.cif.g08.bks.cpg/sg46_7_cif.got.tgz:13874.got - 2010.06.03 19:58:25.
