data_PCOD9379472
_publ_section_title
;
Structure prediction by ZEFSAII (Michael W. Deem and Ramdas Pophale) SiO2 
 PCOD9379472
Probable space group: I M A 2
;
_chemical_formula_sum "Si O2"
_cell_formula_units_Z 44
_cell_length_a 26.799026
_cell_length_b 12.672753
_cell_length_c 5.592181
_cell_angle_alpha 90.000000
_cell_angle_beta 90.000000
_cell_angle_gamma 90.000000
_cell_volume 1899.202179
_symmetry_space_group_name_H-M "I M A 2"
_symmetry_group_IT_number 46
_symmetry_cell_setting 'orthorhombic'
loop_
_space_group_symop_operation_xyz
x,y,z
-x,-y,z
1/2-x,y,z
1/2+x,-y,z
1/2+x,1/2+y,1/2+z
1/2-x,1/2-y,1/2+z
-x,1/2+y,1/2+z
x,1/2-y,1/2+z
loop_
_atom_site_type_symbol
_atom_site_label
_atom_site_fract_x
_atom_site_fract_y
_atom_site_fract_z
Si Si1 0.689798 0.299683 0.792610
Si Si2 0.750000 0.810072 0.473399
Si Si3 0.964953 0.246797 0.849259
Si Si4 0.058945 0.517108 0.842313
Si Si5 0.805771 0.491917 0.086382
Si Si6 0.096595 0.527553 0.345086
O O1 0.750000 0.288358 0.781995
O O2 0.671547 0.259235 0.535815
O O3 0.679610 0.421018 0.859283
O O4 0.750000 0.764967 0.205862
O O5 0.702773 0.888241 0.510077
O O6 0.993849 0.249812 0.599177
O O7 0.933126 0.355133 0.848597
O O8 0.931021 0.141942 0.849447
O O9 0.083085 0.476266 0.597866
O O10 0.000000 0.500000 0.822483
O O11 0.076199 0.475040 0.099387
O O12 0.750000 0.456450 0.165080
O O13 0.844898 0.471476 0.292837
#
# Coordination Sequence:
#
# PCOD9379472 Si02
#       6
#     8   4   8   8   8   8
#     4   9  18  31  49  81 125 162 194 241 293 360
#     4  10  24  44  66  84 116 168 224 272 320 372
#     4   8  16  30  51  78 113 154 191 230 296 360
#     4  10  20  35  58  84 117 164 205 246 305 372
#     4   9  22  41  62  97 124 174 214 259 321 387
#     4  10  20  36  58  88 121 153 202 254 307 377
#
# _framework density 23.167622000000001
#
# number of rings (size 3 to 8) (size 9 to 14) (size 15 to 20)
#    0.545    2.182    0.000    0.545    0.000    8.727 
#    0.000    0.000    0.000   19.636    0.000    0.000 
#    0.000    0.000    0.000    0.000    0.000    0.000 
#
# Total GULP energy -122676.568542 kJ/mol
# GULP energy per Si atom -5576.207661 kJ/mol
# Density = 2.311489 g / cm^3
# Si number density = 23.167622 Si / 1000 Ang^3
#
#
#
# Elastic Constant Matrix: (Units=GPa)
#
#
# Indices 1 2 3 4 5 6 
#
# 1 93.8953 3.3940 46.9934 0.0000 0.0000 0.0000
# 2 3.3940 56.3459 8.4376 0.0000 0.0000 0.0000
# 3 46.9934 8.4376 229.0888 0.0000 0.0000 0.0000
# 4 0.0000 0.0000 0.0000 14.8954 0.0000 0.0000
# 5 0.0000 0.0000 0.0000 0.0000 13.8293 0.0000
# 6 0.0000 0.0000 0.0000 0.0000 0.0000 15.9779
#
#
#
# Elastic Compliance Matrix: (Units=1/GPa)
#
#
# Indices 1 2 3 4 5 6 
#
# 1 0.011876 -0.000352 -0.002423 0.000000 0.000000 0.000000
# 2 -0.000352 0.017856 -0.000585 0.000000 0.000000 0.000000
# 3 -0.002423 -0.000585 0.004884 0.000000 0.000000 0.000000
# 4 0.000000 0.000000 0.000000 0.067135 0.000000 0.000000
# 5 0.000000 0.000000 0.000000 0.000000 0.072310 0.000000
# 6 0.000000 0.000000 0.000000 0.000000 0.000000 0.062586
#
#
# Mechanical properties :
#
#
# Convention : Reuss Voigt Hill
#
# Bulk Modulus (GPa) = 35.85015 55.22002 45.53508
# Shear Modulus (GPa) = 19.78888 30.30752 25.04820
#
# Velocity S-wave (km/s) = 2.92577 3.62081 3.29169
# Velocity P-wave (km/s) = 5.18858 6.43172 5.84331
#
# Compressibility (1/GPa) = 0.02789389
#
# Stress axis : x y z
#
# Youngs Moduli (GPa) = 84.20609 56.00230 204.76144
#
# Poissons Ratio (x) = 0.01974 0.49615
# Poissons Ratio (y) = 0.02968 0.11986
# Poissons Ratio (z) = 0.20404 0.03278
#
# Static dielectric constant tensor:
#      x y z
#    x 1.899170 0.000000 0.000000 
#    y 0.000000 1.909570 0.000000 
#    z 0.000000 0.000000 1.928840 
# 
# From -- ./inp_files/2702.got.cif
#   From: 2010.05.17/outbox.cif.g08.bks.cpg/sg46_2_cif.got.tgz:2702.got - 2010.06.03 19:58:25.
