data_PCOD9379256
_publ_section_title
;
Structure prediction by ZEFSAII (Michael W. Deem and Ramdas Pophale) SiO2 
 PCOD9379256
Probable space group: I M A 2
;
_chemical_formula_sum "Si O2"
_cell_formula_units_Z 48
_cell_length_a 13.611660
_cell_length_b 12.022735
_cell_length_c 14.396354
_cell_angle_alpha 90.000000
_cell_angle_beta 90.000000
_cell_angle_gamma 90.000000
_cell_volume 2355.954422
_symmetry_space_group_name_H-M "I M A 2"
_symmetry_group_IT_number 46
_symmetry_cell_setting 'orthorhombic'
loop_
_space_group_symop_operation_xyz
x,y,z
-x,-y,z
1/2-x,y,z
1/2+x,-y,z
1/2+x,1/2+y,1/2+z
1/2-x,1/2-y,1/2+z
-x,1/2+y,1/2+z
x,1/2-y,1/2+z
loop_
_atom_site_type_symbol
_atom_site_label
_atom_site_fract_x
_atom_site_fract_y
_atom_site_fract_z
Si Si1 0.484588 0.872679 0.940630
Si Si2 0.131759 0.222917 0.338741
Si Si3 0.630950 0.545517 0.976267
Si Si4 0.368863 0.806382 0.553923
Si Si5 0.633144 0.407341 0.252774
Si Si6 0.631824 0.852577 0.667918
O O1 0.585150 0.813373 0.908532
O O2 0.420451 0.874101 0.846139
O O3 0.500000 0.000000 0.970010
O O4 0.426856 0.798331 0.014774
O O5 0.250000 0.231368 0.341916
O O6 0.101864 0.103965 0.380674
O O7 0.099761 0.251694 0.233749
O O8 0.750000 0.545791 0.979209
O O9 0.604357 0.418108 0.995485
O O10 0.597819 0.621615 0.063803
O O11 0.250000 0.791564 0.546438
O O12 0.390852 0.835526 0.661323
O O13 0.750000 0.400541 0.266430
O O14 0.610205 0.534796 0.225258
O O15 0.750000 0.843948 0.660877
#
# Coordination Sequence:
#
# PCOD9379256 Si02
#       6
#     8   8   8   8   8   8
#     4  12  23  34  57  92 121 156 199 251 304 362
#     4  10  20  33  51  80 118 153 191 242 301 355
#     4   8  16  33  57  82 108 147 197 242 292 352
#     4   9  20  39  64  89 116 153 200 253 304 361
#     4   9  18  37  62  85 111 151 201 248 296 354
#     4   8  14  29  54  80 104 139 189 236 282 346
#
# _framework density 20.373908
#
# number of rings (size 3 to 8) (size 9 to 14) (size 15 to 20)
#    0.000    2.667    1.667    2.500    0.000    2.667 
#    0.000    0.000    7.333    0.000    0.000    0.000 
#    0.000    0.000    0.000    0.000    0.000    0.000 
#
# Total GULP energy -134005.395296 kJ/mol
# GULP energy per Si atom -5583.558137 kJ/mol
# Density = 2.032754 g / cm^3
# Si number density = 20.373908 Si / 1000 Ang^3
#
#
#
# Elastic Constant Matrix: (Units=GPa)
#
#
# Indices 1 2 3 4 5 6 
#
# 1 75.6036 33.8697 36.5753 0.0000 0.0000 0.0000
# 2 33.8697 124.0067 65.0843 0.0000 0.0000 0.0000
# 3 36.5753 65.0843 85.8163 0.0000 0.0000 0.0000
# 4 0.0000 0.0000 0.0000 40.2835 0.0000 0.0000
# 5 0.0000 0.0000 0.0000 0.0000 30.5034 0.0000
# 6 0.0000 0.0000 0.0000 0.0000 0.0000 24.7786
#
#
#
# Elastic Compliance Matrix: (Units=1/GPa)
#
#
# Indices 1 2 3 4 5 6 
#
# 1 0.016803 -0.001380 -0.006115 0.000000 0.000000 0.000000
# 2 -0.001380 0.013510 -0.009658 0.000000 0.000000 0.000000
# 3 -0.006115 -0.009658 0.021584 0.000000 0.000000 0.000000
# 4 0.000000 0.000000 0.000000 0.024824 0.000000 0.000000
# 5 0.000000 0.000000 0.000000 0.000000 0.032783 0.000000
# 6 0.000000 0.000000 0.000000 0.000000 0.000000 0.040357
#
#
# Mechanical properties :
#
#
# Convention : Reuss Voigt Hill
#
# Bulk Modulus (GPa) = 56.84700 61.83168 59.33934
# Shear Modulus (GPa) = 26.31139 29.10624 27.70882
#
# Velocity S-wave (km/s) = 3.59754 3.78379 3.69184
# Velocity P-wave (km/s) = 6.72449 7.03589 6.88195
#
# Compressibility (1/GPa) = 0.01759108
#
# Stress axis : x y z
#
# Youngs Moduli (GPa) = 59.51158 74.01953 46.33098
#
# Poissons Ratio (x) = 0.10215 0.28332
# Poissons Ratio (y) = 0.08213 0.44746
# Poissons Ratio (z) = 0.36392 0.71488
#
# Static dielectric constant tensor:
#      x y z
#    x 1.797650 0.000000 0.000000 
#    y 0.000000 1.706420 0.000000 
#    z 0.000000 0.000000 1.727470 
# 
# From -- ./inp_files/15856.got.cif
#   From: 2010.05.17/outbox.cif.g08.bks.cpg/sg46_8_cif.got.tgz:15856.got - 2010.06.03 19:58:25.
