data_PCOD9379832
_publ_section_title
;
Structure prediction by ZEFSAII (Michael W. Deem and Ramdas Pophale) SiO2 
 PCOD9379832
Probable space group: I M A 2
;
_chemical_formula_sum "Si O2"
_cell_formula_units_Z 48
_cell_length_a 14.254327
_cell_length_b 20.129424
_cell_length_c 8.514502
_cell_angle_alpha 90.000000
_cell_angle_beta 90.000000
_cell_angle_gamma 90.000000
_cell_volume 2443.077911
_symmetry_space_group_name_H-M "I M A 2"
_symmetry_group_IT_number 46
_symmetry_cell_setting 'orthorhombic'
loop_
_space_group_symop_operation_xyz
x,y,z
-x,-y,z
1/2-x,y,z
1/2+x,-y,z
1/2+x,1/2+y,1/2+z
1/2-x,1/2-y,1/2+z
-x,1/2+y,1/2+z
x,1/2-y,1/2+z
loop_
_atom_site_type_symbol
_atom_site_label
_atom_site_fract_x
_atom_site_fract_y
_atom_site_fract_z
Si Si1 0.451389 0.587677 0.236880
Si Si2 0.351763 0.541365 0.537348
Si Si3 0.362185 0.710398 0.078291
Si Si4 0.581823 0.342366 0.735372
Si Si5 0.922123 0.941868 0.265677
Si Si6 0.143228 0.040481 0.606286
O O1 0.429293 0.563072 0.412090
O O2 0.409246 0.659193 0.200102
O O3 0.560987 0.581406 0.194479
O O4 0.393373 0.535162 0.129156
O O5 0.250000 0.545280 0.460622
O O6 0.356932 0.595315 0.676357
O O7 0.368612 0.469720 0.613978
O O8 0.250000 0.712341 0.098808
O O9 0.403425 0.782938 0.113243
O O10 0.386755 0.684185 0.904797
O O11 0.477761 0.373455 0.743541
O O12 0.862231 0.941007 0.423264
O O13 0.000000 0.000000 0.291989
O O14 0.250000 0.048401 0.661956
#
# Coordination Sequence:
#
# PCOD9379832 Si02
#       6
#     8   8   8   8   8   8
#     4  11  23  38  61 100 129 163 205 261 318 377
#     4  11  22  38  63  96 132 168 210 261 317 381
#     4  12  22  39  62  90 131 170 207 255 319 389
#     4  11  24  39  59  93 128 170 210 255 318 381
#     4  10  20  39  60  89 127 167 207 258 304 366
#     4  11  21  39  64  91 125 166 210 255 312 372
#
# _framework density 19.647348000000001
#
# number of rings (size 3 to 8) (size 9 to 14) (size 15 to 20)
#    0.000    1.000    3.333    5.500    7.000    0.000 
#    0.000    0.000    0.000    2.000    0.000    0.000 
#    0.000    0.000    0.000    0.000    0.000    0.000 
#
# Total GULP energy -134077.728369 kJ/mol
# GULP energy per Si atom -5586.572015 kJ/mol
# Density = 1.960263 g / cm^3
# Si number density = 19.647348 Si / 1000 Ang^3
#
#
#
# Elastic Constant Matrix: (Units=GPa)
#
#
# Indices 1 2 3 4 5 6 
#
# 1 128.6101 49.9592 42.7131 0.0000 0.0000 0.0000
# 2 49.9592 103.5818 18.1405 0.0000 0.0000 0.0000
# 3 42.7131 18.1405 88.0262 0.0000 0.0000 0.0000
# 4 0.0000 0.0000 0.0000 33.3910 0.0000 0.0000
# 5 0.0000 0.0000 0.0000 0.0000 14.7929 0.0000
# 6 0.0000 0.0000 0.0000 0.0000 0.0000 11.3891
#
#
#
# Elastic Compliance Matrix: (Units=1/GPa)
#
#
# Indices 1 2 3 4 5 6 
#
# 1 0.010999 -0.004534 -0.004403 0.000000 0.000000 0.000000
# 2 -0.004534 0.011885 -0.000249 0.000000 0.000000 0.000000
# 3 -0.004403 -0.000249 0.013548 0.000000 0.000000 0.000000
# 4 0.000000 0.000000 0.000000 0.029948 0.000000 0.000000
# 5 0.000000 0.000000 0.000000 0.000000 0.067600 0.000000
# 6 0.000000 0.000000 0.000000 0.000000 0.000000 0.087803
#
#
# Mechanical properties :
#
#
# Convention : Reuss Voigt Hill
#
# Bulk Modulus (GPa) = 55.37126 60.20486 57.78806
# Shear Modulus (GPa) = 20.31085 25.87497 23.09291
#
# Velocity S-wave (km/s) = 3.21872 3.63294 3.43209
# Velocity P-wave (km/s) = 6.48516 6.95032 6.72177
#
# Compressibility (1/GPa) = 0.01805991
#
# Stress axis : x y z
#
# Youngs Moduli (GPa) = 90.91895 84.14242 73.81213
#
# Poissons Ratio (x) = 0.38149 0.32497
# Poissons Ratio (y) = 0.41221 0.01840
# Poissons Ratio (z) = 0.40028 0.02097
#
# Static dielectric constant tensor:
#      x y z
#    x 1.705980 0.000000 0.000000 
#    y 0.000000 1.673590 0.000000 
#    z 0.000000 0.000000 1.759890 
# 
# From -- ./inp_files/5718.got.cif
#   From: 2010.05.17/outbox.cif.g08.bks.cpg/sg46_3_cif.got.tgz:5718.got - 2010.06.03 19:58:25.
