data_PCOD9379112
_publ_section_title
;
Structure prediction by ZEFSAII (Michael W. Deem and Ramdas Pophale) SiO2 
 PCOD9379112
Probable space group: I M A 2
;
_chemical_formula_sum "Si O2"
_cell_formula_units_Z 40
_cell_length_a 26.661689
_cell_length_b 8.955875
_cell_length_c 6.446450
_cell_angle_alpha 90.000000
_cell_angle_beta 90.000000
_cell_angle_gamma 90.000000
_cell_volume 1539.275299
_symmetry_space_group_name_H-M "I M A 2"
_symmetry_group_IT_number 46
_symmetry_cell_setting 'orthorhombic'
loop_
_space_group_symop_operation_xyz
x,y,z
-x,-y,z
1/2-x,y,z
1/2+x,-y,z
1/2+x,1/2+y,1/2+z
1/2-x,1/2-y,1/2+z
-x,1/2+y,1/2+z
x,1/2-y,1/2+z
loop_
_atom_site_type_symbol
_atom_site_label
_atom_site_fract_x
_atom_site_fract_y
_atom_site_fract_z
Si Si1 0.568749 0.719208 0.982320
Si Si2 0.032880 0.872616 0.885646
Si Si3 0.092419 0.908630 0.270839
Si Si4 0.694106 0.502965 0.929998
Si Si5 0.150720 0.217632 0.738122
O O1 0.573559 0.540280 0.923265
O O2 0.634152 0.779159 0.993352
O O3 0.510704 0.773198 0.992772
O O4 0.582374 0.718487 0.236908
O O5 0.068810 0.957871 0.050750
O O6 0.069858 0.755928 0.783152
O O7 0.000000 0.000000 0.777581
O O8 0.151097 0.903186 0.322228
O O9 0.750000 0.442813 0.940868
O O10 0.691767 0.651291 0.784865
O O11 0.674596 0.561812 0.156630
#
# Coordination Sequence:
#
# PCOD9379112 Si02
#       5
#     8   8   8   8   8
#     4  10  19  37  58  87 124 149 184 251 303 350
#     4  12  22  36  58  82 114 155 192 235 295 363
#     4  10  24  39  55  86 118 150 199 245 296 359
#     4  10  19  37  60  86 124 164 201 253 299 343
#     4   8  17  31  56  89 114 146 196 238 290 355
#
# _framework density 25.986253000000001
#
# number of rings (size 3 to 8) (size 9 to 14) (size 15 to 20)
#    0.000    2.400    0.000    6.000    0.000    4.800 
#    0.000    1.000    0.000    0.000    0.000    0.000 
#    0.000    0.000    0.000    0.000    0.000    0.000 
#
# Total GULP energy -111387.631074 kJ/mol
# GULP energy per Si atom -5569.381554 kJ/mol
# Density = 2.592711 g / cm^3
# Si number density = 25.986253 Si / 1000 Ang^3
#
#
#
# Elastic Constant Matrix: (Units=GPa)
#
#
# Indices 1 2 3 4 5 6 
#
# 1 231.9362 47.0486 57.9196 0.0000 0.0000 0.0000
# 2 47.0486 112.6443 8.8399 0.0000 0.0000 0.0000
# 3 57.9196 8.8399 153.2194 0.0000 0.0000 0.0000
# 4 0.0000 0.0000 0.0000 44.2707 0.0000 0.0000
# 5 0.0000 0.0000 0.0000 0.0000 34.2027 0.0000
# 6 0.0000 0.0000 0.0000 0.0000 0.0000 25.4268
#
#
#
# Elastic Compliance Matrix: (Units=1/GPa)
#
#
# Indices 1 2 3 4 5 6 
#
# 1 0.005181 -0.002019 -0.001842 0.000000 0.000000 0.000000
# 2 -0.002019 0.009705 0.000203 0.000000 0.000000 0.000000
# 3 -0.001842 0.000203 0.007211 0.000000 0.000000 0.000000
# 4 0.000000 0.000000 0.000000 0.022588 0.000000 0.000000
# 5 0.000000 0.000000 0.000000 0.000000 0.029237 0.000000
# 6 0.000000 0.000000 0.000000 0.000000 0.000000 0.039329
#
#
# Mechanical properties :
#
#
# Convention : Reuss Voigt Hill
#
# Bulk Modulus (GPa) = 67.65334 80.60179 74.12756
# Shear Modulus (GPa) = 39.84226 46.37950 43.11088
#
# Velocity S-wave (km/s) = 3.91986 4.22924 4.07749
# Velocity P-wave (km/s) = 6.82480 7.41168 7.12429
#
# Compressibility (1/GPa) = 0.01478124
#
# Stress axis : x y z
#
# Youngs Moduli (GPa) = 193.00571 103.03944 138.67347
#
# Poissons Ratio (x) = 0.20809 0.25545
# Poissons Ratio (y) = 0.38977 -0.02822
# Poissons Ratio (z) = 0.35553 -0.02097
#
# Static dielectric constant tensor:
#      x y z
#    x 2.046440 0.000000 0.000000 
#    y 0.000000 2.043900 0.000000 
#    z 0.000000 0.000000 2.143240 
# 
# From -- ./inp_files/8100.got.cif
#   From: 2010.05.17/outbox.cif.g08.bks.cpg/sg46_5_cif.got.tgz:8100.got - 2010.06.03 19:58:25.
