data_PCOD9379883
_publ_section_title
;
Structure prediction by ZEFSAII (Michael W. Deem and Ramdas Pophale) SiO2 
 PCOD9379883
Probable space group: I M A 2
;
_chemical_formula_sum "Si O2"
_cell_formula_units_Z 40
_cell_length_a 20.211546
_cell_length_b 6.183802
_cell_length_c 14.797652
_cell_angle_alpha 90.000000
_cell_angle_beta 90.000000
_cell_angle_gamma 90.000000
_cell_volume 1849.472676
_symmetry_space_group_name_H-M "I M A 2"
_symmetry_group_IT_number 46
_symmetry_cell_setting 'orthorhombic'
loop_
_space_group_symop_operation_xyz
x,y,z
-x,-y,z
1/2-x,y,z
1/2+x,-y,z
1/2+x,1/2+y,1/2+z
1/2-x,1/2-y,1/2+z
-x,1/2+y,1/2+z
x,1/2-y,1/2+z
loop_
_atom_site_type_symbol
_atom_site_label
_atom_site_fract_x
_atom_site_fract_y
_atom_site_fract_z
Si Si1 0.571056 0.400880 0.417820
Si Si2 0.250000 0.789664 0.674565
Si Si3 0.750000 0.508667 0.002307
Si Si4 0.000000 0.000000 0.471064
Si Si5 0.859156 0.612594 0.250849
Si Si6 0.750000 0.921308 0.309582
Si Si7 0.617377 0.773585 0.056675
O O1 0.500000 0.500000 0.435262
O O2 0.593767 0.495427 0.321989
O O3 0.613864 0.497924 0.501840
O O4 0.552807 0.147904 0.416538
O O5 0.313018 0.925167 0.709039
O O6 0.250000 0.557274 0.718436
O O7 0.250000 0.803670 0.567640
O O8 0.684573 0.650566 0.025002
O O9 0.750000 0.436241 0.898802
O O10 0.949165 0.856436 0.529146
O O11 0.813304 0.769256 0.309731
O O12 0.883293 0.756933 0.165965
#
# Coordination Sequence:
#
# PCOD9379883 Si02
#       7
#     8   4   4   4   8   4   8
#     4  10  22  41  64  95 129 177 224 276 341 415
#     4   9  23  37  57 102 130 166 228 285 344 407
#     4  10  20  40  64  92 137 181 227 297 348 405
#     4  10  24  42  64  98 140 178 226 278 356 422
#     4  10  22  40  66  96 127 176 234 280 342 420
#     4  11  21  41  65  96 135 175 227 292 350 410
#     4  10  22  42  64  94 137 176 230 291 340 413
#
# _framework density 21.627787000000001
#
# number of rings (size 3 to 8) (size 9 to 14) (size 15 to 20)
#    0.000    2.000    2.000    0.600    4.200    3.200 
#    0.000    1.000    2.200    0.000    0.000    0.000 
#    0.000    0.000    0.000    0.000    0.000    0.000 
#
# Total GULP energy -111466.256513 kJ/mol
# GULP energy per Si atom -5573.312826 kJ/mol
# Density = 2.157856 g / cm^3
# Si number density = 21.627787 Si / 1000 Ang^3
#
#
#
# Elastic Constant Matrix: (Units=GPa)
#
#
# Indices 1 2 3 4 5 6 
#
# 1 91.1837 19.3487 34.9652 0.0000 0.0000 0.0000
# 2 19.3487 60.3291 37.4247 0.0000 0.0000 0.0000
# 3 34.9652 37.4247 144.9005 0.0000 0.0000 0.0000
# 4 0.0000 0.0000 0.0000 30.9198 0.0000 0.0000
# 5 0.0000 0.0000 0.0000 0.0000 54.2424 0.0000
# 6 0.0000 0.0000 0.0000 0.0000 0.0000 12.3563
#
#
#
# Elastic Compliance Matrix: (Units=1/GPa)
#
#
# Indices 1 2 3 4 5 6 
#
# 1 0.012400 -0.002525 -0.002340 0.000000 0.000000 0.000000
# 2 -0.002525 0.020253 -0.004621 0.000000 0.000000 0.000000
# 3 -0.002340 -0.004621 0.008660 0.000000 0.000000 0.000000
# 4 0.000000 0.000000 0.000000 0.032342 0.000000 0.000000
# 5 0.000000 0.000000 0.000000 0.000000 0.018436 0.000000
# 6 0.000000 0.000000 0.000000 0.000000 0.000000 0.080930
#
#
# Mechanical properties :
#
#
# Convention : Reuss Voigt Hill
#
# Bulk Modulus (GPa) = 44.76544 53.32117 49.04331
# Shear Modulus (GPa) = 25.07027 33.14869 29.10948
#
# Velocity S-wave (km/s) = 3.40835 3.91921 3.67267
# Velocity P-wave (km/s) = 6.01932 6.72218 6.38044
#
# Compressibility (1/GPa) = 0.02233866
#
# Stress axis : x y z
#
# Youngs Moduli (GPa) = 80.64516 49.37650 115.47956
#
# Poissons Ratio (x) = 0.12469 0.27021
# Poissons Ratio (y) = 0.20366 0.53368
# Poissons Ratio (z) = 0.18870 0.22819
#
# Static dielectric constant tensor:
#      x y z
#    x 1.784070 0.000000 0.000000 
#    y 0.000000 1.898350 0.000000 
#    z 0.000000 0.000000 1.792010 
# 
# From -- ./inp_files/17291.got.cif
#   From: 2010.05.17/outbox.cif.g08.bks.cpg/sg46_9_cif.got.tgz:17291.got - 2010.06.03 19:58:25.
