data_PCOD9379930
_publ_section_title
;
Structure prediction by ZEFSAII (Michael W. Deem and Ramdas Pophale) SiO2 
 PCOD9379930
Probable space group: I M A 2
;
_chemical_formula_sum "Si O2"
_cell_formula_units_Z 52
_cell_length_a 7.686982
_cell_length_b 16.550770
_cell_length_c 17.814535
_cell_angle_alpha 90.000000
_cell_angle_beta 90.000000
_cell_angle_gamma 90.000000
_cell_volume 2266.462607
_symmetry_space_group_name_H-M "I M A 2"
_symmetry_group_IT_number 46
_symmetry_cell_setting 'orthorhombic'
loop_
_space_group_symop_operation_xyz
x,y,z
-x,-y,z
1/2-x,y,z
1/2+x,-y,z
1/2+x,1/2+y,1/2+z
1/2-x,1/2-y,1/2+z
-x,1/2+y,1/2+z
x,1/2-y,1/2+z
loop_
_atom_site_type_symbol
_atom_site_label
_atom_site_fract_x
_atom_site_fract_y
_atom_site_fract_z
Si Si1 0.458626 0.905371 0.693470
Si Si2 0.934366 0.871610 0.020309
Si Si3 0.955904 0.905297 0.414094
Si Si4 0.042206 0.403690 0.740774
Si Si5 0.250000 0.617504 0.622600
Si Si6 0.042366 0.595114 0.356281
Si Si7 0.050188 0.698834 0.053440
O O1 0.250000 0.899389 0.694367
O O2 0.521555 0.875138 0.774757
O O3 0.516299 0.855092 0.621845
O O4 0.500000 0.000000 0.684868
O O5 0.250000 0.893021 0.860951
O O6 0.958103 0.871100 0.930817
O O7 0.097426 0.908862 0.061909
O O8 0.940469 0.778174 0.043208
O O9 0.750000 0.895235 0.425350
O O10 0.995215 0.882245 0.327906
O O11 0.049200 0.853418 0.477743
O O12 0.000000 0.000000 0.422786
O O13 0.250000 0.391983 0.726763
O O14 0.000000 0.500000 0.733495
O O15 0.906517 0.362536 0.684907
O O16 0.250000 0.408663 0.540846
O O17 0.000000 0.500000 0.356158
O O18 0.250000 0.728861 0.069197
#
# Coordination Sequence:
#
# PCOD9379930 Si02
#       7
#     8   8   8   8   4   8   8
#     4   9  20  37  66  98 131 165 212 267 325 380
#     4  12  26  46  64  93 131 170 222 268 327 393
#     4  10  21  37  63  97 131 171 215 263 322 389
#     4  10  21  40  64  96 133 167 212 266 323 388
#     4  12  24  44  64  90 128 174 216 270 320 384
#     4  10  20  42  66  95 127 167 214 270 324 383
#     4  11  22  41  64  94 133 175 214 271 326 388
#
# _framework density 22.943239999999999
#
# number of rings (size 3 to 8) (size 9 to 14) (size 15 to 20)
#    0.000    1.538    2.308    2.308    2.154    3.692 
#    5.538    0.000    0.000    0.000    0.000    0.000 
#    0.000    0.000    0.000    0.000    0.000    0.000 
#
# Total GULP energy -144930.416855 kJ/mol
# GULP energy per Si atom -5574.246802 kJ/mol
# Density = 2.289102 g / cm^3
# Si number density = 22.943240 Si / 1000 Ang^3
#
#
#
# Elastic Constant Matrix: (Units=GPa)
#
#
# Indices 1 2 3 4 5 6 
#
# 1 164.0538 18.5663 63.8454 0.0000 0.0000 0.0000
# 2 18.5663 39.9389 39.0143 0.0000 0.0000 0.0000
# 3 63.8454 39.0143 172.2197 0.0000 0.0000 0.0000
# 4 0.0000 0.0000 0.0000 276.5369 0.0000 0.0000
# 5 0.0000 0.0000 0.0000 0.0000 28.7402 0.0000
# 6 0.0000 0.0000 0.0000 0.0000 0.0000 33.6392
#
#
#
# Elastic Compliance Matrix: (Units=1/GPa)
#
#
# Indices 1 2 3 4 5 6 
#
# 1 0.007151 -0.000943 -0.002437 0.000000 0.000000 0.000000
# 2 -0.000943 0.032278 -0.006962 0.000000 0.000000 0.000000
# 3 -0.002437 -0.006962 0.008287 0.000000 0.000000 0.000000
# 4 0.000000 0.000000 0.000000 0.003616 0.000000 0.000000
# 5 0.000000 0.000000 0.000000 0.000000 0.034794 0.000000
# 6 0.000000 0.000000 0.000000 0.000000 0.000000 0.029727
#
#
# Mechanical properties :
#
#
# Convention : Reuss Voigt Hill
#
# Bulk Modulus (GPa) = 36.99585 68.78493 52.89039
# Shear Modulus (GPa) = 34.35238 84.76903 59.56071
#
# Velocity S-wave (km/s) = 3.87366 6.08502 5.10063
# Velocity P-wave (km/s) = 6.01390 8.91154 7.60206
#
# Compressibility (1/GPa) = 0.02703006
#
# Stress axis : x y z
#
# Youngs Moduli (GPa) = 139.84376 30.98078 120.66585
#
# Poissons Ratio (x) = 0.02923 0.29409
# Poissons Ratio (y) = 0.13192 0.84013
# Poissons Ratio (z) = 0.34084 0.21570
#
# Static dielectric constant tensor:
#      x y z
#    x 1.877890 0.000000 0.000000 
#    y 0.000000 1.914470 0.000000 
#    z 0.000000 0.000000 1.888810 
# 
# From -- ./inp_files/18296.got.cif
#   From: 2010.05.17/outbox.cif.g08.bks.cpg/sg46_10_cif.got.tgz:18296.got - 2010.06.03 19:58:25.
