data_PCOD9379464
_publ_section_title
;
Structure prediction by ZEFSAII (Michael W. Deem and Ramdas Pophale) SiO2 
 PCOD9379464
Probable space group: I M A 2
;
_chemical_formula_sum "Si O2"
_cell_formula_units_Z 48
_cell_length_a 8.894797
_cell_length_b 22.695840
_cell_length_c 11.781614
_cell_angle_alpha 90.000000
_cell_angle_beta 90.000000
_cell_angle_gamma 90.000000
_cell_volume 2378.412025
_symmetry_space_group_name_H-M "I M A 2"
_symmetry_group_IT_number 46
_symmetry_cell_setting 'orthorhombic'
loop_
_space_group_symop_operation_xyz
x,y,z
-x,-y,z
1/2-x,y,z
1/2+x,-y,z
1/2+x,1/2+y,1/2+z
1/2-x,1/2-y,1/2+z
-x,1/2+y,1/2+z
x,1/2-y,1/2+z
loop_
_atom_site_type_symbol
_atom_site_label
_atom_site_fract_x
_atom_site_fract_y
_atom_site_fract_z
Si Si1 0.580326 0.161218 0.500000
Si Si2 0.573926 0.866830 0.265990
Si Si3 0.921110 0.058567 0.684027
Si Si4 0.428743 0.135708 0.872042
Si Si5 0.071313 0.564095 0.571481
Si Si6 0.427462 0.266562 0.191927
O O1 0.750000 0.175861 0.462908
O O2 0.480223 0.143174 0.393883
O O3 0.585444 0.105850 0.584476
O O4 0.512432 0.211999 0.579806
O O5 0.750000 0.882088 0.261099
O O6 0.480278 0.914713 0.196123
O O7 0.553230 0.802346 0.210578
O O8 0.750000 0.048527 0.725091
O O9 0.024392 0.085328 0.782624
O O10 0.000000 0.000000 0.642129
O O11 0.250000 0.138123 0.892254
O O12 0.474264 0.195766 0.804561
O O13 0.510081 0.114664 0.986060
O O14 0.250000 0.560029 0.562887
O O15 0.000000 0.500000 0.544964
O O16 0.250000 0.279431 0.176817
#
# Coordination Sequence:
#
# PCOD9379464 Si02
#       6
#     8   8   8   8   8   8
#     4  10  22  39  59  88 122 156 201 253 306 365
#     4  11  24  42  64  90 123 165 207 255 312 378
#     4  10  20  35  57  86 119 156 199 248 301 358
#     4  10  20  38  63  92 124 161 204 254 306 367
#     4  12  26  44  64  91 126 169 214 262 315 377
#     4   9  21  40  64  91 122 161 205 252 311 374
#
# _framework density 20.181532000000001
#
# number of rings (size 3 to 8) (size 9 to 14) (size 15 to 20)
#    0.000    1.667    0.000    4.000    2.333    4.667 
#    0.000    1.667    0.000    0.000    0.000    0.000 
#    0.000    0.000    0.000    0.000    0.000    0.000 
#
# Total GULP energy -134081.303840 kJ/mol
# GULP energy per Si atom -5586.720993 kJ/mol
# Density = 2.013560 g / cm^3
# Si number density = 20.181532 Si / 1000 Ang^3
#
#
#
# Elastic Constant Matrix: (Units=GPa)
#
#
# Indices 1 2 3 4 5 6 
#
# 1 81.2629 35.6438 23.4631 0.0000 0.0000 0.0000
# 2 35.6438 28.8444 6.7861 0.0000 -0.0001 0.0000
# 3 23.4631 6.7861 79.2004 0.0001 0.0001 0.0000
# 4 0.0000 0.0000 0.0001 4.2044 0.0000 0.0000
# 5 0.0000 -0.0001 0.0001 0.0000 56.1174 0.0001
# 6 0.0000 0.0000 0.0000 0.0000 0.0001 24.4172
#
#
#
# Elastic Compliance Matrix: (Units=1/GPa)
#
#
# Indices 1 2 3 4 5 6 
#
# 1 0.029165 -0.034707 -0.005666 0.000000 0.000000 0.000000
# 2 -0.034707 0.076684 0.003711 0.000000 0.000000 0.000000
# 3 -0.005666 0.003711 0.013987 0.000000 0.000000 0.000000
# 4 0.000000 0.000000 0.000000 0.237847 0.000000 0.000000
# 5 0.000000 0.000000 0.000000 0.000000 0.017820 0.000000
# 6 0.000000 0.000000 0.000000 0.000000 0.000000 0.040955
#
#
# Mechanical properties :
#
#
# Convention : Reuss Voigt Hill
#
# Bulk Modulus (GPa) = 21.49977 35.67708 28.58842
# Shear Modulus (GPa) = 9.89540 25.17544 17.53542
#
# Velocity S-wave (km/s) = 2.21672 3.53576 2.95088
# Velocity P-wave (km/s) = 4.15067 5.86389 5.08003
#
# Compressibility (1/GPa) = 0.04651213
#
# Stress axis : x y z
#
# Youngs Moduli (GPa) = 34.28748 13.04051 71.49573
#
# Poissons Ratio (x) = 0.45260 0.40512
# Poissons Ratio (y) = 1.19002 -0.26536
# Poissons Ratio (z) = 0.19429 -0.04840
#
# Static dielectric constant tensor:
#      x y z
#    x 1.704080 0.000000 0.000000 
#    y 0.000000 1.706850 0.000000 
#    z 0.000000 0.000000 1.719940 
# 
# From -- ./inp_files/9311.got.cif
#   From: 2010.05.17/outbox.cif.g08.bks.cpg/sg46_5_cif.got.tgz:9311.got - 2010.06.03 19:58:25.
