data_PCOD9379434
_publ_section_title
;
Structure prediction by ZEFSAII (Michael W. Deem and Ramdas Pophale) SiO2 
 PCOD9379434
Probable space group: I M A 2
;
_chemical_formula_sum "Si O2"
_cell_formula_units_Z 64
_cell_length_a 8.548612
_cell_length_b 14.950521
_cell_length_c 24.347758
_cell_angle_alpha 90.000000
_cell_angle_beta 90.000000
_cell_angle_gamma 90.000000
_cell_volume 3111.794507
_symmetry_space_group_name_H-M "I M A 2"
_symmetry_group_IT_number 46
_symmetry_cell_setting 'orthorhombic'
loop_
_space_group_symop_operation_xyz
x,y,z
-x,-y,z
1/2-x,y,z
1/2+x,-y,z
1/2+x,1/2+y,1/2+z
1/2-x,1/2-y,1/2+z
-x,1/2+y,1/2+z
x,1/2-y,1/2+z
loop_
_atom_site_type_symbol
_atom_site_label
_atom_site_fract_x
_atom_site_fract_y
_atom_site_fract_z
Si Si1 0.565459 0.899939 0.125000
Si Si2 0.564575 0.097523 0.781682
Si Si3 0.436865 0.690801 0.395513
Si Si4 0.928557 0.881815 0.391309
Si Si5 0.061577 0.591904 0.011258
Si Si6 0.068073 0.238992 0.215888
Si Si7 0.934616 0.300692 0.523548
Si Si8 0.428413 0.590192 0.782739
O O1 0.750000 0.905388 0.135488
O O2 0.501958 0.821585 0.165812
O O3 0.530227 0.862642 0.064544
O O4 0.500000 0.000000 0.131811
O O5 0.750000 0.096350 0.779282
O O6 0.524294 0.125488 0.844902
O O7 0.507576 0.169754 0.736946
O O8 0.500000 0.000000 0.769905
O O9 0.250000 0.714484 0.389635
O O10 0.547273 0.775753 0.388475
O O11 0.456618 0.668525 0.460060
O O12 0.750000 0.906437 0.378275
O O13 0.975946 0.908236 0.452437
O O14 0.055579 0.916364 0.348047
O O15 0.250000 0.586752 0.005716
O O16 0.027540 0.694080 0.031664
O O17 0.000000 0.500000 0.039925
O O18 0.250000 0.255663 0.205625
O O19 0.039214 0.170910 0.265900
O O20 0.750000 0.310180 0.535629
O O21 0.500000 0.500000 0.758414
O O22 0.250000 0.605022 0.766431
#
# Coordination Sequence:
#
# PCOD9379434 Si02
#       8
#     8   8   8   8   8   8   8   8
#     4  11  25  44  68  95 125 160 206 262 316 378
#     4  11  23  40  65  94 129 169 208 256 312 373
#     4   9  19  37  59  88 125 166 208 254 309 365
#     4  11  20  31  51  80 117 161 202 247 299 361
#     4  10  20  35  55  83 121 163 206 254 305 365
#     4  11  24  43  64  90 122 158 205 258 314 374
#     4   9  20  39  63  91 127 167 210 261 312 369
#     4  12  23  35  53  81 116 156 200 248 303 365
#
# _framework density 20.566911000000001
#
# number of rings (size 3 to 8) (size 9 to 14) (size 15 to 20)
#    0.000    1.500    1.250    5.250    0.000    6.500 
#    0.000    1.875    0.000    1.500    0.000    0.000 
#    0.000    0.000    0.000    0.000    0.000    0.000 
#
# Total GULP energy -178473.875503 kJ/mol
# GULP energy per Si atom -5577.308609 kJ/mol
# Density = 2.052010 g / cm^3
# Si number density = 20.566911 Si / 1000 Ang^3
#
#
#
# Elastic Constant Matrix: (Units=GPa)
#
#
# Indices 1 2 3 4 5 6 
#
# 1 51.5755 38.4667 27.5244 0.0000 0.0000 0.0000
# 2 38.4667 158.1302 46.0833 0.0000 0.0000 0.0000
# 3 27.5244 46.0833 71.6935 0.0000 0.0000 0.0000
# 4 0.0000 0.0000 0.0000 19.9793 0.0000 0.0000
# 5 0.0000 0.0000 0.0000 0.0000 21.3964 0.0000
# 6 0.0000 0.0000 0.0000 0.0000 0.0000 35.1187
#
#
#
# Elastic Compliance Matrix: (Units=1/GPa)
#
#
# Indices 1 2 3 4 5 6 
#
# 1 0.026560 -0.004294 -0.007437 0.000000 0.000000 0.000000
# 2 -0.004294 0.008476 -0.003800 0.000000 0.000000 0.000000
# 3 -0.007437 -0.003800 0.019246 0.000000 0.000000 0.000000
# 4 0.000000 0.000000 0.000000 0.050052 0.000000 0.000000
# 5 0.000000 0.000000 0.000000 0.000000 0.046737 0.000000
# 6 0.000000 0.000000 0.000000 0.000000 0.000000 0.028475
#
#
# Mechanical properties :
#
#
# Convention : Reuss Voigt Hill
#
# Bulk Modulus (GPa) = 43.06425 56.17200 49.61813
# Shear Modulus (GPa) = 22.89940 26.58721 24.74331
#
# Velocity S-wave (km/s) = 3.34040 3.59934 3.47228
# Velocity P-wave (km/s) = 5.98847 6.68167 6.34455
#
# Compressibility (1/GPa) = 0.02322112
#
# Stress axis : x y z
#
# Youngs Moduli (GPa) = 37.65007 117.98444 51.95942
#
# Poissons Ratio (x) = 0.50659 0.38643
# Poissons Ratio (y) = 0.16166 0.19742
# Poissons Ratio (z) = 0.28001 0.44829
#
# Static dielectric constant tensor:
#      x y z
#    x 1.698210 0.000000 0.000000 
#    y 0.000000 1.764140 0.000000 
#    z 0.000000 0.000000 1.786320 
# 
# From -- ./inp_files/23227.got.cif
#   From: 2010.05.17/outbox.cif.g08.bks.cpg/sg46_12_cif.got.tgz:23227.got - 2010.06.03 19:58:25.
