data_PCOD9379945
_publ_section_title
;
Structure prediction by ZEFSAII (Michael W. Deem and Ramdas Pophale) SiO2 
 PCOD9379945
Probable space group: I M A 2
;
_chemical_formula_sum "Si O2"
_cell_formula_units_Z 64
_cell_length_a 7.522099
_cell_length_b 33.855254
_cell_length_c 12.214363
_cell_angle_alpha 90.000000
_cell_angle_beta 90.000000
_cell_angle_gamma 90.000000
_cell_volume 3110.541100
_symmetry_space_group_name_H-M "I M A 2"
_symmetry_group_IT_number 46
_symmetry_cell_setting 'orthorhombic'
loop_
_space_group_symop_operation_xyz
x,y,z
-x,-y,z
1/2-x,y,z
1/2+x,-y,z
1/2+x,1/2+y,1/2+z
1/2-x,1/2-y,1/2+z
-x,1/2+y,1/2+z
x,1/2-y,1/2+z
loop_
_atom_site_type_symbol
_atom_site_label
_atom_site_fract_x
_atom_site_fract_y
_atom_site_fract_z
Si Si1 0.547715 0.901669 0.432810
Si Si2 0.040382 0.120548 0.867047
Si Si3 0.461989 0.726218 0.992302
Si Si4 0.962935 0.953906 0.244281
Si Si5 0.535274 0.648561 0.131372
Si Si6 0.533451 0.174043 0.295590
Si Si7 0.465333 0.813522 0.047332
Si Si8 0.463825 0.046702 0.001183
O O1 0.750000 0.914185 0.458915
O O2 0.462286 0.934169 0.354066
O O3 0.467899 0.884256 0.544380
O O4 0.547240 0.864023 0.352845
O O5 0.250000 0.114221 0.848126
O O6 0.969141 0.138068 0.752625
O O7 0.969059 0.078628 0.912904
O O8 0.020713 0.153363 0.961136
O O9 0.250000 0.729981 0.986136
O O10 0.494667 0.691976 0.082482
O O11 0.531723 0.769605 0.018350
O O12 0.521282 0.710138 0.874058
O O13 0.750000 0.946757 0.245039
O O14 0.029268 0.941322 0.123535
O O15 0.000000 0.000000 0.248806
O O16 0.750000 0.646609 0.130313
O O17 0.750000 0.171004 0.299743
O O18 0.477925 0.177145 0.170739
O O19 0.250000 0.812967 0.047213
O O20 0.250000 0.049999 0.004070
O O21 0.500000 0.000000 0.981915
#
# Coordination Sequence:
#
# PCOD9379945 Si02
#       8
#     8   8   8   8   8   8   8   8
#     4   9  17  32  52  71  95 129 165 200 246 300
#     4  10  21  36  53  76 105 137 174 217 259 305
#     4   9  19  34  52  72  99 133 167 208 256 303
#     4   9  17  29  48  73  98 126 159 201 252 303
#     4   9  19  35  53  73 100 135 173 211 253 302
#     4   9  18  32  48  71  97 124 162 204 248 293
#     4  10  21  33  51  76 101 132 169 211 255 304
#     4   9  18  33  52  74 102 134 169 210 260 308
#
# _framework density 20.575199000000001
#
# number of rings (size 3 to 8) (size 9 to 14) (size 15 to 20)
#    0.000    2.750    0.000    0.750    1.750    3.500 
#    0.000    3.125    0.000    0.000    0.000    0.000 
#    0.000    0.000    0.000    0.000    0.000    0.000 
#
# Total GULP energy -178397.063827 kJ/mol
# GULP energy per Si atom -5574.908245 kJ/mol
# Density = 2.052837 g / cm^3
# Si number density = 20.575199 Si / 1000 Ang^3
#
#
#
# Elastic Constant Matrix: (Units=GPa)
#
#
# Indices 1 2 3 4 5 6 
#
# 1 51.3532 -9.1634 -5.4177 -0.0001 0.0000 -0.0001
# 2 -9.1634 83.3451 68.3789 -0.0002 -0.0001 -0.0001
# 3 -5.4177 68.3789 160.2542 -0.0006 0.0000 -0.0002
# 4 -0.0001 -0.0002 -0.0006 -3.0433 0.0000 -0.0002
# 5 0.0000 -0.0001 0.0000 0.0000 15.7565 0.0000
# 6 -0.0001 -0.0001 -0.0002 -0.0002 0.0000 25.4204
#
#
#
# Elastic Compliance Matrix: (Units=1/GPa)
#
#
# Indices 1 2 3 4 5 6 
#
# 1 0.019879 0.002515 -0.000401 -0.000001 0.000000 0.000000
# 2 0.002515 0.018779 -0.007928 0.000000 0.000000 0.000000
# 3 -0.000401 -0.007928 0.009609 -0.000001 0.000000 0.000000
# 4 -0.000001 0.000000 -0.000001 -0.328592 0.000000 -0.000002
# 5 0.000000 0.000000 0.000000 0.000000 0.063466 0.000000
# 6 0.000000 0.000000 0.000000 -0.000002 0.000000 0.039338
#
#
# Mechanical properties :
#
#
# Convention : Reuss Voigt Hill
#
# Bulk Modulus (GPa) = 27.29307 44.72757 36.01032
# Shear Modulus (GPa) = -32.53543 23.70370 -4.41586
#
# Velocity S-wave (km/s) = -3.98086 3.39787 -1.46658
# Velocity P-wave (km/s) = 2.79926 6.09753 3.83040
#
# Compressibility (1/GPa) = 0.03663933
#
# Stress axis : x y z
#
# Youngs Moduli (GPa) = 50.30337 53.25098 104.06632
#
# Poissons Ratio (x) = -0.13390 0.04172
# Poissons Ratio (y) = -0.12649 0.82502
# Poissons Ratio (z) = 0.02016 0.42216
#
# Static dielectric constant tensor:
#      x y z
#    x 1.782130 0.000000 0.000000 
#    y 0.000000 1.735480 0.000000 
#    z 0.000000 0.000000 1.757810 
# 
# From -- ./inp_files/9739.got.cif
#   From: 2010.05.17/outbox.cif.g08.bks.cpg/sg46_5_cif.got.tgz:9739.got - 2010.06.03 19:58:25.
