data_PCOD9379600
_publ_section_title
;
Structure prediction by ZEFSAII (Michael W. Deem and Ramdas Pophale) SiO2 
 PCOD9379600
Probable space group: I M A 2
;
_chemical_formula_sum "Si O2"
_cell_formula_units_Z 64
_cell_length_a 21.901909
_cell_length_b 8.853501
_cell_length_c 16.001465
_cell_angle_alpha 90.000000
_cell_angle_beta 90.000000
_cell_angle_gamma 90.000000
_cell_volume 3102.821248
_symmetry_space_group_name_H-M "I M A 2"
_symmetry_group_IT_number 46
_symmetry_cell_setting 'orthorhombic'
loop_
_space_group_symop_operation_xyz
x,y,z
-x,-y,z
1/2-x,y,z
1/2+x,-y,z
1/2+x,1/2+y,1/2+z
1/2-x,1/2-y,1/2+z
-x,1/2+y,1/2+z
x,1/2-y,1/2+z
loop_
_atom_site_type_symbol
_atom_site_label
_atom_site_fract_x
_atom_site_fract_y
_atom_site_fract_z
Si Si1 0.068519 0.860381 0.458870
Si Si2 0.816528 0.820573 0.896958
Si Si3 0.182438 0.818238 0.210209
Si Si4 0.560889 0.813956 0.396839
Si Si5 0.316528 0.179427 0.209592
Si Si6 0.817562 0.181762 0.896341
Si Si7 0.560889 0.686044 0.209711
Si Si8 0.568519 0.139619 0.647680
O O1 0.125637 0.752359 0.444575
O O2 0.069271 0.919509 0.553275
O O3 0.003136 0.783620 0.442239
O O4 0.070914 0.005348 0.398155
O O5 0.750000 0.782990 0.934952
O O6 0.878182 0.756621 0.936846
O O7 0.815755 0.750000 0.803275
O O8 0.821497 0.000990 0.891978
O O9 0.250000 0.779749 0.175343
O O10 0.179876 0.750000 0.303275
O O11 0.125637 0.747640 0.161975
O O12 0.178503 0.999010 0.214571
O O13 0.555055 0.750000 0.303275
O O14 0.250000 0.217010 0.171598
O O15 0.378182 0.243379 0.169704
O O16 0.750000 0.220251 0.931207
O O17 0.496864 0.716380 0.164311
O O18 0.570914 0.505348 0.208396
#
# Coordination Sequence:
#
# PCOD9379600 Si02
#       8
#     8   8   8   8   8   8   8   8
#     4  11  24  41  59  86 125 161 197 248 310 365
#     4   9  18  33  56  87 116 143 187 246 295 338
#     4  10  20  36  61  90 118 154 203 249 290 351
#     4  10  20  36  61  87 114 153 202 248 295 359
#     4   9  18  33  56  87 116 143 187 246 295 338
#     4  10  20  36  61  90 118 154 203 249 290 351
#     4  10  20  36  61  87 114 153 202 248 295 359
#     4  11  24  41  59  86 125 161 197 248 310 365
#
# _framework density 20.626390000000001
#
# number of rings (size 3 to 8) (size 9 to 14) (size 15 to 20)
#    0.000    2.000    0.000    5.250    0.000    8.500 
#    0.000    3.750    0.000    5.250    0.000    0.000 
#    0.000    0.000    0.000    0.000    0.000    0.000 
#
# Total GULP energy -178552.948758 kJ/mol
# GULP energy per Si atom -5579.779649 kJ/mol
# Density = 2.057944 g / cm^3
# Si number density = 20.626390 Si / 1000 Ang^3
#
#
#
# Elastic Constant Matrix: (Units=GPa)
#
#
# Indices 1 2 3 4 5 6 
#
# 1 228.9084 74.7900 20.6906 0.0000 0.0000 0.0000
# 2 74.7900 81.3078 21.8670 0.0000 0.0000 0.0000
# 3 20.6906 21.8670 50.1145 0.0000 0.0000 0.0000
# 4 0.0000 0.0000 0.0000 8.3985 0.0000 0.0000
# 5 0.0000 0.0000 0.0000 0.0000 -24.9333 0.0000
# 6 0.0000 0.0000 0.0000 0.0000 0.0000 41.8171
#
#
#
# Elastic Compliance Matrix: (Units=1/GPa)
#
#
# Indices 1 2 3 4 5 6 
#
# 1 0.006246 -0.005723 -0.000081 0.000000 0.000000 0.000000
# 2 -0.005723 0.019179 -0.006005 0.000000 0.000000 0.000000
# 3 -0.000081 -0.006005 0.022608 0.000000 0.000000 0.000000
# 4 0.000000 0.000000 0.000000 0.119069 0.000000 0.000000
# 5 0.000000 0.000000 0.000000 0.000000 -0.040107 0.000000
# 6 0.000000 0.000000 0.000000 0.000000 0.000000 0.023914
#
#
# Mechanical properties :
#
#
# Convention : Reuss Voigt Hill
#
# Bulk Modulus (GPa) = 40.96265 66.11400 53.53832
# Shear Modulus (GPa) = 27.37240 21.25533 24.31386
#
# Velocity S-wave (km/s) = 3.64683 3.21361 3.43705
# Velocity P-wave (km/s) = 6.13473 6.77439 6.46248
#
# Compressibility (1/GPa) = 0.02441248
#
# Stress axis : x y z
#
# Youngs Moduli (GPa) = 160.10618 52.14161 44.23150
#
# Poissons Ratio (x) = 0.29842 0.00360
# Poissons Ratio (y) = 0.91633 0.26563
# Poissons Ratio (z) = 0.01303 0.31313
#
# Static dielectric constant tensor:
#      x y z
#    x 1.801120 0.000000 0.000000 
#    y 0.000000 1.706130 0.000000 
#    z 0.000000 0.000000 1.706510 
# 
# From -- ./inp_files/20267.got.cif
#   From: 2010.05.17/outbox.cif.g08.bks.cpg/sg46_11_cif.got.tgz:20267.got - 2010.06.03 19:58:25.
