data_PCOD9379904
_publ_section_title
;
Structure prediction by ZEFSAII (Michael W. Deem and Ramdas Pophale) SiO2 
 PCOD9379904
Probable space group: I M A 2
;
_chemical_formula_sum "Si O2"
_cell_formula_units_Z 64
_cell_length_a 25.200184
_cell_length_b 12.833429
_cell_length_c 9.152623
_cell_angle_alpha 90.000000
_cell_angle_beta 90.000000
_cell_angle_gamma 90.000000
_cell_volume 2960.001956
_symmetry_space_group_name_H-M "I M A 2"
_symmetry_group_IT_number 46
_symmetry_cell_setting 'orthorhombic'
loop_
_space_group_symop_operation_xyz
x,y,z
-x,-y,z
1/2-x,y,z
1/2+x,-y,z
1/2+x,1/2+y,1/2+z
1/2-x,1/2-y,1/2+z
-x,1/2+y,1/2+z
x,1/2-y,1/2+z
loop_
_atom_site_type_symbol
_atom_site_label
_atom_site_fract_x
_atom_site_fract_y
_atom_site_fract_z
Si Si1 0.455565 0.583113 0.954560
Si Si2 0.407229 0.285294 0.610646
Si Si3 0.482978 0.618604 0.648099
Si Si4 0.810122 0.538382 0.121130
Si Si5 0.868969 0.367050 0.500112
Si Si6 0.885589 0.610495 0.916012
Si Si7 0.686824 0.911324 0.950586
Si Si8 0.124947 0.671372 0.165327
O O1 0.500000 0.500000 0.004104
O O2 0.474440 0.652352 0.817457
O O3 0.410704 0.503211 0.891490
O O4 0.431345 0.652520 0.083526
O O5 0.466124 0.327707 0.575931
O O6 0.396659 0.317407 0.778036
O O7 0.409446 0.165657 0.560600
O O8 0.357046 0.337023 0.525803
O O9 0.500000 0.500000 0.666611
O O10 0.427602 0.614072 0.564229
O O11 0.750000 0.506605 0.118184
O O12 0.817968 0.599393 0.274140
O O13 0.844511 0.434737 0.131359
O O14 0.825732 0.596318 0.971730
O O15 0.833272 0.471142 0.491746
O O16 0.876987 0.322906 0.338090
O O17 0.847449 0.273213 0.599397
O O18 0.750000 0.897004 0.987291
#
# Coordination Sequence:
#
# PCOD9379904 Si02
#       8
#     8   8   8   8   8   8   8   8
#     4  10  20  41  59  85 121 166 197 248 299 356
#     4  12  24  40  61  94 123 163 204 250 304 365
#     4  11  21  40  64  85 128 162 202 248 298 363
#     4   9  21  44  66  86 118 161 205 260 310 361
#     4  11  22  39  60  93 124 163 204 251 310 365
#     4  11  23  39  62  89 123 156 206 247 301 363
#     4  10  22  43  66  88 120 158 206 260 311 363
#     4  10  23  37  60  92 125 158 207 252 302 372
#
# _framework density 21.621607999999998
#
# number of rings (size 3 to 8) (size 9 to 14) (size 15 to 20)
#    0.000    1.500    3.750    1.500    1.750    4.000 
#    2.250    0.000    0.000    0.000    0.000    0.000 
#    0.000    0.000    0.000    0.000    0.000    0.000 
#
# Total GULP energy -178508.990785 kJ/mol
# GULP energy per Si atom -5578.405962 kJ/mol
# Density = 2.157240 g / cm^3
# Si number density = 21.621608 Si / 1000 Ang^3
#
#
#
# Elastic Constant Matrix: (Units=GPa)
#
#
# Indices 1 2 3 4 5 6 
#
# 1 105.2993 -1.7137 31.6044 0.0000 0.0000 0.0000
# 2 -1.7137 35.8080 13.4274 0.0000 0.0000 0.0000
# 3 31.6044 13.4274 84.8576 0.0000 0.0000 0.0000
# 4 0.0000 0.0000 0.0000 36.4303 0.0000 0.0000
# 5 0.0000 0.0000 0.0000 0.0000 22.8645 0.0000
# 6 0.0000 0.0000 0.0000 0.0000 0.0000 2.9421
#
#
#
# Elastic Compliance Matrix: (Units=1/GPa)
#
#
# Indices 1 2 3 4 5 6 
#
# 1 0.010847 0.002162 -0.004382 0.000000 0.000000 0.000000
# 2 0.002162 0.030119 -0.005571 0.000000 0.000000 0.000000
# 3 -0.004382 -0.005571 0.014298 0.000000 0.000000 0.000000
# 4 0.000000 0.000000 0.000000 0.027450 0.000000 0.000000
# 5 0.000000 0.000000 0.000000 0.000000 0.043736 0.000000
# 6 0.000000 0.000000 0.000000 0.000000 0.000000 0.339891
#
#
# Mechanical properties :
#
#
# Convention : Reuss Voigt Hill
#
# Bulk Modulus (GPa) = 25.19998 34.73345 29.96671
# Shear Modulus (GPa) = 10.09795 24.62383 17.36089
#
# Velocity S-wave (km/s) = 2.16343 3.37835 2.83670
# Velocity P-wave (km/s) = 4.23331 5.59614 4.96174
#
# Compressibility (1/GPa) = 0.03968258
#
# Stress axis : x y z
#
# Youngs Moduli (GPa) = 92.19011 33.20126 69.93955
#
# Poissons Ratio (x) = -0.07179 0.30648
# Poissons Ratio (y) = -0.19934 0.38965
# Poissons Ratio (z) = 0.40398 0.18497
#
# Static dielectric constant tensor:
#      x y z
#    x 1.838820 0.000000 0.000000 
#    y 0.000000 1.809360 0.000000 
#    z 0.000000 0.000000 1.811140 
# 
# From -- ./inp_files/7955.got.cif
#   From: 2010.05.17/outbox.cif.g08.bks.cpg/sg46_4_cif.got.tgz:7955.got - 2010.06.03 19:58:25.
