data_PCOD9379619
_publ_section_title
;
Structure prediction by ZEFSAII (Michael W. Deem and Ramdas Pophale) SiO2 
 PCOD9379619
Probable space group: I M A 2
;
_chemical_formula_sum "Si O2"
_cell_formula_units_Z 56
_cell_length_a 20.509098
_cell_length_b 8.632418
_cell_length_c 13.194340
_cell_angle_alpha 90.000000
_cell_angle_beta 90.000000
_cell_angle_gamma 90.000000
_cell_volume 2335.966945
_symmetry_space_group_name_H-M "I M A 2"
_symmetry_group_IT_number 46
_symmetry_cell_setting 'orthorhombic'
loop_
_space_group_symop_operation_xyz
x,y,z
-x,-y,z
1/2-x,y,z
1/2+x,-y,z
1/2+x,1/2+y,1/2+z
1/2-x,1/2-y,1/2+z
-x,1/2+y,1/2+z
x,1/2-y,1/2+z
loop_
_atom_site_type_symbol
_atom_site_label
_atom_site_fract_x
_atom_site_fract_y
_atom_site_fract_z
Si Si1 0.678489 0.670567 0.000000
Si Si2 0.675001 0.510386 0.377695
Si Si3 0.083619 0.849666 0.039651
Si Si4 0.179296 0.512777 0.815341
Si Si5 0.825826 0.326612 0.192216
Si Si6 0.032614 0.334999 0.076896
Si Si7 0.055045 0.405889 0.720421
O O1 0.750000 0.683771 0.052797
O O2 0.609416 0.671585 0.055207
O O3 0.679882 0.512676 0.934857
O O4 0.675997 0.816095 0.922130
O O5 0.750000 0.452627 0.389676
O O6 0.625714 0.415723 0.448382
O O7 0.659167 0.478502 0.259440
O O8 0.125514 0.722928 0.103232
O O9 0.014392 0.775334 0.009298
O O10 0.070038 0.989543 0.119766
O O11 0.250000 0.462224 0.775821
O O12 0.168747 0.684243 0.773080
O O13 0.122236 0.404603 0.776531
O O14 0.750000 0.331734 0.158522
O O15 0.026697 0.257010 0.187411
O O16 0.000000 0.500000 0.071525
O O17 0.000000 0.500000 0.780408
#
# Coordination Sequence:
#
# PCOD9379619 Si02
#       7
#     8   8   8   8   8   8   8
#     4  10  22  40  60  88 124 162 208 256 314 381
#     4  10  20  36  64  94 125 167 211 255 311 375
#     4  10  20  39  61  87 129 165 210 254 314 372
#     4   9  19  36  60  87 118 155 204 258 307 366
#     4   9  19  36  62  96 126 161 210 260 308 368
#     4  11  24  39  58  89 123 161 209 259 312 372
#     4   9  19  38  60  81 118 161 204 248 310 372
#
# _framework density 23.972940999999999
#
# number of rings (size 3 to 8) (size 9 to 14) (size 15 to 20)
#    0.000    2.286    1.429    0.429    2.000    2.857 
#    5.143    0.714    0.000    0.857    0.000    0.000 
#    0.000    0.000    0.000    0.000    0.000    0.000 
#
# Total GULP energy -156349.483001 kJ/mol
# GULP energy per Si atom -5583.910107 kJ/mol
# Density = 2.391838 g / cm^3
# Si number density = 23.972941 Si / 1000 Ang^3
#
#
#
# Elastic Constant Matrix: (Units=GPa)
#
#
# Indices 1 2 3 4 5 6 
#
# 1 172.7040 41.4954 38.8633 0.0000 0.0000 0.0000
# 2 41.4954 73.7609 20.9334 0.0000 0.0000 0.0000
# 3 38.8633 20.9334 30.1504 0.0000 0.0000 0.0000
# 4 0.0000 0.0000 0.0000 34.3238 0.0000 0.0000
# 5 0.0000 0.0000 0.0000 0.0000 39.0944 0.0000
# 6 0.0000 0.0000 0.0000 0.0000 0.0000 24.0670
#
#
#
# Elastic Compliance Matrix: (Units=1/GPa)
#
#
# Indices 1 2 3 4 5 6 
#
# 1 0.008400 -0.002058 -0.009398 0.000000 0.000000 0.000000
# 2 -0.002058 0.017389 -0.009420 0.000000 0.000000 0.000000
# 3 -0.009398 -0.009420 0.051821 0.000000 0.000000 0.000000
# 4 0.000000 0.000000 0.000000 0.029134 0.000000 0.000000
# 5 0.000000 0.000000 0.000000 0.000000 0.025579 0.000000
# 6 0.000000 0.000000 0.000000 0.000000 0.000000 0.041551
#
#
# Mechanical properties :
#
#
# Convention : Reuss Voigt Hill
#
# Bulk Modulus (GPa) = 27.88847 53.24440 40.56644
# Shear Modulus (GPa) = 21.97056 31.18525 26.57791
#
# Velocity S-wave (km/s) = 3.03062 3.61065 3.33327
# Velocity P-wave (km/s) = 4.88925 6.29609 5.63673
#
# Compressibility (1/GPa) = 0.03585711
#
# Stress axis : x y z
#
# Youngs Moduli (GPa) = 119.05393 57.50907 19.29725
#
# Poissons Ratio (x) = 0.11836 0.18135
# Poissons Ratio (y) = 0.24504 0.18178
# Poissons Ratio (z) = 1.11885 0.54173
#
# Static dielectric constant tensor:
#      x y z
#    x 1.948790 0.000000 0.000000 
#    y 0.000000 1.952390 0.000000 
#    z 0.000000 0.000000 1.927830 
# 
# From -- ./inp_files/20170.got.cif
#   From: 2010.05.17/outbox.cif.g08.bks.cpg/sg46_11_cif.got.tgz:20170.got - 2010.06.03 19:58:25.
