data_PCOD9379596
_publ_section_title
;
Structure prediction by ZEFSAII (Michael W. Deem and Ramdas Pophale) SiO2 
 PCOD9379596
Probable space group: I M A 2
;
_chemical_formula_sum "Si O2"
_cell_formula_units_Z 64
_cell_length_a 16.954524
_cell_length_b 12.382862
_cell_length_c 14.065251
_cell_angle_alpha 90.000000
_cell_angle_beta 90.000000
_cell_angle_gamma 90.000000
_cell_volume 2952.936589
_symmetry_space_group_name_H-M "I M A 2"
_symmetry_group_IT_number 46
_symmetry_cell_setting 'orthorhombic'
loop_
_space_group_symop_operation_xyz
x,y,z
-x,-y,z
1/2-x,y,z
1/2+x,-y,z
1/2+x,1/2+y,1/2+z
1/2-x,1/2-y,1/2+z
-x,1/2+y,1/2+z
x,1/2-y,1/2+z
loop_
_atom_site_type_symbol
_atom_site_label
_atom_site_fract_x
_atom_site_fract_y
_atom_site_fract_z
Si Si1 0.663517 0.303849 0.117590
Si Si2 0.885779 0.647305 0.562540
Si Si3 0.503153 0.172823 0.522836
Si Si4 0.577875 0.697841 0.200546
Si Si5 0.159182 0.658735 0.336630
Si Si6 0.656629 0.055323 0.184305
Si Si7 0.661043 0.575768 0.366307
Si Si8 0.461565 0.845919 0.321582
O O1 0.750000 0.327903 0.079155
O O2 0.593780 0.336538 0.049841
O O3 0.656015 0.356653 0.222209
O O4 0.657814 0.175367 0.139114
O O5 0.857808 0.730741 0.644024
O O6 0.878927 0.531750 0.612020
O O7 0.840406 0.640357 0.464162
O O8 0.969285 0.703272 0.531979
O O9 0.458322 0.125899 0.615511
O O10 0.489844 0.128294 0.417262
O O11 0.607405 0.630290 0.288104
O O12 0.515866 0.786057 0.242974
O O13 0.250000 0.686305 0.360545
O O14 0.135821 0.547277 0.385352
O O15 0.099260 0.753655 0.356878
O O16 0.750000 0.031508 0.206583
O O17 0.594622 0.065518 0.271943
O O18 0.750000 0.568560 0.329294
#
# Coordination Sequence:
#
# PCOD9379596 Si02
#       8
#     8   8   8   8   8   8   8   8
#     4   9  18  35  57  86 126 165 199 247 317 383
#     4  10  22  39  64  91 125 158 220 267 323 389
#     4  10  21  37  61  87 124 169 210 255 315 389
#     4  10  21  41  58  85 124 166 210 272 318 379
#     4   9  19  35  57  87 124 157 196 254 313 374
#     4  10  20  36  60  92 128 165 205 267 330 384
#     4  11  23  39  63  92 119 162 216 272 329 387
#     4  11  20  38  60  90 129 163 207 249 328 393
#
# _framework density 21.673341000000001
#
# number of rings (size 3 to 8) (size 9 to 14) (size 15 to 20)
#    0.750    1.250    3.750    1.500    1.750    4.500 
#    0.000    0.000    8.250    0.000    0.000    0.000 
#    0.000    0.000    0.000    0.000    0.000    0.000 
#
# Total GULP energy -178301.994286 kJ/mol
# GULP energy per Si atom -5571.937321 kJ/mol
# Density = 2.162401 g / cm^3
# Si number density = 21.673341 Si / 1000 Ang^3
#
#
#
# Elastic Constant Matrix: (Units=GPa)
#
#
# Indices 1 2 3 4 5 6 
#
# 1 54.5520 20.8170 27.6090 0.0000 0.0000 0.0000
# 2 20.8170 37.9900 19.7841 0.0000 0.0000 0.0000
# 3 27.6090 19.7841 120.7166 0.0000 0.0000 0.0000
# 4 0.0000 0.0000 0.0000 27.4859 0.0000 0.0000
# 5 0.0000 0.0000 0.0000 0.0000 12.9444 0.0000
# 6 0.0000 0.0000 0.0000 0.0000 0.0000 17.0999
#
#
#
# Elastic Compliance Matrix: (Units=1/GPa)
#
#
# Indices 1 2 3 4 5 6 
#
# 1 0.024631 -0.011549 -0.003741 0.000000 0.000000 0.000000
# 2 -0.011549 0.034194 -0.002963 0.000000 0.000000 0.000000
# 3 -0.003741 -0.002963 0.009625 0.000000 0.000000 0.000000
# 4 0.000000 0.000000 0.000000 0.036382 0.000000 0.000000
# 5 0.000000 0.000000 0.000000 0.000000 0.077253 0.000000
# 6 0.000000 0.000000 0.000000 0.000000 0.000000 0.058480
#
#
# Mechanical properties :
#
#
# Convention : Reuss Voigt Hill
#
# Bulk Modulus (GPa) = 31.30314 38.85319 35.07816
# Shear Modulus (GPa) = 17.37808 21.17595 19.27702
#
# Velocity S-wave (km/s) = 2.83471 3.12917 2.98557
# Velocity P-wave (km/s) = 5.01883 5.56967 5.30141
#
# Compressibility (1/GPa) = 0.03194568
#
# Stress axis : x y z
#
# Youngs Moduli (GPa) = 40.59866 29.24498 103.89679
#
# Poissons Ratio (x) = 0.33775 0.38864
# Poissons Ratio (y) = 0.46887 0.30781
# Poissons Ratio (z) = 0.15187 0.08664
#
# Static dielectric constant tensor:
#      x y z
#    x 1.801910 0.000000 0.000000 
#    y 0.000000 1.815840 0.000000 
#    z 0.000000 0.000000 1.844330 
# 
# From -- ./inp_files/16789.got.cif
#   From: 2010.05.17/outbox.cif.g08.bks.cpg/sg46_9_cif.got.tgz:16789.got - 2010.06.03 19:58:25.
