data_PCOD9379965
_publ_section_title
;
Structure prediction by ZEFSAII (Michael W. Deem and Ramdas Pophale) SiO2 
 PCOD9379965
Probable space group: I M A 2
;
_chemical_formula_sum "Si O2"
_cell_formula_units_Z 64
_cell_length_a 8.711844
_cell_length_b 21.175939
_cell_length_c 20.113411
_cell_angle_alpha 90.000000
_cell_angle_beta 90.000000
_cell_angle_gamma 90.000000
_cell_volume 3710.551771
_symmetry_space_group_name_H-M "I M A 2"
_symmetry_group_IT_number 46
_symmetry_cell_setting 'orthorhombic'
loop_
_space_group_symop_operation_xyz
x,y,z
-x,-y,z
1/2-x,y,z
1/2+x,-y,z
1/2+x,1/2+y,1/2+z
1/2-x,1/2-y,1/2+z
-x,1/2+y,1/2+z
x,1/2-y,1/2+z
loop_
_atom_site_type_symbol
_atom_site_label
_atom_site_fract_x
_atom_site_fract_y
_atom_site_fract_z
Si Si1 0.066526 0.113380 0.987690
Si Si2 0.566808 0.735545 0.990476
Si Si3 0.566708 0.187256 0.624992
Si Si4 0.935065 0.734538 0.840695
Si Si5 0.564937 0.188214 0.206920
Si Si6 0.933980 0.566788 0.199425
Si Si7 0.066815 0.566470 0.623591
Si Si8 0.563378 0.881536 0.839968
O O1 0.250000 0.102979 0.992334
O O2 0.013515 0.095762 0.913052
O O3 0.039819 0.188852 0.994979
O O4 0.984897 0.078647 0.047850
O O5 0.750000 0.726171 0.997602
O O6 0.480747 0.700275 0.049236
O O7 0.521294 0.715824 0.915759
O O8 0.750000 0.182246 0.630566
O O9 0.515090 0.248905 0.667063
O O10 0.490700 0.125008 0.655160
O O11 0.750000 0.732943 0.836932
O O12 0.982347 0.808062 0.831590
O O13 0.004402 0.693875 0.781604
O O14 0.750000 0.187945 0.207445
O O15 0.512581 0.125834 0.167821
O O16 0.750000 0.565157 0.199003
O O17 0.987391 0.580180 0.275523
O O18 0.000000 0.500000 0.176792
O O19 0.250000 0.564471 0.626170
O O20 0.000000 0.500000 0.646859
O O21 0.750000 0.881928 0.841369
#
# Coordination Sequence:
#
# PCOD9379965 Si02
#       8
#     8   8   8   8   8   8   8   8
#     4   9  17  32  53  77 107 143 180 216 260 315
#     4   9  18  32  54  83 111 139 175 220 268 320
#     4  11  21  35  55  81 110 142 181 225 272 319
#     4   9  17  32  55  82 108 137 177 219 265 319
#     4  10  21  35  53  79 110 138 175 225 272 317
#     4  11  22  37  55  77 109 146 184 225 272 321
#     4  11  23  38  52  75 108 144 183 223 267 317
#     4   8  16  31  51  76 107 141 178 217 257 312
#
# _framework density 17.24811
#
# number of rings (size 3 to 8) (size 9 to 14) (size 15 to 20)
#    0.000    2.250    2.500    2.625    0.000    2.500 
#    0.000    4.375    0.000    0.750    0.000    1.750 
#    0.000    0.000    0.000    0.000    0.000    0.000 
#
# Total GULP energy -178558.479835 kJ/mol
# GULP energy per Si atom -5579.952495 kJ/mol
# Density = 1.720885 g / cm^3
# Si number density = 17.248110 Si / 1000 Ang^3
#
#
#
# Elastic Constant Matrix: (Units=GPa)
#
#
# Indices 1 2 3 4 5 6 
#
# 1 27.2060 36.9955 27.3253 0.0000 0.0000 0.0000
# 2 36.9955 109.7396 60.0821 0.0000 0.0000 0.0000
# 3 27.3253 60.0821 109.1692 0.0000 0.0000 0.0000
# 4 0.0000 0.0000 0.0000 19.0265 0.0000 0.0000
# 5 0.0000 0.0000 0.0000 0.0000 22.9672 0.0000
# 6 0.0000 0.0000 0.0000 0.0000 0.0000 20.6796
#
#
#
# Elastic Compliance Matrix: (Units=1/GPa)
#
#
# Indices 1 2 3 4 5 6 
#
# 1 0.071030 -0.020341 -0.006584 0.000000 0.000000 0.000000
# 2 -0.020341 0.018867 -0.005292 0.000000 0.000000 0.000000
# 3 -0.006584 -0.005292 0.013721 0.000000 0.000000 0.000000
# 4 0.000000 0.000000 0.000000 0.052558 0.000000 0.000000
# 5 0.000000 0.000000 0.000000 0.000000 0.043540 0.000000
# 6 0.000000 0.000000 0.000000 0.000000 0.000000 0.048357
#
#
# Mechanical properties :
#
#
# Convention : Reuss Voigt Hill
#
# Bulk Modulus (GPa) = 25.52123 54.99119 40.25621
# Shear Modulus (GPa) = 15.35772 20.64880 18.00326
#
# Velocity S-wave (km/s) = 2.98720 3.46376 3.23427
# Velocity P-wave (km/s) = 5.16976 6.92448 6.11044
#
# Compressibility (1/GPa) = 0.03918307
#
# Stress axis : x y z
#
# Youngs Moduli (GPa) = 14.07863 53.00148 72.88162
#
# Poissons Ratio (x) = 1.07809 0.47986
# Poissons Ratio (y) = 0.28637 0.38572
# Poissons Ratio (z) = 0.09270 0.28051
#
# Static dielectric constant tensor:
#      x y z
#    x 1.576780 0.000000 0.000000 
#    y 0.000000 1.574050 0.000000 
#    z 0.000000 0.000000 1.587480 
# 
# From -- ./inp_files/18525.got.cif
#   From: 2010.05.17/outbox.cif.g08.bks.cpg/sg46_10_cif.got.tgz:18525.got - 2010.06.03 19:58:25.
