data_PCOD9379430
_publ_section_title
;
Structure prediction by ZEFSAII (Michael W. Deem and Ramdas Pophale) SiO2 
 PCOD9379430
Probable space group: I M A 2
;
_chemical_formula_sum "Si O2"
_cell_formula_units_Z 64
_cell_length_a 9.057885
_cell_length_b 19.567810
_cell_length_c 16.612305
_cell_angle_alpha 90.000000
_cell_angle_beta 90.000000
_cell_angle_gamma 90.000000
_cell_volume 2944.414321
_symmetry_space_group_name_H-M "I M A 2"
_symmetry_group_IT_number 46
_symmetry_cell_setting 'orthorhombic'
loop_
_space_group_symop_operation_xyz
x,y,z
-x,-y,z
1/2-x,y,z
1/2+x,-y,z
1/2+x,1/2+y,1/2+z
1/2-x,1/2-y,1/2+z
-x,1/2+y,1/2+z
x,1/2-y,1/2+z
loop_
_atom_site_type_symbol
_atom_site_label
_atom_site_fract_x
_atom_site_fract_y
_atom_site_fract_z
Si Si1 0.086678 0.436808 0.853350
Si Si2 0.571874 0.074806 0.101423
Si Si3 0.073073 0.074719 0.776239
Si Si4 0.922607 0.298297 0.708174
Si Si5 0.588653 0.562361 0.041353
Si Si6 0.927303 0.785741 0.366419
Si Si7 0.078309 0.660665 0.132803
Si Si8 0.072443 0.351324 0.447881
O O1 0.250000 0.430707 0.816280
O O2 0.010715 0.363075 0.861468
O O3 0.000000 0.500000 0.816043
O O4 0.106068 0.453437 0.947734
O O5 0.750000 0.069380 0.097661
O O6 0.535532 0.127264 0.174689
O O7 0.500000 0.000000 0.109351
O O8 0.510468 0.111656 0.020815
O O9 0.250000 0.070590 0.766191
O O10 0.046867 0.108159 0.864256
O O11 0.001352 0.121851 0.706786
O O12 0.000000 0.000000 0.774244
O O13 0.750000 0.299531 0.734467
O O14 0.932552 0.241972 0.638094
O O15 0.026764 0.265996 0.776256
O O16 0.500000 0.500000 0.079423
O O17 0.750000 0.568959 0.077136
O O18 0.499378 0.631074 0.054231
O O19 0.750000 0.791867 0.376284
O O20 0.975124 0.727048 0.428038
O O21 0.250000 0.641898 0.134142
O O22 0.250000 0.351312 0.463418
#
# Coordination Sequence:
#
# PCOD9379430 Si02
#       8
#     8   8   8   8   8   8   8   8
#     4   9  20  37  58  86 119 154 196 244 296 358
#     4  11  25  45  67  94 127 166 213 262 317 377
#     4  11  22  37  58  86 119 157 199 244 301 367
#     4  10  24  43  62  89 123 159 203 252 305 363
#     4  10  20  35  55  81 115 154 192 236 287 346
#     4  10  21  40  64  92 123 159 204 255 310 369
#     4  11  22  37  56  82 117 156 198 245 294 355
#     4  10  22  40  64  94 125 159 205 258 314 375
#
# _framework density 21.736072
#
# number of rings (size 3 to 8) (size 9 to 14) (size 15 to 20)
#    0.000    1.750    1.250    2.250    1.750    5.500 
#    0.000    2.500    0.000    0.000    0.000    0.000 
#    0.000    0.000    0.000    0.000    0.000    0.000 
#
# Total GULP energy -178521.754073 kJ/mol
# GULP energy per Si atom -5578.804815 kJ/mol
# Density = 2.168660 g / cm^3
# Si number density = 21.736072 Si / 1000 Ang^3
#
#
#
# Elastic Constant Matrix: (Units=GPa)
#
#
# Indices 1 2 3 4 5 6 
#
# 1 55.6301 37.4641 -1.5614 0.0000 0.0000 0.0000
# 2 37.4641 149.8392 0.0780 0.0000 0.0000 0.0000
# 3 -1.5614 0.0780 37.9665 0.0000 0.0000 0.0000
# 4 0.0000 0.0000 0.0000 48.5133 0.0000 0.0000
# 5 0.0000 0.0000 0.0000 0.0000 3.7252 0.0000
# 6 0.0000 0.0000 0.0000 0.0000 0.0000 16.2461
#
#
#
# Elastic Compliance Matrix: (Units=1/GPa)
#
#
# Indices 1 2 3 4 5 6 
#
# 1 0.021646 -0.005413 0.000901 0.000000 0.000000 0.000000
# 2 -0.005413 0.008027 -0.000239 0.000000 0.000000 0.000000
# 3 0.000901 -0.000239 0.026377 0.000000 0.000000 0.000000
# 4 0.000000 0.000000 0.000000 0.020613 0.000000 0.000000
# 5 0.000000 0.000000 0.000000 0.000000 0.268442 0.000000
# 6 0.000000 0.000000 0.000000 0.000000 0.000000 0.061553
#
#
# Mechanical properties :
#
#
# Convention : Reuss Voigt Hill
#
# Bulk Modulus (GPa) = 21.48260 35.04412 28.26336
# Shear Modulus (GPa) = 11.58277 27.52726 19.55502
#
# Velocity S-wave (km/s) = 2.31093 3.56256 3.00268
# Velocity P-wave (km/s) = 4.12618 5.75152 5.00526
#
# Compressibility (1/GPa) = 0.04654929
#
# Stress axis : x y z
#
# Youngs Moduli (GPa) = 46.19716 124.57536 37.91247
#
# Poissons Ratio (x) = 0.67429 -0.03417
# Poissons Ratio (y) = 0.25005 0.00906
# Poissons Ratio (z) = -0.04164 0.02978
#
# Static dielectric constant tensor:
#      x y z
#    x 1.804460 0.000000 0.000000 
#    y 0.000000 1.836490 0.000000 
#    z 0.000000 0.000000 1.851660 
# 
# From -- ./inp_files/18595.got.cif
#   From: 2010.05.17/outbox.cif.g08.bks.cpg/sg46_10_cif.got.tgz:18595.got - 2010.06.03 19:58:25.
