data_PCOD9379397
_publ_section_title
;
Structure prediction by ZEFSAII (Michael W. Deem and Ramdas Pophale) SiO2 
 PCOD9379397
Probable space group: I M A 2
;
_chemical_formula_sum "Si O2"
_cell_formula_units_Z 64
_cell_length_a 8.605156
_cell_length_b 15.114969
_cell_length_c 27.856299
_cell_angle_alpha 90.000000
_cell_angle_beta 90.000000
_cell_angle_gamma 90.000000
_cell_volume 3623.175943
_symmetry_space_group_name_H-M "I M A 2"
_symmetry_group_IT_number 46
_symmetry_cell_setting 'orthorhombic'
loop_
_space_group_symop_operation_xyz
x,y,z
-x,-y,z
1/2-x,y,z
1/2+x,-y,z
1/2+x,1/2+y,1/2+z
1/2-x,1/2-y,1/2+z
-x,1/2+y,1/2+z
x,1/2-y,1/2+z
loop_
_atom_site_type_symbol
_atom_site_label
_atom_site_fract_x
_atom_site_fract_y
_atom_site_fract_z
Si Si1 0.436985 0.096193 0.212310
Si Si2 0.064224 0.404440 0.985117
Si Si3 0.436508 0.096539 0.101611
Si Si4 0.563288 0.275254 0.065175
Si Si5 0.564224 0.095560 0.377575
Si Si6 0.436985 0.903807 0.650382
Si Si7 0.436712 0.275254 0.797517
Si Si8 0.936508 0.096539 0.761081
O O1 0.250000 0.092875 0.212831
O O2 0.486590 0.112598 0.157290
O O3 0.487292 0.170912 0.249639
O O4 0.500000 0.000000 0.226787
O O5 0.250000 0.407529 0.984149
O O6 0.000000 0.500000 0.001850
O O7 0.000001 0.391099 0.931346
O O8 0.004794 0.328368 0.020290
O O9 0.250000 0.096260 0.099945
O O10 0.502748 0.175796 0.069999
O O11 0.500000 0.000000 0.088054
O O12 0.750000 0.276075 0.062925
O O13 0.512708 0.329088 0.113053
O O14 0.750000 0.092471 0.378543
O O15 0.504795 0.171632 0.342402
O O16 0.500000 0.000000 0.360842
O O17 0.250000 0.907124 0.649861
O O18 0.486590 0.887402 0.705402
O O19 0.500000 0.000000 0.635905
O O20 0.250000 0.276075 0.799767
O O21 0.497252 0.175796 0.792693
O O22 0.750000 0.096260 0.762747
O O23 0.000000 0.000000 0.774638
#
# Coordination Sequence:
#
# PCOD9379397 Si02
#       8
#     8   8   8   8   8   8   8   8
#     4   9  19  32  49  74 107 142 178 217 261 310
#     4  11  22  38  58  82 110 140 172 213 262 316
#     4  10  20  35  52  74 104 142 182 223 265 309
#     4  11  21  34  53  79 107 140 179 220 263 314
#     4  11  22  38  58  82 110 140 172 213 262 316
#     4   9  19  32  49  74 107 142 178 217 261 310
#     4  11  21  34  53  79 107 140 179 220 263 314
#     4  10  20  35  52  74 104 142 182 223 265 309
#
# _framework density 17.664061
#
# number of rings (size 3 to 8) (size 9 to 14) (size 15 to 20)
#    0.000    1.750    0.000    6.000    0.000    5.000 
#    0.000    0.000    0.000    0.750    0.000    5.250 
#    0.000    0.000    0.000    0.000    0.000    0.000 
#
# Total GULP energy -178810.669337 kJ/mol
# GULP energy per Si atom -5587.833417 kJ/mol
# Density = 1.762386 g / cm^3
# Si number density = 17.664061 Si / 1000 Ang^3
#
#
#
# Elastic Constant Matrix: (Units=GPa)
#
#
# Indices 1 2 3 4 5 6 
#
# 1 92.3096 56.7499 39.3205 0.0000 0.0000 0.0000
# 2 56.7499 163.4614 81.6244 0.0000 0.0000 0.0000
# 3 39.3205 81.6244 72.2504 0.0000 0.0000 0.0000
# 4 0.0000 0.0000 0.0000 32.1740 0.0000 0.0000
# 5 0.0000 0.0000 0.0000 0.0000 23.8572 0.0000
# 6 0.0000 0.0000 0.0000 0.0000 0.0000 33.0137
#
#
#
# Elastic Compliance Matrix: (Units=1/GPa)
#
#
# Indices 1 2 3 4 5 6 
#
# 1 0.014540 -0.002516 -0.005071 0.000000 0.000000 0.000000
# 2 -0.002516 0.014471 -0.014979 0.000000 0.000000 0.000000
# 3 -0.005071 -0.014979 0.033523 0.000000 0.000000 0.000000
# 4 0.000000 0.000000 0.000000 0.031081 0.000000 0.000000
# 5 0.000000 0.000000 0.000000 0.000000 0.041916 0.000000
# 6 0.000000 0.000000 0.000000 0.000000 0.000000 0.030290
#
#
# Mechanical properties :
#
#
# Convention : Reuss Voigt Hill
#
# Bulk Modulus (GPa) = 57.46394 75.93457 66.69926
# Shear Modulus (GPa) = 23.06764 27.83077 25.44920
#
# Velocity S-wave (km/s) = 3.61766 3.97364 3.79982
# Velocity P-wave (km/s) = 7.07475 8.00840 7.55601
#
# Compressibility (1/GPa) = 0.01740222
#
# Stress axis : x y z
#
# Youngs Moduli (GPa) = 68.77732 69.10353 29.83004
#
# Poissons Ratio (x) = 0.17385 0.15126
# Poissons Ratio (y) = 0.17303 0.44684
# Poissons Ratio (z) = 0.34875 1.03513
#
# Static dielectric constant tensor:
#      x y z
#    x 1.590690 0.000000 0.000000 
#    y 0.000000 1.583540 0.000000 
#    z 0.000000 0.000000 1.598210 
# 
# From -- ./inp_files/23187.got.cif
#   From: 2010.05.17/outbox.cif.g08.bks.cpg/sg46_12_cif.got.tgz:23187.got - 2010.06.03 19:58:25.
