data_PCOD9379023
_publ_section_title
;
Structure prediction by ZEFSAII (Michael W. Deem and Ramdas Pophale) SiO2 
 PCOD9379023
Probable space group: I M A 2
;
_chemical_formula_sum "Si O2"
_cell_formula_units_Z 60
_cell_length_a 9.802507
_cell_length_b 12.535326
_cell_length_c 22.529791
_cell_angle_alpha 90.000000
_cell_angle_beta 90.000000
_cell_angle_gamma 90.000000
_cell_volume 2768.407117
_symmetry_space_group_name_H-M "I M A 2"
_symmetry_group_IT_number 46
_symmetry_cell_setting 'orthorhombic'
loop_
_space_group_symop_operation_xyz
x,y,z
-x,-y,z
1/2-x,y,z
1/2+x,-y,z
1/2+x,1/2+y,1/2+z
1/2-x,1/2-y,1/2+z
-x,1/2+y,1/2+z
x,1/2-y,1/2+z
loop_
_atom_site_type_symbol
_atom_site_label
_atom_site_fract_x
_atom_site_fract_y
_atom_site_fract_z
Si Si1 0.093312 0.601415 0.846710
Si Si2 0.096570 0.596964 0.704035
Si Si3 0.398595 0.219487 0.872048
Si Si4 0.750000 0.491216 0.987095
Si Si5 0.498508 0.346082 0.016935
Si Si6 0.087183 0.827841 0.651091
Si Si7 0.905591 0.912310 0.757678
Si Si8 0.409342 0.103595 0.988415
O O1 0.250000 0.579359 0.862846
O O2 0.087106 0.619881 0.775034
O O3 0.000000 0.500000 0.859167
O O4 0.023883 0.701376 0.877833
O O5 0.250000 0.561063 0.693140
O O6 0.071790 0.702590 0.666210
O O7 0.000000 0.500000 0.689168
O O8 0.250000 0.271877 0.883956
O O9 0.397497 0.183219 0.804109
O O10 0.408626 0.121106 0.916906
O O11 0.630114 0.397827 0.986206
O O12 0.630798 0.583941 0.997726
O O13 0.532783 0.358420 0.086899
O O14 0.468140 0.219195 0.008712
O O15 0.250000 0.852200 0.655837
O O16 0.992028 0.882900 0.699943
O O17 0.750000 0.946059 0.745005
O O18 0.000000 0.000000 0.788612
O O19 0.250000 0.091989 0.007118
O O20 0.500000 0.000000 0.004365
#
# Coordination Sequence:
#
# PCOD9379023 Si02
#       8
#     8   8   8   4   8   8   8   8
#     4  10  19  35  58  87 125 171 219 272 331 394
#     4   9  19  35  55  83 122 169 214 266 322 380
#     4  10  22  43  63  94 130 171 220 273 331 397
#     4  10  24  46  74  96 140 172 230 286 356 418
#     4  11  24  46  70 103 134 183 226 291 353 408
#     4  11  23  39  63  94 133 170 220 269 328 402
#     4  11  24  37  60  90 126 168 211 257 317 389
#     4  11  26  48  74 101 139 179 232 289 347 416
#
# _framework density 21.673112
#
# number of rings (size 3 to 8) (size 9 to 14) (size 15 to 20)
#    0.000    1.600    2.667    1.200    3.733    2.667 
#    2.400    1.333    0.000    0.000    0.000    0.000 
#    0.000    0.000    0.000    0.000    0.000    0.000 
#
# Total GULP energy -167094.012036 kJ/mol
# GULP energy per Si atom -5569.800401 kJ/mol
# Density = 2.162378 g / cm^3
# Si number density = 21.673112 Si / 1000 Ang^3
#
#
#
# Elastic Constant Matrix: (Units=GPa)
#
#
# Indices 1 2 3 4 5 6 
#
# 1 217.3257 94.1551 23.0342 0.0000 0.0000 0.0000
# 2 94.1551 127.1104 8.2592 0.0000 0.0000 0.0000
# 3 23.0342 8.2592 69.9093 0.0000 0.0000 0.0000
# 4 0.0000 0.0000 0.0000 0.4420 0.0000 0.0000
# 5 0.0000 0.0000 0.0000 0.0000 20.2449 0.0000
# 6 0.0000 0.0000 0.0000 0.0000 0.0000 56.1483
#
#
#
# Elastic Compliance Matrix: (Units=1/GPa)
#
#
# Indices 1 2 3 4 5 6 
#
# 1 0.006971 -0.005053 -0.001700 0.000000 0.000000 0.000000
# 2 -0.005053 0.011591 0.000296 0.000000 0.000000 0.000000
# 3 -0.001700 0.000296 0.014829 0.000000 0.000000 0.000000
# 4 0.000000 0.000000 0.000000 2.262640 0.000000 0.000000
# 5 0.000000 0.000000 0.000000 0.000000 0.049395 0.000000
# 6 0.000000 0.000000 0.000000 0.000000 0.000000 0.017810
#
#
# Mechanical properties :
#
#
# Convention : Reuss Voigt Hill
#
# Bulk Modulus (GPa) = 48.83651 73.91582 61.37616
# Shear Modulus (GPa) = 2.09822 34.62683 18.36252
#
# Velocity S-wave (km/s) = 0.98500 4.00144 2.91391
# Velocity P-wave (km/s) = 4.88628 7.45169 6.30093
#
# Compressibility (1/GPa) = 0.02047648
#
# Stress axis : x y z
#
# Youngs Moduli (GPa) = 143.45674 86.27441 67.43368
#
# Poissons Ratio (x) = 0.43595 0.11462
# Poissons Ratio (y) = 0.72489 -0.01993
# Poissons Ratio (z) = 0.24385 -0.02550
#
# Static dielectric constant tensor:
#      x y z
#    x 1.748700 0.000000 0.000000 
#    y 0.000000 1.838330 0.000000 
#    z 0.000000 0.000000 1.878710 
# 
# From -- ./inp_files/24272.got.cif
#   From: 2010.05.17/outbox.cif.g08.bks.cpg/sg46_13_cif.got.tgz:24272.got - 2010.06.03 19:58:25.
