data_PCOD9379851
_publ_section_title
;
Structure prediction by ZEFSAII (Michael W. Deem and Ramdas Pophale) SiO2 
 PCOD9379851
Probable space group: I M A 2
;
_chemical_formula_sum "Si O2"
_cell_formula_units_Z 40
_cell_length_a 7.678135
_cell_length_b 28.821077
_cell_length_c 8.060419
_cell_angle_alpha 90.000000
_cell_angle_beta 90.000000
_cell_angle_gamma 90.000000
_cell_volume 1783.707209
_symmetry_space_group_name_H-M "I M A 2"
_symmetry_group_IT_number 46
_symmetry_cell_setting 'orthorhombic'
loop_
_space_group_symop_operation_xyz
x,y,z
-x,-y,z
1/2-x,y,z
1/2+x,-y,z
1/2+x,1/2+y,1/2+z
1/2-x,1/2-y,1/2+z
-x,1/2+y,1/2+z
x,1/2-y,1/2+z
loop_
_atom_site_type_symbol
_atom_site_label
_atom_site_fract_x
_atom_site_fract_y
_atom_site_fract_z
Si Si1 0.964372 0.884435 0.986150
Si Si2 0.952267 0.787043 0.864103
Si Si3 0.540665 0.552996 0.179225
Si Si4 0.550116 0.189631 0.492677
Si Si5 0.950588 0.905573 0.342074
O O1 0.750000 0.883907 0.987368
O O2 0.019300 0.830792 0.969709
O O3 0.021488 0.912879 0.824508
O O4 0.026600 0.907133 0.157554
O O5 0.750000 0.779848 0.906351
O O6 0.968671 0.801915 0.673079
O O7 0.042660 0.738332 0.896925
O O8 0.500000 0.500000 0.218295
O O9 0.750000 0.558979 0.173064
O O10 0.470825 0.566657 0.997115
O O11 0.750000 0.175500 0.514424
O O12 0.455786 0.148273 0.397089
O O13 0.750000 0.920903 0.326515
#
# Coordination Sequence:
#
# PCOD9379851 Si02
#       5
#     8   8   8   8   8
#     4   9  19  37  62  88 113 152 207 254 291 357
#     4  11  21  38  61  85 118 166 214 248 299 375
#     4  10  21  39  61  89 120 156 205 257 309 367
#     4  12  24  37  56  90 129 159 200 260 317 361
#     4  10  20  39  64  86 117 162 209 250 298 375
#
# _framework density 22.425204999999998
#
# number of rings (size 3 to 8) (size 9 to 14) (size 15 to 20)
#    0.000    1.600    2.000    3.600    0.000    3.200 
#    0.000    2.000    0.000    0.000    0.000    0.000 
#    0.000    0.000    0.000    0.000    0.000    0.000 
#
# Total GULP energy -111812.336970 kJ/mol
# GULP energy per Si atom -5590.616848 kJ/mol
# Density = 2.237416 g / cm^3
# Si number density = 22.425205 Si / 1000 Ang^3
#
#
#
# Elastic Constant Matrix: (Units=GPa)
#
#
# Indices 1 2 3 4 5 6 
#
# 1 52.9128 -12.6131 -11.1374 -0.0004 0.0000 -0.0001
# 2 -12.6131 58.7042 -8.4998 -0.0016 -0.0002 -0.0004
# 3 -11.1374 -8.4998 85.9545 -0.0028 -0.0003 -0.0010
# 4 -0.0004 -0.0016 -0.0028 28.8855 -0.0003 -0.0007
# 5 0.0000 -0.0002 -0.0003 -0.0003 -2.9026 -0.0004
# 6 -0.0001 -0.0004 -0.0010 -0.0007 -0.0004 13.7081
#
#
#
# Elastic Compliance Matrix: (Units=1/GPa)
#
#
# Indices 1 2 3 4 5 6 
#
# 1 0.020739 0.004915 0.003173 0.000001 0.000000 0.000001
# 2 0.004915 0.018447 0.002461 0.000001 -0.000001 0.000001
# 3 0.003173 0.002461 0.012289 0.000001 -0.000001 0.000001
# 4 0.000001 0.000001 0.000001 0.034619 -0.000004 0.000002
# 5 0.000000 -0.000001 -0.000001 -0.000004 -0.344519 -0.000011
# 6 0.000001 0.000001 0.000001 0.000002 -0.000011 0.072950
#
#
# Mechanical properties :
#
#
# Convention : Reuss Voigt Hill
#
# Bulk Modulus (GPa) = 13.77915 14.78567 14.28241
# Shear Modulus (GPa) = -27.41467 23.25965 -2.07751
#
# Velocity S-wave (km/s) = -3.50021 3.22407 -0.96355
# Velocity P-wave (km/s) = 3.19021 4.52406 2.26822
#
# Compressibility (1/GPa) = 0.07257342
#
# Stress axis : x y z
#
# Youngs Moduli (GPa) = 48.21919 54.20941 81.37629
#
# Poissons Ratio (x) = -0.26646 -0.25823
# Poissons Ratio (y) = -0.23701 -0.20027
# Poissons Ratio (z) = -0.15301 -0.13341
#
# Static dielectric constant tensor:
#      x y z
#    x 1.833640 0.000000 0.000000 
#    y 0.000000 1.784310 0.000000 
#    z 0.000000 0.000000 1.833450 
# 
# From -- ./inp_files/3508.got.cif
#   From: 2010.05.17/outbox.cif.g08.bks.cpg/sg46_2_cif.got.tgz:3508.got - 2010.06.03 19:58:25.
