data_PCOD9379470
_publ_section_title
;
Structure prediction by ZEFSAII (Michael W. Deem and Ramdas Pophale) SiO2 
 PCOD9379470
Probable space group: I M A 2
;
_chemical_formula_sum "Si O2"
_cell_formula_units_Z 64
_cell_length_a 14.913571
_cell_length_b 10.303822
_cell_length_c 18.014186
_cell_angle_alpha 90.000000
_cell_angle_beta 90.000000
_cell_angle_gamma 90.000000
_cell_volume 2768.181974
_symmetry_space_group_name_H-M "I M A 2"
_symmetry_group_IT_number 46
_symmetry_cell_setting 'orthorhombic'
loop_
_space_group_symop_operation_xyz
x,y,z
-x,-y,z
1/2-x,y,z
1/2+x,-y,z
1/2+x,1/2+y,1/2+z
1/2-x,1/2-y,1/2+z
-x,1/2+y,1/2+z
x,1/2-y,1/2+z
loop_
_atom_site_type_symbol
_atom_site_label
_atom_site_fract_x
_atom_site_fract_y
_atom_site_fract_z
Si Si1 0.649141 0.753899 0.673990
Si Si2 0.653005 0.054255 0.960298
Si Si3 0.424327 0.893182 0.559110
Si Si4 0.536037 0.292505 0.748070
Si Si5 0.846995 0.445745 0.206240
Si Si6 0.963963 0.207495 0.418468
Si Si7 0.850859 0.746101 0.492548
Si Si8 0.575673 0.106818 0.107428
O O1 0.750000 0.705643 0.692006
O O2 0.562991 0.689151 0.712464
O O3 0.644705 0.750000 0.583269
O O4 0.642027 0.899876 0.707683
O O5 0.750000 0.089692 0.928337
O O6 0.574985 0.145328 0.927609
O O7 0.642027 0.899876 0.958855
O O8 0.652385 0.079703 0.048861
O O9 0.347615 0.920297 0.617677
O O10 0.402291 0.878829 0.473021
O O11 0.456701 0.750000 0.583269
O O12 0.500000 0.000000 0.572957
O O13 0.574985 0.145328 0.738928
O O14 0.536982 0.328244 0.833269
O O15 0.597709 0.378829 0.693517
O O16 0.750000 0.410308 0.238201
O O17 0.062991 0.189151 0.454074
O O18 0.750000 0.794357 0.474532
O O19 0.500000 0.000000 0.093581
#
# Coordination Sequence:
#
# PCOD9379470 Si02
#       8
#     8   8   8   8   8   8   8   8
#     4  10  20  36  60  86 110 144 195 249 295 341
#     4  10  20  35  58  84 111 150 198 244 288 336
#     4  10  20  37  61  85 114 150 194 242 289 339
#     4  11  23  36  53  81 119 156 189 230 285 351
#     4  10  20  35  58  84 111 150 198 244 288 336
#     4  11  23  36  53  81 119 156 189 230 285 351
#     4  10  20  36  60  86 110 144 195 249 295 341
#     4  10  20  37  61  85 114 150 194 242 289 339
#
# _framework density 23.119868
#
# number of rings (size 3 to 8) (size 9 to 14) (size 15 to 20)
#    0.000    1.750    0.000    7.500    0.000    8.000 
#    0.000    2.500    0.000    0.000    0.000    7.000 
#    0.000    0.000    0.000    0.000    0.000    0.000 
#
# Total GULP energy -178458.191357 kJ/mol
# GULP energy per Si atom -5576.818480 kJ/mol
# Density = 2.306725 g / cm^3
# Si number density = 23.119868 Si / 1000 Ang^3
#
#
#
# Elastic Constant Matrix: (Units=GPa)
#
#
# Indices 1 2 3 4 5 6 
#
# 1 84.5239 2.7908 14.6838 0.0000 0.0000 0.0000
# 2 2.7908 82.5240 -17.7486 0.0000 0.0000 0.0000
# 3 14.6838 -17.7486 135.4191 0.0000 0.0000 0.0000
# 4 0.0000 0.0000 0.0000 9.3828 0.0000 0.0000
# 5 0.0000 0.0000 0.0000 0.0000 42.6095 0.0000
# 6 0.0000 0.0000 0.0000 0.0000 0.0000 4.6708
#
#
#
# Elastic Compliance Matrix: (Units=1/GPa)
#
#
# Indices 1 2 3 4 5 6 
#
# 1 0.012099 -0.000711 -0.001405 0.000000 0.000000 0.000000
# 2 -0.000711 0.012511 0.001717 0.000000 0.000000 0.000000
# 3 -0.001405 0.001717 0.007762 0.000000 0.000000 0.000000
# 4 0.000000 0.000000 0.000000 0.106578 0.000000 0.000000
# 5 0.000000 0.000000 0.000000 0.000000 0.023469 0.000000
# 6 0.000000 0.000000 0.000000 0.000000 0.000000 0.214096
#
#
# Mechanical properties :
#
#
# Convention : Reuss Voigt Hill
#
# Bulk Modulus (GPa) = 31.67337 33.54655 32.60996
# Shear Modulus (GPa) = 12.89196 31.51535 22.20365
#
# Velocity S-wave (km/s) = 2.36395 3.69606 3.10235
# Velocity P-wave (km/s) = 4.60221 5.72327 5.19308
#
# Compressibility (1/GPa) = 0.03157227
#
# Stress axis : x y z
#
# Youngs Moduli (GPa) = 82.65441 79.92972 128.83505
#
# Poissons Ratio (x) = 0.05686 0.18103
# Poissons Ratio (y) = 0.05880 -0.22119
# Poissons Ratio (z) = 0.11614 -0.13723
#
# Static dielectric constant tensor:
#      x y z
#    x 1.874480 0.000000 0.000000 
#    y 0.000000 1.941490 0.000000 
#    z 0.000000 0.000000 1.912370 
# 
# From -- ./inp_files/19641.got.cif
#   From: 2010.05.17/outbox.cif.g08.bks.cpg/sg46_10_cif.got.tgz:19641.got - 2010.06.03 19:58:25.
