data_PCOD9379666
_publ_section_title
;
Structure prediction by ZEFSAII (Michael W. Deem and Ramdas Pophale) SiO2 
 PCOD9379666
Probable space group: I M A 2
;
_chemical_formula_sum "Si O2"
_cell_formula_units_Z 48
_cell_length_a 12.835563
_cell_length_b 17.964542
_cell_length_c 9.166864
_cell_angle_alpha 90.000000
_cell_angle_beta 90.000000
_cell_angle_gamma 90.000000
_cell_volume 2113.741433
_symmetry_space_group_name_H-M "I M A 2"
_symmetry_group_IT_number 46
_symmetry_cell_setting 'orthorhombic'
loop_
_space_group_symop_operation_xyz
x,y,z
-x,-y,z
1/2-x,y,z
1/2+x,-y,z
1/2+x,1/2+y,1/2+z
1/2-x,1/2-y,1/2+z
-x,1/2+y,1/2+z
x,1/2-y,1/2+z
loop_
_atom_site_type_symbol
_atom_site_label
_atom_site_fract_x
_atom_site_fract_y
_atom_site_fract_z
Si Si1 0.596511 0.599724 0.118380
Si Si2 0.505320 0.724035 0.986891
Si Si3 0.626065 0.314011 0.703168
Si Si4 0.631434 0.624333 0.456698
Si Si5 0.374183 0.538493 0.510777
Si Si6 0.135206 0.934897 0.664274
O O1 0.633349 0.611655 0.282554
O O2 0.634952 0.516840 0.088941
O O3 0.470375 0.599974 0.107410
O O4 0.607346 0.672479 0.021992
O O5 0.446189 0.694192 0.844712
O O6 0.558613 0.805155 0.972607
O O7 0.414284 0.746512 0.102015
O O8 0.750000 0.307477 0.733752
O O9 0.608644 0.393061 0.620848
O O10 0.750000 0.636908 0.508227
O O11 0.585417 0.547143 0.524699
O O12 0.250000 0.525841 0.522902
O O13 0.386569 0.559431 0.338869
O O14 0.250000 0.902152 0.643257
#
# Coordination Sequence:
#
# PCOD9379666 Si02
#       6
#     8   8   8   8   8   8
#     4  10  20  37  60  91 127 167 224 274 329 409
#     4  12  24  41  63 101 138 183 229 284 355 417
#     4  11  24  42  64  98 142 183 229 286 352 418
#     4  10  21  41  67  96 134 179 231 284 341 412
#     4   8  17  36  65  93 120 167 223 274 327 399
#     4   9  18  35  64  93 121 165 219 279 338 399
#
# _framework density 22.708549000000001
#
# number of rings (size 3 to 8) (size 9 to 14) (size 15 to 20)
#    0.000    2.000    1.667    3.000    0.000    4.667 
#    0.000    3.333    0.000    2.000    0.000    1.167 
#    0.000    0.000    0.000    0.000    0.000    0.000 
#
# Total GULP energy -133704.870517 kJ/mol
# GULP energy per Si atom -5571.036272 kJ/mol
# Density = 2.265686 g / cm^3
# Si number density = 22.708549 Si / 1000 Ang^3
#
#
#
# Elastic Constant Matrix: (Units=GPa)
#
#
# Indices 1 2 3 4 5 6 
#
# 1 95.4804 12.7965 5.6490 0.0000 0.0000 0.0000
# 2 12.7965 90.8905 35.1667 0.0000 0.0000 0.0000
# 3 5.6490 35.1667 62.7693 0.0000 0.0000 0.0000
# 4 0.0000 0.0000 0.0000 27.3937 0.0000 0.0000
# 5 0.0000 0.0000 0.0000 0.0000 14.8723 0.0000
# 6 0.0000 0.0000 0.0000 0.0000 0.0000 34.7499
#
#
#
# Elastic Compliance Matrix: (Units=1/GPa)
#
#
# Indices 1 2 3 4 5 6 
#
# 1 0.010676 -0.001444 -0.000152 0.000000 0.000000 0.000000
# 2 -0.001444 0.014243 -0.007850 0.000000 0.000000 0.000000
# 3 -0.000152 -0.007850 0.020343 0.000000 0.000000 0.000000
# 4 0.000000 0.000000 0.000000 0.036505 0.000000 0.000000
# 5 0.000000 0.000000 0.000000 0.000000 0.067239 0.000000
# 6 0.000000 0.000000 0.000000 0.000000 0.000000 0.028777
#
#
# Mechanical properties :
#
#
# Convention : Reuss Voigt Hill
#
# Bulk Modulus (GPa) = 37.92140 39.59604 38.75872
# Shear Modulus (GPa) = 24.33521 28.43836 26.38679
#
# Velocity S-wave (km/s) = 3.27713 3.54265 3.41247
# Velocity P-wave (km/s) = 5.57269 5.84879 5.71241
#
# Compressibility (1/GPa) = 0.02637034
#
# Stress axis : x y z
#
# Youngs Moduli (GPa) = 93.66888 70.21138 49.15759
#
# Poissons Ratio (x) = 0.10142 0.00745
# Poissons Ratio (y) = 0.13530 0.38586
# Poissons Ratio (z) = 0.01419 0.55113
#
# Static dielectric constant tensor:
#      x y z
#    x 1.942750 0.000000 0.000000 
#    y 0.000000 1.967170 0.000000 
#    z 0.000000 0.000000 1.871240 
# 
# From -- ./inp_files/5702.got.cif
#   From: 2010.05.17/outbox.cif.g08.bks.cpg/sg46_3_cif.got.tgz:5702.got - 2010.06.03 19:58:25.
