data_PCOD9379969
_publ_section_title
;
Structure prediction by ZEFSAII (Michael W. Deem and Ramdas Pophale) SiO2 
 PCOD9379969
Probable space group: I M A 2
;
_chemical_formula_sum "Si O2"
_cell_formula_units_Z 56
_cell_length_a 20.649190
_cell_length_b 23.348220
_cell_length_c 5.161664
_cell_angle_alpha 90.000000
_cell_angle_beta 90.000000
_cell_angle_gamma 90.000000
_cell_volume 2488.550898
_symmetry_space_group_name_H-M "I M A 2"
_symmetry_group_IT_number 46
_symmetry_cell_setting 'orthorhombic'
loop_
_space_group_symop_operation_xyz
x,y,z
-x,-y,z
1/2-x,y,z
1/2+x,-y,z
1/2+x,1/2+y,1/2+z
1/2-x,1/2-y,1/2+z
-x,1/2+y,1/2+z
x,1/2-y,1/2+z
loop_
_atom_site_type_symbol
_atom_site_label
_atom_site_fract_x
_atom_site_fract_y
_atom_site_fract_z
Si Si1 0.402860 0.210872 0.805410
Si Si2 0.321925 0.122279 0.108241
Si Si3 0.919197 0.559670 0.904729
Si Si4 0.552131 0.214234 0.872439
Si Si5 0.559260 0.435737 0.752231
Si Si6 0.883762 0.395584 0.258222
Si Si7 0.180292 0.491312 0.298991
O O1 0.393230 0.241231 0.530258
O O2 0.352697 0.161028 0.883137
O O3 0.478250 0.191697 0.825616
O O4 0.250000 0.142555 0.183689
O O5 0.315277 0.055883 0.022650
O O6 0.377331 0.114127 0.321254
O O7 0.927111 0.503213 0.723730
O O8 0.993663 0.576798 0.910515
O O9 0.881762 0.530934 0.141571
O O10 0.555954 0.267124 0.671108
O O11 0.610700 0.171967 0.796879
O O12 0.559051 0.412186 0.463500
O O13 0.610430 0.408970 0.953201
O O14 0.830404 0.441585 0.357042
O O15 0.250000 0.485788 0.156022
#
# Coordination Sequence:
#
# PCOD9379969 Si02
#       7
#     8   8   8   8   8   8   8
#     4  10  24  42  60  85 117 157 207 259 307 355
#     4  11  23  39  61  84 120 167 210 253 298 362
#     4  10  21  35  56  87 124 157 202 249 310 368
#     4  10  21  38  62  88 118 154 198 254 311 364
#     4  10  22  33  60  89 125 156 198 249 313 371
#     4  11  21  40  61  93 124 163 199 253 316 379
#     4  10  23  40  60  90 129 169 206 250 310 378
#
# _framework density 22.503057999999999
#
# number of rings (size 3 to 8) (size 9 to 14) (size 15 to 20)
#    0.000    1.714    1.429    2.143    6.000    2.857 
#    0.000    0.000    0.000    0.857    0.000    0.000 
#    0.000    0.000    0.000    0.000    0.000    0.000 
#
# Total GULP energy -155879.278251 kJ/mol
# GULP energy per Si atom -5567.117080 kJ/mol
# Density = 2.245184 g / cm^3
# Si number density = 22.503058 Si / 1000 Ang^3
#
#
#
# Elastic Constant Matrix: (Units=GPa)
#
#
# Indices 1 2 3 4 5 6 
#
# 1 62.8856 31.6127 12.1190 0.0000 0.0000 0.0000
# 2 31.6127 63.3325 0.7127 0.0000 0.0000 0.0000
# 3 12.1190 0.7127 68.5971 0.0000 0.0000 0.0000
# 4 0.0000 0.0000 0.0000 37.1040 0.0000 0.0000
# 5 0.0000 0.0000 0.0000 0.0000 39.3662 0.0000
# 6 0.0000 0.0000 0.0000 0.0000 0.0000 12.7927
#
#
#
# Elastic Compliance Matrix: (Units=1/GPa)
#
#
# Indices 1 2 3 4 5 6 
#
# 1 0.022179 -0.011028 -0.003804 0.000000 0.000000 0.000000
# 2 -0.011028 0.021275 0.001727 0.000000 0.000000 0.000000
# 3 -0.003804 0.001727 0.015232 0.000000 0.000000 0.000000
# 4 0.000000 0.000000 0.000000 0.026951 0.000000 0.000000
# 5 0.000000 0.000000 0.000000 0.000000 0.025402 0.000000
# 6 0.000000 0.000000 0.000000 0.000000 0.000000 0.078170
#
#
# Mechanical properties :
#
#
# Convention : Reuss Voigt Hill
#
# Bulk Modulus (GPa) = 30.79113 31.52265 31.15689
# Shear Modulus (GPa) = 22.10016 27.87732 24.98874
#
# Velocity S-wave (km/s) = 3.13724 3.52351 3.33597
# Velocity P-wave (km/s) = 5.18033 5.53101 5.35854
#
# Compressibility (1/GPa) = 0.03247689
#
# Stress axis : x y z
#
# Youngs Moduli (GPa) = 45.08863 47.00409 65.65164
#
# Poissons Ratio (x) = 0.51835 0.24972
# Poissons Ratio (y) = 0.49722 -0.11339
# Poissons Ratio (z) = 0.17150 -0.08119
#
# Static dielectric constant tensor:
#      x y z
#    x 1.849690 0.000000 0.000000 
#    y 0.000000 1.924730 0.000000 
#    z 0.000000 0.000000 1.886430 
# 
# From -- ./inp_files/2124.got.cif
#   From: 2010.05.17/outbox.cif.g08.bks.cpg/sg46_2_cif.got.tgz:2124.got - 2010.06.03 19:58:25.
