data_PCOD9379169
_publ_section_title
;
Structure prediction by ZEFSAII (Michael W. Deem and Ramdas Pophale) SiO2 
 PCOD9379169
Probable space group: I M A 2
;
_chemical_formula_sum "Si O2"
_cell_formula_units_Z 44
_cell_length_a 17.648231
_cell_length_b 15.424789
_cell_length_c 8.342342
_cell_angle_alpha 90.000000
_cell_angle_beta 90.000000
_cell_angle_gamma 90.000000
_cell_volume 2270.954336
_symmetry_space_group_name_H-M "I M A 2"
_symmetry_group_IT_number 46
_symmetry_cell_setting 'orthorhombic'
loop_
_space_group_symop_operation_xyz
x,y,z
-x,-y,z
1/2-x,y,z
1/2+x,-y,z
1/2+x,1/2+y,1/2+z
1/2-x,1/2-y,1/2+z
-x,1/2+y,1/2+z
x,1/2-y,1/2+z
loop_
_atom_site_type_symbol
_atom_site_label
_atom_site_fract_x
_atom_site_fract_y
_atom_site_fract_z
Si Si1 0.401583 0.471314 0.674380
Si Si2 0.919368 0.035634 0.811947
Si Si3 0.912064 0.221109 0.965810
Si Si4 0.022150 0.858456 0.278016
Si Si5 0.750000 0.435014 0.171863
Si Si6 0.250000 0.547148 0.788718
Si Si7 0.750000 0.243812 0.325529
O O1 0.415506 0.489135 0.486669
O O2 0.437729 0.379896 0.721493
O O3 0.440006 0.547876 0.779693
O O4 0.317528 0.491961 0.717351
O O5 0.928739 0.137662 0.854213
O O6 0.833614 0.028947 0.734369
O O7 0.000000 0.000000 0.737309
O O8 0.967573 0.301027 0.932264
O O9 0.826783 0.251070 0.930276
O O10 0.928297 0.190767 0.144479
O O11 0.750000 0.333694 0.225463
O O12 0.750000 0.447452 0.981035
O O13 0.250000 0.649440 0.738630
#
# Coordination Sequence:
#
# PCOD9379169 Si02
#       7
#     8   8   8   8   4   4   4
#     4  10  20  39  59  81 121 163 207 234 309 376
#     4  10  19  40  61  84 121 166 202 245 306 381
#     4  10  20  33  57  85 122 150 201 245 294 375
#     4  10  20  36  56  87 113 159 202 241 295 372
#     4  10  25  36  55  97 120 152 211 252 316 363
#     4  12  23  38  59  87 128 158 195 270 304 373
#     4  10  22  30  54  88 126 156 180 236 334 362
#
# _framework density 19.375112999999999
#
# number of rings (size 3 to 8) (size 9 to 14) (size 15 to 20)
#    0.000    1.818    5.455    0.545    5.091    3.636 
#    6.545    0.000    0.000    2.182    0.000    0.000 
#    0.000    0.000    0.000    0.000    0.000    0.000 
#
# Total GULP energy -122501.507458 kJ/mol
# GULP energy per Si atom -5568.250339 kJ/mol
# Density = 1.933101 g / cm^3
# Si number density = 19.375113 Si / 1000 Ang^3
#
#
#
# Elastic Constant Matrix: (Units=GPa)
#
#
# Indices 1 2 3 4 5 6 
#
# 1 167.8287 43.6955 34.7570 0.0000 0.0000 0.0000
# 2 43.6955 39.3217 19.8439 0.0000 0.0000 0.0000
# 3 34.7570 19.8439 27.7755 0.0000 0.0000 0.0000
# 4 0.0000 0.0000 0.0000 -11.6379 0.0000 0.0000
# 5 0.0000 0.0000 0.0000 0.0000 6.1108 0.0000
# 6 0.0000 0.0000 0.0000 0.0000 0.0000 27.6160
#
#
#
# Elastic Compliance Matrix: (Units=1/GPa)
#
#
# Indices 1 2 3 4 5 6 
#
# 1 0.009076 -0.006809 -0.006493 0.000000 0.000000 0.000000
# 2 -0.006809 0.044878 -0.023543 0.000000 0.000000 0.000000
# 3 -0.006493 -0.023543 0.060947 0.000000 0.000000 0.000000
# 4 0.000000 0.000000 0.000000 -0.085926 0.000000 0.000000
# 5 0.000000 0.000000 0.000000 0.000000 0.163644 0.000000
# 6 0.000000 0.000000 0.000000 0.000000 0.000000 0.036211
#
#
# Mechanical properties :
#
#
# Convention : Reuss Voigt Hill
#
# Bulk Modulus (GPa) = 24.26394 47.94653 36.10523
# Shear Modulus (GPa) = 15.80999 13.52641 14.66820
#
# Velocity S-wave (km/s) = 2.85966 2.64509 2.75446
# Velocity P-wave (km/s) = 4.84293 5.84199 5.36576
#
# Compressibility (1/GPa) = 0.04121343
#
# Stress axis : x y z
#
# Youngs Moduli (GPa) = 110.18331 22.28248 16.40766
#
# Poissons Ratio (x) = 0.15172 0.10653
# Poissons Ratio (y) = 0.75022 0.38628
# Poissons Ratio (z) = 0.71537 0.52459
#
# Static dielectric constant tensor:
#      x y z
#    x 1.907300 0.000000 0.000000 
#    y 0.000000 1.696360 0.000000 
#    z 0.000000 0.000000 1.750830 
# 
# From -- ./inp_files/6557.got.cif
#   From: 2010.05.17/outbox.cif.g08.bks.cpg/sg46_4_cif.got.tgz:6557.got - 2010.06.03 19:58:25.
