data_PCOD9379784
_publ_section_title
;
Structure prediction by ZEFSAII (Michael W. Deem and Ramdas Pophale) SiO2 
 PCOD9379784
Probable space group: I M A 2
;
_chemical_formula_sum "Si O2"
_cell_formula_units_Z 60
_cell_length_a 9.420309
_cell_length_b 19.572762
_cell_length_c 15.889648
_cell_angle_alpha 90.000000
_cell_angle_beta 90.000000
_cell_angle_gamma 90.000000
_cell_volume 2929.756593
_symmetry_space_group_name_H-M "I M A 2"
_symmetry_group_IT_number 46
_symmetry_cell_setting 'orthorhombic'
loop_
_space_group_symop_operation_xyz
x,y,z
-x,-y,z
1/2-x,y,z
1/2+x,-y,z
1/2+x,1/2+y,1/2+z
1/2-x,1/2-y,1/2+z
-x,1/2+y,1/2+z
x,1/2-y,1/2+z
loop_
_atom_site_type_symbol
_atom_site_label
_atom_site_fract_x
_atom_site_fract_y
_atom_site_fract_z
Si Si1 0.019276 0.401193 0.834190
Si Si2 0.583744 0.935867 0.658600
Si Si3 0.082802 0.625680 0.312878
Si Si4 0.411808 0.245075 0.261464
Si Si5 0.250000 0.520390 0.800202
Si Si6 0.082464 0.341842 0.000180
Si Si7 0.081729 0.571283 0.503257
Si Si8 0.080703 0.200505 0.070318
O O1 0.874621 0.421911 0.790132
O O2 0.077664 0.328887 0.802955
O O3 0.129341 0.461330 0.818314
O O4 0.997547 0.387407 0.933822
O O5 0.750000 0.950515 0.671370
O O6 0.506613 0.917066 0.745105
O O7 0.570916 0.874547 0.592412
O O8 0.500000 0.000000 0.621527
O O9 0.250000 0.625238 0.292328
O O10 0.066075 0.594118 0.405649
O O11 0.018377 0.701495 0.303503
O O12 0.250000 0.271994 0.268937
O O13 0.441203 0.230907 0.163302
O O14 0.250000 0.345753 0.977362
O O15 0.042782 0.262146 0.006406
O O16 0.250000 0.564369 0.521867
O O17 0.000000 0.500000 0.517794
O O18 0.008835 0.632479 0.555206
O O19 0.250000 0.186292 0.061305
#
# Coordination Sequence:
#
# PCOD9379784 Si02
#       8
#     8   8   8   8   4   8   8   8
#     4  11  22  41  61  90 122 170 208 259 311 373
#     4  11  23  38  60  93 130 169 211 257 316 379
#     4  11  24  42  66  94 127 164 217 268 320 382
#     4  11  22  42  67  95 127 169 212 258 320 382
#     4  10  24  40  60  88 126 160 216 258 308 374
#     4  10  20  38  63  90 127 168 209 252 311 379
#     4  11  25  45  67  95 126 167 217 270 328 384
#     4  10  22  43  66  96 127 164 213 261 313 386
#
# _framework density 20.479516
#
# number of rings (size 3 to 8) (size 9 to 14) (size 15 to 20)
#    0.000    1.333    2.667    2.400    2.800    4.800 
#    4.800    0.000    0.000    0.000    0.000    0.000 
#    0.000    0.000    0.000    0.000    0.000    0.000 
#
# Total GULP energy -167112.776108 kJ/mol
# GULP energy per Si atom -5570.425870 kJ/mol
# Density = 2.043290 g / cm^3
# Si number density = 20.479516 Si / 1000 Ang^3
#
#
#
# Elastic Constant Matrix: (Units=GPa)
#
#
# Indices 1 2 3 4 5 6 
#
# 1 119.3533 42.4855 5.4968 0.0000 0.0000 0.0000
# 2 42.4855 119.0708 -2.8755 0.0000 0.0000 0.0000
# 3 5.4968 -2.8755 12.9251 0.0000 0.0000 0.0000
# 4 0.0000 0.0000 0.0000 15.4475 0.0000 0.0000
# 5 0.0000 0.0000 0.0000 0.0000 1.4578 0.0000
# 6 0.0000 0.0000 0.0000 0.0000 0.0000 36.1146
#
#
#
# Elastic Compliance Matrix: (Units=1/GPa)
#
#
# Indices 1 2 3 4 5 6 
#
# 1 0.009912 -0.003658 -0.005029 0.000000 0.000000 0.000000
# 2 -0.003658 0.009794 0.003735 0.000000 0.000000 0.000000
# 3 -0.005029 0.003735 0.080338 0.000000 0.000000 0.000000
# 4 0.000000 0.000000 0.000000 0.064735 0.000000 0.000000
# 5 0.000000 0.000000 0.000000 0.000000 0.685988 0.000000
# 6 0.000000 0.000000 0.000000 0.000000 0.000000 0.027690
#
#
# Mechanical properties :
#
#
# Convention : Reuss Voigt Hill
#
# Bulk Modulus (GPa) = 11.09404 37.95143 24.52273
# Shear Modulus (GPa) = 5.44419 24.35346 14.89882
#
# Velocity S-wave (km/s) = 1.63222 3.45216 2.70014
# Velocity P-wave (km/s) = 2.99684 5.87040 4.66061
#
# Compressibility (1/GPa) = 0.09013852
#
# Stress axis : x y z
#
# Youngs Moduli (GPa) = 100.88445 102.10480 12.44736
#
# Poissons Ratio (x) = 0.37353 0.06260
# Poissons Ratio (y) = 0.36906 -0.04649
# Poissons Ratio (z) = 0.50739 -0.38133
#
# Static dielectric constant tensor:
#      x y z
#    x 1.683840 0.000000 0.000000 
#    y 0.000000 1.733010 0.000000 
#    z 0.000000 0.000000 1.788270 
# 
# From -- ./inp_files/18382.got.cif
#   From: 2010.05.17/outbox.cif.g08.bks.cpg/sg46_10_cif.got.tgz:18382.got - 2010.06.03 19:58:25.
