data_PCOD9379571
_publ_section_title
;
Structure prediction by ZEFSAII (Michael W. Deem and Ramdas Pophale) SiO2 
 PCOD9379571
Probable space group: I M A 2
;
_chemical_formula_sum "Si O2"
_cell_formula_units_Z 64
_cell_length_a 8.058347
_cell_length_b 14.095034
_cell_length_c 25.368680
_cell_angle_alpha 90.000000
_cell_angle_beta 90.000000
_cell_angle_gamma 90.000000
_cell_volume 2881.442534
_symmetry_space_group_name_H-M "I M A 2"
_symmetry_group_IT_number 46
_symmetry_cell_setting 'orthorhombic'
loop_
_space_group_symop_operation_xyz
x,y,z
-x,-y,z
1/2-x,y,z
1/2+x,-y,z
1/2+x,1/2+y,1/2+z
1/2-x,1/2-y,1/2+z
-x,1/2+y,1/2+z
x,1/2-y,1/2+z
loop_
_atom_site_type_symbol
_atom_site_label
_atom_site_fract_x
_atom_site_fract_y
_atom_site_fract_z
Si Si1 0.946200 0.390738 0.697460
Si Si2 0.052753 0.290093 0.917371
Si Si3 0.443707 0.890953 0.752592
Si Si4 0.050868 0.609052 0.469485
Si Si5 0.549228 0.889665 0.522794
Si Si6 0.449458 0.388645 0.137311
Si Si7 0.442554 0.209921 0.303211
Si Si8 0.549649 0.111393 0.085051
O O1 0.750000 0.388317 0.691791
O O2 0.015197 0.350506 0.641378
O O3 0.000000 0.500000 0.701622
O O4 0.987744 0.339626 0.751491
O O5 0.250000 0.308665 0.916606
O O6 0.983552 0.340919 0.969663
O O7 0.983203 0.317283 0.860055
O O8 0.024087 0.178876 0.926683
O O9 0.250000 0.884967 0.763641
O O10 0.474823 0.855123 0.692486
O O11 0.536931 0.821769 0.792338
O O12 0.500000 0.000000 0.755471
O O13 0.250000 0.615256 0.467898
O O14 0.988539 0.643568 0.527609
O O15 0.000000 0.500000 0.462874
O O16 0.750000 0.883103 0.523413
O O17 0.492544 0.850180 0.580207
O O18 0.500000 0.000000 0.520636
O O19 0.500000 0.500000 0.135446
O O20 0.250000 0.381471 0.141226
O O21 0.250000 0.185576 0.304732
O O22 0.750000 0.119218 0.083435
O O23 0.500000 0.000000 0.086269
#
# Coordination Sequence:
#
# PCOD9379571 Si02
#       8
#     8   8   8   8   8   8   8   8
#     4  10  20  37  60  86 117 150 186 229 279 332
#     4  10  23  41  57  78 110 147 190 235 275 323
#     4  11  22  38  60  85 114 146 183 228 281 337
#     4  10  20  36  59  85 113 145 181 223 275 331
#     4   9  19  36  58  84 113 146 182 224 275 328
#     4   9  16  30  54  84 115 144 178 219 271 333
#     4  11  24  41  58  79 110 149 195 239 278 326
#     4   8  16  31  53  83 114 143 177 219 270 330
#
# _framework density 22.211098
#
# number of rings (size 3 to 8) (size 9 to 14) (size 15 to 20)
#    0.000    2.250    0.000    3.375    0.000    5.000 
#    0.000    3.750    0.000    0.000    0.000    0.000 
#    0.000    0.000    0.000    0.000    0.000    0.000 
#
# Total GULP energy -178623.622360 kJ/mol
# GULP energy per Si atom -5581.988199 kJ/mol
# Density = 2.216054 g / cm^3
# Si number density = 22.211098 Si / 1000 Ang^3
#
#
#
# Elastic Constant Matrix: (Units=GPa)
#
#
# Indices 1 2 3 4 5 6 
#
# 1 31.3419 -18.2879 1.1683 0.0000 0.0000 0.0000
# 2 -18.2879 37.1738 17.1628 0.0000 0.0000 0.0000
# 3 1.1683 17.1628 131.1903 0.0000 0.0000 0.0000
# 4 0.0000 0.0000 0.0000 -9.1300 0.0000 0.0000
# 5 0.0000 0.0000 0.0000 0.0000 3.7452 0.0000
# 6 0.0000 0.0000 0.0000 0.0000 0.0000 24.8580
#
#
#
# Elastic Compliance Matrix: (Units=1/GPa)
#
#
# Indices 1 2 3 4 5 6 
#
# 1 0.046306 0.024447 -0.003611 0.000000 0.000000 0.000000
# 2 0.024447 0.041537 -0.005652 0.000000 0.000000 0.000000
# 3 -0.003611 -0.005652 0.008394 0.000000 0.000000 0.000000
# 4 0.000000 0.000000 0.000000 -0.109529 0.000000 0.000000
# 5 0.000000 0.000000 0.000000 0.000000 0.267009 0.000000
# 6 0.000000 0.000000 0.000000 0.000000 0.000000 0.040228
#
#
# Mechanical properties :
#
#
# Convention : Reuss Voigt Hill
#
# Bulk Modulus (GPa) = 7.89849 22.19918 15.04883
# Shear Modulus (GPa) = 16.35176 17.20550 16.77863
#
# Velocity S-wave (km/s) = 2.71624 2.78625 2.75147
# Velocity P-wave (km/s) = 3.66075 4.51301 4.10903
#
# Compressibility (1/GPa) = 0.12660650
#
# Stress axis : x y z
#
# Youngs Moduli (GPa) = 21.59563 24.07494 119.13199
#
# Poissons Ratio (x) = -0.58857 0.43015
# Poissons Ratio (y) = -0.52795 0.67330
# Poissons Ratio (z) = 0.07797 0.13607
#
# Static dielectric constant tensor:
#      x y z
#    x 1.801420 0.000000 0.000000 
#    y 0.000000 1.819860 0.000000 
#    z 0.000000 0.000000 1.902770 
# 
# From -- ./inp_files/23202.got.cif
#   From: 2010.05.17/outbox.cif.g08.bks.cpg/sg46_12_cif.got.tgz:23202.got - 2010.06.03 19:58:25.
