data_PCOD9379868
_publ_section_title
;
Structure prediction by ZEFSAII (Michael W. Deem and Ramdas Pophale) SiO2 
 PCOD9379868
Probable space group: I M A 2
;
_chemical_formula_sum "Si O2"
_cell_formula_units_Z 44
_cell_length_a 14.603589
_cell_length_b 12.313248
_cell_length_c 13.792329
_cell_angle_alpha 90.000000
_cell_angle_beta 90.000000
_cell_angle_gamma 90.000000
_cell_volume 2480.103679
_symmetry_space_group_name_H-M "I M A 2"
_symmetry_group_IT_number 46
_symmetry_cell_setting 'orthorhombic'
loop_
_space_group_symop_operation_xyz
x,y,z
-x,-y,z
1/2-x,y,z
1/2+x,-y,z
1/2+x,1/2+y,1/2+z
1/2-x,1/2-y,1/2+z
-x,1/2+y,1/2+z
x,1/2-y,1/2+z
loop_
_atom_site_type_symbol
_atom_site_label
_atom_site_fract_x
_atom_site_fract_y
_atom_site_fract_z
Si Si1 0.642658 0.868888 0.035400
Si Si2 0.859053 0.979133 0.431834
Si Si3 0.046817 0.384547 0.334793
Si Si4 0.479451 0.848662 0.334413
Si Si5 0.358381 0.135032 0.628429
Si Si6 0.000000 0.500000 0.656399
O O1 0.750000 0.886993 0.049952
O O2 0.618387 0.751836 0.081642
O O3 0.582296 0.958079 0.090206
O O4 0.618443 0.868021 0.922012
O O5 0.750000 0.969540 0.413011
O O6 0.875898 0.953454 0.544706
O O7 0.921258 0.892541 0.372472
O O8 0.902188 0.093669 0.399762
O O9 0.090841 0.383388 0.228521
O O10 0.000000 0.500000 0.350806
O O11 0.979851 0.280311 0.338273
O O12 0.470789 0.901747 0.227954
O O13 0.250000 0.135515 0.647241
#
# Coordination Sequence:
#
# PCOD9379868 Si02
#       6
#     8   8   8   8   8   4
#     4  11  22  38  61  88 121 156 200 249 297 357
#     4   9  19  37  63  89 115 150 197 253 296 343
#     4  12  24  37  59  87 126 162 195 247 300 359
#     4  10  22  37  61  92 118 156 206 244 292 365
#     4  10  21  37  61  89 115 151 202 251 298 347
#     4  10  20  40  58  88 120 152 200 244 306 352
#
# _framework density 17.741194
#
# number of rings (size 3 to 8) (size 9 to 14) (size 15 to 20)
#    0.000    1.818    4.545    0.545    2.545    3.636 
#    0.000    1.818    0.000    0.000    0.000    0.000 
#    0.000    0.000    0.000    0.000    0.000    0.000 
#
# Total GULP energy -122739.075331 kJ/mol
# GULP energy per Si atom -5579.048879 kJ/mol
# Density = 1.770081 g / cm^3
# Si number density = 17.741194 Si / 1000 Ang^3
#
#
#
# Elastic Constant Matrix: (Units=GPa)
#
#
# Indices 1 2 3 4 5 6 
#
# 1 77.6309 33.7271 47.4042 0.0000 0.0000 0.0000
# 2 33.7271 112.1777 31.3753 0.0000 0.0000 0.0000
# 3 47.4042 31.3753 111.7420 0.0000 0.0000 0.0000
# 4 0.0000 0.0000 0.0000 28.9339 0.0000 0.0000
# 5 0.0000 0.0000 0.0000 0.0000 17.3343 0.0000
# 6 0.0000 0.0000 0.0000 0.0000 0.0000 14.2792
#
#
#
# Elastic Compliance Matrix: (Units=1/GPa)
#
#
# Indices 1 2 3 4 5 6 
#
# 1 0.018696 -0.003693 -0.006894 0.000000 0.000000 0.000000
# 2 -0.003693 0.010404 -0.001355 0.000000 0.000000 0.000000
# 3 -0.006894 -0.001355 0.012254 0.000000 0.000000 0.000000
# 4 0.000000 0.000000 0.000000 0.034562 0.000000 0.000000
# 5 0.000000 0.000000 0.000000 0.000000 0.057689 0.000000
# 6 0.000000 0.000000 0.000000 0.000000 0.000000 0.070032
#
#
# Mechanical properties :
#
#
# Convention : Reuss Voigt Hill
#
# Bulk Modulus (GPa) = 57.24031 58.50707 57.87369
# Shear Modulus (GPa) = 21.42767 24.71242 23.07004
#
# Velocity S-wave (km/s) = 3.47910 3.73626 3.60997
# Velocity P-wave (km/s) = 6.96225 7.18767 7.07586
#
# Compressibility (1/GPa) = 0.01747020
#
# Stress axis : x y z
#
# Youngs Moduli (GPa) = 53.48801 96.12121 81.60362
#
# Poissons Ratio (x) = 0.35495 0.56261
# Poissons Ratio (y) = 0.19752 0.11054
# Poissons Ratio (z) = 0.36877 0.13020
#
# Static dielectric constant tensor:
#      x y z
#    x 1.581830 0.000000 0.000000 
#    y 0.000000 1.617530 0.000000 
#    z 0.000000 0.000000 1.614860 
# 
# From -- ./inp_files/15800.got.cif
#   From: 2010.05.17/outbox.cif.g08.bks.cpg/sg46_8_cif.got.tgz:15800.got - 2010.06.03 19:58:25.
