data_PCOD9379183
_publ_section_title
;
Structure prediction by ZEFSAII (Michael W. Deem and Ramdas Pophale) SiO2 
 PCOD9379183
Probable space group: I M A 2
;
_chemical_formula_sum "Si O2"
_cell_formula_units_Z 40
_cell_length_a 9.169411
_cell_length_b 20.974725
_cell_length_c 12.947857
_cell_angle_alpha 90.000000
_cell_angle_beta 90.000000
_cell_angle_gamma 90.000000
_cell_volume 2490.207916
_symmetry_space_group_name_H-M "I M A 2"
_symmetry_group_IT_number 46
_symmetry_cell_setting 'orthorhombic'
loop_
_space_group_symop_operation_xyz
x,y,z
-x,-y,z
1/2-x,y,z
1/2+x,-y,z
1/2+x,1/2+y,1/2+z
1/2-x,1/2-y,1/2+z
-x,1/2+y,1/2+z
x,1/2-y,1/2+z
loop_
_atom_site_type_symbol
_atom_site_label
_atom_site_fract_x
_atom_site_fract_y
_atom_site_fract_z
Si Si1 0.922487 0.192104 0.910440
Si Si2 0.574910 0.297126 0.640365
Si Si3 0.076128 0.334279 0.204967
Si Si4 0.577990 0.341887 0.861525
Si Si5 0.424034 0.431728 0.024031
O O1 0.750000 0.180461 0.895120
O O2 0.011816 0.158743 0.819790
O O3 0.944578 0.268569 0.897687
O O4 0.962964 0.175760 0.027991
O O5 0.750000 0.285233 0.641154
O O6 0.495591 0.229934 0.658863
O O7 0.542919 0.340990 0.739412
O O8 0.250000 0.326499 0.209105
O O9 0.041512 0.392301 0.128437
O O10 0.750000 0.356110 0.874942
O O11 0.483709 0.389360 0.929433
O O12 0.500000 0.500000 0.024460
O O13 0.250000 0.438406 0.016677
#
# Coordination Sequence:
#
# PCOD9379183 Si02
#       5
#     8   8   8   8   8
#     4   9  17  30  51  75 102 134 164 198 244 302
#     4   9  17  31  51  75 102 133 164 199 246 300
#     4  10  20  31  46  73 104 130 164 208 253 295
#     4   9  17  30  50  74 101 130 165 205 244 294
#     4  11  23  36  51  71  99 135 172 210 249 293
#
# _framework density 16.062916000000001
#
# number of rings (size 3 to 8) (size 9 to 14) (size 15 to 20)
#    0.000    2.400    2.000    2.400    0.000    6.400 
#    0.000    0.000    0.000    1.200    0.000    2.800 
#    0.000    0.000    0.000    0.000    0.000    0.000 
#
# Total GULP energy -111509.635613 kJ/mol
# GULP energy per Si atom -5575.481781 kJ/mol
# Density = 1.602636 g / cm^3
# Si number density = 16.062916 Si / 1000 Ang^3
#
#
#
# Elastic Constant Matrix: (Units=GPa)
#
#
# Indices 1 2 3 4 5 6 
#
# 1 53.9273 49.7338 64.1155 0.0000 0.0000 0.0000
# 2 49.7338 72.0420 55.4275 0.0000 0.0000 0.0000
# 3 64.1155 55.4275 170.9697 0.0000 0.0000 0.0000
# 4 0.0000 0.0000 0.0000 14.3139 0.0000 0.0000
# 5 0.0000 0.0000 0.0000 0.0000 26.8169 0.0000
# 6 0.0000 0.0000 0.0000 0.0000 0.0000 21.2895
#
#
#
# Elastic Compliance Matrix: (Units=1/GPa)
#
#
# Indices 1 2 3 4 5 6 
#
# 1 0.069512 -0.037214 -0.014003 0.000000 0.000000 0.000000
# 2 -0.037214 0.038416 0.001501 0.000000 0.000000 0.000000
# 3 -0.014003 0.001501 0.010614 0.000000 0.000000 0.000000
# 4 0.000000 0.000000 0.000000 0.069862 0.000000 0.000000
# 5 0.000000 0.000000 0.000000 0.000000 0.037290 0.000000
# 6 0.000000 0.000000 0.000000 0.000000 0.000000 0.046972
#
#
# Mechanical properties :
#
#
# Convention : Reuss Voigt Hill
#
# Bulk Modulus (GPa) = 52.32724 70.61029 61.46876
# Shear Modulus (GPa) = 13.21117 20.99485 17.10301
#
# Velocity S-wave (km/s) = 2.87097 3.61922 3.26659
# Velocity P-wave (km/s) = 6.60584 7.84341 7.25107
#
# Compressibility (1/GPa) = 0.01911051
#
# Stress axis : x y z
#
# Youngs Moduli (GPa) = 14.38594 26.03082 94.21759
#
# Poissons Ratio (x) = 0.96870 1.31937
# Poissons Ratio (y) = 0.53535 -0.14144
# Poissons Ratio (z) = 0.20145 -0.03908
#
# Static dielectric constant tensor:
#      x y z
#    x 1.531680 0.000000 0.000000 
#    y 0.000000 1.494940 0.000000 
#    z 0.000000 0.000000 1.570520 
# 
# From -- ./inp_files/13995.got.cif
#   From: 2010.05.17/outbox.cif.g08.bks.cpg/sg46_7_cif.got.tgz:13995.got - 2010.06.03 19:58:25.
