data_PCOD9379615
_publ_section_title
;
Structure prediction by ZEFSAII (Michael W. Deem and Ramdas Pophale) SiO2 
 PCOD9379615
Probable space group: I M A 2
;
_chemical_formula_sum "Si O2"
_cell_formula_units_Z 56
_cell_length_a 14.618868
_cell_length_b 8.802573
_cell_length_c 20.631714
_cell_angle_alpha 90.000000
_cell_angle_beta 90.000000
_cell_angle_gamma 90.000000
_cell_volume 2654.964320
_symmetry_space_group_name_H-M "I M A 2"
_symmetry_group_IT_number 46
_symmetry_cell_setting 'orthorhombic'
loop_
_space_group_symop_operation_xyz
x,y,z
-x,-y,z
1/2-x,y,z
1/2+x,-y,z
1/2+x,1/2+y,1/2+z
1/2-x,1/2-y,1/2+z
-x,1/2+y,1/2+z
x,1/2-y,1/2+z
loop_
_atom_site_type_symbol
_atom_site_label
_atom_site_fract_x
_atom_site_fract_y
_atom_site_fract_z
Si Si1 0.603447 0.165185 0.063630
Si Si2 0.352007 0.293989 0.901245
Si Si3 0.479673 0.680418 0.827689
Si Si4 0.440204 0.799437 0.693656
Si Si5 0.112916 0.169345 0.037000
Si Si6 0.856876 0.631509 0.159215
Si Si7 0.146886 0.636925 0.943758
O O1 0.605433 0.195084 0.139785
O O2 0.496661 0.167999 0.043573
O O3 0.644216 0.999044 0.055119
O O4 0.641924 0.295146 0.015905
O O5 0.250000 0.301609 0.875500
O O6 0.421217 0.252767 0.844522
O O7 0.374113 0.458134 0.934416
O O8 0.359218 0.187815 0.962963
O O9 0.500000 0.500000 0.816903
O O10 0.426971 0.752038 0.767548
O O11 0.423543 0.709606 0.893624
O O12 0.551696 0.782239 0.686105
O O13 0.395637 0.961725 0.673686
O O14 0.145336 0.304218 0.085012
O O15 0.750000 0.645316 0.182024
O O16 0.250000 0.660482 0.920477
#
# Coordination Sequence:
#
# PCOD9379615 Si02
#       7
#     8   8   8   8   8   8   8
#     4  10  21  37  62  93 127 160 207 261 313 371
#     4  10  20  37  63  92 123 164 211 255 311 380
#     4  10  22  40  65  89 124 166 211 258 315 378
#     4  10  23  41  66  91 124 171 213 260 320 373
#     4  10  20  36  63  94 126 161 205 260 318 368
#     4  10  22  41  62  90 125 164 211 259 316 382
#     4  10  21  39  63  93 124 161 208 258 313 377
#
# _framework density 21.092561
#
# number of rings (size 3 to 8) (size 9 to 14) (size 15 to 20)
#    0.000    2.000    1.429    1.286    4.000    5.143 
#    5.143    0.000    0.000    0.000    0.000    0.000 
#    0.000    0.000    0.000    0.000    0.000    0.000 
#
# Total GULP energy -155885.167300 kJ/mol
# GULP energy per Si atom -5567.327404 kJ/mol
# Density = 2.104455 g / cm^3
# Si number density = 21.092561 Si / 1000 Ang^3
#
#
#
# Elastic Constant Matrix: (Units=GPa)
#
#
# Indices 1 2 3 4 5 6 
#
# 1 85.4789 15.1008 19.1428 0.0000 0.0000 0.0000
# 2 15.1008 60.6959 37.8476 0.0000 0.0000 0.0000
# 3 19.1428 37.8476 119.3412 0.0000 0.0000 0.0000
# 4 0.0000 0.0000 0.0000 0.3229 0.0000 0.0000
# 5 0.0000 0.0000 0.0000 0.0000 3.6213 0.0000
# 6 0.0000 0.0000 0.0000 0.0000 0.0000 -11.3809
#
#
#
# Elastic Compliance Matrix: (Units=1/GPa)
#
#
# Indices 1 2 3 4 5 6 
#
# 1 0.012386 -0.002297 -0.001258 0.000000 0.000000 0.000000
# 2 -0.002297 0.020963 -0.006280 0.000000 0.000000 0.000000
# 3 -0.001258 -0.006280 0.010573 0.000000 0.000000 0.000000
# 4 0.000000 0.000000 0.000000 3.097089 0.000000 0.000000
# 5 0.000000 0.000000 0.000000 0.000000 0.276142 0.000000
# 6 0.000000 0.000000 0.000000 0.000000 0.000000 -0.087866
#
#
# Mechanical properties :
#
#
# Convention : Reuss Voigt Hill
#
# Bulk Modulus (GPa) = 41.23391 45.52204 43.37798
# Shear Modulus (GPa) = 1.48941 11.40764 6.44852
#
# Velocity S-wave (km/s) = 0.84123 2.32811 1.75040
# Velocity P-wave (km/s) = 4.53156 5.37175 4.96944
#
# Compressibility (1/GPa) = 0.02425188
#
# Stress axis : x y z
#
# Youngs Moduli (GPa) = 80.73375 47.70348 94.58321
#
# Poissons Ratio (x) = 0.10957 0.11902
# Poissons Ratio (y) = 0.18545 0.59395
# Poissons Ratio (z) = 0.10159 0.29956
#
# Static dielectric constant tensor:
#      x y z
#    x 1.803410 0.000000 0.000000 
#    y 0.000000 1.811910 0.000000 
#    z 0.000000 0.000000 1.734460 
# 
# From -- ./inp_files/22011.got.cif
#   From: 2010.05.17/outbox.cif.g08.bks.cpg/sg46_12_cif.got.tgz:22011.got - 2010.06.03 19:58:25.
