data_PCOD9379916
_publ_section_title
;
Structure prediction by ZEFSAII (Michael W. Deem and Ramdas Pophale) SiO2 
 PCOD9379916
Probable space group: I M A 2
;
_chemical_formula_sum "Si O2"
_cell_formula_units_Z 40
_cell_length_a 13.681384
_cell_length_b 16.311212
_cell_length_c 7.855117
_cell_angle_alpha 90.000000
_cell_angle_beta 90.000000
_cell_angle_gamma 90.000000
_cell_volume 1752.947555
_symmetry_space_group_name_H-M "I M A 2"
_symmetry_group_IT_number 46
_symmetry_cell_setting 'orthorhombic'
loop_
_space_group_symop_operation_xyz
x,y,z
-x,-y,z
1/2-x,y,z
1/2+x,-y,z
1/2+x,1/2+y,1/2+z
1/2-x,1/2-y,1/2+z
-x,1/2+y,1/2+z
x,1/2-y,1/2+z
loop_
_atom_site_type_symbol
_atom_site_label
_atom_site_fract_x
_atom_site_fract_y
_atom_site_fract_z
Si Si1 0.363212 0.121882 0.695520
Si Si2 0.642736 0.063051 0.833732
Si Si3 0.483898 0.097110 0.354474
Si Si4 0.137985 0.691899 0.022449
Si Si5 0.012063 0.158749 0.009858
O O1 0.250000 0.145378 0.676357
O O2 0.422540 0.124858 0.519778
O O3 0.416356 0.169818 0.849333
O O4 0.366908 0.025780 0.749402
O O5 0.750000 0.067638 0.913399
O O6 0.636271 0.133601 0.688860
O O7 0.557422 0.082514 0.962273
O O8 0.591617 0.136833 0.373832
O O9 0.500000 0.000000 0.353973
O O10 0.436352 0.133433 0.184187
O O11 0.250000 0.716787 0.990709
O O12 0.063316 0.766947 0.036149
#
# Coordination Sequence:
#
# PCOD9379916 Si02
#       5
#     8   8   8   8   8
#     4  11  24  46  69  93 135 189 238 281 328 401
#     4  10  20  41  70  99 139 182 222 276 348 413
#     4  12  24  42  70 101 137 181 231 282 340 408
#     4  11  24  44  72 105 142 177 218 283 359 414
#     4  12  24  41  69 104 141 177 225 285 352 405
#
# _framework density 22.818709999999999
#
# number of rings (size 3 to 8) (size 9 to 14) (size 15 to 20)
#    0.000    0.800    4.000    3.600    0.000    4.000 
#    0.000    1.000    0.000    0.000    0.000    0.000 
#    0.000    0.000    0.000    0.000    0.000    0.000 
#
# Total GULP energy -111929.430643 kJ/mol
# GULP energy per Si atom -5596.471532 kJ/mol
# Density = 2.276677 g / cm^3
# Si number density = 22.818710 Si / 1000 Ang^3
#
#
#
# Elastic Constant Matrix: (Units=GPa)
#
#
# Indices 1 2 3 4 5 6 
#
# 1 133.6216 45.9296 52.1872 0.0000 0.0000 0.0000
# 2 45.9296 95.6263 30.1846 0.0000 0.0000 0.0000
# 3 52.1872 30.1846 133.4741 0.0000 0.0000 0.0000
# 4 0.0000 0.0000 0.0000 -38.6161 0.0000 0.0000
# 5 0.0000 0.0000 0.0000 0.0000 12.5857 0.0000
# 6 0.0000 0.0000 0.0000 0.0000 0.0000 31.7973
#
#
#
# Elastic Compliance Matrix: (Units=1/GPa)
#
#
# Indices 1 2 3 4 5 6 
#
# 1 0.009990 -0.003839 -0.003038 0.000000 0.000000 0.000000
# 2 -0.003839 0.012737 -0.001379 0.000000 0.000000 0.000000
# 3 -0.003038 -0.001379 0.008992 0.000000 0.000000 0.000000
# 4 0.000000 0.000000 0.000000 -0.025896 0.000000 0.000000
# 5 0.000000 0.000000 0.000000 0.000000 0.079456 0.000000
# 6 0.000000 0.000000 0.000000 0.000000 0.000000 0.031449
#
#
# Mechanical properties :
#
#
# Convention : Reuss Voigt Hill
#
# Bulk Modulus (GPa) = 65.76412 68.81388 67.28900
# Shear Modulus (GPa) = 36.15109 16.78140 26.46625
#
# Velocity S-wave (km/s) = 3.98461 2.71481 3.40935
# Velocity P-wave (km/s) = 7.07477 6.32844 6.71199
#
# Compressibility (1/GPa) = 0.01520586
#
# Stress axis : x y z
#
# Youngs Moduli (GPa) = 100.10092 78.51280 111.21344
#
# Poissons Ratio (x) = 0.30144 0.33784
# Poissons Ratio (y) = 0.38432 0.15339
# Poissons Ratio (z) = 0.30408 0.10829
#
# Static dielectric constant tensor:
#      x y z
#    x 1.829590 0.000000 0.000000 
#    y 0.000000 1.929340 0.000000 
#    z 0.000000 0.000000 1.905050 
# 
# From -- ./inp_files/5430.got.cif
#   From: 2010.05.17/outbox.cif.g08.bks.cpg/sg46_3_cif.got.tgz:5430.got - 2010.06.03 19:58:25.
