data_PCOD9379713
_publ_section_title
;
Structure prediction by ZEFSAII (Michael W. Deem and Ramdas Pophale) SiO2 
 PCOD9379713
Probable space group: I M A 2
;
_chemical_formula_sum "Si O2"
_cell_formula_units_Z 52
_cell_length_a 13.446978
_cell_length_b 11.946004
_cell_length_c 14.882179
_cell_angle_alpha 90.000000
_cell_angle_beta 90.000000
_cell_angle_gamma 90.000000
_cell_volume 2390.638306
_symmetry_space_group_name_H-M "I M A 2"
_symmetry_group_IT_number 46
_symmetry_cell_setting 'orthorhombic'
loop_
_space_group_symop_operation_xyz
x,y,z
-x,-y,z
1/2-x,y,z
1/2+x,-y,z
1/2+x,1/2+y,1/2+z
1/2-x,1/2-y,1/2+z
-x,1/2+y,1/2+z
x,1/2-y,1/2+z
loop_
_atom_site_type_symbol
_atom_site_label
_atom_site_fract_x
_atom_site_fract_y
_atom_site_fract_z
Si Si1 0.637014 0.984243 0.351060
Si Si2 0.141718 0.321009 0.618931
Si Si3 0.066385 0.255081 0.937107
Si Si4 0.636157 0.105662 0.704082
Si Si5 0.640208 0.180592 0.496881
Si Si6 0.419205 0.355814 0.261881
Si Si7 0.500000 0.500000 0.690262
O O1 0.750000 0.952593 0.331209
O O2 0.581784 0.873459 0.386770
O O3 0.637358 0.074566 0.430243
O O4 0.586445 0.032751 0.261321
O O5 0.250000 0.376205 0.617398
O O6 0.128067 0.250162 0.528453
O O7 0.132950 0.239352 0.703704
O O8 0.050914 0.406310 0.630019
O O9 0.100122 0.161164 0.866878
O O10 0.951756 0.244324 0.966658
O O11 0.750000 0.135118 0.731826
O O12 0.627282 0.135901 0.598540
O O13 0.538848 0.159829 0.749773
O O14 0.617311 0.974238 0.723615
O O15 0.750000 0.232869 0.490091
#
# Coordination Sequence:
#
# PCOD9379713 Si02
#       7
#     8   8   8   8   8   8   4
#     4  11  21  37  64  94 126 170 222 278 327 379
#     4  12  26  44  67  96 132 175 220 271 332 396
#     4  12  23  41  65  98 130 169 225 275 325 390
#     4  10  22  40  64  95 132 173 212 268 336 390
#     4  10  20  37  63  94 127 168 221 278 332 380
#     4  11  23  40  67  98 132 167 217 276 323 394
#     4  12  24  42  62  94 134 172 216 270 326 396
#
# _framework density 21.751512999999999
#
# number of rings (size 3 to 8) (size 9 to 14) (size 15 to 20)
#    0.000    0.923    4.615    2.308    2.154    4.923 
#    0.000    3.077    0.000    0.000    0.000    0.000 
#    0.000    0.000    0.000    0.000    0.000    0.000 
#
# Total GULP energy -145269.654072 kJ/mol
# GULP energy per Si atom -5587.294387 kJ/mol
# Density = 2.170201 g / cm^3
# Si number density = 21.751513 Si / 1000 Ang^3
#
#
#
# Elastic Constant Matrix: (Units=GPa)
#
#
# Indices 1 2 3 4 5 6 
#
# 1 137.3892 3.7442 19.8314 0.0000 0.0000 0.0000
# 2 3.7442 29.5413 6.6845 0.0000 0.0000 0.0000
# 3 19.8314 6.6845 89.2855 0.0000 0.0000 0.0000
# 4 0.0000 0.0000 0.0000 1.5218 0.0000 0.0000
# 5 0.0000 0.0000 0.0000 0.0000 -25.5262 0.0000
# 6 0.0000 0.0000 0.0000 0.0000 0.0000 23.8246
#
#
#
# Elastic Compliance Matrix: (Units=1/GPa)
#
#
# Indices 1 2 3 4 5 6 
#
# 1 0.007530 -0.000586 -0.001629 0.000000 0.000000 0.000000
# 2 -0.000586 0.034480 -0.002451 0.000000 0.000000 0.000000
# 3 -0.001629 -0.002451 0.011745 0.000000 0.000000 0.000000
# 4 0.000000 0.000000 0.000000 0.657134 0.000000 0.000000
# 5 0.000000 0.000000 0.000000 0.000000 -0.039175 0.000000
# 6 0.000000 0.000000 0.000000 0.000000 0.000000 0.041973
#
#
# Mechanical properties :
#
#
# Convention : Reuss Voigt Hill
#
# Bulk Modulus (GPa) = 22.51066 35.19291 28.85178
# Shear Modulus (GPa) = 6.77667 15.02777 10.90222
#
# Velocity S-wave (km/s) = 1.76699 2.63132 2.24122
# Velocity P-wave (km/s) = 3.81241 5.04445 4.47107
#
# Compressibility (1/GPa) = 0.04442341
#
# Stress axis : x y z
#
# Youngs Moduli (GPa) = 132.80865 29.00246 85.14071
#
# Poissons Ratio (x) = 0.01699 0.13866
# Poissons Ratio (y) = 0.07780 0.20870
# Poissons Ratio (z) = 0.21629 0.07109
#
# Static dielectric constant tensor:
#      x y z
#    x 1.840430 0.000000 0.000000 
#    y 0.000000 1.806770 0.000000 
#    z 0.000000 0.000000 1.751280 
# 
# From -- ./inp_files/15959.got.cif
#   From: 2010.05.17/outbox.cif.g08.bks.cpg/sg46_8_cif.got.tgz:15959.got - 2010.06.03 19:58:25.
