data_PCOD9379988
_publ_section_title
;
Structure prediction by ZEFSAII (Michael W. Deem and Ramdas Pophale) SiO2 
 PCOD9379988
Probable space group: I M A 2
;
_chemical_formula_sum "Si O2"
_cell_formula_units_Z 64
_cell_length_a 14.965480
_cell_length_b 12.905815
_cell_length_c 16.003529
_cell_angle_alpha 90.000000
_cell_angle_beta 90.000000
_cell_angle_gamma 90.000000
_cell_volume 3090.949057
_symmetry_space_group_name_H-M "I M A 2"
_symmetry_group_IT_number 46
_symmetry_cell_setting 'orthorhombic'
loop_
_space_group_symop_operation_xyz
x,y,z
-x,-y,z
1/2-x,y,z
1/2+x,-y,z
1/2+x,1/2+y,1/2+z
1/2-x,1/2-y,1/2+z
-x,1/2+y,1/2+z
x,1/2-y,1/2+z
loop_
_atom_site_type_symbol
_atom_site_label
_atom_site_fract_x
_atom_site_fract_y
_atom_site_fract_z
Si Si1 0.141278 0.007240 0.531870
Si Si2 0.648017 0.731928 0.280006
Si Si3 0.353415 0.718689 0.025800
Si Si4 0.358722 0.007240 0.724913
Si Si5 0.505038 0.116352 0.227704
Si Si6 0.148017 0.231928 0.476779
Si Si7 0.646585 0.281311 0.230985
Si Si8 0.494962 0.883648 0.029081
O O1 0.250000 0.003601 0.529574
O O2 0.113967 0.114991 0.491195
O O3 0.113285 0.895102 0.497721
O O4 0.113644 0.013635 0.628392
O O5 0.750000 0.738563 0.247140
O O6 0.613968 0.614991 0.265589
O O7 0.584859 0.817996 0.240209
O O8 0.650247 0.750000 0.378393
O O9 0.250000 0.733278 0.002185
O O10 0.355830 0.715731 0.128393
O O11 0.415207 0.811698 0.995208
O O12 0.250000 0.003600 0.727209
O O13 0.386715 0.895102 0.759063
O O14 0.584793 0.188302 0.261578
O O15 0.521505 0.106702 0.128392
O O16 0.500000 0.000000 0.262619
O O17 0.250000 0.238563 0.509645
O O18 0.084859 0.317996 0.516576
O O19 0.750000 0.266722 0.254600
O O20 0.500000 0.000000 0.994166
#
# Coordination Sequence:
#
# PCOD9379988 Si02
#       8
#     8   8   8   8   8   8   8   8
#     4   8  14  28  53  81 103 129 173 221 266 318
#     4  10  21  37  54  75 108 145 179 223 277 327
#     4   8  15  30  53  81 109 133 165 218 274 317
#     4   8  14  28  53  81 103 129 173 221 266 318
#     4  10  21  36  54  80 110 142 186 228 268 327
#     4  10  21  37  54  75 108 145 179 223 277 327
#     4   8  15  30  53  81 109 133 165 218 274 317
#     4  10  21  36  54  80 110 142 186 228 268 327
#
# _framework density 20.705615000000002
#
# number of rings (size 3 to 8) (size 9 to 14) (size 15 to 20)
#    0.000    3.000    0.000    2.250    0.000    3.500 
#    4.500    6.250    0.000    0.750    0.000    0.000 
#    0.000    0.000    0.000    0.000    0.000    0.000 
#
# Total GULP energy -178478.567275 kJ/mol
# GULP energy per Si atom -5577.455227 kJ/mol
# Density = 2.065849 g / cm^3
# Si number density = 20.705615 Si / 1000 Ang^3
#
#
#
# Elastic Constant Matrix: (Units=GPa)
#
#
# Indices 1 2 3 4 5 6 
#
# 1 95.9675 87.1344 -4.6306 0.0000 0.0000 0.0000
# 2 87.1344 257.8584 23.8395 0.0000 0.0000 0.0000
# 3 -4.6306 23.8395 7.9527 0.0000 0.0000 0.0000
# 4 0.0000 0.0000 0.0000 -37.7082 0.0000 0.0000
# 5 0.0000 0.0000 0.0000 0.0000 9.9025 0.0000
# 6 0.0000 0.0000 0.0000 0.0000 0.0000 41.3969
#
#
#
# Elastic Compliance Matrix: (Units=1/GPa)
#
#
# Indices 1 2 3 4 5 6 
#
# 1 0.025956 -0.014067 0.057280 0.000000 0.000000 0.000000
# 2 -0.014067 0.012988 -0.047125 0.000000 0.000000 0.000000
# 3 0.057280 -0.047125 0.300358 0.000000 0.000000 0.000000
# 4 0.000000 0.000000 0.000000 -0.026519 0.000000 0.000000
# 5 0.000000 0.000000 0.000000 0.000000 0.100985 0.000000
# 6 0.000000 0.000000 0.000000 0.000000 0.000000 0.024156
#
#
# Mechanical properties :
#
#
# Convention : Reuss Voigt Hill
#
# Bulk Modulus (GPa) = 3.01678 63.82948 33.42313
# Shear Modulus (GPa) = 8.98894 19.74725 14.36810
#
# Velocity S-wave (km/s) = 2.08584 3.09158 2.63710
# Velocity P-wave (km/s) = 2.69465 6.60590 5.04475
#
# Compressibility (1/GPa) = 0.33147977
#
# Stress axis : x y z
#
# Youngs Moduli (GPa) = 38.52691 76.99316 3.32936
#
# Poissons Ratio (x) = 1.08303 -0.19071
# Poissons Ratio (y) = 0.54194 0.15689
# Poissons Ratio (z) = -2.20682 3.62826
#
# Static dielectric constant tensor:
#      x y z
#    x 1.769600 0.000000 0.000000 
#    y 0.000000 1.755210 0.000000 
#    z 0.000000 0.000000 1.726100 
# 
# From -- ./inp_files/19653.got.cif
#   From: 2010.05.17/outbox.cif.g08.bks.cpg/sg46_10_cif.got.tgz:19653.got - 2010.06.03 19:58:25.
