data_PCOD9379454
_publ_section_title
;
Structure prediction by ZEFSAII (Michael W. Deem and Ramdas Pophale) SiO2 
 PCOD9379454
Probable space group: I M A 2
;
_chemical_formula_sum "Si O2"
_cell_formula_units_Z 64
_cell_length_a 8.830324
_cell_length_b 25.681660
_cell_length_c 15.366340
_cell_angle_alpha 90.000000
_cell_angle_beta 90.000000
_cell_angle_gamma 90.000000
_cell_volume 3484.738305
_symmetry_space_group_name_H-M "I M A 2"
_symmetry_group_IT_number 46
_symmetry_cell_setting 'orthorhombic'
loop_
_space_group_symop_operation_xyz
x,y,z
-x,-y,z
1/2-x,y,z
1/2+x,-y,z
1/2+x,1/2+y,1/2+z
1/2-x,1/2-y,1/2+z
-x,1/2+y,1/2+z
x,1/2-y,1/2+z
loop_
_atom_site_type_symbol
_atom_site_label
_atom_site_fract_x
_atom_site_fract_y
_atom_site_fract_z
Si Si1 0.565809 0.391643 0.426800
Si Si2 0.566592 0.442701 0.244218
Si Si3 0.072497 0.775496 0.899428
Si Si4 0.072487 0.756351 0.693362
Si Si5 0.432542 0.860624 0.597121
Si Si6 0.568207 0.056429 0.107145
Si Si7 0.931002 0.646968 0.723476
Si Si8 0.429962 0.334415 0.922871
O O1 0.750000 0.389924 0.424923
O O2 0.517311 0.417401 0.336074
O O3 0.516746 0.331431 0.432227
O O4 0.520055 0.424759 0.510460
O O5 0.500000 0.500000 0.235153
O O6 0.750000 0.445074 0.244958
O O7 0.520540 0.405071 0.165043
O O8 0.250000 0.769217 0.922888
O O9 0.063267 0.774807 0.794108
O O10 0.983013 0.725452 0.931900
O O11 0.250000 0.746232 0.674594
O O12 0.018990 0.804323 0.634824
O O13 0.982994 0.702632 0.684978
O O14 0.250000 0.860121 0.595005
O O15 0.495926 0.866588 0.500646
O O16 0.750000 0.054158 0.109483
O O17 0.509477 0.099934 0.173536
O O18 0.500000 0.000000 0.125932
O O19 0.750000 0.642414 0.717989
O O20 0.975874 0.648174 0.825641
O O21 0.250000 0.337418 0.928544
#
# Coordination Sequence:
#
# PCOD9379454 Si02
#       8
#     8   8   8   8   8   8   8   8
#     4   9  18  34  57  84 114 149 187 226 271 334
#     4  10  20  37  58  83 115 151 190 231 277 331
#     4   9  16  32  56  81 111 149 188 224 267 329
#     4   9  17  32  56  83 110 146 188 228 273 331
#     4  10  20  35  57  83 113 151 193 231 274 334
#     4  11  23  39  60  85 113 148 194 239 285 337
#     4  10  22  40  58  80 114 150 187 237 291 340
#     4  10  22  37  54  81 117 150 184 234 289 336
#
# _framework density 18.365798999999999
#
# number of rings (size 3 to 8) (size 9 to 14) (size 15 to 20)
#    0.000    2.250    1.250    1.500    1.750    2.500 
#    0.000    2.500    0.000    1.500    0.000    0.000 
#    0.000    0.000    0.000    0.000    0.000    0.000 
#
# Total GULP energy -178670.058089 kJ/mol
# GULP energy per Si atom -5583.439315 kJ/mol
# Density = 1.832400 g / cm^3
# Si number density = 18.365799 Si / 1000 Ang^3
#
#
#
# Elastic Constant Matrix: (Units=GPa)
#
#
# Indices 1 2 3 4 5 6 
#
# 1 27.0684 36.2836 31.4774 0.0000 0.0000 0.0000
# 2 36.2836 138.6883 74.3475 0.0001 0.0000 0.0000
# 3 31.4774 74.3475 106.5447 0.0002 0.0000 0.0000
# 4 0.0000 0.0001 0.0002 25.1861 0.0000 0.0000
# 5 0.0000 0.0000 0.0000 0.0000 13.2655 0.0000
# 6 0.0000 0.0000 0.0000 0.0000 0.0000 30.3587
#
#
#
# Elastic Compliance Matrix: (Units=1/GPa)
#
#
# Indices 1 2 3 4 5 6 
#
# 1 0.064906 -0.010706 -0.011705 0.000000 0.000000 0.000000
# 2 -0.010706 0.013286 -0.006108 0.000000 0.000000 0.000000
# 3 -0.011705 -0.006108 0.017106 0.000000 0.000000 0.000000
# 4 0.000000 0.000000 0.000000 0.039704 0.000000 0.000000
# 5 0.000000 0.000000 0.000000 0.000000 0.075383 0.000000
# 6 0.000000 0.000000 0.000000 0.000000 0.000000 0.032939
#
#
# Mechanical properties :
#
#
# Convention : Reuss Voigt Hill
#
# Bulk Modulus (GPa) = 26.13715 61.83539 43.98627
# Shear Modulus (GPa) = 15.96859 22.44160 19.20509
#
# Velocity S-wave (km/s) = 2.95188 3.49939 3.23723
# Velocity P-wave (km/s) = 5.08729 7.07598 6.16239
#
# Compressibility (1/GPa) = 0.03825971
#
# Stress axis : x y z
#
# Youngs Moduli (GPa) = 15.40700 75.27000 58.45930
#
# Poissons Ratio (x) = 0.80582 0.68427
# Poissons Ratio (y) = 0.16494 0.35706
# Poissons Ratio (z) = 0.18034 0.45973
#
# Static dielectric constant tensor:
#      x y z
#    x 1.616730 0.000000 0.000000 
#    y 0.000000 1.600720 0.000000 
#    z 0.000000 0.000000 1.648690 
# 
# From -- ./inp_files/14500.got.cif
#   From: 2010.05.17/outbox.cif.g08.bks.cpg/sg46_8_cif.got.tgz:14500.got - 2010.06.03 19:58:25.
