data_PCOD9379923
_publ_section_title
;
Structure prediction by ZEFSAII (Michael W. Deem and Ramdas Pophale) SiO2 
 PCOD9379923
Probable space group: I M A 2
;
_chemical_formula_sum "Si O2"
_cell_formula_units_Z 36
_cell_length_a 25.070932
_cell_length_b 5.247805
_cell_length_c 13.374825
_cell_angle_alpha 90.000000
_cell_angle_beta 90.000000
_cell_angle_gamma 90.000000
_cell_volume 1759.690447
_symmetry_space_group_name_H-M "I M A 2"
_symmetry_group_IT_number 46
_symmetry_cell_setting 'orthorhombic'
loop_
_space_group_symop_operation_xyz
x,y,z
-x,-y,z
1/2-x,y,z
1/2+x,-y,z
1/2+x,1/2+y,1/2+z
1/2-x,1/2-y,1/2+z
-x,1/2+y,1/2+z
x,1/2-y,1/2+z
loop_
_atom_site_type_symbol
_atom_site_label
_atom_site_fract_x
_atom_site_fract_y
_atom_site_fract_z
Si Si1 0.000000 0.000000 0.245211
Si Si2 0.052643 0.121420 0.585741
Si Si3 0.403072 0.677799 0.258974
Si Si4 0.687711 0.134159 0.380020
Si Si5 0.366766 0.373759 0.435115
O O1 0.029312 0.199612 0.172574
O O2 0.953186 0.157245 0.298462
O O3 0.090038 0.283872 0.514592
O O4 0.085315 0.904866 0.646053
O O5 0.000000 0.000000 0.535341
O O6 0.348282 0.827624 0.280099
O O7 0.396462 0.432029 0.330085
O O8 0.750000 0.170121 0.363301
O O9 0.663878 0.358572 0.450811
O O10 0.674387 0.856696 0.421793
#
# Coordination Sequence:
#
# PCOD9379923 Si02
#       5
#     4   8   8   8   8
#     4  10  20  42  60  98 138 164 214 266 320 406
#     4  10  22  41  62  97 137 169 212 266 323 403
#     4   9  22  39  67  95 134 171 213 265 329 386
#     4  10  22  44  66  93 130 170 222 273 317 382
#     4  10  23  42  67  96 130 172 220 262 331 382
#
# _framework density 20.458141000000001
#
# number of rings (size 3 to 8) (size 9 to 14) (size 15 to 20)
#    1.333    0.889    0.000    2.000    6.222    0.000 
#   26.000    2.222    0.000    0.000    0.000    0.000 
#    0.000    0.000    0.000    0.000    0.000    0.000 
#
# Total GULP energy -100306.051937 kJ/mol
# GULP energy per Si atom -5572.558441 kJ/mol
# Density = 2.041158 g / cm^3
# Si number density = 20.458141 Si / 1000 Ang^3
#
#
#
# Elastic Constant Matrix: (Units=GPa)
#
#
# Indices 1 2 3 4 5 6 
#
# 1 163.7021 43.3345 39.9022 0.0000 0.0000 0.0000
# 2 43.3345 107.1491 7.0518 0.0000 0.0000 0.0000
# 3 39.9022 7.0518 25.7782 0.0000 0.0000 0.0000
# 4 0.0000 0.0000 0.0000 122.2969 0.0000 0.0000
# 5 0.0000 0.0000 0.0000 0.0000 -19.4183 0.0000
# 6 0.0000 0.0000 0.0000 0.0000 0.0000 33.7134
#
#
#
# Elastic Compliance Matrix: (Units=1/GPa)
#
#
# Indices 1 2 3 4 5 6 
#
# 1 0.010876 -0.003351 -0.015918 0.000000 0.000000 0.000000
# 2 -0.003351 0.010536 0.002305 0.000000 0.000000 0.000000
# 3 -0.015918 0.002305 0.062801 0.000000 0.000000 0.000000
# 4 0.000000 0.000000 0.000000 0.008177 0.000000 0.000000
# 5 0.000000 0.000000 0.000000 0.000000 -0.051498 0.000000
# 6 0.000000 0.000000 0.000000 0.000000 0.000000 0.029662
#
#
# Mechanical properties :
#
#
# Convention : Reuss Voigt Hill
#
# Bulk Modulus (GPa) = 19.88665 53.02292 36.45479
# Shear Modulus (GPa) = 41.23913 41.07445 41.15679
#
# Velocity S-wave (km/s) = 4.49462 4.48563 4.49013
# Velocity P-wave (km/s) = 6.05617 7.26649 6.68876
#
# Compressibility (1/GPa) = 0.05028498
#
# Stress axis : x y z
#
# Youngs Moduli (GPa) = 91.94878 94.90985 15.92324
#
# Poissons Ratio (x) = 0.31803 0.25346
# Poissons Ratio (y) = 0.30811 -0.03670
# Poissons Ratio (z) = 1.46362 -0.21872
#
# Static dielectric constant tensor:
#      x y z
#    x 1.716310 0.000000 0.000000 
#    y 0.000000 1.761610 0.000000 
#    z 0.000000 0.000000 1.729080 
# 
# From -- ./inp_files/17230.got.cif
#   From: 2010.05.17/outbox.cif.g08.bks.cpg/sg46_9_cif.got.tgz:17230.got - 2010.06.03 19:58:25.
