data_PCOD9379875
_publ_section_title
;
Structure prediction by ZEFSAII (Michael W. Deem and Ramdas Pophale) SiO2 
 PCOD9379875
Probable space group: I M A 2
;
_chemical_formula_sum "Si O2"
_cell_formula_units_Z 48
_cell_length_a 26.991771
_cell_length_b 7.919800
_cell_length_c 9.311168
_cell_angle_alpha 90.000000
_cell_angle_beta 90.000000
_cell_angle_gamma 90.000000
_cell_volume 1990.443057
_symmetry_space_group_name_H-M "I M A 2"
_symmetry_group_IT_number 46
_symmetry_cell_setting 'orthorhombic'
loop_
_space_group_symop_operation_xyz
x,y,z
-x,-y,z
1/2-x,y,z
1/2+x,-y,z
1/2+x,1/2+y,1/2+z
1/2-x,1/2-y,1/2+z
-x,1/2+y,1/2+z
x,1/2-y,1/2+z
loop_
_atom_site_type_symbol
_atom_site_label
_atom_site_fract_x
_atom_site_fract_y
_atom_site_fract_z
Si Si1 0.190738 0.018915 0.335000
Si Si2 0.532393 0.844849 0.066802
Si Si3 0.054596 0.085094 0.359333
Si Si4 0.430545 0.828099 0.606065
Si Si5 0.309279 0.150305 0.009276
Si Si6 0.366170 0.660406 0.385632
O O1 0.250000 0.991335 0.349104
O O2 0.175264 0.163134 0.451667
O O3 0.164493 0.835558 0.356086
O O4 0.182041 0.100282 0.176549
O O5 0.568921 0.890900 0.195403
O O6 0.556237 0.766745 0.928720
O O7 0.488893 0.715153 0.121805
O O8 0.500000 0.000000 0.019211
O O9 0.075385 0.970615 0.485179
O O10 0.000000 0.000000 0.339361
O O11 0.399208 0.682196 0.528303
O O12 0.404461 0.862883 0.755218
O O13 0.250000 0.146860 0.989988
O O14 0.332253 0.001988 0.911299
#
# Coordination Sequence:
#
# PCOD9379875 Si02
#       6
#     8   8   8   8   8   8
#     4  10  23  44  69  98 136 184 234 280 331 412
#     4  10  20  40  63  85 118 165 220 263 320 400
#     4   9  20  39  60  85 116 162 214 261 318 397
#     4  11  24  41  63  95 134 169 216 283 340 404
#     4  10  23  44  70  98 132 186 237 275 332 415
#     4  12  23  44  63 101 145 176 220 282 359 398
#
# _framework density 24.115231999999999
#
# number of rings (size 3 to 8) (size 9 to 14) (size 15 to 20)
#    0.000    1.667    1.667    3.500    2.333    3.333 
#    9.000    0.000    0.000    0.000    0.000    0.000 
#    0.000    0.000    0.000    0.000    0.000    0.000 
#
# Total GULP energy -134115.216952 kJ/mol
# GULP energy per Si atom -5588.134040 kJ/mol
# Density = 2.406034 g / cm^3
# Si number density = 24.115232 Si / 1000 Ang^3
#
#
#
# Elastic Constant Matrix: (Units=GPa)
#
#
# Indices 1 2 3 4 5 6 
#
# 1 100.9826 21.1053 27.6409 0.0000 0.0000 0.0000
# 2 21.1053 129.3274 43.1372 0.0000 0.0000 0.0000
# 3 27.6409 43.1372 102.9772 0.0000 0.0000 0.0000
# 4 0.0000 0.0000 0.0000 52.8495 0.0000 0.0000
# 5 0.0000 0.0000 0.0000 0.0000 21.5308 0.0000
# 6 0.0000 0.0000 0.0000 0.0000 0.0000 36.9837
#
#
#
# Elastic Compliance Matrix: (Units=1/GPa)
#
#
# Indices 1 2 3 4 5 6 
#
# 1 0.010782 -0.000923 -0.002507 0.000000 0.000000 0.000000
# 2 -0.000923 0.009067 -0.003550 0.000000 0.000000 0.000000
# 3 -0.002507 -0.003550 0.011871 0.000000 0.000000 0.000000
# 4 0.000000 0.000000 0.000000 0.018922 0.000000 0.000000
# 5 0.000000 0.000000 0.000000 0.000000 0.046445 0.000000
# 6 0.000000 0.000000 0.000000 0.000000 0.000000 0.027039
#
#
# Mechanical properties :
#
#
# Convention : Reuss Voigt Hill
#
# Bulk Modulus (GPa) = 56.31151 57.45044 56.88097
# Shear Modulus (GPa) = 34.72040 38.36639 36.54339
#
# Velocity S-wave (km/s) = 3.79855 3.99301 3.89699
# Velocity P-wave (km/s) = 6.52996 6.71818 6.62473
#
# Compressibility (1/GPa) = 0.01775836
#
# Stress axis : x y z
#
# Youngs Moduli (GPa) = 92.74759 110.28718 84.23750
#
# Poissons Ratio (x) = 0.10182 0.21121
# Poissons Ratio (y) = 0.08563 0.29908
# Poissons Ratio (z) = 0.23255 0.39157
#
# Static dielectric constant tensor:
#      x y z
#    x 2.086620 0.000000 0.000000 
#    y 0.000000 2.062480 0.000000 
#    z 0.000000 0.000000 1.873630 
# 
# From -- ./inp_files/8394.got.cif
#   From: 2010.05.17/outbox.cif.g08.bks.cpg/sg46_5_cif.got.tgz:8394.got - 2010.06.03 19:58:25.
