data_PCOD9379918
_publ_section_title
;
Structure prediction by ZEFSAII (Michael W. Deem and Ramdas Pophale) SiO2 
 PCOD9379918
Probable space group: I M A 2
;
_chemical_formula_sum "Si O2"
_cell_formula_units_Z 56
_cell_length_a 31.676919
_cell_length_b 5.564081
_cell_length_c 13.105755
_cell_angle_alpha 90.000000
_cell_angle_beta 90.000000
_cell_angle_gamma 90.000000
_cell_volume 2309.927891
_symmetry_space_group_name_H-M "I M A 2"
_symmetry_group_IT_number 46
_symmetry_cell_setting 'orthorhombic'
loop_
_space_group_symop_operation_xyz
x,y,z
-x,-y,z
1/2-x,y,z
1/2+x,-y,z
1/2+x,1/2+y,1/2+z
1/2-x,1/2-y,1/2+z
-x,1/2+y,1/2+z
x,1/2-y,1/2+z
loop_
_atom_site_type_symbol
_atom_site_label
_atom_site_fract_x
_atom_site_fract_y
_atom_site_fract_z
Si Si1 0.342046 0.710167 0.018870
Si Si2 0.476466 0.253190 0.064536
Si Si3 0.009048 0.749193 0.849159
Si Si4 0.602300 0.238903 0.346588
Si Si5 0.659948 0.906081 0.730977
Si Si6 0.750000 0.136719 0.064609
Si Si7 0.750000 0.632276 0.196948
Si Si8 0.603279 0.534321 0.646163
O O1 0.340554 0.548030 0.121564
O O2 0.295231 0.825718 0.006716
O O3 0.377683 0.906170 0.048056
O O4 0.364267 0.596861 0.918729
O O5 0.500000 0.500000 0.089482
O O6 0.431060 0.229904 0.115860
O O7 0.500000 0.000000 0.083933
O O8 0.475376 0.260128 0.941466
O O9 0.056140 0.762633 0.895654
O O10 0.000000 0.500000 0.793776
O O11 0.000000 0.000000 0.795260
O O12 0.629435 0.469452 0.311762
O O13 0.587447 0.138635 0.235430
O O14 0.707958 0.877622 0.763352
O O15 0.643148 0.648350 0.701707
O O16 0.750000 0.377254 0.136097
O O17 0.750000 0.876741 0.125144
#
# Coordination Sequence:
#
# PCOD9379918 Si02
#       8
#     8   8   8   8   8   4   4   8
#     4  10  22  43  72  97 146 188 241 298 368 438
#     4  10  23  42  70  95 129 187 239 288 362 430
#     4  10  23  43  66  96 135 186 236 295 361 427
#     4  11  26  43  67 108 141 186 247 307 363 437
#     4  10  24  42  71 102 140 192 234 302 363 447
#     4  10  20  41  71 108 133 190 244 284 356 445
#     4  10  20  45  71 102 143 188 238 288 368 429
#     4  11  24  43  70 101 138 190 242 298 374 440
#
# _framework density 24.243179000000001
#
# number of rings (size 3 to 8) (size 9 to 14) (size 15 to 20)
#    0.000    1.714    1.429    1.714   10.000    2.286 
#    0.000    1.429    0.000    0.000    0.000    0.000 
#    0.000    0.000    0.000    0.000    0.000    0.000 
#
# Total GULP energy -156103.416200 kJ/mol
# GULP energy per Si atom -5575.122007 kJ/mol
# Density = 2.418800 g / cm^3
# Si number density = 24.243179 Si / 1000 Ang^3
#
#
#
# Elastic Constant Matrix: (Units=GPa)
#
#
# Indices 1 2 3 4 5 6 
#
# 1 123.6979 33.0300 -1.3752 0.0000 0.0000 0.0000
# 2 33.0300 125.6364 5.8690 0.0000 0.0000 0.0000
# 3 -1.3752 5.8690 75.7153 0.0000 0.0000 0.0000
# 4 0.0000 0.0000 0.0000 -56.6229 0.0000 0.0000
# 5 0.0000 0.0000 0.0000 0.0000 30.1561 0.0000
# 6 0.0000 0.0000 0.0000 0.0000 0.0000 35.8455
#
#
#
# Elastic Compliance Matrix: (Units=1/GPa)
#
#
# Indices 1 2 3 4 5 6 
#
# 1 0.008703 -0.002304 0.000337 0.000000 0.000000 0.000000
# 2 -0.002304 0.008598 -0.000708 0.000000 0.000000 0.000000
# 3 0.000337 -0.000708 0.013268 0.000000 0.000000 0.000000
# 4 0.000000 0.000000 0.000000 -0.017661 0.000000 0.000000
# 5 0.000000 0.000000 0.000000 0.000000 0.033161 0.000000
# 6 0.000000 0.000000 0.000000 0.000000 0.000000 0.027898
#
#
# Mechanical properties :
#
#
# Convention : Reuss Voigt Hill
#
# Bulk Modulus (GPa) = 39.65294 44.45524 42.05409
# Shear Modulus (GPa) = 56.99661 21.04412 39.02037
#
# Velocity S-wave (km/s) = 4.85401 2.94945 4.01626
# Velocity P-wave (km/s) = 6.91426 5.47504 6.23631
#
# Compressibility (1/GPa) = 0.02521881
#
# Stress axis : x y z
#
# Youngs Moduli (GPa) = 114.90134 116.30293 75.36709
#
# Poissons Ratio (x) = 0.26794 -0.02537
# Poissons Ratio (y) = 0.26471 0.05338
# Poissons Ratio (z) = -0.03868 0.08238
#
# Static dielectric constant tensor:
#      x y z
#    x 1.957160 0.000000 0.000000 
#    y 0.000000 2.034190 0.000000 
#    z 0.000000 0.000000 2.177430 
# 
# From -- ./inp_files/17710.got.cif
#   From: 2010.05.17/outbox.cif.g08.bks.cpg/sg46_9_cif.got.tgz:17710.got - 2010.06.03 19:58:25.
