data_PCOD9379644
_publ_section_title
;
Structure prediction by ZEFSAII (Michael W. Deem and Ramdas Pophale) SiO2 
 PCOD9379644
Probable space group: I M A 2
;
_chemical_formula_sum "Si O2"
_cell_formula_units_Z 56
_cell_length_a 15.086602
_cell_length_b 12.090059
_cell_length_c 14.547484
_cell_angle_alpha 90.000000
_cell_angle_beta 90.000000
_cell_angle_gamma 90.000000
_cell_volume 2653.430652
_symmetry_space_group_name_H-M "I M A 2"
_symmetry_group_IT_number 46
_symmetry_cell_setting 'orthorhombic'
loop_
_space_group_symop_operation_xyz
x,y,z
-x,-y,z
1/2-x,y,z
1/2+x,-y,z
1/2+x,1/2+y,1/2+z
1/2-x,1/2-y,1/2+z
-x,1/2+y,1/2+z
x,1/2-y,1/2+z
loop_
_atom_site_type_symbol
_atom_site_label
_atom_site_fract_x
_atom_site_fract_y
_atom_site_fract_z
Si Si1 0.500000 0.500000 0.351820
Si Si2 0.500000 0.000000 0.261720
Si Si3 0.397933 0.454670 0.061553
Si Si4 0.353981 0.667723 0.334889
Si Si5 0.148854 0.134291 0.372884
Si Si6 0.388168 0.327828 0.235594
Si Si7 0.445676 0.786327 0.167437
Si Si8 0.151936 0.805270 0.502572
O O1 0.416647 0.576253 0.384941
O O2 0.447313 0.410894 0.293428
O O3 0.426943 0.062209 0.323239
O O4 0.554378 0.088238 0.200974
O O5 0.500000 0.500000 0.078402
O O6 0.352638 0.406669 0.153866
O O7 0.353796 0.566355 0.024710
O O8 0.385406 0.366015 0.978798
O O9 0.250000 0.635392 0.330920
O O10 0.389214 0.705044 0.234865
O O11 0.363687 0.777675 0.396669
O O12 0.250000 0.089938 0.372289
O O13 0.153614 0.248133 0.312997
O O14 0.452885 0.249204 0.177909
O O15 0.414556 0.761806 0.065925
O O16 0.250000 0.763728 0.525343
#
# Coordination Sequence:
#
# PCOD9379644 Si02
#       8
#     4   4   8   8   8   8   8   8
#     4  10  20  38  64  86 124 172 208 266 338 394
#     4  10  22  40  64  88 132 174 218 266 338 398
#     4  12  21  40  69  97 126 172 225 278 330 400
#     4  10  22  38  59  91 125 160 212 271 326 392
#     4  11  25  41  64  99 135 176 221 277 341 403
#     4  10  22  39  62  94 127 166 220 269 333 396
#     4  10  20  37  59  88 120 164 208 269 325 386
#     4  11  23  37  61  94 120 157 217 274 324 387
#
# _framework density 21.104752999999999
#
# number of rings (size 3 to 8) (size 9 to 14) (size 15 to 20)
#    0.000    1.429    2.857    2.571    4.000    4.571 
#    0.000    1.429    0.000    0.000    0.000    0.000 
#    0.000    0.000    0.000    0.000    0.000    0.000 
#
# Total GULP energy -155868.007604 kJ/mol
# GULP energy per Si atom -5566.714557 kJ/mol
# Density = 2.105672 g / cm^3
# Si number density = 21.104753 Si / 1000 Ang^3
#
#
#
# Elastic Constant Matrix: (Units=GPa)
#
#
# Indices 1 2 3 4 5 6 
#
# 1 99.8013 26.1196 26.0687 0.0000 0.0000 0.0000
# 2 26.1196 78.7920 17.6709 0.0000 0.0000 0.0000
# 3 26.0687 17.6709 68.6181 0.0000 0.0000 0.0000
# 4 0.0000 0.0000 0.0000 21.1400 0.0000 0.0000
# 5 0.0000 0.0000 0.0000 0.0000 7.3414 0.0000
# 6 0.0000 0.0000 0.0000 0.0000 0.0000 21.9840
#
#
#
# Elastic Compliance Matrix: (Units=1/GPa)
#
#
# Indices 1 2 3 4 5 6 
#
# 1 0.011789 -0.003082 -0.003685 0.000000 0.000000 0.000000
# 2 -0.003082 0.014275 -0.002505 0.000000 0.000000 0.000000
# 3 -0.003685 -0.002505 0.016619 0.000000 0.000000 0.000000
# 4 0.000000 0.000000 0.000000 0.047304 0.000000 0.000000
# 5 0.000000 0.000000 0.000000 0.000000 0.136214 0.000000
# 6 0.000000 0.000000 0.000000 0.000000 0.000000 0.045488
#
#
# Mechanical properties :
#
#
# Convention : Reuss Voigt Hill
#
# Bulk Modulus (GPa) = 41.42790 42.99219 42.21004
# Shear Modulus (GPa) = 16.76284 21.91655 19.33970
#
# Velocity S-wave (km/s) = 2.82133 3.22602 3.03044
# Velocity P-wave (km/s) = 5.50323 5.85588 5.68229
#
# Compressibility (1/GPa) = 0.02413832
#
# Stress axis : x y z
#
# Youngs Moduli (GPa) = 84.82489 70.05202 60.17324
#
# Poissons Ratio (x) = 0.21587 0.22175
# Poissons Ratio (y) = 0.26139 0.15076
# Poissons Ratio (z) = 0.31259 0.17551
#
# Static dielectric constant tensor:
#      x y z
#    x 1.854800 0.000000 0.000000 
#    y 0.000000 1.809690 0.000000 
#    z 0.000000 0.000000 1.786440 
# 
# From -- ./inp_files/16009.got.cif
#   From: 2010.05.17/outbox.cif.g08.bks.cpg/sg46_9_cif.got.tgz:16009.got - 2010.06.03 19:58:25.
