data_PCOD9379320
_publ_section_title
;
Structure prediction by ZEFSAII (Michael W. Deem and Ramdas Pophale) SiO2 
 PCOD9379320
Probable space group: I M A 2
;
_chemical_formula_sum "Si O2"
_cell_formula_units_Z 48
_cell_length_a 14.345671
_cell_length_b 7.986361
_cell_length_c 17.150064
_cell_angle_alpha 90.000000
_cell_angle_beta 90.000000
_cell_angle_gamma 90.000000
_cell_volume 1964.877814
_symmetry_space_group_name_H-M "I M A 2"
_symmetry_group_IT_number 46
_symmetry_cell_setting 'orthorhombic'
loop_
_space_group_symop_operation_xyz
x,y,z
-x,-y,z
1/2-x,y,z
1/2+x,-y,z
1/2+x,1/2+y,1/2+z
1/2-x,1/2-y,1/2+z
-x,1/2+y,1/2+z
x,1/2-y,1/2+z
loop_
_atom_site_type_symbol
_atom_site_label
_atom_site_fract_x
_atom_site_fract_y
_atom_site_fract_z
Si Si1 0.613489 0.996780 0.096450
Si Si2 0.864207 0.564493 0.220737
Si Si3 0.103511 0.352266 0.042163
Si Si4 0.638732 0.243159 0.823446
Si Si5 0.355546 0.089472 0.274540
Si Si6 0.108923 0.797939 0.494555
O O1 0.643494 0.174423 0.062251
O O2 0.500000 0.000000 0.098241
O O3 0.644349 0.835011 0.046180
O O4 0.646689 0.964195 0.183695
O O5 0.750000 0.569454 0.216565
O O6 0.899586 0.589646 0.132946
O O7 0.894672 0.394218 0.262092
O O8 0.895220 0.723940 0.272685
O O9 0.147057 0.512197 0.998567
O O10 0.000890 0.323161 0.008240
O O11 0.750000 0.254983 0.809205
O O12 0.598251 0.429483 0.813845
O O13 0.625238 0.203270 0.913766
O O14 0.250000 0.105842 0.305206
#
# Coordination Sequence:
#
# PCOD9379320 Si02
#       6
#     8   8   8   8   8   8
#     4   9  18  34  56  77 106 143 191 235 274 329
#     4   9  18  35  60  85 108 143 192 240 286 339
#     4   9  19  36  57  76 111 147 189 234 273 341
#     4  10  21  35  54  84 118 148 182 234 296 347
#     4   9  18  34  55  80 109 142 187 235 280 337
#     4  10  20  34  54  77 118 148 183 233 283 342
#
# _framework density 24.428999000000001
#
# number of rings (size 3 to 8) (size 9 to 14) (size 15 to 20)
#    0.000    2.667    0.000    1.000    0.000    2.667 
#    3.000    0.000   29.333    0.000    0.000    0.000 
#    0.000    0.000    0.000    0.000    0.000    0.000 
#
# Total GULP energy -134050.290802 kJ/mol
# GULP energy per Si atom -5585.428783 kJ/mol
# Density = 2.437340 g / cm^3
# Si number density = 24.428999 Si / 1000 Ang^3
#
#
#
# Elastic Constant Matrix: (Units=GPa)
#
#
# Indices 1 2 3 4 5 6 
#
# 1 100.5360 26.0458 -9.8404 0.0000 0.0000 0.0000
# 2 26.0458 112.0903 19.2223 0.0000 0.0000 0.0000
# 3 -9.8404 19.2223 36.6549 0.0000 0.0000 0.0000
# 4 0.0000 0.0000 0.0000 18.6682 0.0000 0.0000
# 5 0.0000 0.0000 0.0000 0.0000 22.9975 0.0000
# 6 0.0000 0.0000 0.0000 0.0000 0.0000 -1.8096
#
#
#
# Elastic Compliance Matrix: (Units=1/GPa)
#
#
# Indices 1 2 3 4 5 6 
#
# 1 0.011319 -0.003463 0.004854 0.000000 0.000000 0.000000
# 2 -0.003463 0.010862 -0.006626 0.000000 0.000000 0.000000
# 3 0.004854 -0.006626 0.032059 0.000000 0.000000 0.000000
# 4 0.000000 0.000000 0.000000 0.053567 0.000000 0.000000
# 5 0.000000 0.000000 0.000000 0.000000 0.043483 0.000000
# 6 0.000000 0.000000 0.000000 0.000000 0.000000 -0.552619
#
#
# Mechanical properties :
#
#
# Convention : Reuss Voigt Hill
#
# Bulk Modulus (GPa) = 22.84535 35.57075 29.20805
# Shear Modulus (GPa) = -13.28833 22.22813 4.46990
#
# Velocity S-wave (km/s) = -2.33482 3.01974 1.35415
# Velocity P-wave (km/s) = 1.45035 5.17213 3.79832
#
# Compressibility (1/GPa) = 0.04377258
#
# Stress axis : x y z
#
# Youngs Moduli (GPa) = 88.34791 92.06215 31.19209
#
# Poissons Ratio (x) = 0.31877 -0.15142
# Poissons Ratio (y) = 0.30591 0.20667
# Poissons Ratio (z) = -0.42888 0.60999
#
# Static dielectric constant tensor:
#      x y z
#    x 2.047290 0.000000 0.000000 
#    y 0.000000 1.979540 0.000000 
#    z 0.000000 0.000000 1.872510 
# 
# From -- ./inp_files/16542.got.cif
#   From: 2010.05.17/outbox.cif.g08.bks.cpg/sg46_9_cif.got.tgz:16542.got - 2010.06.03 19:58:25.
