data_PCOD9379305
_publ_section_title
;
Structure prediction by ZEFSAII (Michael W. Deem and Ramdas Pophale) SiO2 
 PCOD9379305
Probable space group: I M A 2
;
_chemical_formula_sum "Si O2"
_cell_formula_units_Z 56
_cell_length_a 9.379336
_cell_length_b 20.453919
_cell_length_c 14.023347
_cell_angle_alpha 90.000000
_cell_angle_beta 90.000000
_cell_angle_gamma 90.000000
_cell_volume 2690.297489
_symmetry_space_group_name_H-M "I M A 2"
_symmetry_group_IT_number 46
_symmetry_cell_setting 'orthorhombic'
loop_
_space_group_symop_operation_xyz
x,y,z
-x,-y,z
1/2-x,y,z
1/2+x,-y,z
1/2+x,1/2+y,1/2+z
1/2-x,1/2-y,1/2+z
-x,1/2+y,1/2+z
x,1/2-y,1/2+z
loop_
_atom_site_type_symbol
_atom_site_label
_atom_site_fract_x
_atom_site_fract_y
_atom_site_fract_z
Si Si1 0.411014 0.178516 0.987830
Si Si2 0.422914 0.070776 0.834315
Si Si3 0.585043 0.184596 0.725146
Si Si4 0.907487 0.057257 0.250593
Si Si5 0.089016 0.696153 0.995950
Si Si6 0.085555 0.314991 0.718009
Si Si7 0.591630 0.443591 0.972260
O O1 0.250000 0.195631 0.958554
O O2 0.445151 0.110883 0.934122
O O3 0.514170 0.238207 0.963324
O O4 0.414302 0.176850 0.102611
O O5 0.250000 0.065120 0.819101
O O6 0.499913 0.119986 0.758870
O O7 0.500000 0.000000 0.834329
O O8 0.750000 0.184472 0.760292
O O9 0.593693 0.191995 0.610606
O O10 0.492136 0.248656 0.750023
O O11 0.750000 0.064476 0.207864
O O12 0.889004 0.038949 0.361534
O O13 0.993340 0.123961 0.250697
O O14 0.000000 0.000000 0.203524
O O15 0.250000 0.694940 0.956872
O O16 0.018392 0.627052 0.971208
O O17 0.250000 0.316406 0.749491
O O18 0.500000 0.500000 0.019937
O O19 0.750000 0.438382 0.016092
#
# Coordination Sequence:
#
# PCOD9379305 Si02
#       7
#     8   8   8   8   8   8   8
#     4   9  21  39  58  83 112 145 189 235 284 343
#     4  11  24  42  61  86 117 154 198 243 296 352
#     4  10  21  38  59  85 115 149 191 236 286 343
#     4  10  20  34  52  79 113 148 187 227 276 334
#     4   9  19  36  58  84 113 147 188 232 282 338
#     4  10  20  37  59  84 115 149 189 237 287 342
#     4   9  19  34  51  77 110 144 181 222 268 325
#
# _framework density 20.815542000000001
#
# number of rings (size 3 to 8) (size 9 to 14) (size 15 to 20)
#    0.000    2.286    0.000    1.714    2.000    4.571 
#    0.000    2.857    0.000    0.000    0.000    0.000 
#    0.000    0.000    0.000    0.000    0.000    0.000 
#
# Total GULP energy -156070.561864 kJ/mol
# GULP energy per Si atom -5573.948638 kJ/mol
# Density = 2.076816 g / cm^3
# Si number density = 20.815542 Si / 1000 Ang^3
#
#
#
# Elastic Constant Matrix: (Units=GPa)
#
#
# Indices 1 2 3 4 5 6 
#
# 1 156.2255 106.9016 16.8801 0.0000 0.0000 0.0000
# 2 106.9016 194.8261 7.6978 0.0000 0.0000 0.0000
# 3 16.8801 7.6978 41.1434 0.0000 0.0000 0.0000
# 4 0.0000 0.0000 0.0000 35.4667 0.0000 0.0000
# 5 0.0000 0.0000 0.0000 0.0000 -0.8608 0.0000
# 6 0.0000 0.0000 0.0000 0.0000 0.0000 35.2749
#
#
#
# Elastic Compliance Matrix: (Units=1/GPa)
#
#
# Indices 1 2 3 4 5 6 
#
# 1 0.010679 -0.005729 -0.003309 0.000000 0.000000 0.000000
# 2 -0.005729 0.008244 0.000808 0.000000 0.000000 0.000000
# 3 -0.003309 0.000808 0.025512 0.000000 0.000000 0.000000
# 4 0.000000 0.000000 0.000000 0.028195 0.000000 0.000000
# 5 0.000000 0.000000 0.000000 0.000000 -1.161745 0.000000
# 6 0.000000 0.000000 0.000000 0.000000 0.000000 0.028349
#
#
# Mechanical properties :
#
#
# Convention : Reuss Voigt Hill
#
# Bulk Modulus (GPa) = 35.74703 72.79488 54.27096
# Shear Modulus (GPa) = -4.83101 31.35720 13.26310
#
# Velocity S-wave (km/s) = -1.52509 3.88549 2.52697
# Velocity P-wave (km/s) = 3.75624 7.42810 5.88583
#
# Compressibility (1/GPa) = 0.02797435
#
# Stress axis : x y z
#
# Youngs Moduli (GPa) = 93.64600 121.29817 39.19750
#
# Poissons Ratio (x) = 0.69487 0.12972
# Poissons Ratio (y) = 0.53646 -0.03167
# Poissons Ratio (z) = 0.30991 -0.09799
#
# Static dielectric constant tensor:
#      x y z
#    x 1.800360 0.000000 0.000000 
#    y 0.000000 1.734710 0.000000 
#    z 0.000000 0.000000 1.809540 
# 
# From -- ./inp_files/14165.got.cif
#   From: 2010.05.17/outbox.cif.g08.bks.cpg/sg46_8_cif.got.tgz:14165.got - 2010.06.03 19:58:25.
