data_PCOD9379370
_publ_section_title
;
Structure prediction by ZEFSAII (Michael W. Deem and Ramdas Pophale) SiO2 
 PCOD9379370
Probable space group: I M A 2
;
_chemical_formula_sum "Si O2"
_cell_formula_units_Z 56
_cell_length_a 15.357213
_cell_length_b 10.713604
_cell_length_c 15.053650
_cell_angle_alpha 90.000000
_cell_angle_beta 90.000000
_cell_angle_gamma 90.000000
_cell_volume 2476.793573
_symmetry_space_group_name_H-M "I M A 2"
_symmetry_group_IT_number 46
_symmetry_cell_setting 'orthorhombic'
loop_
_space_group_symop_operation_xyz
x,y,z
-x,-y,z
1/2-x,y,z
1/2+x,-y,z
1/2+x,1/2+y,1/2+z
1/2-x,1/2-y,1/2+z
-x,1/2+y,1/2+z
x,1/2-y,1/2+z
loop_
_atom_site_type_symbol
_atom_site_label
_atom_site_fract_x
_atom_site_fract_y
_atom_site_fract_z
Si Si1 0.149762 0.571846 0.301740
Si Si2 0.352425 0.830289 0.614457
Si Si3 0.412318 0.418575 0.456112
Si Si4 0.100193 0.958637 0.132728
Si Si5 0.995960 0.230973 0.358311
Si Si6 0.656630 0.864557 0.283349
Si Si7 0.151016 0.938190 0.420852
O O1 0.250000 0.612360 0.313094
O O2 0.131012 0.576173 0.196734
O O3 0.136986 0.452124 0.364766
O O4 0.077675 0.667071 0.337424
O O5 0.250000 0.800324 0.616886
O O6 0.394367 0.691697 0.623332
O O7 0.367543 0.902304 0.522526
O O8 0.500000 0.500000 0.457513
O O9 0.365580 0.468721 0.544116
O O10 0.450593 0.280380 0.444249
O O11 0.149579 0.018266 0.216316
O O12 0.000000 0.000000 0.143240
O O13 0.934344 0.113949 0.372183
O O14 0.067420 0.212547 0.281399
O O15 0.750000 0.800951 0.267410
O O16 0.656755 0.922808 0.382612
O O17 0.250000 0.886723 0.402305
#
# Coordination Sequence:
#
# PCOD9379370 Si02
#       7
#     8   8   8   8   8   8   8
#     4  10  20  36  60  88 116 148 189 238 289 343
#     4  10  20  34  57  88 117 147 189 239 290 340
#     4   9  21  37  56  85 119 150 189 236 287 343
#     4  11  20  34  57  85 113 146 192 245 289 338
#     4  11  21  38  59  83 117 157 190 233 290 344
#     4  11  24  39  56  83 119 156 196 239 286 341
#     4  10  20  36  59  86 115 148 190 240 289 341
#
# _framework density 22.609877999999998
#
# number of rings (size 3 to 8) (size 9 to 14) (size 15 to 20)
#    0.000    1.714    0.000    6.429    0.000    5.143 
#    0.000    5.714    0.000    1.714    0.000    0.000 
#    0.000    0.000    0.000    0.000    0.000    0.000 
#
# Total GULP energy -155880.817768 kJ/mol
# GULP energy per Si atom -5567.172063 kJ/mol
# Density = 2.255842 g / cm^3
# Si number density = 22.609878 Si / 1000 Ang^3
#
#
#
# Elastic Constant Matrix: (Units=GPa)
#
#
# Indices 1 2 3 4 5 6 
#
# 1 116.3849 24.3275 42.1671 0.0000 0.0000 0.0000
# 2 24.3275 25.6793 22.5707 0.0000 0.0000 0.0000
# 3 42.1671 22.5707 82.5483 0.0000 0.0000 0.0000
# 4 0.0000 0.0000 0.0000 22.5822 0.0000 0.0000
# 5 0.0000 0.0000 0.0000 0.0000 20.6383 0.0000
# 6 0.0000 0.0000 0.0000 0.0000 0.0000 25.7988
#
#
#
# Elastic Compliance Matrix: (Units=1/GPa)
#
#
# Indices 1 2 3 4 5 6 
#
# 1 0.011567 -0.007589 -0.003834 0.000000 0.000000 0.000000
# 2 -0.007589 0.056240 -0.011501 0.000000 0.000000 0.000000
# 3 -0.003834 -0.011501 0.017217 0.000000 0.000000 0.000000
# 4 0.000000 0.000000 0.000000 0.044283 0.000000 0.000000
# 5 0.000000 0.000000 0.000000 0.000000 0.048454 0.000000
# 6 0.000000 0.000000 0.000000 0.000000 0.000000 0.038761
#
#
# Mechanical properties :
#
#
# Convention : Reuss Voigt Hill
#
# Bulk Modulus (GPa) = 25.52496 44.74923 35.13710
# Shear Modulus (GPa) = 18.15356 22.84035 20.49695
#
# Velocity S-wave (km/s) = 2.83663 3.18180 3.01416
# Velocity P-wave (km/s) = 4.69494 5.77350 5.26193
#
# Compressibility (1/GPa) = 0.03917734
#
# Stress axis : x y z
#
# Youngs Moduli (GPa) = 86.44922 17.78104 58.08161
#
# Poissons Ratio (x) = 0.13494 0.22268
# Poissons Ratio (y) = 0.65604 0.66799
# Poissons Ratio (z) = 0.33144 0.20450
#
# Static dielectric constant tensor:
#      x y z
#    x 1.953920 0.000000 0.000000 
#    y 0.000000 1.887420 0.000000 
#    z 0.000000 0.000000 1.936030 
# 
# From -- ./inp_files/15938.got.cif
#   From: 2010.05.17/outbox.cif.g08.bks.cpg/sg46_8_cif.got.tgz:15938.got - 2010.06.03 19:58:25.
