data_PCOD9379752
_publ_section_title
;
Structure prediction by ZEFSAII (Michael W. Deem and Ramdas Pophale) SiO2 
 PCOD9379752
Probable space group: I M A 2
;
_chemical_formula_sum "Si O2"
_cell_formula_units_Z 64
_cell_length_a 8.885585
_cell_length_b 29.678065
_cell_length_c 13.126755
_cell_angle_alpha 90.000000
_cell_angle_beta 90.000000
_cell_angle_gamma 90.000000
_cell_volume 3461.616776
_symmetry_space_group_name_H-M "I M A 2"
_symmetry_group_IT_number 46
_symmetry_cell_setting 'orthorhombic'
loop_
_space_group_symop_operation_xyz
x,y,z
-x,-y,z
1/2-x,y,z
1/2+x,-y,z
1/2+x,1/2+y,1/2+z
1/2-x,1/2-y,1/2+z
-x,1/2+y,1/2+z
x,1/2-y,1/2+z
loop_
_atom_site_type_symbol
_atom_site_label
_atom_site_fract_x
_atom_site_fract_y
_atom_site_fract_z
Si Si1 0.069956 0.879424 0.569940
Si Si2 0.568865 0.450205 0.894366
Si Si3 0.568403 0.643563 0.283826
Si Si4 0.069041 0.123142 0.012352
Si Si5 0.073902 0.705858 0.632180
Si Si6 0.431590 0.450142 0.680705
Si Si7 0.921811 0.750409 0.797563
Si Si8 0.577505 0.786852 0.521723
O O1 0.250000 0.876306 0.577094
O O2 0.032826 0.920385 0.493638
O O3 0.002868 0.879740 0.684544
O O4 0.001853 0.834727 0.518849
O O5 0.500000 0.500000 0.906746
O O6 0.750000 0.452548 0.883570
O O7 0.498756 0.432051 0.787947
O O8 0.750000 0.640259 0.277629
O O9 0.519872 0.623618 0.393870
O O10 0.531460 0.697282 0.284037
O O11 0.250000 0.125798 0.010769
O O12 0.027586 0.080908 0.083964
O O13 0.007913 0.167085 0.069742
O O14 0.250000 0.700525 0.620796
O O15 0.023463 0.711411 0.748430
O O16 0.016283 0.754134 0.593494
O O17 0.500000 0.500000 0.667898
O O18 0.250000 0.452302 0.688440
O O19 0.750000 0.745321 0.759056
O O20 0.918998 0.739475 0.916154
O O21 0.750000 0.793367 0.555791
#
# Coordination Sequence:
#
# PCOD9379752 Si02
#       8
#     8   8   8   8   8   8   8   8
#     4  11  24  39  57  88 122 150 190 245 295 344
#     4  10  22  41  64  89 120 150 186 237 292 350
#     4  10  20  38  61  81 112 159 202 238 279 339
#     4  10  22  41  61  85 115 154 201 240 282 347
#     4  12  24  35  54  83 117 153 191 242 293 338
#     4  10  21  39  66  92 118 149 186 236 293 350
#     4  10  21  37  56  77 109 155 201 242 281 335
#     4  11  22  38  58  79 111 156 201 238 279 342
#
# _framework density 18.488468999999998
#
# number of rings (size 3 to 8) (size 9 to 14) (size 15 to 20)
#    0.000    1.500    2.500    3.375    1.750    4.500 
#    0.000    0.625    0.000    3.000    0.000    0.000 
#    0.000    0.000    0.000    0.000    0.000    0.000 
#
# Total GULP energy -178559.255313 kJ/mol
# GULP energy per Si atom -5579.976729 kJ/mol
# Density = 1.844639 g / cm^3
# Si number density = 18.488469 Si / 1000 Ang^3
#
#
#
# Elastic Constant Matrix: (Units=GPa)
#
#
# Indices 1 2 3 4 5 6 
#
# 1 30.4968 27.6638 45.1579 0.0000 0.0000 0.0000
# 2 27.6638 79.8423 63.2755 -0.0001 0.0000 0.0000
# 3 45.1579 63.2755 145.3205 -0.0001 0.0000 0.0000
# 4 0.0000 -0.0001 -0.0001 34.9627 0.0000 0.0000
# 5 0.0000 0.0000 0.0000 0.0000 16.8883 0.0000
# 6 0.0000 0.0000 0.0000 0.0000 0.0000 21.5013
#
#
#
# Elastic Compliance Matrix: (Units=1/GPa)
#
#
# Indices 1 2 3 4 5 6 
#
# 1 0.065618 -0.010040 -0.016019 0.000000 0.000000 0.000000
# 2 -0.010040 0.020660 -0.005876 0.000000 0.000000 0.000000
# 3 -0.016019 -0.005876 0.014418 0.000000 0.000000 0.000000
# 4 0.000000 0.000000 0.000000 0.028602 0.000000 0.000000
# 5 0.000000 0.000000 0.000000 0.000000 0.059213 0.000000
# 6 0.000000 0.000000 0.000000 0.000000 0.000000 0.046509
#
#
# Mechanical properties :
#
#
# Convention : Reuss Voigt Hill
#
# Bulk Modulus (GPa) = 27.15508 58.65045 42.90276
# Shear Modulus (GPa) = 16.06873 22.64127 19.35500
#
# Velocity S-wave (km/s) = 2.95129 3.50325 3.23905
# Velocity P-wave (km/s) = 5.13156 6.93940 6.10279
#
# Compressibility (1/GPa) = 0.03682553
#
# Stress axis : x y z
#
# Youngs Moduli (GPa) = 15.23984 48.40255 69.35991
#
# Poissons Ratio (x) = 0.48598 1.11106
# Poissons Ratio (y) = 0.15301 0.40755
# Poissons Ratio (z) = 0.24412 0.28440
#
# Static dielectric constant tensor:
#      x y z
#    x 1.627030 0.000000 0.000000 
#    y 0.000000 1.607080 0.000000 
#    z 0.000000 0.000000 1.738750 
# 
# From -- ./inp_files/9770.got.cif
#   From: 2010.05.17/outbox.cif.g08.bks.cpg/sg46_5_cif.got.tgz:9770.got - 2010.06.03 19:58:25.
