data_PCOD9379395
_publ_section_title
;
Structure prediction by ZEFSAII (Michael W. Deem and Ramdas Pophale) SiO2 
 PCOD9379395
Probable space group: I M A 2
;
_chemical_formula_sum "Si O2"
_cell_formula_units_Z 64
_cell_length_a 8.420141
_cell_length_b 29.199024
_cell_length_c 14.633098
_cell_angle_alpha 90.000000
_cell_angle_beta 90.000000
_cell_angle_gamma 90.000000
_cell_volume 3597.691998
_symmetry_space_group_name_H-M "I M A 2"
_symmetry_group_IT_number 46
_symmetry_cell_setting 'orthorhombic'
loop_
_space_group_symop_operation_xyz
x,y,z
-x,-y,z
1/2-x,y,z
1/2+x,-y,z
1/2+x,1/2+y,1/2+z
1/2-x,1/2-y,1/2+z
-x,1/2+y,1/2+z
x,1/2-y,1/2+z
loop_
_atom_site_type_symbol
_atom_site_label
_atom_site_fract_x
_atom_site_fract_y
_atom_site_fract_z
Si Si1 0.940151 0.948381 0.066060
Si Si2 0.057754 0.197703 0.068959
Si Si3 0.059925 0.551596 0.066507
Si Si4 0.057927 0.377144 0.210158
Si Si5 0.556568 0.625406 0.418635
Si Si6 0.559595 0.376175 0.710205
Si Si7 0.941876 0.697574 0.062889
Si Si8 0.941816 0.373666 0.919375
O O1 0.750000 0.948211 0.067134
O O2 0.999327 0.920031 0.153762
O O3 0.992982 0.918975 0.977355
O O4 0.000000 0.000000 0.064522
O O5 0.250000 0.197466 0.071238
O O6 0.002922 0.250100 0.068621
O O7 0.998639 0.168327 0.154898
O O8 0.008301 0.169579 0.978287
O O9 0.250000 0.551529 0.067556
O O10 0.000000 0.500000 0.061052
O O11 0.999259 0.577980 0.156421
O O12 0.006108 0.582785 0.980433
O O13 0.250000 0.377458 0.210981
O O14 0.000963 0.374781 0.314429
O O15 0.006539 0.333564 0.149064
O O16 0.750000 0.625434 0.416495
O O17 0.750000 0.376752 0.709893
O O18 0.503276 0.376053 0.814934
O O19 0.750000 0.697928 0.062179
O O20 0.999512 0.671173 0.972812
O O21 0.750000 0.373252 0.919322
#
# Coordination Sequence:
#
# PCOD9379395 Si02
#       8
#     8   8   8   8   8   8   8   8
#     4  10  20  35  53  74 100 132 167 209 256 303
#     4   9  18  33  51  76 105 134 168 208 251 295
#     4  10  20  35  52  72  98 128 161 203 248 296
#     4   9  17  32  51  73  99 130 166 204 244 292
#     4   8  16  31  50  70  99 133 165 202 244 289
#     4  10  20  35  53  75 102 135 171 208 249 298
#     4   9  18  31  52  78 103 132 168 206 248 295
#     4   9  20  36  52  72 102 134 167 206 249 294
#
# _framework density 17.789183000000001
#
# number of rings (size 3 to 8) (size 9 to 14) (size 15 to 20)
#    0.000    2.750    0.000    1.875    0.000    4.000 
#    0.000    8.125    0.000    0.000    0.000    0.000 
#    0.000    0.000    0.000    0.000    0.000    0.000 
#
# Total GULP energy -178451.458380 kJ/mol
# GULP energy per Si atom -5576.608074 kJ/mol
# Density = 1.774869 g / cm^3
# Si number density = 17.789183 Si / 1000 Ang^3
#
#
#
# Elastic Constant Matrix: (Units=GPa)
#
#
# Indices 1 2 3 4 5 6 
#
# 1 15.3795 22.8407 22.7560 0.0000 0.0000 0.0000
# 2 22.8407 186.0422 96.4655 -0.0001 0.0000 0.0000
# 3 22.7560 96.4655 189.2977 -0.0002 0.0000 0.0001
# 4 0.0000 -0.0001 -0.0002 5.6998 0.0000 0.0000
# 5 0.0000 0.0000 0.0000 0.0000 21.4666 0.0000
# 6 0.0000 0.0000 0.0001 0.0000 0.0000 15.3464
#
#
#
# Elastic Compliance Matrix: (Units=1/GPa)
#
#
# Indices 1 2 3 4 5 6 
#
# 1 0.085322 -0.007009 -0.006685 0.000000 0.000000 0.000000
# 2 -0.007009 0.007881 -0.003174 0.000000 0.000000 0.000000
# 3 -0.006685 -0.003174 0.007704 0.000000 0.000000 0.000000
# 4 0.000000 0.000000 0.000000 0.175446 0.000000 0.000000
# 5 0.000000 0.000000 0.000000 0.000000 0.046584 0.000000
# 6 0.000000 0.000000 0.000000 0.000000 0.000000 0.065162
#
#
# Mechanical properties :
#
#
# Convention : Reuss Voigt Hill
#
# Bulk Modulus (GPa) = 14.88718 74.98266 44.93492
# Shear Modulus (GPa) = 11.25554 25.07968 18.16761
#
# Velocity S-wave (km/s) = 2.51812 3.75884 3.19920
# Velocity P-wave (km/s) = 4.10383 7.81542 6.24188
#
# Compressibility (1/GPa) = 0.06717189
#
# Stress axis : x y z
#
# Youngs Moduli (GPa) = 11.72024 126.88404 129.80894
#
# Poissons Ratio (x) = 0.88931 0.86780
# Poissons Ratio (y) = 0.08215 0.41197
# Poissons Ratio (z) = 0.07835 0.40269
#
# Static dielectric constant tensor:
#      x y z
#    x 1.610080 0.000000 0.000000 
#    y 0.000000 1.587600 0.000000 
#    z 0.000000 0.000000 1.599910 
# 
# From -- ./inp_files/14718.got.cif
#   From: 2010.05.17/outbox.cif.g08.bks.cpg/sg46_8_cif.got.tgz:14718.got - 2010.06.03 19:58:25.
