data_PCOD9379081
_publ_section_title
;
Structure prediction by ZEFSAII (Michael W. Deem and Ramdas Pophale) SiO2 
 PCOD9379081
Probable space group: I M A 2
;
_chemical_formula_sum "Si O2"
_cell_formula_units_Z 40
_cell_length_a 8.919857
_cell_length_b 14.761829
_cell_length_c 13.810079
_cell_angle_alpha 90.000000
_cell_angle_beta 90.000000
_cell_angle_gamma 90.000000
_cell_volume 1818.420108
_symmetry_space_group_name_H-M "I M A 2"
_symmetry_group_IT_number 46
_symmetry_cell_setting 'orthorhombic'
loop_
_space_group_symop_operation_xyz
x,y,z
-x,-y,z
1/2-x,y,z
1/2+x,-y,z
1/2+x,1/2+y,1/2+z
1/2-x,1/2-y,1/2+z
-x,1/2+y,1/2+z
x,1/2-y,1/2+z
loop_
_atom_site_type_symbol
_atom_site_label
_atom_site_fract_x
_atom_site_fract_y
_atom_site_fract_z
Si Si1 0.927055 0.239095 0.314650
Si Si2 0.068132 0.290759 0.005956
Si Si3 0.582360 0.586085 0.722516
Si Si4 0.569072 0.899497 0.702653
Si Si5 0.584807 0.585587 0.495554
O O1 0.750000 0.250342 0.323752
O O2 0.995277 0.181546 0.404547
O O3 0.976536 0.172935 0.228247
O O4 0.005058 0.334646 0.287826
O O5 0.250000 0.289621 0.002815
O O6 0.027918 0.349324 0.100196
O O7 0.015332 0.185491 0.001100
O O8 0.500000 0.500000 0.768090
O O9 0.750000 0.604699 0.761332
O O10 0.603145 0.564886 0.609425
O O11 0.750000 0.902558 0.707592
O O12 0.500000 0.000000 0.705056
O O13 0.500000 0.500000 0.451673
O O14 0.750000 0.591952 0.450919
#
# Coordination Sequence:
#
# PCOD9379081 Si02
#       5
#     8   8   8   8   8
#     4  12  25  40  63  96 131 173 219 267 325 394
#     4  10  22  42  65  90 127 172 216 270 330 388
#     4  10  19  36  60  89 121 157 200 252 312 373
#     4  11  24  46  71  96 131 177 226 279 338 399
#     4   9  18  34  58  87 116 152 193 243 308 367
#
# _framework density 21.997115999999998
#
# number of rings (size 3 to 8) (size 9 to 14) (size 15 to 20)
#    0.000    1.600    2.000    3.000    0.000    4.800 
#    0.000    4.000    0.000    0.000    0.000    0.000 
#    0.000    0.000    0.000    0.000    0.000    0.000 
#
# Total GULP energy -111475.329311 kJ/mol
# GULP energy per Si atom -5573.766466 kJ/mol
# Density = 2.194705 g / cm^3
# Si number density = 21.997116 Si / 1000 Ang^3
#
#
#
# Elastic Constant Matrix: (Units=GPa)
#
#
# Indices 1 2 3 4 5 6 
#
# 1 58.5122 28.2015 22.3548 0.0000 0.0000 0.0000
# 2 28.2015 129.4126 19.3123 0.0000 0.0000 0.0000
# 3 22.3548 19.3123 96.7687 0.0000 0.0000 0.0000
# 4 0.0000 0.0000 0.0000 18.7255 0.0000 0.0000
# 5 0.0000 0.0000 0.0000 0.0000 13.5317 0.0000
# 6 0.0000 0.0000 0.0000 0.0000 0.0000 26.4243
#
#
#
# Elastic Compliance Matrix: (Units=1/GPa)
#
#
# Indices 1 2 3 4 5 6 
#
# 1 0.020467 -0.003870 -0.003956 0.000000 0.000000 0.000000
# 2 -0.003870 0.008696 -0.000842 0.000000 0.000000 0.000000
# 3 -0.003956 -0.000842 0.011416 0.000000 0.000000 0.000000
# 4 0.000000 0.000000 0.000000 0.053403 0.000000 0.000000
# 5 0.000000 0.000000 0.000000 0.000000 0.073901 0.000000
# 6 0.000000 0.000000 0.000000 0.000000 0.000000 0.037844
#
#
# Mechanical properties :
#
#
# Convention : Reuss Voigt Hill
#
# Bulk Modulus (GPa) = 43.02101 47.15896 45.08998
# Shear Modulus (GPa) = 21.66293 26.05796 23.86044
#
# Velocity S-wave (km/s) = 3.14157 3.44555 3.29706
# Velocity P-wave (km/s) = 5.72357 6.10854 5.91919
#
# Compressibility (1/GPa) = 0.02324446
#
# Stress axis : x y z
#
# Youngs Moduli (GPa) = 48.85930 114.99391 87.59866
#
# Poissons Ratio (x) = 0.44501 0.34652
# Poissons Ratio (y) = 0.18908 0.07372
# Poissons Ratio (z) = 0.19328 0.09677
#
# Static dielectric constant tensor:
#      x y z
#    x 1.836210 0.000000 0.000000 
#    y 0.000000 1.840790 0.000000 
#    z 0.000000 0.000000 1.948260 
# 
# From -- ./inp_files/13647.got.cif
#   From: 2010.05.17/outbox.cif.g08.bks.cpg/sg46_7_cif.got.tgz:13647.got - 2010.06.03 19:58:25.
