data_PCOD9379106
_publ_section_title
;
Structure prediction by ZEFSAII (Michael W. Deem and Ramdas Pophale) SiO2 
 PCOD9379106
Probable space group: I M A 2
;
_chemical_formula_sum "Si O2"
_cell_formula_units_Z 48
_cell_length_a 27.391676
_cell_length_b 5.033246
_cell_length_c 13.582633
_cell_angle_alpha 90.000000
_cell_angle_beta 90.000000
_cell_angle_gamma 90.000000
_cell_volume 1872.624622
_symmetry_space_group_name_H-M "I M A 2"
_symmetry_group_IT_number 46
_symmetry_cell_setting 'orthorhombic'
loop_
_space_group_symop_operation_xyz
x,y,z
-x,-y,z
1/2-x,y,z
1/2+x,-y,z
1/2+x,1/2+y,1/2+z
1/2-x,1/2-y,1/2+z
-x,1/2+y,1/2+z
x,1/2-y,1/2+z
loop_
_atom_site_type_symbol
_atom_site_label
_atom_site_fract_x
_atom_site_fract_y
_atom_site_fract_z
Si Si1 0.695644 0.060460 0.151900
Si Si2 0.611244 0.095055 0.879640
Si Si3 0.448615 0.650854 0.190323
Si Si4 0.304790 0.922368 0.489169
Si Si5 0.408365 0.147415 0.080728
Si Si6 0.697524 0.720081 0.326459
O O1 0.750000 0.957894 0.123283
O O2 0.647085 0.922398 0.111932
O O3 0.694412 0.996762 0.267204
O O4 0.693331 0.353142 0.104325
O O5 0.649200 0.939923 0.809707
O O6 0.572911 0.199872 0.800169
O O7 0.647227 0.291153 0.940323
O O8 0.587862 0.905781 0.963417
O O9 0.500000 0.500000 0.201086
O O10 0.420081 0.439891 0.120084
O O11 0.442972 0.931768 0.134895
O O12 0.250000 0.821317 0.459413
O O13 0.303939 0.212714 0.442257
O O14 0.750000 0.599744 0.301330
#
# Coordination Sequence:
#
# PCOD9379106 Si02
#       6
#     8   8   8   8   8   8
#     4   9  18  37  64 100 141 186 226 272 342 423
#     4  11  24  41  73  98 138 184 235 289 359 424
#     4  12  28  50  74 103 138 183 244 308 361 416
#     4   9  19  35  58  97 143 182 227 276 338 421
#     4  11  26  47  75 107 146 182 235 292 359 426
#     4  10  19  36  64  99 140 185 231 281 343 424
#
# _framework density 25.632473999999998
#
# number of rings (size 3 to 8) (size 9 to 14) (size 15 to 20)
#    0.000    1.667    1.667    2.000    4.667    2.000 
#    0.000    1.667    0.000    0.000    0.000    0.000 
#    0.000    0.000    0.000    0.000    0.000    0.000 
#
# Total GULP energy -133981.602065 kJ/mol
# GULP energy per Si atom -5582.566753 kJ/mol
# Density = 2.557413 g / cm^3
# Si number density = 25.632474 Si / 1000 Ang^3
#
#
#
# Elastic Constant Matrix: (Units=GPa)
#
#
# Indices 1 2 3 4 5 6 
#
# 1 117.9022 10.1552 32.4138 0.0000 0.0000 0.0000
# 2 10.1552 59.8389 9.1168 0.0000 0.0000 0.0000
# 3 32.4138 9.1168 137.4894 0.0000 0.0000 0.0000
# 4 0.0000 0.0000 0.0000 34.2613 0.0000 0.0000
# 5 0.0000 0.0000 0.0000 0.0000 23.3226 0.0000
# 6 0.0000 0.0000 0.0000 0.0000 0.0000 35.2137
#
#
#
# Elastic Compliance Matrix: (Units=1/GPa)
#
#
# Indices 1 2 3 4 5 6 
#
# 1 0.009159 -0.001238 -0.002077 0.000000 0.000000 0.000000
# 2 -0.001238 0.017049 -0.000839 0.000000 0.000000 0.000000
# 3 -0.002077 -0.000839 0.007819 0.000000 0.000000 0.000000
# 4 0.000000 0.000000 0.000000 0.029187 0.000000 0.000000
# 5 0.000000 0.000000 0.000000 0.000000 0.042877 0.000000
# 6 0.000000 0.000000 0.000000 0.000000 0.000000 0.028398
#
#
# Mechanical properties :
#
#
# Convention : Reuss Voigt Hill
#
# Bulk Modulus (GPa) = 38.88091 46.51137 42.69614
# Shear Modulus (GPa) = 33.03149 36.12916 34.58033
#
# Velocity S-wave (km/s) = 3.59368 3.75841 3.67697
# Velocity P-wave (km/s) = 5.69394 6.08433 5.89237
#
# Compressibility (1/GPa) = 0.02571956
#
# Stress axis : x y z
#
# Youngs Moduli (GPa) = 109.17843 58.65312 127.89969
#
# Poissons Ratio (x) = 0.07261 0.26568
# Poissons Ratio (y) = 0.13516 0.10727
# Poissons Ratio (z) = 0.22679 0.04919
#
# Static dielectric constant tensor:
#      x y z
#    x 2.017450 0.000000 0.000000 
#    y 0.000000 2.078690 0.000000 
#    z 0.000000 0.000000 1.997800 
# 
# From -- ./inp_files/17540.got.cif
#   From: 2010.05.17/outbox.cif.g08.bks.cpg/sg46_9_cif.got.tgz:17540.got - 2010.06.03 19:58:25.
