data_PCOD9379015
_publ_section_title
;
Structure prediction by ZEFSAII (Michael W. Deem and Ramdas Pophale) SiO2 
 PCOD9379015
Probable space group: I M A 2
;
_chemical_formula_sum "Si O2"
_cell_formula_units_Z 64
_cell_length_a 9.321418
_cell_length_b 27.800161
_cell_length_c 12.692907
_cell_angle_alpha 90.000000
_cell_angle_beta 90.000000
_cell_angle_gamma 90.000000
_cell_volume 3289.200840
_symmetry_space_group_name_H-M "I M A 2"
_symmetry_group_IT_number 46
_symmetry_cell_setting 'orthorhombic'
loop_
_space_group_symop_operation_xyz
x,y,z
-x,-y,z
1/2-x,y,z
1/2+x,-y,z
1/2+x,1/2+y,1/2+z
1/2-x,1/2-y,1/2+z
-x,1/2+y,1/2+z
x,1/2-y,1/2+z
loop_
_atom_site_type_symbol
_atom_site_label
_atom_site_fract_x
_atom_site_fract_y
_atom_site_fract_z
Si Si1 0.580709 0.288353 0.938040
Si Si2 0.577906 0.950027 0.156572
Si Si3 0.419758 0.127187 0.332296
Si Si4 0.590075 0.181081 0.676626
Si Si5 0.080344 0.083499 0.919172
Si Si6 0.412479 0.933131 0.714372
Si Si7 0.418347 0.303890 0.376711
Si Si8 0.081173 0.044887 0.503192
O O1 0.750000 0.285730 0.918003
O O2 0.506331 0.324334 0.854986
O O3 0.509618 0.236043 0.936219
O O4 0.559149 0.309407 0.055130
O O5 0.750000 0.956095 0.169142
O O6 0.536219 0.905627 0.232640
O O7 0.500000 0.000000 0.182345
O O8 0.548188 0.936286 0.035102
O O9 0.250000 0.138060 0.322217
O O10 0.439236 0.092326 0.433360
O O11 0.750000 0.200903 0.700976
O O12 0.596271 0.124270 0.697667
O O13 0.470789 0.200233 0.755917
O O14 0.250000 0.076328 0.897394
O O15 0.054665 0.141275 0.914156
O O16 0.986573 0.059583 0.827171
O O17 0.250000 0.952640 0.709876
O O18 0.510812 0.949430 0.617747
O O19 0.250000 0.294497 0.386816
O O20 0.250000 0.035446 0.510261
O O21 0.000000 0.000000 0.451016
#
# Coordination Sequence:
#
# PCOD9379015 Si02
#       8
#     8   8   8   8   8   8   8   8
#     4  11  22  37  59  87 120 156 199 249 304 366
#     4  10  22  41  63  88 121 160 205 254 305 365
#     4  10  22  39  59  85 117 156 201 248 297 359
#     4   9  19  36  56  79 111 150 189 239 296 350
#     4   9  20  39  60  83 117 157 200 248 298 354
#     4  10  19  35  58  83 112 146 188 236 293 351
#     4  10  21  36  57  86 117 157 203 249 303 359
#     4  11  22  35  55  83 115 148 189 237 291 352
#
# _framework density 19.457615000000001
#
# number of rings (size 3 to 8) (size 9 to 14) (size 15 to 20)
#    0.000    2.000    1.250    1.875    0.000    5.000 
#    0.000    2.500    0.000    0.000    0.000    0.000 
#    0.000    0.000    0.000    0.000    0.000    0.000 
#
# Total GULP energy -178676.156216 kJ/mol
# GULP energy per Si atom -5583.629882 kJ/mol
# Density = 1.941333 g / cm^3
# Si number density = 19.457615 Si / 1000 Ang^3
#
#
#
# Elastic Constant Matrix: (Units=GPa)
#
#
# Indices 1 2 3 4 5 6 
#
# 1 69.7471 30.5705 29.5224 0.0001 0.0000 0.0000
# 2 30.5705 45.3861 10.3340 0.0001 0.0000 0.0000
# 3 29.5224 10.3340 81.8354 0.0003 0.0000 0.0000
# 4 0.0001 0.0001 0.0003 19.6783 0.0000 0.0000
# 5 0.0000 0.0000 0.0000 0.0000 24.3626 0.0000
# 6 0.0000 0.0000 0.0000 0.0000 0.0000 33.3231
#
#
#
# Elastic Compliance Matrix: (Units=1/GPa)
#
#
# Indices 1 2 3 4 5 6 
#
# 1 0.023391 -0.014244 -0.006640 0.000000 0.000000 0.000000
# 2 -0.014244 0.031359 0.001179 0.000000 0.000000 0.000000
# 3 -0.006640 0.001179 0.014466 0.000000 0.000000 0.000000
# 4 0.000000 0.000000 0.000000 0.050817 0.000000 0.000000
# 5 0.000000 0.000000 0.000000 0.000000 0.041046 0.000000
# 6 0.000000 0.000000 0.000000 0.000000 0.000000 0.030009
#
#
# Mechanical properties :
#
#
# Convention : Reuss Voigt Hill
#
# Bulk Modulus (GPa) = 33.54989 37.53581 35.54285
# Shear Modulus (GPa) = 20.79572 23.90892 22.35232
#
# Velocity S-wave (km/s) = 3.27275 3.50918 3.39303
# Velocity P-wave (km/s) = 5.61793 5.97931 5.80143
#
# Compressibility (1/GPa) = 0.02980636
#
# Stress axis : x y z
#
# Youngs Moduli (GPa) = 42.75150 31.88896 69.12689
#
# Poissons Ratio (x) = 0.45421 0.45898
# Poissons Ratio (y) = 0.60893 -0.08147
# Poissons Ratio (z) = 0.28386 -0.03758
#
# Static dielectric constant tensor:
#      x y z
#    x 1.663990 0.000000 0.000000 
#    y 0.000000 1.698030 0.000000 
#    z 0.000000 0.000000 1.669810 
# 
# From -- ./inp_files/9669.got.cif
#   From: 2010.05.17/outbox.cif.g08.bks.cpg/sg46_5_cif.got.tgz:9669.got - 2010.06.03 19:58:25.
