data_PCOD9379146
_publ_section_title
;
Structure prediction by ZEFSAII (Michael W. Deem and Ramdas Pophale) SiO2 
 PCOD9379146
Probable space group: I M A 2
;
_chemical_formula_sum "Si O2"
_cell_formula_units_Z 56
_cell_length_a 8.630938
_cell_length_b 15.898518
_cell_length_c 20.403259
_cell_angle_alpha 90.000000
_cell_angle_beta 90.000000
_cell_angle_gamma 90.000000
_cell_volume 2799.717309
_symmetry_space_group_name_H-M "I M A 2"
_symmetry_group_IT_number 46
_symmetry_cell_setting 'orthorhombic'
loop_
_space_group_symop_operation_xyz
x,y,z
-x,-y,z
1/2-x,y,z
1/2+x,-y,z
1/2+x,1/2+y,1/2+z
1/2-x,1/2-y,1/2+z
-x,1/2+y,1/2+z
x,1/2-y,1/2+z
loop_
_atom_site_type_symbol
_atom_site_label
_atom_site_fract_x
_atom_site_fract_y
_atom_site_fract_z
Si Si1 0.432110 0.079425 0.801660
Si Si2 0.427486 0.077663 0.057299
Si Si3 0.927381 0.359998 0.430786
Si Si4 0.070102 0.247618 0.632513
Si Si5 0.437802 0.405959 0.035793
Si Si6 0.067975 0.743876 0.768806
Si Si7 0.932869 0.816904 0.401193
O O1 0.250000 0.070914 0.812726
O O2 0.531995 0.085287 0.867838
O O3 0.470229 0.169752 0.772318
O O4 0.500000 0.000000 0.762641
O O5 0.250000 0.059138 0.040463
O O6 0.428929 0.169818 0.087909
O O7 0.500000 0.000000 0.097547
O O8 0.534860 0.087789 0.994329
O O9 0.750000 0.332215 0.429319
O O10 0.035411 0.277818 0.426714
O O11 0.250000 0.231580 0.652473
O O12 0.016983 0.165969 0.589724
O O13 0.968007 0.278052 0.694062
O O14 0.500000 0.500000 0.049244
O O15 0.250000 0.407128 0.036145
O O16 0.485785 0.376229 0.961718
O O17 0.250000 0.759854 0.778047
O O18 0.013019 0.684212 0.829098
O O19 0.750000 0.829915 0.391667
#
# Coordination Sequence:
#
# PCOD9379146 Si02
#       7
#     8   8   8   8   8   8   8
#     4  11  21  35  54  79 114 153 194 240 294 356
#     4  11  22  38  59  85 118 153 196 243 299 362
#     4  11  20  32  54  85 118 151 189 236 292 350
#     4  10  22  43  63  85 123 167 206 253 313 379
#     4  10  22  40  65  95 126 165 214 261 318 375
#     4  11  23  38  59  88 118 157 205 255 312 373
#     4  10  19  38  62  87 119 160 203 250 306 367
#
# _framework density 20.002019000000001
#
# number of rings (size 3 to 8) (size 9 to 14) (size 15 to 20)
#    0.000    1.429    1.429    6.857    0.000    3.429 
#    0.000    2.143    0.000    0.000    0.000    0.000 
#    0.000    0.000    0.000    0.000    0.000    0.000 
#
# Total GULP energy -156059.658377 kJ/mol
# GULP energy per Si atom -5573.559228 kJ/mol
# Density = 1.995649 g / cm^3
# Si number density = 20.002019 Si / 1000 Ang^3
#
#
#
# Elastic Constant Matrix: (Units=GPa)
#
#
# Indices 1 2 3 4 5 6 
#
# 1 70.9616 6.1397 27.6253 0.0000 0.0000 0.0000
# 2 6.1397 76.4354 13.1102 0.0000 0.0000 0.0000
# 3 27.6253 13.1102 78.0735 0.0000 0.0000 0.0000
# 4 0.0000 0.0000 0.0000 -1.4586 0.0000 0.0000
# 5 0.0000 0.0000 0.0000 0.0000 11.9860 0.0000
# 6 0.0000 0.0000 0.0000 0.0000 0.0000 31.0950
#
#
#
# Elastic Compliance Matrix: (Units=1/GPa)
#
#
# Indices 1 2 3 4 5 6 
#
# 1 0.016352 -0.000331 -0.005730 0.000000 0.000000 0.000000
# 2 -0.000331 0.013478 -0.002146 0.000000 0.000000 0.000000
# 3 -0.005730 -0.002146 0.015196 0.000000 0.000000 0.000000
# 4 0.000000 0.000000 0.000000 -0.685580 0.000000 0.000000
# 5 0.000000 0.000000 0.000000 0.000000 0.083431 0.000000
# 6 0.000000 0.000000 0.000000 0.000000 0.000000 0.032160
#
#
# Mechanical properties :
#
#
# Convention : Reuss Voigt Hill
#
# Bulk Modulus (GPa) = 34.95104 35.46898 35.21001
# Shear Modulus (GPa) = -10.01978 20.23082 5.10552
#
# Velocity S-wave (km/s) = -2.24059 3.18376 1.59939
# Velocity P-wave (km/s) = 3.28907 5.59342 4.58826
#
# Compressibility (1/GPa) = 0.02861145
#
# Stress axis : x y z
#
# Youngs Moduli (GPa) = 61.15638 74.19716 65.80501
#
# Poissons Ratio (x) = 0.02453 0.37708
# Poissons Ratio (y) = 0.02022 0.14123
# Poissons Ratio (z) = 0.35044 0.15924
#
# Static dielectric constant tensor:
#      x y z
#    x 1.689350 0.000000 0.000000 
#    y 0.000000 1.801750 0.000000 
#    z 0.000000 0.000000 1.756530 
# 
# From -- ./inp_files/21122.got.cif
#   From: 2010.05.17/outbox.cif.g08.bks.cpg/sg46_11_cif.got.tgz:21122.got - 2010.06.03 19:58:25.
