data_PCOD9379328
_publ_section_title
;
Structure prediction by ZEFSAII (Michael W. Deem and Ramdas Pophale) SiO2 
 PCOD9379328
Probable space group: I M A 2
;
_chemical_formula_sum "Si O2"
_cell_formula_units_Z 64
_cell_length_a 8.539634
_cell_length_b 33.751217
_cell_length_c 12.083149
_cell_angle_alpha 90.000000
_cell_angle_beta 90.000000
_cell_angle_gamma 90.000000
_cell_volume 3482.641940
_symmetry_space_group_name_H-M "I M A 2"
_symmetry_group_IT_number 46
_symmetry_cell_setting 'orthorhombic'
loop_
_space_group_symop_operation_xyz
x,y,z
-x,-y,z
1/2-x,y,z
1/2+x,-y,z
1/2+x,1/2+y,1/2+z
1/2-x,1/2-y,1/2+z
-x,1/2+y,1/2+z
x,1/2-y,1/2+z
loop_
_atom_site_type_symbol
_atom_site_label
_atom_site_fract_x
_atom_site_fract_y
_atom_site_fract_z
Si Si1 0.562969 0.723001 0.822750
Si Si2 0.436277 0.954855 0.822767
Si Si3 0.935081 0.828355 0.529801
Si Si4 0.939899 0.619678 0.450771
Si Si5 0.060130 0.188724 0.784181
Si Si6 0.560628 0.856456 0.199230
Si Si7 0.065216 0.044017 0.587342
Si Si8 0.431151 0.598989 0.904662
O O1 0.750000 0.725202 0.800836
O O2 0.498577 0.766981 0.806665
O O3 0.505605 0.686840 0.744403
O O4 0.544908 0.709228 0.949629
O O5 0.250000 0.956833 0.825565
O O6 0.497408 0.922916 0.911281
O O7 0.490342 0.939620 0.701043
O O8 0.500000 0.000000 0.837078
O O9 0.750000 0.840270 0.519851
O O10 0.970539 0.821131 0.656767
O O11 0.042960 0.861958 0.478821
O O12 0.750000 0.617958 0.447178
O O13 0.994267 0.654108 0.366106
O O14 0.986114 0.632587 0.574805
O O15 0.250000 0.189928 0.797275
O O16 0.750000 0.855924 0.204073
O O17 0.500706 0.889072 0.286166
O O18 0.250000 0.044095 0.603250
O O19 0.020893 0.066337 0.475569
O O20 0.000000 0.000000 0.578521
O O21 0.250000 0.588557 0.895054
#
# Coordination Sequence:
#
# PCOD9379328 Si02
#       8
#     8   8   8   8   8   8   8   8
#     4   8  15  27  46  75 106 139 183 233 282 326
#     4  11  22  38  60  86 117 151 188 232 283 339
#     4   9  17  30  49  74 104 138 178 225 276 325
#     4  10  20  34  54  82 114 151 194 239 286 338
#     4   9  17  27  48  80 110 140 178 231 281 326
#     4   9  19  35  54  77 109 148 191 239 286 334
#     4  11  21  36  59  87 117 143 176 222 277 333
#     4  11  21  35  55  77 105 142 184 225 275 335
#
# _framework density 18.376854000000002
#
# number of rings (size 3 to 8) (size 9 to 14) (size 15 to 20)
#    0.000    2.250    0.000    5.625    1.750    1.500 
#    0.000    0.625    0.000    9.000    0.000    0.000 
#    0.000    0.000    0.000    0.000    0.000    0.000 
#
# Total GULP energy -178466.007943 kJ/mol
# GULP energy per Si atom -5577.062748 kJ/mol
# Density = 1.833503 g / cm^3
# Si number density = 18.376854 Si / 1000 Ang^3
#
#
#
# Elastic Constant Matrix: (Units=GPa)
#
#
# Indices 1 2 3 4 5 6 
#
# 1 49.0470 23.3870 36.9667 0.0001 0.0000 0.0000
# 2 23.3870 86.3779 71.8166 0.0001 0.0001 0.0000
# 3 36.9667 71.8166 145.0126 0.0002 0.0000 0.0000
# 4 0.0001 0.0001 0.0002 15.4064 0.0001 0.0000
# 5 0.0000 0.0001 0.0000 0.0001 13.6484 0.0000
# 6 0.0000 0.0000 0.0000 0.0000 0.0000 14.6766
#
#
#
# Elastic Compliance Matrix: (Units=1/GPa)
#
#
# Indices 1 2 3 4 5 6 
#
# 1 0.025565 -0.002556 -0.005251 0.000000 0.000000 0.000000
# 2 -0.002556 0.019936 -0.009222 0.000000 0.000000 0.000000
# 3 -0.005251 -0.009222 0.012802 0.000000 0.000000 0.000000
# 4 0.000000 0.000000 0.000000 0.064908 0.000000 0.000000
# 5 0.000000 0.000000 0.000000 0.000000 0.073269 0.000000
# 6 0.000000 0.000000 0.000000 0.000000 0.000000 0.068136
#
#
# Mechanical properties :
#
#
# Convention : Reuss Voigt Hill
#
# Bulk Modulus (GPa) = 41.24502 60.53088 50.88795
# Shear Modulus (GPa) = 16.29965 18.63076 17.46520
#
# Velocity S-wave (km/s) = 2.98143 3.18750 3.08619
# Velocity P-wave (km/s) = 5.86043 6.82327 6.36010
#
# Compressibility (1/GPa) = 0.02424535
#
# Stress axis : x y z
#
# Youngs Moduli (GPa) = 39.11560 50.16002 78.11474
#
# Poissons Ratio (x) = 0.12819 0.41021
# Poissons Ratio (y) = 0.09997 0.72036
# Poissons Ratio (z) = 0.20541 0.46256
#
# Static dielectric constant tensor:
#      x y z
#    x 1.637810 0.000000 0.000000 
#    y 0.000000 1.649690 0.000000 
#    z 0.000000 0.000000 1.627360 
# 
# From -- ./inp_files/9767.got.cif
#   From: 2010.05.17/outbox.cif.g08.bks.cpg/sg46_5_cif.got.tgz:9767.got - 2010.06.03 19:58:25.
