data_PCOD9379270
_publ_section_title
;
Structure prediction by ZEFSAII (Michael W. Deem and Ramdas Pophale) SiO2 
 PCOD9379270
Probable space group: I M A 2
;
_chemical_formula_sum "Si O2"
_cell_formula_units_Z 56
_cell_length_a 19.115228
_cell_length_b 7.603914
_cell_length_c 14.891635
_cell_angle_alpha 90.000000
_cell_angle_beta 90.000000
_cell_angle_gamma 90.000000
_cell_volume 2164.507335
_symmetry_space_group_name_H-M "I M A 2"
_symmetry_group_IT_number 46
_symmetry_cell_setting 'orthorhombic'
loop_
_space_group_symop_operation_xyz
x,y,z
-x,-y,z
1/2-x,y,z
1/2+x,-y,z
1/2+x,1/2+y,1/2+z
1/2-x,1/2-y,1/2+z
-x,1/2+y,1/2+z
x,1/2-y,1/2+z
loop_
_atom_site_type_symbol
_atom_site_label
_atom_site_fract_x
_atom_site_fract_y
_atom_site_fract_z
Si Si1 0.826085 0.907306 0.515430
Si Si2 0.822607 0.175136 0.968706
Si Si3 0.427472 0.520718 0.145232
Si Si4 0.138580 0.740202 0.772588
Si Si5 0.170586 0.160196 0.304528
Si Si6 0.015967 0.201773 0.341952
Si Si7 0.531480 0.344528 0.527103
O O1 0.750000 0.855772 0.551268
O O2 0.825240 0.118960 0.496366
O O3 0.888858 0.873211 0.584674
O O4 0.832480 0.837436 0.413963
O O5 0.750000 0.096451 0.999575
O O6 0.828353 0.176803 0.861451
O O7 0.890644 0.088284 0.006546
O O8 0.500000 0.500000 0.200678
O O9 0.362002 0.618369 0.193612
O O10 0.458969 0.662738 0.075772
O O11 0.167305 0.541654 0.767228
O O12 0.055496 0.725302 0.787484
O O13 0.250000 0.227574 0.281550
O O14 0.090071 0.230510 0.289665
O O15 0.008612 0.313413 0.433372
O O16 0.000000 0.000000 0.372761
O O17 0.500000 0.500000 0.585517
#
# Coordination Sequence:
#
# PCOD9379270 Si02
#       7
#     8   8   8   8   8   8   8
#     4   8  15  28  49  75  97 118 160 213 255 295
#     4   8  15  31  51  72  96 125 164 213 258 300
#     4  11  21  33  51  74 102 139 175 211 256 306
#     4   9  18  28  47  75 105 132 169 214 252 296
#     4   9  16  30  53  78 101 132 170 211 259 314
#     4   9  17  33  54  74  99 132 169 212 256 305
#     4  10  20  33  53  78 105 134 168 212 263 316
#
# _framework density 25.871941
#
# number of rings (size 3 to 8) (size 9 to 14) (size 15 to 20)
#    0.000    2.857    0.000    5.143    0.000    5.143 
#    0.000    0.714    0.000    1.714    0.000    0.000 
#    0.000    0.000    0.000    0.000    0.000    0.000 
#
# Total GULP energy -156027.410341 kJ/mol
# GULP energy per Si atom -5572.407512 kJ/mol
# Density = 2.581305 g / cm^3
# Si number density = 25.871941 Si / 1000 Ang^3
#
#
#
# Elastic Constant Matrix: (Units=GPa)
#
#
# Indices 1 2 3 4 5 6 
#
# 1 190.4857 10.6993 -1.8572 0.0000 0.0000 0.0000
# 2 10.6993 40.4469 -3.2544 0.0000 0.0000 0.0000
# 3 -1.8572 -3.2544 28.7396 0.0000 0.0000 0.0000
# 4 0.0000 0.0000 0.0000 4.9671 0.0000 0.0000
# 5 0.0000 0.0000 0.0000 0.0000 66.5974 0.0000
# 6 0.0000 0.0000 0.0000 0.0000 0.0000 18.9060
#
#
#
# Elastic Compliance Matrix: (Units=1/GPa)
#
#
# Indices 1 2 3 4 5 6 
#
# 1 0.005330 -0.001395 0.000186 0.000000 0.000000 0.000000
# 2 -0.001395 0.025316 0.002777 0.000000 0.000000 0.000000
# 3 0.000186 0.002777 0.035122 0.000000 0.000000 0.000000
# 4 0.000000 0.000000 0.000000 0.201326 0.000000 0.000000
# 5 0.000000 0.000000 0.000000 0.000000 0.015016 0.000000
# 6 0.000000 0.000000 0.000000 0.000000 0.000000 0.052893
#
#
# Mechanical properties :
#
#
# Convention : Reuss Voigt Hill
#
# Bulk Modulus (GPa) = 14.51290 30.09415 22.30353
# Shear Modulus (GPa) = 14.09108 35.03306 24.56207
#
# Velocity S-wave (km/s) = 2.33630 3.68379 3.08453
# Velocity P-wave (km/s) = 3.59158 5.45445 4.61792
#
# Compressibility (1/GPa) = 0.06890420
#
# Stress axis : x y z
#
# Youngs Moduli (GPa) = 187.62056 39.50041 28.47242
#
# Poissons Ratio (x) = 0.05510 -0.00531
# Poissons Ratio (y) = 0.26171 -0.07906
# Poissons Ratio (z) = -0.03499 -0.10968
#
# Static dielectric constant tensor:
#      x y z
#    x 2.035350 0.000000 0.000000 
#    y 0.000000 2.156290 0.000000 
#    z 0.000000 0.000000 2.083890 
# 
# From -- ./inp_files/20155.got.cif
#   From: 2010.05.17/outbox.cif.g08.bks.cpg/sg46_11_cif.got.tgz:20155.got - 2010.06.03 19:58:25.
