data_PCOD9379220
_publ_section_title
;
Structure prediction by ZEFSAII (Michael W. Deem and Ramdas Pophale) SiO2 
 PCOD9379220
Probable space group: I M A 2
;
_chemical_formula_sum "Si O2"
_cell_formula_units_Z 56
_cell_length_a 19.360261
_cell_length_b 14.736954
_cell_length_c 9.805861
_cell_angle_alpha 90.000000
_cell_angle_beta 90.000000
_cell_angle_gamma 90.000000
_cell_volume 2797.722712
_symmetry_space_group_name_H-M "I M A 2"
_symmetry_group_IT_number 46
_symmetry_cell_setting 'orthorhombic'
loop_
_space_group_symop_operation_xyz
x,y,z
-x,-y,z
1/2-x,y,z
1/2+x,-y,z
1/2+x,1/2+y,1/2+z
1/2-x,1/2-y,1/2+z
-x,1/2+y,1/2+z
x,1/2-y,1/2+z
loop_
_atom_site_type_symbol
_atom_site_label
_atom_site_fract_x
_atom_site_fract_y
_atom_site_fract_z
Si Si1 0.500948 0.600127 0.684420
Si Si2 0.669017 0.643528 0.302582
Si Si3 0.022414 0.637921 0.990254
Si Si4 0.899790 0.322877 0.477527
Si Si5 0.750000 0.138532 0.651473
Si Si6 0.605258 0.047792 0.728718
Si Si7 0.250000 0.725628 0.427494
Si Si8 0.391801 0.239409 0.070822
O O1 0.500000 0.500000 0.624346
O O2 0.493531 0.595580 0.845251
O O3 0.435713 0.649264 0.616946
O O4 0.568604 0.656625 0.644745
O O5 0.750000 0.617952 0.318028
O O6 0.620342 0.554994 0.276847
O O7 0.659647 0.709686 0.172801
O O8 0.642627 0.698759 0.435010
O O9 0.076227 0.719548 0.957822
O O10 0.055173 0.570940 0.102108
O O11 0.952819 0.688462 0.038961
O O12 0.921173 0.389137 0.353757
O O13 0.817855 0.325219 0.478838
O O14 0.680722 0.083604 0.682168
O O15 0.750000 0.177329 0.499557
O O16 0.750000 0.220145 0.763594
#
# Coordination Sequence:
#
# PCOD9379220 Si02
#       8
#     8   8   8   8   4   8   4   8
#     4  11  24  42  62  94 130 166 219 274 334 401
#     4  12  26  47  73  98 133 184 242 293 350 425
#     4  11  23  40  65  96 135 172 220 275 347 409
#     4  10  21  39  61  92 130 176 212 269 337 409
#     4  10  20  38  56  96 132 172 224 268 340 412
#     4  11  23  39  67 101 132 176 230 285 335 418
#     4  10  20  32  64  84 130 172 210 262 334 410
#     4  11  25  47  68  96 134 179 228 287 353 416
#
# _framework density 20.016279000000001
#
# number of rings (size 3 to 8) (size 9 to 14) (size 15 to 20)
#    0.000    1.143    3.571    3.000    6.000    0.000 
#    0.000    0.000    0.000    0.000    0.000    0.000 
#    0.000    0.000    0.000    0.000    0.000    0.000 
#
# Total GULP energy -156378.084054 kJ/mol
# GULP energy per Si atom -5584.931573 kJ/mol
# Density = 1.997072 g / cm^3
# Si number density = 20.016279 Si / 1000 Ang^3
#
#
#
# Elastic Constant Matrix: (Units=GPa)
#
#
# Indices 1 2 3 4 5 6 
#
# 1 66.4620 26.6183 29.7118 0.0000 0.0000 0.0000
# 2 26.6183 100.1530 45.5744 0.0000 0.0000 0.0000
# 3 29.7118 45.5744 116.0932 0.0000 0.0000 0.0000
# 4 0.0000 0.0000 0.0000 23.4136 0.0000 0.0000
# 5 0.0000 0.0000 0.0000 0.0000 13.3069 0.0000
# 6 0.0000 0.0000 0.0000 0.0000 0.0000 27.8203
#
#
#
# Elastic Compliance Matrix: (Units=1/GPa)
#
#
# Indices 1 2 3 4 5 6 
#
# 1 0.017813 -0.003238 -0.003288 0.000000 0.000000 0.000000
# 2 -0.003238 0.012745 -0.004174 0.000000 0.000000 0.000000
# 3 -0.003288 -0.004174 0.011094 0.000000 0.000000 0.000000
# 4 0.000000 0.000000 0.000000 0.042710 0.000000 0.000000
# 5 0.000000 0.000000 0.000000 0.000000 0.075149 0.000000
# 6 0.000000 0.000000 0.000000 0.000000 0.000000 0.035945
#
#
# Mechanical properties :
#
#
# Convention : Reuss Voigt Hill
#
# Bulk Modulus (GPa) = 49.38012 54.05749 51.71880
# Shear Modulus (GPa) = 22.36065 24.96173 23.66119
#
# Velocity S-wave (km/s) = 3.34597 3.53522 3.44189
# Velocity P-wave (km/s) = 6.29689 6.61280 6.45678
#
# Compressibility (1/GPa) = 0.02025106
#
# Stress axis : x y z
#
# Youngs Moduli (GPa) = 56.13927 78.46244 90.13923
#
# Poissons Ratio (x) = 0.25408 0.29635
# Poissons Ratio (y) = 0.18179 0.37629
# Poissons Ratio (z) = 0.18457 0.32754
#
# Static dielectric constant tensor:
#      x y z
#    x 1.703950 0.000000 0.000000 
#    y 0.000000 1.901820 0.000000 
#    z 0.000000 0.000000 1.687240 
# 
# From -- ./inp_files/7435.got.cif
#   From: 2010.05.17/outbox.cif.g08.bks.cpg/sg46_4_cif.got.tgz:7435.got - 2010.06.03 19:58:25.
