data_PCOD9379046
_publ_section_title
;
Structure prediction by ZEFSAII (Michael W. Deem and Ramdas Pophale) SiO2 
 PCOD9379046
Probable space group: I M A 2
;
_chemical_formula_sum "Si O2"
_cell_formula_units_Z 64
_cell_length_a 9.181288
_cell_length_b 24.247705
_cell_length_c 15.710470
_cell_angle_alpha 90.000000
_cell_angle_beta 90.000000
_cell_angle_gamma 90.000000
_cell_volume 3497.545944
_symmetry_space_group_name_H-M "I M A 2"
_symmetry_group_IT_number 46
_symmetry_cell_setting 'orthorhombic'
loop_
_space_group_symop_operation_xyz
x,y,z
-x,-y,z
1/2-x,y,z
1/2+x,-y,z
1/2+x,1/2+y,1/2+z
1/2-x,1/2-y,1/2+z
-x,1/2+y,1/2+z
x,1/2-y,1/2+z
loop_
_atom_site_type_symbol
_atom_site_label
_atom_site_fract_x
_atom_site_fract_y
_atom_site_fract_z
Si Si1 0.075837 0.634676 0.241700
Si Si2 0.575837 0.365324 0.564259
Si Si3 0.421455 0.255074 0.505065
Si Si4 0.078545 0.244926 0.800894
Si Si5 0.575227 0.632159 0.738907
Si Si6 0.925012 0.059099 0.902979
Si Si7 0.424773 0.132159 0.567052
Si Si8 0.574697 0.940861 0.402979
O O1 0.250000 0.636232 0.235531
O O2 0.034948 0.594380 0.319442
O O3 0.014650 0.695226 0.263588
O O4 0.005648 0.616084 0.153128
O O5 0.750000 0.363768 0.570427
O O6 0.514650 0.304774 0.542371
O O7 0.505648 0.383916 0.652831
O O8 0.534948 0.405619 0.486517
O O9 0.250000 0.265379 0.522849
O O10 0.439122 0.252468 0.402979
O O11 0.459512 0.195717 0.544025
O O12 0.250000 0.234621 0.783110
O O13 0.040488 0.304283 0.761934
O O14 0.750000 0.628896 0.727464
O O15 0.535413 0.594067 0.818988
O O16 0.750000 0.052597 0.902979
O O17 0.000000 0.000000 0.902980
O O18 0.250000 0.128896 0.578495
O O19 0.464587 0.094067 0.486971
O O20 0.750000 0.946832 0.402979
O O21 0.500000 0.000000 0.402979
#
# Coordination Sequence:
#
# PCOD9379046 Si02
#       8
#     8   8   8   8   8   8   8   8
#     4  11  23  39  58  87 122 152 185 237 295 345
#     4  11  23  39  58  87 122 152 185 237 295 345
#     4  10  19  35  61  88 115 152 194 233 280 342
#     4  10  19  35  61  88 115 152 194 233 280 342
#     4  10  21  39  61  87 117 153 195 237 280 341
#     4  10  24  43  60  80 112 151 195 240 285 338
#     4  10  21  39  61  87 117 153 195 237 280 341
#     4  10  22  41  62  84 116 153 195 244 291 336
#
# _framework density 18.298544
#
# number of rings (size 3 to 8) (size 9 to 14) (size 15 to 20)
#    0.000    1.750    2.500    1.500    0.000    8.000 
#    0.000    5.000    0.000    0.000    0.000    0.000 
#    0.000    0.000    0.000    0.000    0.000    0.000 
#
# Total GULP energy -178827.433090 kJ/mol
# GULP energy per Si atom -5588.357284 kJ/mol
# Density = 1.825690 g / cm^3
# Si number density = 18.298544 Si / 1000 Ang^3
#
#
#
# Elastic Constant Matrix: (Units=GPa)
#
#
# Indices 1 2 3 4 5 6 
#
# 1 37.4305 58.9200 69.2462 0.0000 0.0000 0.0000
# 2 58.9200 150.8254 95.9061 0.0000 0.0000 0.0000
# 3 69.2462 95.9061 189.0744 0.0000 0.0000 0.0000
# 4 0.0000 0.0000 0.0000 -0.8680 0.0000 0.0000
# 5 0.0000 0.0000 0.0000 0.0000 32.2000 0.0000
# 6 0.0000 0.0000 0.0000 0.0000 0.0000 34.1631
#
#
#
# Elastic Compliance Matrix: (Units=1/GPa)
#
#
# Indices 1 2 3 4 5 6 
#
# 1 0.153181 -0.035673 -0.038006 -0.000003 0.000000 0.000000
# 2 -0.035673 0.018095 0.003887 0.000001 0.000000 0.000000
# 3 -0.038006 0.003887 0.017237 0.000001 0.000000 0.000000
# 4 -0.000003 0.000001 0.000001 -1.152030 0.000000 0.000000
# 5 0.000000 0.000000 0.000000 0.000000 0.031056 0.000000
# 6 0.000000 0.000000 0.000000 0.000000 0.000000 0.029271
#
#
# Mechanical properties :
#
#
# Convention : Reuss Voigt Hill
#
# Bulk Modulus (GPa) = 20.43855 91.71943 56.07899
# Shear Modulus (GPa) = -6.69078 23.31621 8.31272
#
# Velocity S-wave (km/s) = -1.91426 3.57348 2.13370
# Velocity P-wave (km/s) = 2.51155 8.20116 6.06494
#
# Compressibility (1/GPa) = 0.04892714
#
# Stress axis : x y z
#
# Youngs Moduli (GPa) = 6.52824 55.26525 58.01609
#
# Poissons Ratio (x) = 1.97149 2.20494
# Poissons Ratio (y) = 0.23288 -0.22549
# Poissons Ratio (z) = 0.24811 -0.21479
#
# Static dielectric constant tensor:
#      x y z
#    x 1.568630 0.000000 0.000000 
#    y 0.000000 1.592990 0.000000 
#    z 0.000000 0.000000 1.630840 
# 
# From -- ./inp_files/14506.got.cif
#   From: 2010.05.17/outbox.cif.g08.bks.cpg/sg46_8_cif.got.tgz:14506.got - 2010.06.03 19:58:25.
