data_PCOD9379679
_publ_section_title
;
Structure prediction by ZEFSAII (Michael W. Deem and Ramdas Pophale) SiO2 
 PCOD9379679
Probable space group: I M A 2
;
_chemical_formula_sum "Si O2"
_cell_formula_units_Z 56
_cell_length_a 14.348841
_cell_length_b 13.472867
_cell_length_c 13.382110
_cell_angle_alpha 90.000000
_cell_angle_beta 90.000000
_cell_angle_gamma 90.000000
_cell_volume 2587.029858
_symmetry_space_group_name_H-M "I M A 2"
_symmetry_group_IT_number 46
_symmetry_cell_setting 'orthorhombic'
loop_
_space_group_symop_operation_xyz
x,y,z
-x,-y,z
1/2-x,y,z
1/2+x,-y,z
1/2+x,1/2+y,1/2+z
1/2-x,1/2-y,1/2+z
-x,1/2+y,1/2+z
x,1/2-y,1/2+z
loop_
_atom_site_type_symbol
_atom_site_label
_atom_site_fract_x
_atom_site_fract_y
_atom_site_fract_z
Si Si1 0.587093 0.074573 0.841730
Si Si2 0.639563 0.214010 0.249982
Si Si3 0.138392 0.076954 0.546954
Si Si4 0.352225 0.116343 0.761400
Si Si5 0.139738 0.865418 0.468757
Si Si6 0.639707 0.713449 0.461925
Si Si7 0.953758 0.169338 0.048933
O O1 0.599614 0.176578 0.780043
O O2 0.588627 0.101427 0.959583
O O3 0.500000 0.000000 0.824996
O O4 0.660038 0.994852 0.802216
O O5 0.750000 0.225650 0.226246
O O6 0.631920 0.149032 0.350289
O O7 0.586152 0.160271 0.159663
O O8 0.250000 0.063805 0.562926
O O9 0.098870 0.109333 0.654548
O O10 0.128973 0.168922 0.473080
O O11 0.106446 0.971920 0.506448
O O12 0.250000 0.163066 0.744516
O O13 0.393446 0.179251 0.852392
O O14 0.250000 0.851657 0.493321
O O15 0.080067 0.779459 0.518835
O O16 0.750000 0.688575 0.475541
O O17 0.565842 0.664154 0.537675
#
# Coordination Sequence:
#
# PCOD9379679 Si02
#       7
#     8   8   8   8   8   8   8
#     4  11  22  38  61  94 126 161 213 268 323 395
#     4  10  22  39  64  95 129 169 210 269 336 394
#     4   9  19  37  62  88 120 162 207 258 312 377
#     4  10  20  37  61  87 120 164 212 261 318 380
#     4   9  19  37  60  92 125 156 208 264 322 388
#     4  10  22  38  56  85 123 164 215 266 314 375
#     4  11  22  37  62  88 128 165 210 263 325 386
#
# _framework density 21.646445
#
# number of rings (size 3 to 8) (size 9 to 14) (size 15 to 20)
#    0.000    2.000    1.429    1.714    2.000    3.429 
#    0.000    1.429    6.286    5.143    0.000    0.000 
#    0.000    0.000    0.000    0.000    0.000    0.000 
#
# Total GULP energy -156153.050414 kJ/mol
# GULP energy per Si atom -5576.894658 kJ/mol
# Density = 2.159718 g / cm^3
# Si number density = 21.646445 Si / 1000 Ang^3
#
#
#
# Elastic Constant Matrix: (Units=GPa)
#
#
# Indices 1 2 3 4 5 6 
#
# 1 102.2420 13.4709 39.1187 0.0000 0.0000 0.0000
# 2 13.4709 76.9223 52.0606 0.0000 0.0000 0.0000
# 3 39.1187 52.0606 104.3409 0.0000 0.0000 0.0000
# 4 0.0000 0.0000 0.0000 24.9682 0.0000 0.0000
# 5 0.0000 0.0000 0.0000 0.0000 31.8673 0.0000
# 6 0.0000 0.0000 0.0000 0.0000 0.0000 18.8721
#
#
#
# Elastic Compliance Matrix: (Units=1/GPa)
#
#
# Indices 1 2 3 4 5 6 
#
# 1 0.011513 0.001367 -0.004998 0.000000 0.000000 0.000000
# 2 0.001367 0.019791 -0.010387 0.000000 0.000000 0.000000
# 3 -0.004998 -0.010387 0.016640 0.000000 0.000000 0.000000
# 4 0.000000 0.000000 0.000000 0.040051 0.000000 0.000000
# 5 0.000000 0.000000 0.000000 0.000000 0.031380 0.000000
# 6 0.000000 0.000000 0.000000 0.000000 0.000000 0.052988
#
#
# Mechanical properties :
#
#
# Convention : Reuss Voigt Hill
#
# Bulk Modulus (GPa) = 50.23356 54.75620 52.49488
# Shear Modulus (GPa) = 24.15042 27.06518 25.60780
#
# Velocity S-wave (km/s) = 3.34380 3.53984 3.44321
# Velocity P-wave (km/s) = 6.17776 6.48520 6.33335
#
# Compressibility (1/GPa) = 0.01990701
#
# Stress axis : x y z
#
# Youngs Moduli (GPa) = 86.85811 50.52924 60.09505
#
# Poissons Ratio (x) = -0.06905 0.30037
# Poissons Ratio (y) = -0.11870 0.62419
# Poissons Ratio (z) = 0.43414 0.52484
#
# Static dielectric constant tensor:
#      x y z
#    x 1.965560 0.000000 0.000000 
#    y 0.000000 1.752790 0.000000 
#    z 0.000000 0.000000 1.797590 
# 
# From -- ./inp_files/11153.got.cif
#   From: 2010.05.17/outbox.cif.g08.bks.cpg/sg46_6_cif.got.tgz:11153.got - 2010.06.03 19:58:25.
