data_PCOD9379494
_publ_section_title
;
Structure prediction by ZEFSAII (Michael W. Deem and Ramdas Pophale) SiO2 
 PCOD9379494
Probable space group: I M A 2
;
_chemical_formula_sum "Si O2"
_cell_formula_units_Z 60
_cell_length_a 24.918059
_cell_length_b 7.674900
_cell_length_c 14.198482
_cell_angle_alpha 90.000000
_cell_angle_beta 90.000000
_cell_angle_gamma 90.000000
_cell_volume 2715.368969
_symmetry_space_group_name_H-M "I M A 2"
_symmetry_group_IT_number 46
_symmetry_cell_setting 'orthorhombic'
loop_
_space_group_symop_operation_xyz
x,y,z
-x,-y,z
1/2-x,y,z
1/2+x,-y,z
1/2+x,1/2+y,1/2+z
1/2-x,1/2-y,1/2+z
-x,1/2+y,1/2+z
x,1/2-y,1/2+z
loop_
_atom_site_type_symbol
_atom_site_label
_atom_site_fract_x
_atom_site_fract_y
_atom_site_fract_z
Si Si1 0.812041 0.459624 0.161300
Si Si2 0.579236 0.663782 0.418009
Si Si3 0.080908 0.765200 0.170832
Si Si4 0.086786 0.935377 0.354262
Si Si5 0.691550 0.022553 0.441419
Si Si6 0.808788 0.862026 0.859684
Si Si7 0.500000 0.500000 0.268780
Si Si8 0.014008 0.799643 0.505978
O O1 0.750000 0.393498 0.167715
O O2 0.861034 0.326120 0.174298
O O3 0.817322 0.594900 0.248773
O O4 0.818203 0.522990 0.052222
O O5 0.638562 0.583816 0.418814
O O6 0.546259 0.576413 0.334880
O O7 0.538997 0.681499 0.505852
O O8 0.583896 0.868175 0.390742
O O9 0.083541 0.924184 0.242732
O O10 0.032580 0.642492 0.209140
O O11 0.061347 0.786929 0.065156
O O12 0.039171 0.826131 0.401873
O O13 0.143383 0.869054 0.396011
O O14 0.750000 0.108386 0.435820
O O15 0.694293 0.844065 0.381609
O O16 0.750000 0.934933 0.886257
O O17 0.000000 0.000000 0.533371
#
# Coordination Sequence:
#
# PCOD9379494 Si02
#       8
#     8   8   8   8   8   8   4   8
#     4  10  20  35  60  92 122 162 219 266 319 393
#     4  10  21  39  59  85 120 160 195 253 313 382
#     4  12  22  36  61  87 117 162 210 258 308 376
#     4  10  21  37  61  82 122 156 205 254 305 373
#     4   9  18  35  61  88 119 167 209 251 323 391
#     4   9  18  34  60  91 120 154 209 269 310 370
#     4  12  22  34  60  86 116 152 204 246 304 382
#     4  10  20  36  57  82 116 158 199 246 314 376
#
# _framework density 22.096444999999999
#
# number of rings (size 3 to 8) (size 9 to 14) (size 15 to 20)
#    0.000    1.867    4.667    0.000    0.000    0.533 
#    0.000    1.333   11.733    0.000    0.000    0.000 
#    0.000    0.000    0.000    0.000    0.000    0.000 
#
# Total GULP energy -167132.334329 kJ/mol
# GULP energy per Si atom -5571.077811 kJ/mol
# Density = 2.204615 g / cm^3
# Si number density = 22.096445 Si / 1000 Ang^3
#
#
#
# Elastic Constant Matrix: (Units=GPa)
#
#
# Indices 1 2 3 4 5 6 
#
# 1 161.1296 10.8538 18.8475 0.0000 0.0000 0.0000
# 2 10.8538 32.7429 7.1310 0.0000 0.0000 0.0000
# 3 18.8475 7.1310 67.4774 0.0000 0.0000 0.0000
# 4 0.0000 0.0000 0.0000 18.1853 0.0000 0.0000
# 5 0.0000 0.0000 0.0000 0.0000 54.4692 0.0000
# 6 0.0000 0.0000 0.0000 0.0000 0.0000 16.4040
#
#
#
# Elastic Compliance Matrix: (Units=1/GPa)
#
#
# Indices 1 2 3 4 5 6 
#
# 1 0.006518 -0.001806 -0.001630 0.000000 0.000000 0.000000
# 2 -0.001806 0.031761 -0.002852 0.000000 0.000000 0.000000
# 3 -0.001630 -0.002852 0.015576 0.000000 0.000000 0.000000
# 4 0.000000 0.000000 0.000000 0.054989 0.000000 0.000000
# 5 0.000000 0.000000 0.000000 0.000000 0.018359 0.000000
# 6 0.000000 0.000000 0.000000 0.000000 0.000000 0.060961
#
#
# Mechanical properties :
#
#
# Convention : Reuss Voigt Hill
#
# Bulk Modulus (GPa) = 24.22474 37.22383 30.72429
# Shear Modulus (GPa) = 23.30999 32.77956 28.04477
#
# Velocity S-wave (km/s) = 3.25148 3.85577 3.56645
# Velocity P-wave (km/s) = 5.00831 6.05849 5.55826
#
# Compressibility (1/GPa) = 0.04128010
#
# Stress axis : x y z
#
# Youngs Moduli (GPa) = 153.41023 31.48540 64.19959
#
# Poissons Ratio (x) = 0.05686 0.10464
# Poissons Ratio (y) = 0.27703 0.18310
# Poissons Ratio (z) = 0.25004 0.08980
#
# Static dielectric constant tensor:
#      x y z
#    x 2.316220 0.000000 0.000000 
#    y 0.000000 1.825730 0.000000 
#    z 0.000000 0.000000 1.856120 
# 
# From -- ./inp_files/17346.got.cif
#   From: 2010.05.17/outbox.cif.g08.bks.cpg/sg46_9_cif.got.tgz:17346.got - 2010.06.03 19:58:25.
