data_PCOD9379263
_publ_section_title
;
Structure prediction by ZEFSAII (Michael W. Deem and Ramdas Pophale) SiO2 
 PCOD9379263
Probable space group: I M A 2
;
_chemical_formula_sum "Si O2"
_cell_formula_units_Z 56
_cell_length_a 8.698868
_cell_length_b 24.573092
_cell_length_c 13.971694
_cell_angle_alpha 90.000000
_cell_angle_beta 90.000000
_cell_angle_gamma 90.000000
_cell_volume 2986.562535
_symmetry_space_group_name_H-M "I M A 2"
_symmetry_group_IT_number 46
_symmetry_cell_setting 'orthorhombic'
loop_
_space_group_symop_operation_xyz
x,y,z
-x,-y,z
1/2-x,y,z
1/2+x,-y,z
1/2+x,1/2+y,1/2+z
1/2-x,1/2-y,1/2+z
-x,1/2+y,1/2+z
x,1/2-y,1/2+z
loop_
_atom_site_type_symbol
_atom_site_label
_atom_site_fract_x
_atom_site_fract_y
_atom_site_fract_z
Si Si1 0.433362 0.440268 0.628300
Si Si2 0.433825 0.375399 0.436281
Si Si3 0.934957 0.337675 0.733788
Si Si4 0.933564 0.441259 0.264796
Si Si5 0.433266 0.441637 0.052616
Si Si6 0.935812 0.274129 0.546984
Si Si7 0.564312 0.337266 0.951790
O O1 0.500000 0.500000 0.642882
O O2 0.250000 0.441718 0.635932
O O3 0.473202 0.417378 0.522463
O O4 0.498808 0.395776 0.701633
O O5 0.250000 0.374520 0.425412
O O6 0.512049 0.396275 0.339911
O O7 0.493993 0.317292 0.472681
O O8 0.750000 0.340826 0.730151
O O9 0.983155 0.294132 0.652884
O O10 0.978441 0.324175 0.842141
O O11 0.750000 0.444006 0.260439
O O12 0.000000 0.500000 0.296136
O O13 0.000019 0.431209 0.159007
O O14 0.500000 0.500000 0.021086
O O15 0.250000 0.444879 0.057343
O O16 0.487748 0.392900 0.985468
O O17 0.750000 0.277460 0.540888
O O18 0.980629 0.213127 0.519365
O O19 0.750000 0.343246 0.956630
#
# Coordination Sequence:
#
# PCOD9379263 Si02
#       7
#     8   8   8   8   8   8   8
#     4  10  20  33  52  78 110 147 186 230 277 327
#     4  10  20  34  53  81 115 150 190 233 279 331
#     4   9  19  36  56  79 110 145 183 228 273 323
#     4  11  21  35  56  82 114 150 188 231 281 336
#     4  11  23  40  60  83 112 145 184 231 281 333
#     4   9  19  36  57  82 113 149 189 231 276 328
#     4  10  21  38  60  85 112 146 187 228 276 334
#
# _framework density 18.750654999999998
#
# number of rings (size 3 to 8) (size 9 to 14) (size 15 to 20)
#    0.000    2.000    0.000    4.714    0.000    5.714 
#    0.000    2.857    0.000    0.000    0.000    0.000 
#    0.000    0.000    0.000    0.000    0.000    0.000 
#
# Total GULP energy -156400.931522 kJ/mol
# GULP energy per Si atom -5585.747554 kJ/mol
# Density = 1.870798 g / cm^3
# Si number density = 18.750655 Si / 1000 Ang^3
#
#
#
# Elastic Constant Matrix: (Units=GPa)
#
#
# Indices 1 2 3 4 5 6 
#
# 1 66.4757 44.4635 41.3919 0.0000 0.0000 0.0000
# 2 44.4635 132.1636 75.2406 0.0000 0.0000 0.0000
# 3 41.3919 75.2406 86.2743 0.0000 0.0000 0.0000
# 4 0.0000 0.0000 0.0000 19.9058 0.0000 0.0000
# 5 0.0000 0.0000 0.0000 0.0000 23.1082 0.0000
# 6 0.0000 0.0000 0.0000 0.0000 0.0000 27.9137
#
#
#
# Elastic Compliance Matrix: (Units=1/GPa)
#
#
# Indices 1 2 3 4 5 6 
#
# 1 0.021946 -0.002759 -0.008123 0.000000 0.000000 0.000000
# 2 -0.002759 0.015374 -0.012084 0.000000 0.000000 0.000000
# 3 -0.008123 -0.012084 0.026027 0.000000 0.000000 0.000000
# 4 0.000000 0.000000 0.000000 0.050237 0.000000 0.000000
# 5 0.000000 0.000000 0.000000 0.000000 0.043275 0.000000
# 6 0.000000 0.000000 0.000000 0.000000 0.000000 0.035825
#
#
# Mechanical properties :
#
#
# Convention : Reuss Voigt Hill
#
# Bulk Modulus (GPa) = 57.42231 67.45618 62.43924
# Shear Modulus (GPa) = 20.45650 22.44005 21.44827
#
# Velocity S-wave (km/s) = 3.30657 3.46318 3.38578
# Velocity P-wave (km/s) = 6.72819 7.21422 6.97544
#
# Compressibility (1/GPa) = 0.01741484
#
# Stress axis : x y z
#
# Youngs Moduli (GPa) = 45.56549 65.04456 38.42162
#
# Poissons Ratio (x) = 0.17945 0.31211
# Poissons Ratio (y) = 0.12571 0.46430
# Poissons Ratio (z) = 0.37014 0.78601
#
# Static dielectric constant tensor:
#      x y z
#    x 1.626170 0.000000 0.000000 
#    y 0.000000 1.623430 0.000000 
#    z 0.000000 0.000000 1.648140 
# 
# From -- ./inp_files/14189.got.cif
#   From: 2010.05.17/outbox.cif.g08.bks.cpg/sg46_8_cif.got.tgz:14189.got - 2010.06.03 19:58:25.
