data_PCOD9379405
_publ_section_title
;
Structure prediction by ZEFSAII (Michael W. Deem and Ramdas Pophale) SiO2 
 PCOD9379405
Probable space group: I M A 2
;
_chemical_formula_sum "Si O2"
_cell_formula_units_Z 64
_cell_length_a 7.569304
_cell_length_b 25.511130
_cell_length_c 15.805748
_cell_angle_alpha 90.000000
_cell_angle_beta 90.000000
_cell_angle_gamma 90.000000
_cell_volume 3052.113621
_symmetry_space_group_name_H-M "I M A 2"
_symmetry_group_IT_number 46
_symmetry_cell_setting 'orthorhombic'
loop_
_space_group_symop_operation_xyz
x,y,z
-x,-y,z
1/2-x,y,z
1/2+x,-y,z
1/2+x,1/2+y,1/2+z
1/2-x,1/2-y,1/2+z
-x,1/2+y,1/2+z
x,1/2-y,1/2+z
loop_
_atom_site_type_symbol
_atom_site_label
_atom_site_fract_x
_atom_site_fract_y
_atom_site_fract_z
Si Si1 0.466704 0.351694 0.041090
Si Si2 0.953909 0.841283 0.351001
Si Si3 0.458228 0.393662 0.343143
Si Si4 0.961944 0.938485 0.020696
Si Si5 0.032914 0.136341 0.170167
Si Si6 0.036605 0.264325 0.564789
Si Si7 0.037986 0.439895 0.169251
Si Si8 0.954930 0.276423 0.368325
O O1 0.250000 0.351505 0.038972
O O2 0.520146 0.295432 0.079561
O O3 0.526870 0.399724 0.098065
O O4 0.530243 0.353062 0.943730
O O5 0.750000 0.857825 0.355476
O O6 0.030630 0.867023 0.266618
O O7 0.957673 0.778050 0.340236
O O8 0.250000 0.405609 0.346339
O O9 0.531742 0.412643 0.433603
O O10 0.532326 0.423630 0.261766
O O11 0.476555 0.331224 0.332341
O O12 0.750000 0.931369 0.020509
O O13 0.025464 0.908147 0.104338
O O14 0.000000 0.000000 0.022135
O O15 0.250000 0.136151 0.172508
O O16 0.977261 0.192069 0.130542
O O17 0.250000 0.265110 0.564719
O O18 0.980343 0.279297 0.469829
O O19 0.250000 0.433484 0.171880
O O20 0.000000 0.500000 0.150320
O O21 0.750000 0.271932 0.348330
#
# Coordination Sequence:
#
# PCOD9379405 Si02
#       8
#     8   8   8   8   8   8   8   8
#     4   8  16  31  53  79 102 130 177 224 261 306
#     4   9  18  34  57  78 104 142 181 224 261 307
#     4  10  20  35  55  75 102 142 184 221 257 311
#     4  10  20  35  53  77 105 136 177 220 264 318
#     4   9  17  31  56  82 102 135 185 225 257 306
#     4   9  16  32  55  78 104 136 179 221 258 312
#     4  10  21  36  55  78 104 138 181 225 267 313
#     4  11  21  32  49  79 115 144 171 209 267 325
#
# _framework density 20.969073999999999
#
# number of rings (size 3 to 8) (size 9 to 14) (size 15 to 20)
#    0.000    2.500    1.250    2.250    1.750    1.000 
#    0.000    4.375    0.000    0.000    0.000    0.000 
#    0.000    0.000    0.000    0.000    0.000    0.000 
#
# Total GULP energy -178631.182400 kJ/mol
# GULP energy per Si atom -5582.224450 kJ/mol
# Density = 2.092135 g / cm^3
# Si number density = 20.969074 Si / 1000 Ang^3
#
#
#
# Elastic Constant Matrix: (Units=GPa)
#
#
# Indices 1 2 3 4 5 6 
#
# 1 45.1013 -5.8810 9.7282 0.0000 0.0000 0.0000
# 2 -5.8810 128.1644 73.0637 0.0002 0.0000 0.0000
# 3 9.7282 73.0637 112.8618 0.0007 0.0002 0.0000
# 4 0.0000 0.0002 0.0007 30.6978 0.0001 0.0000
# 5 0.0000 0.0000 0.0002 0.0001 -6.1417 0.0000
# 6 0.0000 0.0000 0.0000 0.0000 0.0000 19.4538
#
#
#
# Elastic Compliance Matrix: (Units=1/GPa)
#
#
# Indices 1 2 3 4 5 6 
#
# 1 0.023569 0.003550 -0.004329 0.000000 0.000000 0.000000
# 2 0.003550 0.012901 -0.008658 0.000000 0.000000 0.000000
# 3 -0.004329 -0.008658 0.014838 0.000000 0.000000 0.000000
# 4 0.000000 0.000000 0.000000 0.032576 0.000000 0.000000
# 5 0.000000 0.000000 0.000000 0.000000 -0.162822 0.000000
# 6 0.000000 0.000000 0.000000 0.000000 0.000000 0.051404
#
#
# Mechanical properties :
#
#
# Convention : Reuss Voigt Hill
#
# Bulk Modulus (GPa) = 30.83258 48.88323 39.85790
# Shear Modulus (GPa) = 2323.64723 22.74976 1173.19849
#
# Velocity S-wave (km/s) = 33.32471 3.29738 23.67920
# Velocity P-wave (km/s) = 38.67106 6.15302 27.68854
#
# Compressibility (1/GPa) = 0.03243323
#
# Stress axis : x y z
#
# Youngs Moduli (GPa) = 42.42860 77.51399 67.39310
#
# Poissons Ratio (x) = -0.27515 0.29178
# Poissons Ratio (y) = -0.15061 0.58347
# Poissons Ratio (z) = 0.18369 0.67109
#
# Static dielectric constant tensor:
#      x y z
#    x 1.783460 0.000000 0.000000 
#    y 0.000000 1.710490 0.000000 
#    z 0.000000 0.000000 1.770040 
# 
# From -- ./inp_files/14502.got.cif
#   From: 2010.05.17/outbox.cif.g08.bks.cpg/sg46_8_cif.got.tgz:14502.got - 2010.06.03 19:58:25.
