data_PCOD9379964
_publ_section_title
;
Structure prediction by ZEFSAII (Michael W. Deem and Ramdas Pophale) SiO2 
 PCOD9379964
Probable space group: I M A 2
;
_chemical_formula_sum "Si O2"
_cell_formula_units_Z 60
_cell_length_a 31.323020
_cell_length_b 18.961468
_cell_length_c 5.174174
_cell_angle_alpha 90.000000
_cell_angle_beta 90.000000
_cell_angle_gamma 90.000000
_cell_volume 3073.099448
_symmetry_space_group_name_H-M "I M A 2"
_symmetry_group_IT_number 46
_symmetry_cell_setting 'orthorhombic'
loop_
_space_group_symop_operation_xyz
x,y,z
-x,-y,z
1/2-x,y,z
1/2+x,-y,z
1/2+x,1/2+y,1/2+z
1/2-x,1/2-y,1/2+z
-x,1/2+y,1/2+z
x,1/2-y,1/2+z
loop_
_atom_site_type_symbol
_atom_site_label
_atom_site_fract_x
_atom_site_fract_y
_atom_site_fract_z
Si Si1 0.616161 0.429540 0.065920
Si Si2 0.750000 0.700133 0.600176
Si Si3 0.328764 0.932560 0.065379
Si Si4 0.700442 0.216955 0.219181
Si Si5 0.058176 0.703816 0.179281
Si Si6 0.457485 0.295182 0.184572
Si Si7 0.887163 0.587539 0.136733
Si Si8 0.827658 0.591027 0.636650
O O1 0.655465 0.426655 0.270467
O O2 0.585182 0.365807 0.129183
O O3 0.597044 0.506939 0.116282
O O4 0.632211 0.427463 0.770591
O O5 0.750000 0.745341 0.338048
O O6 0.791120 0.649215 0.615235
O O7 0.301663 0.864014 0.136941
O O8 0.309930 0.010471 0.114113
O O9 0.750000 0.237513 0.251892
O O10 0.680105 0.235595 0.493971
O O11 0.067186 0.739008 0.455663
O O12 0.007615 0.686715 0.165532
O O13 0.449318 0.264684 0.469573
O O14 0.426226 0.359229 0.126234
O O15 0.861118 0.597473 0.401926
O O16 0.853692 0.598222 0.903010
#
# Coordination Sequence:
#
# PCOD9379964 Si02
#       8
#     8   4   8   8   8   8   8   8
#     4  10  21  36  55  82 110 144 187 229 271 326
#     4  12  26  42  62  90 116 144 186 230 284 342
#     4  10  21  37  57  79 109 149 186 220 276 336
#     4  10  21  35  52  79 108 137 182 230 265 317
#     4  10  21  36  54  82 116 148 187 230 275 329
#     4  10  21  36  57  83 110 147 187 224 280 338
#     4  10  21  39  59  84 113 144 189 231 272 331
#     4  10  23  40  59  84 113 146 184 229 278 339
#
# _framework density 19.524262
#
# number of rings (size 3 to 8) (size 9 to 14) (size 15 to 20)
#    0.000    1.867    0.000    3.200    0.933    6.933 
#    0.000    0.000    0.000    9.600    0.000    0.000 
#    0.000    0.000    0.000    0.000    0.000    0.000 
#
# Total GULP energy -167564.105596 kJ/mol
# GULP energy per Si atom -5585.470187 kJ/mol
# Density = 1.947982 g / cm^3
# Si number density = 19.524262 Si / 1000 Ang^3
#
#
#
# Elastic Constant Matrix: (Units=GPa)
#
#
# Indices 1 2 3 4 5 6 
#
# 1 28.6993 32.5856 -9.7748 0.0000 0.0000 0.0005
# 2 32.5856 90.0830 -1.3940 0.0000 0.0000 0.0001
# 3 -9.7748 -1.3940 62.6218 0.0000 0.0000 -0.0008
# 4 0.0000 0.0000 0.0000 25.0145 0.0000 -0.0003
# 5 0.0000 0.0000 0.0000 0.0000 14.4130 -0.0010
# 6 0.0005 0.0001 -0.0008 -0.0003 -0.0010-1729.4279
#
#
#
# Elastic Compliance Matrix: (Units=1/GPa)
#
#
# Indices 1 2 3 4 5 6 
#
# 1 0.064353 -0.023131 0.009530 0.000000 0.000000 0.000000
# 2 -0.023131 0.019419 -0.003178 0.000000 0.000000 0.000000
# 3 0.009530 -0.003178 0.017386 0.000000 0.000000 0.000000
# 4 0.000000 0.000000 0.000000 0.039977 0.000000 0.000000
# 5 0.000000 0.000000 0.000000 0.000000 0.069382 0.000000
# 6 0.000000 0.000000 0.000000 0.000000 0.000000 -0.000578
#
#
# Mechanical properties :
#
#
# Convention : Reuss Voigt Hill
#
# Bulk Modulus (GPa) = 14.79297 24.91531 19.85414
# Shear Modulus (GPa) = 18.79489 -327.33428 -154.26969
#
# Velocity S-wave (km/s) = 3.10601 -12.96222 -8.89865
# Velocity P-wave (km/s) = 4.52286 14.53398 9.76679
#
# Compressibility (1/GPa) = 0.06759968
#
# Stress axis : x y z
#
# Youngs Moduli (GPa) = 15.53922 51.49641 57.51840
#
# Poissons Ratio (x) = 1.19116 -0.54816
# Poissons Ratio (y) = 0.35944 0.18281
# Poissons Ratio (z) = -0.14809 0.16367
#
# Static dielectric constant tensor:
#      x y z
#    x 1.656910 0.000000 0.000000 
#    y 0.000000 1.670540 0.000000 
#    z 0.000000 0.000000 1.694810 
# 
# From -- ./inp_files/2593.got.cif
#   From: 2010.05.17/outbox.cif.g08.bks.cpg/sg46_2_cif.got.tgz:2593.got - 2010.06.03 19:58:25.
