data_PCOD9379755
_publ_section_title
;
Structure prediction by ZEFSAII (Michael W. Deem and Ramdas Pophale) SiO2 
 PCOD9379755
Probable space group: I M A 2
;
_chemical_formula_sum "Si O2"
_cell_formula_units_Z 40
_cell_length_a 23.540849
_cell_length_b 5.207144
_cell_length_c 15.185413
_cell_angle_alpha 90.000000
_cell_angle_beta 90.000000
_cell_angle_gamma 90.000000
_cell_volume 1861.436894
_symmetry_space_group_name_H-M "I M A 2"
_symmetry_group_IT_number 46
_symmetry_cell_setting 'orthorhombic'
loop_
_space_group_symop_operation_xyz
x,y,z
-x,-y,z
1/2-x,y,z
1/2+x,-y,z
1/2+x,1/2+y,1/2+z
1/2-x,1/2-y,1/2+z
-x,1/2+y,1/2+z
x,1/2-y,1/2+z
loop_
_atom_site_type_symbol
_atom_site_label
_atom_site_fract_x
_atom_site_fract_y
_atom_site_fract_z
Si Si1 0.684916 0.034020 0.071050
Si Si2 0.610972 0.783273 0.210519
Si Si3 0.925464 0.282341 0.133144
Si Si4 0.622576 0.646035 0.406346
Si Si5 0.946766 0.356986 0.945195
O O1 0.750000 0.100685 0.083949
O O2 0.662333 0.823656 0.141238
O O3 0.638950 0.254184 0.092913
O O4 0.672392 0.943347 0.971566
O O5 0.571506 0.549605 0.181531
O O6 0.634921 0.727427 0.306780
O O7 0.574111 0.042854 0.199297
O O8 0.962536 0.270239 0.045016
O O9 0.579595 0.400571 0.403913
O O10 0.596199 0.902398 0.449296
O O11 0.000000 0.500000 0.901063
#
# Coordination Sequence:
#
# PCOD9379755 Si02
#       5
#     8   8   8   8   8
#     4   9  21  38  61  89 123 164 205 248 310 371
#     4  10  20  38  61  84 126 161 201 253 310 357
#     4   9  19  39  58  86 120 163 197 260 298 365
#     4  11  22  39  63  91 129 161 203 266 307 366
#     4  11  21  40  65  90 121 165 207 255 318 371
#
# _framework density 21.488773999999999
#
# number of rings (size 3 to 8) (size 9 to 14) (size 15 to 20)
#    1.200    0.800    2.000    1.800    0.000    1.600 
#    0.000    4.000    0.000    0.000    0.000    0.000 
#    0.000    0.000    0.000    0.000    0.000    0.000 
#
# Total GULP energy -111378.473693 kJ/mol
# GULP energy per Si atom -5568.923685 kJ/mol
# Density = 2.143986 g / cm^3
# Si number density = 21.488774 Si / 1000 Ang^3
#
#
#
# Elastic Constant Matrix: (Units=GPa)
#
#
# Indices 1 2 3 4 5 6 
#
# 1 49.0418 22.2179 18.6342 0.0000 0.0000 0.0000
# 2 22.2179 143.4063 20.3764 0.0000 0.0000 0.0000
# 3 18.6342 20.3764 106.7546 0.0000 0.0000 0.0000
# 4 0.0000 0.0000 0.0000 27.8641 0.0000 0.0000
# 5 0.0000 0.0000 0.0000 0.0000 5.1663 0.0000
# 6 0.0000 0.0000 0.0000 0.0000 0.0000 15.9010
#
#
#
# Elastic Compliance Matrix: (Units=1/GPa)
#
#
# Indices 1 2 3 4 5 6 
#
# 1 0.023098 -0.003090 -0.003442 0.000000 0.000000 0.000000
# 2 -0.003090 0.007581 -0.000908 0.000000 0.000000 0.000000
# 3 -0.003442 -0.000908 0.010141 0.000000 0.000000 0.000000
# 4 0.000000 0.000000 0.000000 0.035889 0.000000 0.000000
# 5 0.000000 0.000000 0.000000 0.000000 0.193563 0.000000
# 6 0.000000 0.000000 0.000000 0.000000 0.000000 0.062889
#
#
# Mechanical properties :
#
#
# Convention : Reuss Voigt Hill
#
# Bulk Modulus (GPa) = 38.54782 46.85108 42.69945
# Shear Modulus (GPa) = 14.01786 25.65121 19.83454
#
# Velocity S-wave (km/s) = 2.55685 3.45875 3.04142
# Velocity P-wave (km/s) = 5.16664 6.14821 5.67868
#
# Compressibility (1/GPa) = 0.02594180
#
# Stress axis : x y z
#
# Youngs Moduli (GPa) = 43.29317 131.91172 98.60615
#
# Poissons Ratio (x) = 0.40755 0.33942
# Poissons Ratio (y) = 0.13376 0.08950
# Poissons Ratio (z) = 0.14902 0.11973
#
# Static dielectric constant tensor:
#      x y z
#    x 1.799330 0.000000 0.000000 
#    y 0.000000 1.780870 0.000000 
#    z 0.000000 0.000000 1.818020 
# 
# From -- ./inp_files/17244.got.cif
#   From: 2010.05.17/outbox.cif.g08.bks.cpg/sg46_9_cif.got.tgz:17244.got - 2010.06.03 19:58:25.
