data_PCOD9379989
_publ_section_title
;
Structure prediction by ZEFSAII (Michael W. Deem and Ramdas Pophale) SiO2 
 PCOD9379989
Probable space group: I M A 2
;
_chemical_formula_sum "Si O2"
_cell_formula_units_Z 56
_cell_length_a 15.320377
_cell_length_b 5.081662
_cell_length_c 31.224708
_cell_angle_alpha 90.000000
_cell_angle_beta 90.000000
_cell_angle_gamma 90.000000
_cell_volume 2430.936493
_symmetry_space_group_name_H-M "I M A 2"
_symmetry_group_IT_number 46
_symmetry_cell_setting 'orthorhombic'
loop_
_space_group_symop_operation_xyz
x,y,z
-x,-y,z
1/2-x,y,z
1/2+x,-y,z
1/2+x,1/2+y,1/2+z
1/2-x,1/2-y,1/2+z
-x,1/2+y,1/2+z
x,1/2-y,1/2+z
loop_
_atom_site_type_symbol
_atom_site_label
_atom_site_fract_x
_atom_site_fract_y
_atom_site_fract_z
Si Si1 0.649117 0.968952 0.372020
Si Si2 0.055915 0.765705 0.290728
Si Si3 0.397353 0.517006 0.525664
Si Si4 0.145771 0.853993 0.705139
Si Si5 0.604792 0.528200 0.071348
Si Si6 0.850428 0.486142 0.428668
Si Si7 0.855074 0.654698 0.658020
O O1 0.750000 0.909142 0.359099
O O2 0.597863 0.088643 0.331746
O O3 0.649340 0.208692 0.405076
O O4 0.611907 0.712066 0.396862
O O5 0.125536 0.699557 0.254319
O O6 0.000000 0.500000 0.300422
O O7 0.000000 0.000000 0.270435
O O8 0.500000 0.500000 0.535511
O O9 0.360574 0.740772 0.557662
O O10 0.389620 0.562445 0.475312
O O11 0.361662 0.228608 0.535260
O O12 0.250000 0.861286 0.699763
O O13 0.111763 0.634841 0.671089
O O14 0.111586 0.141928 0.693681
O O15 0.500000 0.500000 0.070346
O O16 0.625236 0.688138 0.114465
O O17 0.750000 0.570460 0.435765
O O18 0.750000 0.633631 0.659518
#
# Coordination Sequence:
#
# PCOD9379989 Si02
#       7
#     8   8   8   8   8   8   8
#     4  10  22  41  61  84 118 156 192 237 297 354
#     4  12  25  40  61  92 120 150 198 246 293 350
#     4  10  21  36  54  80 115 153 190 234 294 353
#     4  10  22  41  61  84 118 156 192 237 297 354
#     4  10  21  36  54  80 115 153 190 234 294 353
#     4  10  21  37  60  86 111 149 198 240 285 345
#     4  10  21  37  60  86 111 149 198 240 285 345
#
# _framework density 23.036387999999999
#
# number of rings (size 3 to 8) (size 9 to 14) (size 15 to 20)
#    0.000    1.714    0.000    3.857    0.000    4.571 
#    0.000    5.714    0.000    0.000    0.000    0.000 
#    0.000    0.000    0.000    0.000    0.000    0.000 
#
# Total GULP energy -156243.345701 kJ/mol
# GULP energy per Si atom -5580.119489 kJ/mol
# Density = 2.298396 g / cm^3
# Si number density = 23.036388 Si / 1000 Ang^3
#
#
#
# Elastic Constant Matrix: (Units=GPa)
#
#
# Indices 1 2 3 4 5 6 
#
# 1 23.0934 22.3771 -2.0403 0.0000 0.0000 0.0000
# 2 22.3771 113.6484 1.5915 0.0000 0.0000 0.0000
# 3 -2.0403 1.5915 65.2055 0.0000 0.0000 0.0000
# 4 0.0000 0.0000 0.0000 40.0492 0.0000 0.0000
# 5 0.0000 0.0000 0.0000 0.0000 23.9474 0.0000
# 6 0.0000 0.0000 0.0000 0.0000 0.0000 9.9185
#
#
#
# Elastic Compliance Matrix: (Units=1/GPa)
#
#
# Indices 1 2 3 4 5 6 
#
# 1 0.053756 -0.010612 0.001941 0.000000 0.000000 0.000000
# 2 -0.010612 0.010897 -0.000598 0.000000 0.000000 0.000000
# 3 0.001941 -0.000598 0.015411 0.000000 0.000000 0.000000
# 4 0.000000 0.000000 0.000000 0.024969 0.000000 0.000000
# 5 0.000000 0.000000 0.000000 0.000000 0.041758 0.000000
# 6 0.000000 0.000000 0.000000 0.000000 0.000000 0.100822
#
#
# Mechanical properties :
#
#
# Convention : Reuss Voigt Hill
#
# Bulk Modulus (GPa) = 16.25292 27.31156 21.78224
# Shear Modulus (GPa) = 17.44223 26.78427 22.11325
#
# Velocity S-wave (km/s) = 2.75464 3.41353 3.10163
# Velocity P-wave (km/s) = 4.14584 5.23620 4.72260
#
# Compressibility (1/GPa) = 0.06152742
#
# Stress axis : x y z
#
# Youngs Moduli (GPa) = 18.60244 91.76946 64.88674
#
# Poissons Ratio (x) = 0.97383 -0.12595
# Poissons Ratio (y) = 0.19740 0.03880
# Poissons Ratio (z) = -0.03611 0.05488
#
# Static dielectric constant tensor:
#      x y z
#    x 1.887050 0.000000 0.000000 
#    y 0.000000 1.885190 0.000000 
#    z 0.000000 0.000000 1.875180 
# 
# From -- ./inp_files/25399.got.cif
#   From: 2010.05.17/outbox.cif.g08.bks.cpg/sg46_13_cif.got.tgz:25399.got - 2010.06.03 19:58:25.
