data_PCOD9379981
_publ_section_title
;
Structure prediction by ZEFSAII (Michael W. Deem and Ramdas Pophale) SiO2 
 PCOD9379981
Probable space group: I M A 2
;
_chemical_formula_sum "Si O2"
_cell_formula_units_Z 36
_cell_length_a 14.545143
_cell_length_b 18.796889
_cell_length_c 7.525225
_cell_angle_alpha 90.000000
_cell_angle_beta 90.000000
_cell_angle_gamma 90.000000
_cell_volume 2057.422390
_symmetry_space_group_name_H-M "I M A 2"
_symmetry_group_IT_number 46
_symmetry_cell_setting 'orthorhombic'
loop_
_space_group_symop_operation_xyz
x,y,z
-x,-y,z
1/2-x,y,z
1/2+x,-y,z
1/2+x,1/2+y,1/2+z
1/2-x,1/2-y,1/2+z
-x,1/2+y,1/2+z
x,1/2-y,1/2+z
loop_
_atom_site_type_symbol
_atom_site_label
_atom_site_fract_x
_atom_site_fract_y
_atom_site_fract_z
Si Si1 0.047910 0.423068 0.908210
Si Si2 0.750000 0.521719 0.924257
Si Si3 0.250000 0.907104 0.722397
Si Si4 0.447259 0.826630 0.124311
Si Si5 0.250000 0.605875 0.641247
Si Si6 0.446968 0.660895 0.208423
O O1 0.156815 0.433935 0.907516
O O2 0.000000 0.500000 0.886018
O O3 0.012606 0.371562 0.752586
O O4 0.012158 0.388788 0.091374
O O5 0.750000 0.460665 0.773086
O O6 0.750000 0.479410 0.110883
O O7 0.158095 0.863664 0.674709
O O8 0.250000 0.918032 0.934825
O O9 0.342192 0.848494 0.169729
O O10 0.458427 0.742705 0.152704
O O11 0.463845 0.845176 0.918574
#
# Coordination Sequence:
#
# PCOD9379981 Si02
#       6
#     8   4   4   8   4   8
#     4  12  24  42  66  92 129 170 209 262 312 384
#     4  12  24  42  62  94 130 164 212 256 322 366
#     4  10  21  35  62 100 129 158 200 264 318 376
#     4  11  22  39  65  96 130 164 209 258 320 372
#     4  10  21  35  62 100 129 158 200 264 318 376
#     4  11  22  39  65  96 130 164 209 258 320 372
#
# _framework density 17.497622
#
# number of rings (size 3 to 8) (size 9 to 14) (size 15 to 20)
#    0.000    0.889    6.667    0.667    0.000    2.667 
#    0.000    1.111    0.000    0.000    0.000    0.000 
#    0.000    0.000    0.000    0.000    0.000    0.000 
#
# Total GULP energy -100620.232277 kJ/mol
# GULP energy per Si atom -5590.012904 kJ/mol
# Density = 1.745780 g / cm^3
# Si number density = 17.497622 Si / 1000 Ang^3
#
#
#
# Elastic Constant Matrix: (Units=GPa)
#
#
# Indices 1 2 3 4 5 6 
#
# 1 113.1234 23.2572 14.1313 0.0000 0.0000 0.0000
# 2 23.2572 37.8978 -6.7840 0.0000 0.0000 0.0000
# 3 14.1313 -6.7840 37.4667 0.0000 0.0000 0.0000
# 4 0.0000 0.0000 0.0000 39.6630 0.0000 0.0000
# 5 0.0000 0.0000 0.0000 0.0000 23.2522 0.0000
# 6 0.0000 0.0000 0.0000 0.0000 0.0000 24.4822
#
#
#
# Elastic Compliance Matrix: (Units=1/GPa)
#
#
# Indices 1 2 3 4 5 6 
#
# 1 0.011158 -0.007856 -0.005631 0.000000 0.000000 0.000000
# 2 -0.007856 0.032801 0.008902 0.000000 0.000000 0.000000
# 3 -0.005631 0.008902 0.030426 0.000000 0.000000 0.000000
# 4 0.000000 0.000000 0.000000 0.025212 0.000000 0.000000
# 5 0.000000 0.000000 0.000000 0.000000 0.043007 0.000000
# 6 0.000000 0.000000 0.000000 0.000000 0.000000 0.040846
#
#
# Mechanical properties :
#
#
# Convention : Reuss Voigt Hill
#
# Bulk Modulus (GPa) = 15.33350 27.74410 21.53880
# Shear Modulus (GPa) = 23.32538 28.00505 25.66522
#
# Velocity S-wave (km/s) = 3.65507 4.00497 3.83402
# Velocity P-wave (km/s) = 5.15703 6.10547 5.65118
#
# Compressibility (1/GPa) = 0.06521669
#
# Stress axis : x y z
#
# Youngs Moduli (GPa) = 89.61864 30.48667 32.86647
#
# Poissons Ratio (x) = 0.23949 0.18507
# Poissons Ratio (y) = 0.70402 -0.29258
# Poissons Ratio (z) = 0.50464 -0.27140
#
# Static dielectric constant tensor:
#      x y z
#    x 1.572050 0.000000 0.000000 
#    y 0.000000 1.557740 0.000000 
#    z 0.000000 0.000000 1.603660 
# 
# From -- ./inp_files/5378.got.cif
#   From: 2010.05.17/outbox.cif.g08.bks.cpg/sg46_3_cif.got.tgz:5378.got - 2010.06.03 19:58:25.
