data_PCOD9379073
_publ_section_title
;
Structure prediction by ZEFSAII (Michael W. Deem and Ramdas Pophale) SiO2 
 PCOD9379073
Probable space group: I M A 2
;
_chemical_formula_sum "Si O2"
_cell_formula_units_Z 64
_cell_length_a 8.652891
_cell_length_b 25.643775
_cell_length_c 15.182636
_cell_angle_alpha 90.000000
_cell_angle_beta 90.000000
_cell_angle_gamma 90.000000
_cell_volume 3368.917460
_symmetry_space_group_name_H-M "I M A 2"
_symmetry_group_IT_number 46
_symmetry_cell_setting 'orthorhombic'
loop_
_space_group_symop_operation_xyz
x,y,z
-x,-y,z
1/2-x,y,z
1/2+x,-y,z
1/2+x,1/2+y,1/2+z
1/2-x,1/2-y,1/2+z
-x,1/2+y,1/2+z
x,1/2-y,1/2+z
loop_
_atom_site_type_symbol
_atom_site_label
_atom_site_fract_x
_atom_site_fract_y
_atom_site_fract_z
Si Si1 0.435058 0.388613 0.136350
Si Si2 0.935559 0.941789 0.451774
Si Si3 0.436044 0.868129 0.302485
Si Si4 0.565169 0.234294 0.402300
Si Si5 0.933271 0.222696 0.611008
Si Si6 0.062604 0.651381 0.430928
Si Si7 0.064605 0.943630 0.805434
Si Si8 0.433662 0.164763 0.125822
O O1 0.250000 0.387278 0.141238
O O2 0.501849 0.330708 0.149663
O O3 0.500934 0.426774 0.210375
O O4 0.480108 0.409527 0.039562
O O5 0.750000 0.942887 0.446984
O O6 0.003072 0.912966 0.366548
O O7 0.000000 0.000000 0.458853
O O8 0.250000 0.868390 0.302737
O O9 0.494692 0.813015 0.343762
O O10 0.497551 0.870390 0.203471
O O11 0.750000 0.235489 0.388283
O O12 0.539702 0.221525 0.505322
O O13 0.508784 0.293428 0.388652
O O14 0.750000 0.226276 0.626891
O O15 0.011792 0.275679 0.643346
O O16 0.250000 0.653160 0.435345
O O17 0.017097 0.601719 0.373567
O O18 0.999634 0.649890 0.530076
O O19 0.250000 0.945294 0.802458
O O20 0.000000 0.000000 0.830247
O O21 0.250000 0.162190 0.124833
#
# Coordination Sequence:
#
# PCOD9379073 Si02
#       8
#     8   8   8   8   8   8   8   8
#     4  11  23  38  59  91 127 160 200 249 304 361
#     4  11  24  41  61  87 123 163 205 252 300 360
#     4  11  21  37  62  90 121 161 205 251 303 361
#     4   8  16  32  57  86 114 149 196 242 290 354
#     4  10  19  36  59  86 121 162 204 241 292 361
#     4   9  20  41  63  87 115 156 207 252 304 364
#     4  11  24  41  64  89 120 159 207 257 305 361
#     4  11  23  38  58  90 127 160 197 251 310 364
#
# _framework density 18.997198999999998
#
# number of rings (size 3 to 8) (size 9 to 14) (size 15 to 20)
#    0.000    1.750    1.250    4.125    1.750    3.500 
#    0.000    1.250    0.000    1.500    0.000    0.000 
#    0.000    0.000    0.000    0.000    0.000    0.000 
#
# Total GULP energy -178813.893953 kJ/mol
# GULP energy per Si atom -5587.934186 kJ/mol
# Density = 1.895396 g / cm^3
# Si number density = 18.997199 Si / 1000 Ang^3
#
#
#
# Elastic Constant Matrix: (Units=GPa)
#
#
# Indices 1 2 3 4 5 6 
#
# 1 39.4922 18.1527 16.5441 -0.0003 0.0000 0.0000
# 2 18.1527 94.4648 25.9638 -0.0003 0.0000 0.0000
# 3 16.5441 25.9638 55.5944 -0.0013 0.0000 0.0000
# 4 -0.0003 -0.0003 -0.0013 67.4988 0.0000 -0.0001
# 5 0.0000 0.0000 0.0000 0.0000 22.4266 0.0000
# 6 0.0000 0.0000 0.0000 -0.0001 0.0000 31.4171
#
#
#
# Elastic Compliance Matrix: (Units=1/GPa)
#
#
# Indices 1 2 3 4 5 6 
#
# 1 0.030076 -0.003808 -0.007172 0.000000 0.000000 0.000000
# 2 -0.003808 0.012627 -0.004764 0.000000 0.000000 0.000000
# 3 -0.007172 -0.004764 0.022346 0.000000 0.000000 0.000000
# 4 0.000000 0.000000 0.000000 0.014815 0.000000 0.000000
# 5 0.000000 0.000000 0.000000 0.000000 0.044590 0.000000
# 6 0.000000 0.000000 0.000000 0.000000 0.000000 0.031830
#
#
# Mechanical properties :
#
#
# Convention : Reuss Voigt Hill
#
# Bulk Modulus (GPa) = 29.79553 34.54140 32.16846
# Shear Modulus (GPa) = 25.13068 32.86121 28.99595
#
# Velocity S-wave (km/s) = 3.64106 4.16359 3.91106
# Velocity P-wave (km/s) = 5.77881 6.42929 6.11271
#
# Compressibility (1/GPa) = 0.03356208
#
# Stress axis : x y z
#
# Youngs Moduli (GPa) = 33.24869 79.19448 44.74987
#
# Poissons Ratio (x) = 0.30161 0.32093
# Poissons Ratio (y) = 0.12663 0.21318
# Poissons Ratio (z) = 0.23845 0.37727
#
# Static dielectric constant tensor:
#      x y z
#    x 1.634610 0.000000 0.000000 
#    y 0.000000 1.474320 0.000000 
#    z 0.000000 0.000000 1.656150 
# 
# From -- ./inp_files/14437.got.cif
#   From: 2010.05.17/outbox.cif.g08.bks.cpg/sg46_8_cif.got.tgz:14437.got - 2010.06.03 19:58:25.
