data_PCOD9379879
_publ_section_title
;
Structure prediction by ZEFSAII (Michael W. Deem and Ramdas Pophale) SiO2 
 PCOD9379879
Probable space group: I M A 2
;
_chemical_formula_sum "Si O2"
_cell_formula_units_Z 64
_cell_length_a 17.666882
_cell_length_b 9.809194
_cell_length_c 18.975614
_cell_angle_alpha 90.000000
_cell_angle_beta 90.000000
_cell_angle_gamma 90.000000
_cell_volume 3288.433543
_symmetry_space_group_name_H-M "I M A 2"
_symmetry_group_IT_number 46
_symmetry_cell_setting 'orthorhombic'
loop_
_space_group_symop_operation_xyz
x,y,z
-x,-y,z
1/2-x,y,z
1/2+x,-y,z
1/2+x,1/2+y,1/2+z
1/2-x,1/2-y,1/2+z
-x,1/2+y,1/2+z
x,1/2-y,1/2+z
loop_
_atom_site_type_symbol
_atom_site_label
_atom_site_fract_x
_atom_site_fract_y
_atom_site_fract_z
Si Si1 0.931674 0.714533 0.989740
Si Si2 0.108692 0.733022 0.488607
Si Si3 0.835900 0.014374 0.562673
Si Si4 0.661223 0.992575 0.718860
Si Si5 0.047382 0.363241 0.835955
Si Si6 0.910968 0.975128 0.076826
Si Si7 0.060649 0.614544 0.343713
Si Si8 0.339003 0.165746 0.212251
O O1 0.914210 0.683537 0.908728
O O2 0.022421 0.712572 0.996515
O O3 0.892089 0.602623 0.037619
O O4 0.907531 0.863351 0.014874
O O5 0.159467 0.861188 0.508172
O O6 0.121215 0.614737 0.545690
O O7 0.109049 0.668898 0.410307
O O8 0.750000 0.960378 0.565939
O O9 0.855970 0.058277 0.642481
O O10 0.750000 0.014740 0.734950
O O11 0.610130 0.050490 0.781430
O O12 0.649857 0.829852 0.708665
O O13 0.109644 0.383918 0.776643
O O14 0.000000 0.500000 0.848701
O O15 0.988869 0.242458 0.816668
O O16 0.868153 0.910765 0.142782
O O17 0.000000 0.000000 0.093817
O O18 0.000000 0.500000 0.368674
O O19 0.250000 0.141076 0.222535
#
# Coordination Sequence:
#
# PCOD9379879 Si02
#       8
#     8   8   8   8   8   8   8   8
#     4  10  20  40  64  87 119 159 200 250 304 361
#     4  10  22  38  62  94 122 151 200 262 304 351
#     4  11  23  40  61  89 124 161 204 244 296 367
#     4  10  23  41  62  90 123 163 208 251 295 366
#     4  11  23  40  61  94 123 156 204 257 305 361
#     4  10  21  38  63  91 121 157 204 254 305 357
#     4  11  21  41  67  91 120 161 205 250 305 365
#     4  11  23  41  60  87 126 166 206 248 300 364
#
# _framework density 19.462154000000002
#
# number of rings (size 3 to 8) (size 9 to 14) (size 15 to 20)
#    0.000    1.500    2.500    4.125    0.000    5.500 
#    0.000    1.875    0.000    0.000    0.000    0.000 
#    0.000    0.000    0.000    0.000    0.000    0.000 
#
# Total GULP energy -178757.437122 kJ/mol
# GULP energy per Si atom -5586.169910 kJ/mol
# Density = 1.941786 g / cm^3
# Si number density = 19.462154 Si / 1000 Ang^3
#
#
#
# Elastic Constant Matrix: (Units=GPa)
#
#
# Indices 1 2 3 4 5 6 
#
# 1 33.3888 28.6237 55.2122 0.0000 0.0000 0.0000
# 2 28.6237 83.3037 28.0649 0.0000 0.0000 0.0000
# 3 55.2122 28.0649 132.1743 0.0000 0.0000 0.0000
# 4 0.0000 0.0000 0.0000 27.0700 0.0000 0.0000
# 5 0.0000 0.0000 0.0000 0.0000 15.1563 0.0000
# 6 0.0000 0.0000 0.0000 0.0000 0.0000 10.2635
#
#
#
# Elastic Compliance Matrix: (Units=1/GPa)
#
#
# Indices 1 2 3 4 5 6 
#
# 1 0.150772 -0.032945 -0.055986 0.000000 0.000000 0.000000
# 2 -0.032945 0.020128 0.009488 0.000000 0.000000 0.000000
# 3 -0.055986 0.009488 0.028938 0.000000 0.000000 0.000000
# 4 0.000000 0.000000 0.000000 0.036941 0.000000 0.000000
# 5 0.000000 0.000000 0.000000 0.000000 0.065979 0.000000
# 6 0.000000 0.000000 0.000000 0.000000 0.000000 0.097432
#
#
# Mechanical properties :
#
#
# Convention : Reuss Voigt Hill
#
# Bulk Modulus (GPa) = 24.41843 52.51870 38.46856
# Shear Modulus (GPa) = 8.73016 19.62903 14.17959
#
# Velocity S-wave (km/s) = 2.12025 3.17925 2.70214
# Velocity P-wave (km/s) = 4.30904 6.36557 5.43545
#
# Compressibility (1/GPa) = 0.04095268
#
# Stress axis : x y z
#
# Youngs Moduli (GPa) = 6.63251 49.68246 34.55698
#
# Poissons Ratio (x) = 1.63678 1.93470
# Poissons Ratio (y) = 0.21851 -0.32788
# Poissons Ratio (z) = 0.37133 -0.47139
#
# Static dielectric constant tensor:
#      x y z
#    x 1.669480 0.000000 0.000000 
#    y 0.000000 1.681040 0.000000 
#    z 0.000000 0.000000 1.685510 
# 
# From -- ./inp_files/22275.got.cif
#   From: 2010.05.17/outbox.cif.g08.bks.cpg/sg46_12_cif.got.tgz:22275.got - 2010.06.03 19:58:25.
