data_PCOD9379496
_publ_section_title
;
Structure prediction by ZEFSAII (Michael W. Deem and Ramdas Pophale) SiO2 
 PCOD9379496
Probable space group: I M A 2
;
_chemical_formula_sum "Si O2"
_cell_formula_units_Z 48
_cell_length_a 24.797325
_cell_length_b 10.577749
_cell_length_c 9.315781
_cell_angle_alpha 90.000000
_cell_angle_beta 90.000000
_cell_angle_gamma 90.000000
_cell_volume 2443.528236
_symmetry_space_group_name_H-M "I M A 2"
_symmetry_group_IT_number 46
_symmetry_cell_setting 'orthorhombic'
loop_
_space_group_symop_operation_xyz
x,y,z
-x,-y,z
1/2-x,y,z
1/2+x,-y,z
1/2+x,1/2+y,1/2+z
1/2-x,1/2-y,1/2+z
-x,1/2+y,1/2+z
x,1/2-y,1/2+z
loop_
_atom_site_type_symbol
_atom_site_label
_atom_site_fract_x
_atom_site_fract_y
_atom_site_fract_z
Si Si1 0.653011 0.904213 0.550870
Si Si2 0.688607 0.716336 0.761346
Si Si3 0.445095 0.579119 0.960269
Si Si4 0.189320 0.535716 0.573757
Si Si5 0.308344 0.904932 0.763995
Si Si6 0.901626 0.222015 0.188055
O O1 0.646805 0.811770 0.687232
O O2 0.678768 0.821505 0.425141
O O3 0.601186 0.975080 0.489720
O O4 0.688363 0.017625 0.616761
O O5 0.750000 0.765307 0.743099
O O6 0.684657 0.586610 0.671888
O O7 0.500000 0.500000 0.969896
O O8 0.435784 0.644619 0.805293
O O9 0.436074 0.690012 0.079636
O O10 0.250000 0.589152 0.600002
O O11 0.187855 0.506739 0.404281
O O12 0.139950 0.628424 0.607515
O O13 0.250000 0.840482 0.774106
O O14 0.359339 0.813673 0.768975
#
# Coordination Sequence:
#
# PCOD9379496 Si02
#       6
#     8   8   8   8   8   8
#     4  11  23  39  61  90 135 172 219 263 310 373
#     4  11  21  35  58  93 136 175 206 249 315 391
#     4  11  26  46  70  94 121 170 223 276 324 368
#     4  10  20  35  60  95 131 174 208 248 322 390
#     4  10  20  35  60  94 130 169 207 252 319 391
#     4  11  21  44  65  92 131 159 212 270 322 382
#
# _framework density 19.643726999999998
#
# number of rings (size 3 to 8) (size 9 to 14) (size 15 to 20)
#    0.000    1.333    3.333    3.000    0.000    2.667 
#    0.000    0.833    0.000    0.000    0.000    0.000 
#    0.000    0.000    0.000    0.000    0.000    0.000 
#
# Total GULP energy -133855.320051 kJ/mol
# GULP energy per Si atom -5577.305002 kJ/mol
# Density = 1.959902 g / cm^3
# Si number density = 19.643727 Si / 1000 Ang^3
#
#
#
# Elastic Constant Matrix: (Units=GPa)
#
#
# Indices 1 2 3 4 5 6 
#
# 1 102.3531 45.1633 40.9889 0.0000 0.0000 0.0000
# 2 45.1633 77.2721 38.5898 0.0000 0.0000 0.0000
# 3 40.9889 38.5898 108.5742 0.0000 0.0000 0.0000
# 4 0.0000 0.0000 0.0000 42.3982 0.0000 0.0000
# 5 0.0000 0.0000 0.0000 0.0000 15.9923 0.0000
# 6 0.0000 0.0000 0.0000 0.0000 0.0000 30.5836
#
#
#
# Elastic Compliance Matrix: (Units=1/GPa)
#
#
# Indices 1 2 3 4 5 6 
#
# 1 0.013860 -0.006672 -0.002861 0.000000 0.000000 0.000000
# 2 -0.006672 0.018946 -0.004215 0.000000 0.000000 0.000000
# 3 -0.002861 -0.004215 0.011788 0.000000 0.000000 0.000000
# 4 0.000000 0.000000 0.000000 0.023586 0.000000 0.000000
# 5 0.000000 0.000000 0.000000 0.000000 0.062530 0.000000
# 6 0.000000 0.000000 0.000000 0.000000 0.000000 0.032697
#
#
# Mechanical properties :
#
#
# Convention : Reuss Voigt Hill
#
# Bulk Modulus (GPa) = 58.48533 59.74258 59.11396
# Shear Modulus (GPa) = 25.43201 28.69198 27.06200
#
# Velocity S-wave (km/s) = 3.60205 3.82595 3.71568
# Velocity P-wave (km/s) = 6.86566 7.07080 6.96899
#
# Compressibility (1/GPa) = 0.01709830
#
# Stress axis : x y z
#
# Youngs Moduli (GPa) = 72.15121 52.78225 84.82850
#
# Poissons Ratio (x) = 0.35216 0.24269
# Poissons Ratio (y) = 0.48138 0.35755
# Poissons Ratio (z) = 0.20643 0.22248
#
# Static dielectric constant tensor:
#      x y z
#    x 1.667700 0.000000 0.000000 
#    y 0.000000 1.720400 0.000000 
#    z 0.000000 0.000000 1.703480 
# 
# From -- ./inp_files/7824.got.cif
#   From: 2010.05.17/outbox.cif.g08.bks.cpg/sg46_4_cif.got.tgz:7824.got - 2010.06.03 19:58:25.
