data_PCOD9379634
_publ_section_title
;
Structure prediction by ZEFSAII (Michael W. Deem and Ramdas Pophale) SiO2 
 PCOD9379634
Probable space group: I M A 2
;
_chemical_formula_sum "Si O2"
_cell_formula_units_Z 48
_cell_length_a 8.600706
_cell_length_b 31.634774
_cell_length_c 9.321700
_cell_angle_alpha 90.000000
_cell_angle_beta 90.000000
_cell_angle_gamma 90.000000
_cell_volume 2536.261098
_symmetry_space_group_name_H-M "I M A 2"
_symmetry_group_IT_number 46
_symmetry_cell_setting 'orthorhombic'
loop_
_space_group_symop_operation_xyz
x,y,z
-x,-y,z
1/2-x,y,z
1/2+x,-y,z
1/2+x,1/2+y,1/2+z
1/2-x,1/2-y,1/2+z
-x,1/2+y,1/2+z
x,1/2-y,1/2+z
loop_
_atom_site_type_symbol
_atom_site_label
_atom_site_fract_x
_atom_site_fract_y
_atom_site_fract_z
Si Si1 0.435609 0.545755 0.582340
Si Si2 0.563236 0.625314 0.752802
Si Si3 0.562398 0.291321 0.254161
Si Si4 0.563085 0.545627 0.260991
Si Si5 0.062479 0.371913 0.084110
Si Si6 0.438435 0.793307 0.086635
O O1 0.500000 0.500000 0.628217
O O2 0.250000 0.544585 0.578446
O O3 0.494410 0.582985 0.683752
O O4 0.498721 0.553297 0.421091
O O5 0.750000 0.623042 0.748027
O O6 0.506102 0.665450 0.662495
O O7 0.513235 0.629933 0.918398
O O8 0.750000 0.292207 0.251761
O O9 0.501611 0.332535 0.173143
O O10 0.512750 0.248832 0.171712
O O11 0.513223 0.290885 0.420330
O O12 0.500000 0.500000 0.213064
O O13 0.750000 0.543902 0.267734
O O14 0.515311 0.584013 0.158285
O O15 0.250000 0.370191 0.087828
O O16 0.250000 0.795660 0.091055
#
# Coordination Sequence:
#
# PCOD9379634 Si02
#       6
#     8   8   8   8   8   8
#     4  11  22  38  60  86 114 148 188 232 280 335
#     4  11  23  39  57  82 115 152 190 232 279 333
#     4  10  21  37  60  85 113 146 187 233 281 336
#     4  10  20  37  59  84 113 147 187 234 282 336
#     4  10  23  39  56  81 115 150 189 232 281 335
#     4  10  21  38  59  86 114 147 188 233 282 335
#
# _framework density 18.925498000000001
#
# number of rings (size 3 to 8) (size 9 to 14) (size 15 to 20)
#    0.000    1.667    0.000    5.500    0.000    8.667 
#    0.000    1.667    0.000    0.000    0.000    0.000 
#    0.000    0.000    0.000    0.000    0.000    0.000 
#
# Total GULP energy -134167.263628 kJ/mol
# GULP energy per Si atom -5590.302651 kJ/mol
# Density = 1.888242 g / cm^3
# Si number density = 18.925498 Si / 1000 Ang^3
#
#
#
# Elastic Constant Matrix: (Units=GPa)
#
#
# Indices 1 2 3 4 5 6 
#
# 1 53.2724 48.1879 46.3383 -0.0002 0.0000 0.0000
# 2 48.1879 196.7549 138.2557 -0.0004 0.0000 0.0000
# 3 46.3383 138.2557 180.2631 -0.0009 -0.0001 0.0000
# 4 -0.0002 -0.0004 -0.0009 43.2302 -0.0001 0.0000
# 5 0.0000 0.0000 -0.0001 -0.0001 27.8102 -0.0002
# 6 0.0000 0.0000 0.0000 0.0000 -0.0002 38.5904
#
#
#
# Elastic Compliance Matrix: (Units=1/GPa)
#
#
# Indices 1 2 3 4 5 6 
#
# 1 0.025254 -0.003521 -0.003791 0.000000 0.000000 0.000000
# 2 -0.003521 0.011514 -0.007926 0.000000 0.000000 0.000000
# 3 -0.003791 -0.007926 0.012601 0.000000 0.000000 0.000000
# 4 0.000000 0.000000 0.000000 0.023132 0.000000 0.000000
# 5 0.000000 0.000000 0.000000 0.000000 0.035958 0.000000
# 6 0.000000 0.000000 0.000000 0.000000 0.000000 0.025913
#
#
# Mechanical properties :
#
#
# Convention : Reuss Voigt Hill
#
# Bulk Modulus (GPa) = 52.92996 99.53936 76.23466
# Shear Modulus (GPa) = 29.21474 35.09340 32.15407
#
# Velocity S-wave (km/s) = 3.93322 4.31082 4.12634
# Velocity P-wave (km/s) = 6.97533 8.80268 7.94174
#
# Compressibility (1/GPa) = 0.01889289
#
# Stress axis : x y z
#
# Youngs Moduli (GPa) = 39.59728 86.84979 79.35936
#
# Poissons Ratio (x) = 0.30580 0.30088
# Poissons Ratio (y) = 0.13942 0.62899
# Poissons Ratio (z) = 0.15013 0.68836
#
# Static dielectric constant tensor:
#      x y z
#    x 1.645430 0.000000 0.000000 
#    y 0.000000 1.621580 0.000000 
#    z 0.000000 0.000000 1.636970 
# 
# From -- ./inp_files/3937.got.cif
#   From: 2010.05.17/outbox.cif.g08.bks.cpg/sg46_2_cif.got.tgz:3937.got - 2010.06.03 19:58:25.
