data_PCOD9379790
_publ_section_title
;
Structure prediction by ZEFSAII (Michael W. Deem and Ramdas Pophale) SiO2 
 PCOD9379790
Probable space group: I M A 2
;
_chemical_formula_sum "Si O2"
_cell_formula_units_Z 64
_cell_length_a 24.821286
_cell_length_b 8.618715
_cell_length_c 14.537372
_cell_angle_alpha 90.000000
_cell_angle_beta 90.000000
_cell_angle_gamma 90.000000
_cell_volume 3109.944956
_symmetry_space_group_name_H-M "I M A 2"
_symmetry_group_IT_number 46
_symmetry_cell_setting 'orthorhombic'
loop_
_space_group_symop_operation_xyz
x,y,z
-x,-y,z
1/2-x,y,z
1/2+x,-y,z
1/2+x,1/2+y,1/2+z
1/2-x,1/2-y,1/2+z
-x,1/2+y,1/2+z
x,1/2-y,1/2+z
loop_
_atom_site_type_symbol
_atom_site_label
_atom_site_fract_x
_atom_site_fract_y
_atom_site_fract_z
Si Si1 0.365932 0.452677 0.679640
Si Si2 0.810262 0.387971 0.345820
Si Si3 0.505794 0.185529 0.427609
Si Si4 0.413995 0.605306 0.081812
Si Si5 0.603829 0.761828 0.508089
Si Si6 0.583314 0.244080 0.264893
Si Si7 0.690937 0.307809 0.558908
Si Si8 0.813706 0.749922 0.842232
O O1 0.387686 0.353826 0.593175
O O2 0.409927 0.573266 0.719980
O O3 0.319924 0.560251 0.634038
O O4 0.342212 0.349657 0.762244
O O5 0.750000 0.336179 0.318210
O O6 0.857975 0.285180 0.305856
O O7 0.812715 0.379129 0.456697
O O8 0.817291 0.567186 0.318106
O O9 0.543135 0.192595 0.517833
O O10 0.449207 0.268605 0.446305
O O11 0.539248 0.250103 0.343227
O O12 0.500000 0.000000 0.410429
O O13 0.408957 0.429329 0.051278
O O14 0.429754 0.632662 0.186310
O O15 0.355998 0.683840 0.069066
O O16 0.654475 0.770907 0.438657
O O17 0.750000 0.238408 0.570024
O O18 0.750000 0.711430 0.850717
#
# Coordination Sequence:
#
# PCOD9379790 Si02
#       8
#     8   8   8   8   8   8   8   8
#     4  11  23  41  66  98 133 170 220 270 329 390
#     4  10  21  40  63  91 129 170 214 265 321 383
#     4  10  22  42  64  91 128 165 216 272 321 384
#     4  10  22  40  64  93 127 169 216 264 322 389
#     4  11  24  44  66  95 134 172 213 268 335 388
#     4  11  23  42  68  94 126 169 221 271 322 384
#     4  10  20  38  63  91 129 170 214 267 319 384
#     4  11  24  41  66  97 133 175 216 267 326 390
#
# _framework density 20.579142000000001
#
# number of rings (size 3 to 8) (size 9 to 14) (size 15 to 20)
#    0.000    1.500    2.500    2.625    0.000    5.500 
#    0.000    6.250    0.000    1.500    0.000    0.000 
#    0.000    0.000    0.000    0.000    0.000    0.000 
#
# Total GULP energy -178848.336211 kJ/mol
# GULP energy per Si atom -5589.010507 kJ/mol
# Density = 2.053230 g / cm^3
# Si number density = 20.579142 Si / 1000 Ang^3
#
#
#
# Elastic Constant Matrix: (Units=GPa)
#
#
# Indices 1 2 3 4 5 6 
#
# 1 107.7695 28.3618 56.8700 0.0000 0.0000 0.0000
# 2 28.3618 45.4577 35.1237 0.0000 0.0000 0.0000
# 3 56.8700 35.1237 129.1180 0.0000 0.0000 0.0000
# 4 0.0000 0.0000 0.0000 20.6434 0.0000 0.0000
# 5 0.0000 0.0000 0.0000 0.0000 -22.1091 0.0000
# 6 0.0000 0.0000 0.0000 0.0000 0.0000 17.4080
#
#
#
# Elastic Compliance Matrix: (Units=1/GPa)
#
#
# Indices 1 2 3 4 5 6 
#
# 1 0.012805 -0.004598 -0.004389 0.000000 0.000000 0.000000
# 2 -0.004598 0.029504 -0.006001 0.000000 0.000000 0.000000
# 3 -0.004389 -0.006001 0.011311 0.000000 0.000000 0.000000
# 4 0.000000 0.000000 0.000000 0.048442 0.000000 0.000000
# 5 0.000000 0.000000 0.000000 0.000000 -0.045230 0.000000
# 6 0.000000 0.000000 0.000000 0.000000 0.000000 0.057445
#
#
# Mechanical properties :
#
#
# Convention : Reuss Voigt Hill
#
# Bulk Modulus (GPa) = 42.29467 58.11735 50.20601
# Shear Modulus (GPa) = 32.86595 13.98776 23.42685
#
# Velocity S-wave (km/s) = 4.00065 2.60994 3.37765
# Velocity P-wave (km/s) = 6.47588 6.11430 6.29769
#
# Compressibility (1/GPa) = 0.02364364
#
# Stress axis : x y z
#
# Youngs Moduli (GPa) = 78.09216 33.89400 88.41340
#
# Poissons Ratio (x) = 0.15584 0.38808
# Poissons Ratio (y) = 0.35906 0.53054
# Poissons Ratio (z) = 0.34277 0.20339
#
# Static dielectric constant tensor:
#      x y z
#    x 1.741040 0.000000 0.000000 
#    y 0.000000 1.725680 0.000000 
#    z 0.000000 0.000000 1.731580 
# 
# From -- ./inp_files/17431.got.cif
#   From: 2010.05.17/outbox.cif.g08.bks.cpg/sg46_9_cif.got.tgz:17431.got - 2010.06.03 19:58:25.
