data_PCOD9379217
_publ_section_title
;
Structure prediction by ZEFSAII (Michael W. Deem and Ramdas Pophale) SiO2 
 PCOD9379217
Probable space group: I M A 2
;
_chemical_formula_sum "Si O2"
_cell_formula_units_Z 40
_cell_length_a 15.165666
_cell_length_b 5.259443
_cell_length_c 24.494315
_cell_angle_alpha 90.000000
_cell_angle_beta 90.000000
_cell_angle_gamma 90.000000
_cell_volume 1953.738967
_symmetry_space_group_name_H-M "I M A 2"
_symmetry_group_IT_number 46
_symmetry_cell_setting 'orthorhombic'
loop_
_space_group_symop_operation_xyz
x,y,z
-x,-y,z
1/2-x,y,z
1/2+x,-y,z
1/2+x,1/2+y,1/2+z
1/2-x,1/2-y,1/2+z
-x,1/2+y,1/2+z
x,1/2-y,1/2+z
loop_
_atom_site_type_symbol
_atom_site_label
_atom_site_fract_x
_atom_site_fract_y
_atom_site_fract_z
Si Si1 0.143986 0.555094 0.754450
Si Si2 0.851651 0.408343 0.078934
Si Si3 0.141953 0.090202 0.131341
Si Si4 0.250000 0.971777 0.905751
Si Si5 0.250000 0.029527 0.476099
Si Si6 0.402621 0.446862 0.318684
O O1 0.250000 0.540997 0.758396
O O2 0.118634 0.491052 0.692432
O O3 0.116508 0.836216 0.773179
O O4 0.106340 0.333210 0.793031
O O5 0.750000 0.386303 0.100502
O O6 0.893549 0.638063 0.112221
O O7 0.888557 0.131508 0.090458
O O8 0.833819 0.483929 0.016275
O O9 0.250000 0.111268 0.128606
O O10 0.250000 0.689747 0.930836
O O11 0.166710 0.014707 0.866783
O O12 0.250000 0.188493 0.952180
O O13 0.500000 0.500000 0.339439
#
# Coordination Sequence:
#
# PCOD9379217 Si02
#       6
#     8   8   8   4   4   8
#     4  11  20  37  60  90 122 162 193 244 294 360
#     4   8  15  27  44  82 116 137 180 244 283 342
#     4   9  15  26  50  80 120 139 184 230 282 352
#     4  12  22  40  57  84 115 156 210 254 300 344
#     4  10  20  32  57  82 121 144 200 264 288 354
#     4  12  25  41  60  87 125 162 204 253 303 355
#
# _framework density 20.473565000000001
#
# number of rings (size 3 to 8) (size 9 to 14) (size 15 to 20)
#    0.600    1.200    2.000    4.200    0.000    3.200 
#    0.000    0.000    0.000    0.000    0.000   28.000 
#    0.000    0.000    0.000    0.000    0.000    0.000 
#
# Total GULP energy -111611.321082 kJ/mol
# GULP energy per Si atom -5580.566054 kJ/mol
# Density = 2.042697 g / cm^3
# Si number density = 20.473565 Si / 1000 Ang^3
#
#
#
# Elastic Constant Matrix: (Units=GPa)
#
#
# Indices 1 2 3 4 5 6 
#
# 1 69.7217 -12.0832 5.8539 0.0000 0.0000 0.0000
# 2 -12.0832 72.9812 -15.7813 0.0000 0.0000 0.0000
# 3 5.8539 -15.7813 42.1525 0.0000 0.0000 0.0000
# 4 0.0000 0.0000 0.0000 41.9680 0.0000 0.0000
# 5 0.0000 0.0000 0.0000 0.0000 -18.9077 0.0000
# 6 0.0000 0.0000 0.0000 0.0000 0.0000 37.0618
#
#
#
# Elastic Compliance Matrix: (Units=1/GPa)
#
#
# Indices 1 2 3 4 5 6 
#
# 1 0.014826 0.002186 -0.001240 0.000000 0.000000 0.000000
# 2 0.002186 0.015232 0.005399 0.000000 0.000000 0.000000
# 3 -0.001240 0.005399 0.025917 0.000000 0.000000 0.000000
# 4 0.000000 0.000000 0.000000 0.023828 0.000000 0.000000
# 5 0.000000 0.000000 0.000000 0.000000 -0.052888 0.000000
# 6 0.000000 0.000000 0.000000 0.000000 0.000000 0.026982
#
#
# Mechanical properties :
#
#
# Convention : Reuss Voigt Hill
#
# Bulk Modulus (GPa) = 14.56363 15.64824 15.10594
# Shear Modulus (GPa) = 78.01092 25.81549 51.91321
#
# Velocity S-wave (km/s) = 6.17948 3.55479 5.04096
# Velocity P-wave (km/s) = 7.61862 4.95060 6.42464
#
# Compressibility (1/GPa) = 0.06866419
#
# Stress axis : x y z
#
# Youngs Moduli (GPa) = 67.45004 65.65296 38.58487
#
# Poissons Ratio (x) = -0.14355 0.04786
# Poissons Ratio (y) = -0.14747 -0.20831
# Poissons Ratio (z) = 0.08366 -0.35445
#
# Static dielectric constant tensor:
#      x y z
#    x 1.754520 0.000000 0.000000 
#    y 0.000000 1.729690 0.000000 
#    z 0.000000 0.000000 1.707830 
# 
# From -- ./inp_files/23556.got.cif
#   From: 2010.05.17/outbox.cif.g08.bks.cpg/sg46_12_cif.got.tgz:23556.got - 2010.06.03 19:58:25.
