data_PCOD9379338
_publ_section_title
;
Structure prediction by ZEFSAII (Michael W. Deem and Ramdas Pophale) SiO2 
 PCOD9379338
Probable space group: I M A 2
;
_chemical_formula_sum "Si O2"
_cell_formula_units_Z 64
_cell_length_a 8.793069
_cell_length_b 25.307440
_cell_length_c 15.348730
_cell_angle_alpha 90.000000
_cell_angle_beta 90.000000
_cell_angle_gamma 90.000000
_cell_volume 3415.553902
_symmetry_space_group_name_H-M "I M A 2"
_symmetry_group_IT_number 46
_symmetry_cell_setting 'orthorhombic'
loop_
_space_group_symop_operation_xyz
x,y,z
-x,-y,z
1/2-x,y,z
1/2+x,-y,z
1/2+x,1/2+y,1/2+z
1/2-x,1/2-y,1/2+z
-x,1/2+y,1/2+z
x,1/2-y,1/2+z
loop_
_atom_site_type_symbol
_atom_site_label
_atom_site_fract_x
_atom_site_fract_y
_atom_site_fract_z
Si Si1 0.932570 0.864625 0.877090
Si Si2 0.931683 0.608225 0.720017
Si Si3 0.430321 0.783160 0.183193
Si Si4 0.068748 0.145716 0.511491
Si Si5 0.431768 0.233637 0.994927
Si Si6 0.066650 0.058479 0.034025
Si Si7 0.931245 0.338053 0.200326
Si Si8 0.430748 0.943447 0.388995
O O1 0.750000 0.867929 0.865545
O O2 0.967394 0.807269 0.918788
O O3 0.013468 0.869480 0.784672
O O4 0.979259 0.907395 0.949739
O O5 0.750000 0.604637 0.728117
O O6 0.976965 0.587796 0.623841
O O7 0.983133 0.668943 0.728909
O O8 0.008750 0.573126 0.793880
O O9 0.250000 0.791041 0.191493
O O10 0.469157 0.724120 0.214925
O O11 0.479725 0.782948 0.081903
O O12 0.250000 0.138264 0.506975
O O13 0.034013 0.205059 0.476990
O O14 0.013442 0.144908 0.611494
O O15 0.986562 0.101558 0.455133
O O16 0.250000 0.229352 0.013184
O O17 0.250000 0.055941 0.033636
O O18 0.000000 0.000000 0.032128
O O19 0.750000 0.341954 0.188674
O O20 0.250000 0.946464 0.388235
O O21 0.500000 0.000000 0.413149
#
# Coordination Sequence:
#
# PCOD9379338 Si02
#       8
#     8   8   8   8   8   8   8   8
#     4  10  20  37  58  86 119 159 203 250 299 359
#     4  11  22  39  61  87 121 163 204 247 296 360
#     4  10  20  34  54  86 124 159 196 242 300 358
#     4  10  21  40  65  91 117 158 203 249 306 363
#     4   9  18  35  58  85 118 156 199 243 296 361
#     4  10  22  39  60  85 118 156 200 247 295 349
#     4  10  22  38  57  88 125 161 199 251 307 360
#     4  12  26  44  64  90 122 157 202 255 303 362
#
# _framework density 18.737811000000001
#
# number of rings (size 3 to 8) (size 9 to 14) (size 15 to 20)
#    0.000    1.750    1.250    3.000    1.750    5.000 
#    0.000    0.625    0.000    1.500    0.000    0.000 
#    0.000    0.000    0.000    0.000    0.000    0.000 
#
# Total GULP energy -178816.837908 kJ/mol
# GULP energy per Si atom -5588.026185 kJ/mol
# Density = 1.869516 g / cm^3
# Si number density = 18.737811 Si / 1000 Ang^3
#
#
#
# Elastic Constant Matrix: (Units=GPa)
#
#
# Indices 1 2 3 4 5 6 
#
# 1 57.4394 45.3390 29.3189 0.0000 0.0000 0.0000
# 2 45.3390 103.6546 46.9435 0.0000 0.0000 0.0000
# 3 29.3189 46.9435 78.0666 0.0001 0.0000 0.0000
# 4 0.0000 0.0000 0.0001 24.9319 0.0000 0.0000
# 5 0.0000 0.0000 0.0000 0.0000 29.4464 0.0000
# 6 0.0000 0.0000 0.0000 0.0000 0.0000 30.3177
#
#
#
# Elastic Compliance Matrix: (Units=1/GPa)
#
#
# Indices 1 2 3 4 5 6 
#
# 1 0.027587 -0.010134 -0.004267 0.000000 0.000000 0.000000
# 2 -0.010134 0.016981 -0.006405 0.000000 0.000000 0.000000
# 3 -0.004267 -0.006405 0.018263 0.000000 0.000000 0.000000
# 4 0.000000 0.000000 0.000000 0.040109 0.000000 0.000000
# 5 0.000000 0.000000 0.000000 0.000000 0.033960 0.000000
# 6 0.000000 0.000000 0.000000 0.000000 0.000000 0.032984
#
#
# Mechanical properties :
#
#
# Convention : Reuss Voigt Hill
#
# Bulk Modulus (GPa) = 47.12665 53.59594 50.36129
# Shear Modulus (GPa) = 22.87603 24.77649 23.82626
#
# Velocity S-wave (km/s) = 3.49785 3.64025 3.56976
# Velocity P-wave (km/s) = 6.44348 6.80689 6.62768
#
# Compressibility (1/GPa) = 0.02121941
#
# Stress axis : x y z
#
# Youngs Moduli (GPa) = 36.24919 58.88941 54.75414
#
# Poissons Ratio (x) = 0.59681 0.23361
# Poissons Ratio (y) = 0.36736 0.35070
# Poissons Ratio (z) = 0.15466 0.37719
#
# Static dielectric constant tensor:
#      x y z
#    x 1.625320 0.000000 0.000000 
#    y 0.000000 1.638480 0.000000 
#    z 0.000000 0.000000 1.633300 
# 
# From -- ./inp_files/14428.got.cif
#   From: 2010.05.17/outbox.cif.g08.bks.cpg/sg46_8_cif.got.tgz:14428.got - 2010.06.03 19:58:25.
