data_PCOD9379358
_publ_section_title
;
Structure prediction by ZEFSAII (Michael W. Deem and Ramdas Pophale) SiO2 
 PCOD9379358
Probable space group: I M A 2
;
_chemical_formula_sum "Si O2"
_cell_formula_units_Z 56
_cell_length_a 16.436239
_cell_length_b 5.125666
_cell_length_c 33.713672
_cell_angle_alpha 90.000000
_cell_angle_beta 90.000000
_cell_angle_gamma 90.000000
_cell_volume 2840.264647
_symmetry_space_group_name_H-M "I M A 2"
_symmetry_group_IT_number 46
_symmetry_cell_setting 'orthorhombic'
loop_
_space_group_symop_operation_xyz
x,y,z
-x,-y,z
1/2-x,y,z
1/2+x,-y,z
1/2+x,1/2+y,1/2+z
1/2-x,1/2-y,1/2+z
-x,1/2+y,1/2+z
x,1/2-y,1/2+z
loop_
_atom_site_type_symbol
_atom_site_label
_atom_site_fract_x
_atom_site_fract_y
_atom_site_fract_z
Si Si1 0.152492 0.867108 0.259610
Si Si2 0.651571 0.867044 0.710745
Si Si3 0.056186 0.249478 0.630477
Si Si4 0.557541 0.248079 0.838302
Si Si5 0.442048 0.748765 0.426097
Si Si6 0.594746 0.085583 0.508748
Si Si7 0.345012 0.407895 0.552762
O O1 0.250000 0.865945 0.261631
O O2 0.127716 0.648124 0.227776
O O3 0.118384 0.791102 0.302280
O O4 0.126892 0.148191 0.242966
O O5 0.750000 0.857490 0.706544
O O6 0.609637 0.810556 0.669147
O O7 0.112914 0.313178 0.593087
O O8 0.000000 0.500000 0.638001
O O9 0.000000 0.000000 0.621600
O O10 0.500000 0.500000 0.838962
O O11 0.595833 0.213894 0.882376
O O12 0.500000 0.000000 0.831449
O O13 0.500000 0.500000 0.434351
O O14 0.387534 0.809705 0.464298
O O15 0.500000 0.000000 0.422901
O O16 0.612137 0.328763 0.537425
O O17 0.500000 0.000000 0.510409
O O18 0.643454 0.829110 0.521660
O O19 0.250000 0.461336 0.558663
#
# Coordination Sequence:
#
# PCOD9379358 Si02
#       7
#     8   8   8   8   8   8   8
#     4  10  21  37  57  81 113 151 185 224 283 343
#     4  10  22  40  58  79 112 150 185 228 286 341
#     4  12  25  40  61  87 113 145 192 239 282 337
#     4  10  20  34  56  84 113 146 189 235 278 329
#     4   9  18  33  56  85 113 146 187 236 287 331
#     4  11  21  39  65  87 114 155 201 242 283 342
#     4  12  25  41  60  87 122 155 189 236 297 351
#
# _framework density 19.716472
#
# number of rings (size 3 to 8) (size 9 to 14) (size 15 to 20)
#    0.000    1.429    0.000    6.857    0.000    3.429 
#    0.000    5.714    0.000    1.714    0.000    0.000 
#    0.000    0.000    0.000    0.000    0.000    0.000 
#
# Total GULP energy -156486.095902 kJ/mol
# GULP energy per Si atom -5588.789139 kJ/mol
# Density = 1.967160 g / cm^3
# Si number density = 19.716472 Si / 1000 Ang^3
#
#
#
# Elastic Constant Matrix: (Units=GPa)
#
#
# Indices 1 2 3 4 5 6 
#
# 1 43.7572 17.8032 35.9517 0.0000 0.0000 0.0000
# 2 17.8032 111.7964 1.4606 0.0000 0.0000 0.0000
# 3 35.9517 1.4606 98.7835 0.0000 0.0000 0.0000
# 4 0.0000 0.0000 0.0000 33.0631 0.0000 0.0000
# 5 0.0000 0.0000 0.0000 0.0000 1690.1044 0.0000
# 6 0.0000 0.0000 0.0000 0.0000 0.0000 17.6809
#
#
#
# Elastic Compliance Matrix: (Units=1/GPa)
#
#
# Indices 1 2 3 4 5 6 
#
# 1 0.035709 -0.005518 -0.012915 0.000000 0.000000 0.000000
# 2 -0.005518 0.009799 0.001863 0.000000 0.000000 0.000000
# 3 -0.012915 0.001863 0.014796 0.000000 0.000000 0.000000
# 4 0.000000 0.000000 0.000000 0.030245 0.000000 0.000000
# 5 0.000000 0.000000 0.000000 0.000000 0.000592 0.000000
# 6 0.000000 0.000000 0.000000 0.000000 0.000000 0.056558
#
#
# Mechanical properties :
#
#
# Convention : Reuss Voigt Hill
#
# Bulk Modulus (GPa) = 36.81080 40.52980 38.67030
# Shear Modulus (GPa) = 26.33067 361.44446 193.88757
#
# Velocity S-wave (km/s) = 3.65837 13.55430 9.92730
# Velocity P-wave (km/s) = 6.04611 16.29600 12.29055
#
# Compressibility (1/GPa) = 0.02716594
#
# Stress axis : x y z
#
# Youngs Moduli (GPa) = 28.00401 102.04930 67.58691
#
# Poissons Ratio (x) = 0.56309 0.87285
# Poissons Ratio (y) = 0.15452 -0.12593
# Poissons Ratio (z) = 0.36166 -0.19015
#
# Static dielectric constant tensor:
#      x y z
#    x 1.643080 0.000000 0.000000 
#    y 0.000000 1.671790 0.000000 
#    z 0.000000 0.000000 1.720450 
# 
# From -- ./inp_files/25396.got.cif
#   From: 2010.05.17/outbox.cif.g08.bks.cpg/sg46_13_cif.got.tgz:25396.got - 2010.06.03 19:58:25.
