data_PCOD9379286
_publ_section_title
;
Structure prediction by ZEFSAII (Michael W. Deem and Ramdas Pophale) SiO2 
 PCOD9379286
Probable space group: I M A 2
;
_chemical_formula_sum "Si O2"
_cell_formula_units_Z 44
_cell_length_a 16.745077
_cell_length_b 10.497019
_cell_length_c 9.615928
_cell_angle_alpha 90.000000
_cell_angle_beta 90.000000
_cell_angle_gamma 90.000000
_cell_volume 1690.224276
_symmetry_space_group_name_H-M "I M A 2"
_symmetry_group_IT_number 46
_symmetry_cell_setting 'orthorhombic'
loop_
_space_group_symop_operation_xyz
x,y,z
-x,-y,z
1/2-x,y,z
1/2+x,-y,z
1/2+x,1/2+y,1/2+z
1/2-x,1/2-y,1/2+z
-x,1/2+y,1/2+z
x,1/2-y,1/2+z
loop_
_atom_site_type_symbol
_atom_site_label
_atom_site_fract_x
_atom_site_fract_y
_atom_site_fract_z
Si Si1 0.164758 0.155857 0.716910
Si Si2 0.159132 0.783257 0.105678
Si Si3 0.500000 0.000000 0.436537
Si Si4 0.008434 0.251776 0.630815
Si Si5 0.081869 0.020046 0.943246
Si Si6 0.165759 0.980384 0.440203
O O1 0.250000 0.223774 0.720523
O O2 0.083261 0.232574 0.730723
O O3 0.154269 0.064586 0.847123
O O4 0.162870 0.074819 0.574141
O O5 0.250000 0.800705 0.160624
O O6 0.165983 0.661016 0.004693
O O7 0.079901 0.756209 0.199668
O O8 0.122848 0.903019 0.023201
O O9 0.501476 0.872182 0.530421
O O10 0.416034 0.998929 0.357774
O O11 0.042431 0.372831 0.543937
O O12 0.000000 0.000000 0.852432
O O13 0.250000 0.004677 0.368400
#
# Coordination Sequence:
#
# PCOD9379286 Si02
#       6
#     8   8   4   8   8   8
#     4  10  20  33  55  83 112 152 195 239 291 352
#     4   9  17  32  53  77 110 144 186 239 291 343
#     4   8  14  28  52  68 100 136 172 224 272 328
#     4   9  19  34  54  81 112 149 190 234 295 343
#     4  10  21  33  54  84 113 151 191 239 293 346
#     4   8  15  27  47  75  99 135 182 223 276 330
#
# _framework density 26.032049000000001
#
# number of rings (size 3 to 8) (size 9 to 14) (size 15 to 20)
#    0.000    2.909    0.000    0.545    7.636    1.455 
#    0.000    0.000    6.000    2.182    0.000    2.545 
#    0.000    0.000    0.000    0.000    0.000    0.000 
#
# Total GULP energy -122584.822477 kJ/mol
# GULP energy per Si atom -5572.037385 kJ/mol
# Density = 2.597280 g / cm^3
# Si number density = 26.032049 Si / 1000 Ang^3
#
#
#
# Elastic Constant Matrix: (Units=GPa)
#
#
# Indices 1 2 3 4 5 6 
#
# 1 337.1534 26.7232 19.5734 0.0000 0.0000 0.0000
# 2 26.7232 93.3088 8.1596 0.0000 0.0000 0.0000
# 3 19.5734 8.1596 28.0828 0.0000 0.0000 0.0000
# 4 0.0000 0.0000 0.0000 41.0186 0.0000 0.0000
# 5 0.0000 0.0000 0.0000 0.0000 -12.2746 0.0000
# 6 0.0000 0.0000 0.0000 0.0000 0.0000 3.7899
#
#
#
# Elastic Compliance Matrix: (Units=1/GPa)
#
#
# Indices 1 2 3 4 5 6 
#
# 1 0.003138 -0.000726 -0.001976 0.000000 0.000000 0.000000
# 2 -0.000726 0.011164 -0.002738 0.000000 0.000000 0.000000
# 3 -0.001976 -0.002738 0.037782 0.000000 0.000000 0.000000
# 4 0.000000 0.000000 0.000000 0.024379 0.000000 0.000000
# 5 0.000000 0.000000 0.000000 0.000000 -0.081469 0.000000
# 6 0.000000 0.000000 0.000000 0.000000 0.000000 0.263862
#
#
# Mechanical properties :
#
#
# Convention : Reuss Voigt Hill
#
# Bulk Modulus (GPa) = 24.26933 63.05079 43.66006
# Shear Modulus (GPa) = 17.63841 33.44602 25.54221
#
# Velocity S-wave (km/s) = 2.60583 3.58830 3.13578
# Velocity P-wave (km/s) = 4.28916 6.43746 5.46982
#
# Compressibility (1/GPa) = 0.04120426
#
# Stress axis : x y z
#
# Youngs Moduli (GPa) = 318.64483 89.57011 26.46757
#
# Poissons Ratio (x) = 0.06502 0.05231
# Poissons Ratio (y) = 0.23132 0.07247
# Poissons Ratio (z) = 0.62978 0.24523
#
# Static dielectric constant tensor:
#      x y z
#    x 2.141670 0.000000 0.000000 
#    y 0.000000 2.426140 0.000000 
#    z 0.000000 0.000000 2.006420 
# 
# From -- ./inp_files/11724.got.cif
#   From: 2010.05.17/outbox.cif.g08.bks.cpg/sg46_6_cif.got.tgz:11724.got - 2010.06.03 19:58:25.
