data_PCOD9379271
_publ_section_title
;
Structure prediction by ZEFSAII (Michael W. Deem and Ramdas Pophale) SiO2 
 PCOD9379271
Probable space group: I M A 2
;
_chemical_formula_sum "Si O2"
_cell_formula_units_Z 48
_cell_length_a 8.659913
_cell_length_b 9.450926
_cell_length_c 32.064267
_cell_angle_alpha 90.000000
_cell_angle_beta 90.000000
_cell_angle_gamma 90.000000
_cell_volume 2624.274183
_symmetry_space_group_name_H-M "I M A 2"
_symmetry_group_IT_number 46
_symmetry_cell_setting 'orthorhombic'
loop_
_space_group_symop_operation_xyz
x,y,z
-x,-y,z
1/2-x,y,z
1/2+x,-y,z
1/2+x,1/2+y,1/2+z
1/2-x,1/2-y,1/2+z
-x,1/2+y,1/2+z
x,1/2-y,1/2+z
loop_
_atom_site_type_symbol
_atom_site_label
_atom_site_fract_x
_atom_site_fract_y
_atom_site_fract_z
Si Si1 0.565508 0.658682 0.960450
Si Si2 0.434347 0.840351 0.545829
Si Si3 0.565263 0.658407 0.714775
Si Si4 0.435761 0.342433 0.380092
Si Si5 0.565075 0.159242 0.790892
Si Si6 0.064199 0.839778 0.638625
O O1 0.500000 0.500000 0.956906
O O2 0.750000 0.651250 0.962927
O O3 0.521973 0.746810 0.919588
O O4 0.503505 0.724929 0.003765
O O5 0.250000 0.845185 0.541972
O O6 0.472645 0.783249 0.591869
O O7 0.500000 0.000000 0.546428
O O8 0.500000 0.500000 0.713916
O O9 0.750000 0.656202 0.716306
O O10 0.499641 0.741095 0.754830
O O11 0.508748 0.743196 0.674065
O O12 0.500000 0.500000 0.386682
O O13 0.250000 0.346818 0.376240
O O14 0.507261 0.291394 0.336397
O O15 0.750000 0.154922 0.789740
O O16 0.500000 0.000000 0.785018
O O17 0.250000 0.844127 0.642985
O O18 0.000000 0.000000 0.642206
#
# Coordination Sequence:
#
# PCOD9379271 Si02
#       6
#     8   8   8   8   8   8
#     4  10  20  33  53  80 111 144 182 225 271 322
#     4   9  17  30  52  79 109 142 181 225 268 315
#     4  12  25  41  59  82 113 146 180 225 277 331
#     4  10  21  37  56  81 110 143 183 227 272 323
#     4  11  22  39  62  85 110 144 184 227 271 324
#     4  10  20  36  58  85 112 145 187 229 272 323
#
# _framework density 18.290772
#
# number of rings (size 3 to 8) (size 9 to 14) (size 15 to 20)
#    0.000    1.667    0.000    7.500    0.000    5.333 
#    0.000    2.500    0.000    2.000    0.000    0.000 
#    0.000    0.000    0.000    0.000    0.000    0.000 
#
# Total GULP energy -134024.041476 kJ/mol
# GULP energy per Si atom -5584.335062 kJ/mol
# Density = 1.824914 g / cm^3
# Si number density = 18.290772 Si / 1000 Ang^3
#
#
#
# Elastic Constant Matrix: (Units=GPa)
#
#
# Indices 1 2 3 4 5 6 
#
# 1 125.9052 45.1172 90.1540 0.0000 0.0000 0.0000
# 2 45.1172 72.6174 94.0889 0.0000 0.0000 0.0000
# 3 90.1540 94.0889 225.0800 0.0000 0.0000 0.0000
# 4 0.0000 0.0000 0.0000 29.0393 0.0000 0.0000
# 5 0.0000 0.0000 0.0000 0.0000 38.0063 0.0000
# 6 0.0000 0.0000 0.0000 0.0000 0.0000 29.0079
#
#
#
# Elastic Compliance Matrix: (Units=1/GPa)
#
#
# Indices 1 2 3 4 5 6 
#
# 1 0.011346 -0.002533 -0.003486 0.000000 0.000000 0.000000
# 2 -0.002533 0.030608 -0.011780 0.000000 0.000000 0.000000
# 3 -0.003486 -0.011780 0.010764 0.000000 0.000000 0.000000
# 4 0.000000 0.000000 0.000000 0.034436 0.000000 0.000000
# 5 0.000000 0.000000 0.000000 0.000000 0.026311 0.000000
# 6 0.000000 0.000000 0.000000 0.000000 0.000000 0.034473
#
#
# Mechanical properties :
#
#
# Convention : Reuss Voigt Hill
#
# Bulk Modulus (GPa) = 58.41248 98.03587 78.22418
# Shear Modulus (GPa) = 26.42102 32.16021 29.29062
#
# Velocity S-wave (km/s) = 3.80478 4.19773 4.00608
# Velocity P-wave (km/s) = 7.16286 8.78689 8.01611
#
# Compressibility (1/GPa) = 0.01711963
#
# Stress axis : x y z
#
# Youngs Moduli (GPa) = 88.13599 32.67110 92.90614
#
# Poissons Ratio (x) = 0.08275 0.32385
# Poissons Ratio (y) = 0.22324 1.09447
# Poissons Ratio (z) = 0.30722 0.38488
#
# Static dielectric constant tensor:
#      x y z
#    x 1.611310 0.000000 0.000000 
#    y 0.000000 1.592110 0.000000 
#    z 0.000000 0.000000 1.658520 
# 
# From -- ./inp_files/25001.got.cif
#   From: 2010.05.17/outbox.cif.g08.bks.cpg/sg46_13_cif.got.tgz:25001.got - 2010.06.03 19:58:25.
