data_PCOD9379230
_publ_section_title
;
Structure prediction by ZEFSAII (Michael W. Deem and Ramdas Pophale) SiO2 
 PCOD9379230
Probable space group: I M A 2
;
_chemical_formula_sum "Si O2"
_cell_formula_units_Z 40
_cell_length_a 14.706327
_cell_length_b 7.396065
_cell_length_c 14.025125
_cell_angle_alpha 90.000000
_cell_angle_beta 90.000000
_cell_angle_gamma 90.000000
_cell_volume 1525.498126
_symmetry_space_group_name_H-M "I M A 2"
_symmetry_group_IT_number 46
_symmetry_cell_setting 'orthorhombic'
loop_
_space_group_symop_operation_xyz
x,y,z
-x,-y,z
1/2-x,y,z
1/2+x,-y,z
1/2+x,1/2+y,1/2+z
1/2-x,1/2-y,1/2+z
-x,1/2+y,1/2+z
x,1/2-y,1/2+z
loop_
_atom_site_type_symbol
_atom_site_label
_atom_site_fract_x
_atom_site_fract_y
_atom_site_fract_z
Si Si1 0.353122 0.835508 0.241740
Si Si2 0.652207 0.897402 0.748793
Si Si3 0.503216 0.244968 0.882964
Si Si4 0.904416 0.935994 0.556012
Si Si5 0.852151 0.160589 0.024988
O O1 0.250000 0.897466 0.263236
O O2 0.349593 0.615668 0.241105
O O3 0.426982 0.872782 0.322586
O O4 0.376763 0.893035 0.133533
O O5 0.750000 0.844427 0.790566
O O6 0.565623 0.831086 0.805467
O O7 0.646447 0.831992 0.639098
O O8 0.439575 0.327724 0.965406
O O9 0.574590 0.120588 0.943743
O O10 0.853174 0.119083 0.527534
O O11 0.000000 0.000000 0.602683
O O12 0.750000 0.098475 0.002764
#
# Coordination Sequence:
#
# PCOD9379230 Si02
#       5
#     8   8   8   8   8
#     4   9  18  34  54  75  99 127 162 203 245 290
#     4  10  20  33  50  72 100 133 165 201 243 287
#     4  11  18  28  51  81 101 121 161 207 248 286
#     4   9  18  32  51  73  98 127 162 203 245 288
#     4   9  18  33  53  75  99 128 162 202 245 289
#
# _framework density 26.220942000000001
#
# number of rings (size 3 to 8) (size 9 to 14) (size 15 to 20)
#    0.000    2.400    0.000    6.600    0.000    1.600 
#    0.000    0.000    0.000   28.800    0.000   28.000 
#    0.000    0.000    0.000    0.000    0.000    0.000 
#
# Total GULP energy -111851.474740 kJ/mol
# GULP energy per Si atom -5592.573737 kJ/mol
# Density = 2.616126 g / cm^3
# Si number density = 26.220942 Si / 1000 Ang^3
#
#
#
# Elastic Constant Matrix: (Units=GPa)
#
#
# Indices 1 2 3 4 5 6 
#
# 1 182.1237 5.9843 90.6593 0.0000 0.0000 0.0000
# 2 5.9843 50.8549 21.4038 0.0000 0.0000 0.0000
# 3 90.6593 21.4038 198.5335 0.0000 0.0000 0.0000
# 4 0.0000 0.0000 0.0000 29.6701 0.0000 0.0000
# 5 0.0000 0.0000 0.0000 0.0000 31.0746 0.0000
# 6 0.0000 0.0000 0.0000 0.0000 0.0000 24.5172
#
#
#
# Elastic Compliance Matrix: (Units=1/GPa)
#
#
# Indices 1 2 3 4 5 6 
#
# 1 0.007121 0.000556 -0.003312 0.000000 0.000000 0.000000
# 2 0.000556 0.020642 -0.002479 0.000000 0.000000 0.000000
# 3 -0.003312 -0.002479 0.006816 0.000000 0.000000 0.000000
# 4 0.000000 0.000000 0.000000 0.033704 0.000000 0.000000
# 5 0.000000 0.000000 0.000000 0.000000 0.032181 0.000000
# 6 0.000000 0.000000 0.000000 0.000000 0.000000 0.040788
#
#
# Mechanical properties :
#
#
# Convention : Reuss Voigt Hill
#
# Bulk Modulus (GPa) = 41.47790 74.17855 57.82822
# Shear Modulus (GPa) = 31.29729 37.95002 34.62366
#
# Velocity S-wave (km/s) = 3.45860 3.80849 3.63775
# Velocity P-wave (km/s) = 5.63934 6.90584 6.30448
#
# Compressibility (1/GPa) = 0.02410923
#
# Stress axis : x y z
#
# Youngs Moduli (GPa) = 140.42881 48.44535 146.70301
#
# Poissons Ratio (x) = -0.02693 0.48584
# Poissons Ratio (y) = -0.07806 0.36371
# Poissons Ratio (z) = 0.46506 0.12011
#
# Static dielectric constant tensor:
#      x y z
#    x 2.024180 0.000000 0.000000 
#    y 0.000000 2.154590 0.000000 
#    z 0.000000 0.000000 2.036420 
# 
# From -- ./inp_files/10909.got.cif
#   From: 2010.05.17/outbox.cif.g08.bks.cpg/sg46_6_cif.got.tgz:10909.got - 2010.06.03 19:58:25.
