data_PCOD9379343
_publ_section_title
;
Structure prediction by ZEFSAII (Michael W. Deem and Ramdas Pophale) SiO2 
 PCOD9379343
Probable space group: I M A 2
;
_chemical_formula_sum "Si O2"
_cell_formula_units_Z 64
_cell_length_a 17.894289
_cell_length_b 20.283841
_cell_length_c 9.855705
_cell_angle_alpha 90.000000
_cell_angle_beta 90.000000
_cell_angle_gamma 90.000000
_cell_volume 3577.275107
_symmetry_space_group_name_H-M "I M A 2"
_symmetry_group_IT_number 46
_symmetry_cell_setting 'orthorhombic'
loop_
_space_group_symop_operation_xyz
x,y,z
-x,-y,z
1/2-x,y,z
1/2+x,-y,z
1/2+x,1/2+y,1/2+z
1/2-x,1/2-y,1/2+z
-x,1/2+y,1/2+z
x,1/2-y,1/2+z
loop_
_atom_site_type_symbol
_atom_site_label
_atom_site_fract_x
_atom_site_fract_y
_atom_site_fract_z
Si Si1 0.115025 0.485561 0.948020
Si Si2 0.485895 0.891049 0.476685
Si Si3 0.023451 0.351484 0.277660
Si Si4 0.335758 0.712266 0.638120
Si Si5 0.569449 0.244735 0.380399
Si Si6 0.575552 0.458671 0.407658
Si Si7 0.664833 0.941236 0.739330
Si Si8 0.166816 0.944636 0.173789
O O1 0.055967 0.428257 0.907886
O O2 0.153560 0.516687 0.815075
O O3 0.069606 0.548377 0.006651
O O4 0.158224 0.455005 0.077028
O O5 0.509624 0.858124 0.617743
O O6 0.448010 0.832864 0.394246
O O7 0.104129 0.386865 0.291204
O O8 0.008275 0.279260 0.336166
O O9 0.955025 0.389756 0.351868
O O10 0.250000 0.730347 0.604249
O O11 0.392467 0.727203 0.515800
O O12 0.368976 0.752888 0.763282
O O13 0.334878 0.635072 0.680328
O O14 0.500000 0.500000 0.396385
O O15 0.637916 0.491923 0.313265
O O16 0.605722 0.460534 0.560084
O O17 0.750000 0.924346 0.772310
O O18 0.250000 0.962666 0.124745
#
# Coordination Sequence:
#
# PCOD9379343 Si02
#       8
#     8   8   8   8   8   8   8   8
#     4  10  20  36  58  83 111 142 192 240 285 340
#     4  10  20  35  58  83 108 146 195 239 277 340
#     4  10  20  37  57  84 113 149 197 232 278 353
#     4  11  24  36  53  82 120 156 191 230 284 347
#     4  12  21  39  58  79 117 159 195 235 284 342
#     4  10  20  34  55  81 112 148 183 228 280 342
#     4  10  20  37  61  85 111 146 190 242 295 339
#     4  11  22  35  51  83 119 146 179 230 287 337
#
# _framework density 17.890713000000002
#
# number of rings (size 3 to 8) (size 9 to 14) (size 15 to 20)
#    0.000    1.500    5.000    1.125    1.750    0.000 
#    0.000    1.250    0.000    3.750    0.000    0.000 
#    0.000    0.000    0.000    0.000    0.000    0.000 
#
# Total GULP energy -178165.785868 kJ/mol
# GULP energy per Si atom -5567.680808 kJ/mol
# Density = 1.784999 g / cm^3
# Si number density = 17.890713 Si / 1000 Ang^3
#
#
#
# Elastic Constant Matrix: (Units=GPa)
#
#
# Indices 1 2 3 4 5 6 
#
# 1 96.6194 31.1847 21.9747 0.0000 0.0000 0.0000
# 2 31.1847 66.0428 12.4083 0.0000 0.0000 0.0000
# 3 21.9747 12.4083 69.9269 0.0000 0.0000 0.0000
# 4 0.0000 0.0000 0.0000 19.4195 0.0000 0.0000
# 5 0.0000 0.0000 0.0000 0.0000 22.1721 0.0000
# 6 0.0000 0.0000 0.0000 0.0000 0.0000 -23.0214
#
#
#
# Elastic Compliance Matrix: (Units=1/GPa)
#
#
# Indices 1 2 3 4 5 6 
#
# 1 0.012812 -0.005476 -0.003055 0.000000 0.000000 0.000000
# 2 -0.005476 0.018004 -0.001474 0.000000 0.000000 0.000000
# 3 -0.003055 -0.001474 0.015522 0.000000 0.000000 0.000000
# 4 0.000000 0.000000 0.000000 0.051495 0.000000 0.000000
# 5 0.000000 0.000000 0.000000 0.000000 0.045102 0.000000
# 6 0.000000 0.000000 0.000000 0.000000 0.000000 -0.043438
#
#
# Mechanical properties :
#
#
# Convention : Reuss Voigt Hill
#
# Bulk Modulus (GPa) = 37.97999 40.41382 39.19691
# Shear Modulus (GPa) = 38.97671 14.84882 26.91276
#
# Velocity S-wave (km/s) = 4.67261 2.88405 3.88272
# Velocity P-wave (km/s) = 7.09831 5.80764 6.48516
#
# Compressibility (1/GPa) = 0.02632965
#
# Stress axis : x y z
#
# Youngs Moduli (GPa) = 78.05218 55.54250 64.42425
#
# Poissons Ratio (x) = 0.30414 0.19679
# Poissons Ratio (y) = 0.42740 0.09496
# Poissons Ratio (z) = 0.23841 0.08187
#
# Static dielectric constant tensor:
#      x y z
#    x 1.620780 0.000000 0.000000 
#    y 0.000000 1.665480 0.000000 
#    z 0.000000 0.000000 1.620440 
# 
# From -- ./inp_files/6952.got.cif
#   From: 2010.05.17/outbox.cif.g08.bks.cpg/sg46_4_cif.got.tgz:6952.got - 2010.06.03 19:58:25.
