data_PCOD9379522
_publ_section_title
;
Structure prediction by ZEFSAII (Michael W. Deem and Ramdas Pophale) SiO2 
 PCOD9379522
Probable space group: I M A 2
;
_chemical_formula_sum "Si O2"
_cell_formula_units_Z 60
_cell_length_a 14.538641
_cell_length_b 20.382249
_cell_length_c 10.402809
_cell_angle_alpha 90.000000
_cell_angle_beta 90.000000
_cell_angle_gamma 90.000000
_cell_volume 3082.666482
_symmetry_space_group_name_H-M "I M A 2"
_symmetry_group_IT_number 46
_symmetry_cell_setting 'orthorhombic'
loop_
_space_group_symop_operation_xyz
x,y,z
-x,-y,z
1/2-x,y,z
1/2+x,-y,z
1/2+x,1/2+y,1/2+z
1/2-x,1/2-y,1/2+z
-x,1/2+y,1/2+z
x,1/2-y,1/2+z
loop_
_atom_site_type_symbol
_atom_site_label
_atom_site_fract_x
_atom_site_fract_y
_atom_site_fract_z
Si Si1 0.000000 0.000000 0.432431
Si Si2 0.356095 0.684898 0.054871
Si Si3 0.853982 0.406764 0.808528
Si Si4 0.142682 0.660572 0.533345
Si Si5 0.513809 0.572343 0.430805
Si Si6 0.860641 0.819309 0.018441
Si Si7 0.530297 0.606252 0.145754
Si Si8 0.639844 0.773809 0.738902
O O1 0.959934 0.943660 0.527568
O O2 0.075371 0.963238 0.347025
O O3 0.250000 0.679399 0.103590
O O4 0.378320 0.761963 0.042951
O O5 0.433041 0.644983 0.133233
O O6 0.358803 0.650373 0.915730
O O7 0.750000 0.433266 0.810751
O O8 0.869728 0.372954 0.672184
O O9 0.250000 0.654860 0.495368
O O10 0.074146 0.619760 0.444560
O O11 0.500000 0.500000 0.483835
O O12 0.596219 0.609592 0.501440
O O13 0.535623 0.568315 0.280013
O O14 0.750000 0.821128 0.018008
O O15 0.890748 0.780113 0.887852
O O16 0.892751 0.786479 0.151176
O O17 0.606852 0.662323 0.160967
O O18 0.750000 0.771705 0.741990
#
# Coordination Sequence:
#
# PCOD9379522 Si02
#       8
#     4   8   8   8   8   8   8   8
#     4  10  20  38  58  80 114 152 188 234 276 330
#     4   9  19  36  59  85 111 142 184 236 287 331
#     4   9  20  38  59  84 114 148 190 234 279 337
#     4  10  22  38  58  84 114 149 188 233 285 338
#     4  11  23  37  55  80 116 152 188 225 276 339
#     4   9  19  38  60  83 111 144 185 237 287 335
#     4  10  20  36  56  84 111 145 189 232 278 337
#     4   9  18  35  58  83 111 142 185 237 287 333
#
# _framework density 19.46367
#
# number of rings (size 3 to 8) (size 9 to 14) (size 15 to 20)
#    0.000    2.400    0.667    0.800    2.800    1.600 
#    7.200    0.000    0.000    0.000    0.000    0.000 
#    0.000    0.000    0.000    0.000    0.000    0.000 
#
# Total GULP energy -167343.191522 kJ/mol
# GULP energy per Si atom -5578.106384 kJ/mol
# Density = 1.941937 g / cm^3
# Si number density = 19.463670 Si / 1000 Ang^3
#
#
#
# Elastic Constant Matrix: (Units=GPa)
#
#
# Indices 1 2 3 4 5 6 
#
# 1 38.1554 29.1990 18.5213 0.0000 0.0000 0.0000
# 2 29.1990 109.8127 21.7987 0.0000 0.0000 0.0000
# 3 18.5213 21.7987 44.1565 0.0000 0.0000 0.0000
# 4 0.0000 0.0000 0.0000 4.9372 0.0000 0.0000
# 5 0.0000 0.0000 0.0000 0.0000 13.0992 0.0000
# 6 0.0000 0.0000 0.0000 0.0000 0.0000 32.9200
#
#
#
# Elastic Compliance Matrix: (Units=1/GPa)
#
#
# Indices 1 2 3 4 5 6 
#
# 1 0.037985 -0.007691 -0.012136 0.000000 0.000000 0.000000
# 2 -0.007691 0.011653 -0.002527 0.000000 0.000000 0.000000
# 3 -0.012136 -0.002527 0.028984 0.000000 0.000000 0.000000
# 4 0.000000 0.000000 0.000000 0.202542 0.000000 0.000000
# 5 0.000000 0.000000 0.000000 0.000000 0.076341 0.000000
# 6 0.000000 0.000000 0.000000 0.000000 0.000000 0.030377
#
#
# Mechanical properties :
#
#
# Convention : Reuss Voigt Hill
#
# Bulk Modulus (GPa) = 29.48526 36.79584 33.14055
# Shear Modulus (GPa) = 11.26392 18.36498 14.81445
#
# Velocity S-wave (km/s) = 2.40826 3.07506 2.76186
# Velocity P-wave (km/s) = 4.78693 5.61729 5.21865
#
# Compressibility (1/GPa) = 0.03391525
#
# Stress axis : x y z
#
# Youngs Moduli (GPa) = 26.32585 85.81436 34.50121
#
# Poissons Ratio (x) = 0.66002 0.41871
# Poissons Ratio (y) = 0.20248 0.08717
# Poissons Ratio (z) = 0.31949 0.21683
#
# Static dielectric constant tensor:
#      x y z
#    x 1.689920 0.000000 0.000000 
#    y 0.000000 1.681080 0.000000 
#    z 0.000000 0.000000 1.691250 
# 
# From -- ./inp_files/11272.got.cif
#   From: 2010.05.17/outbox.cif.g08.bks.cpg/sg46_6_cif.got.tgz:11272.got - 2010.06.03 19:58:25.
