data_PCOD9379391
_publ_section_title
;
Structure prediction by ZEFSAII (Michael W. Deem and Ramdas Pophale) SiO2 
 PCOD9379391
Probable space group: I M A 2
;
_chemical_formula_sum "Si O2"
_cell_formula_units_Z 60
_cell_length_a 31.081267
_cell_length_b 15.664846
_cell_length_c 5.172939
_cell_angle_alpha 90.000000
_cell_angle_beta 90.000000
_cell_angle_gamma 90.000000
_cell_volume 2518.617409
_symmetry_space_group_name_H-M "I M A 2"
_symmetry_group_IT_number 46
_symmetry_cell_setting 'orthorhombic'
loop_
_space_group_symop_operation_xyz
x,y,z
-x,-y,z
1/2-x,y,z
1/2+x,-y,z
1/2+x,1/2+y,1/2+z
1/2-x,1/2-y,1/2+z
-x,1/2+y,1/2+z
x,1/2-y,1/2+z
loop_
_atom_site_type_symbol
_atom_site_label
_atom_site_fract_x
_atom_site_fract_y
_atom_site_fract_z
Si Si1 0.750000 0.196198 0.130070
Si Si2 0.018765 0.794616 0.318766
Si Si3 0.801153 0.705164 0.350215
Si Si4 0.960166 0.451679 0.479189
Si Si5 0.877120 0.496710 0.694199
Si Si6 0.201844 0.456232 0.004296
Si Si7 0.098306 0.843504 0.581810
Si Si8 0.323008 0.888344 0.814567
O O1 0.750000 0.223623 0.427360
O O2 0.708617 0.145147 0.033271
O O3 0.000233 0.733532 0.094917
O O4 0.019837 0.889655 0.201631
O O5 0.070104 0.783399 0.393342
O O6 0.750000 0.720846 0.376102
O O7 0.819050 0.733072 0.625752
O O8 0.804314 0.609871 0.240039
O O9 0.925235 0.518074 0.597471
O O10 0.934827 0.389633 0.281955
O O11 0.000000 0.500000 0.352833
O O12 0.854650 0.455329 0.448004
O O13 0.840053 0.553294 0.824222
O O14 0.886484 0.420618 0.894929
O O15 0.250000 0.439004 0.890787
O O16 0.201486 0.553534 0.106477
O O17 0.144281 0.817379 0.703060
#
# Coordination Sequence:
#
# PCOD9379391 Si02
#       8
#     4   8   8   8   8   8   8   8
#     4  12  30  44  58  86 128 178 222 272 334 384
#     4  11  21  38  62  97 132 163 209 259 321 392
#     4   9  19  34  52  87 125 152 201 256 311 365
#     4  10  21  41  68  97 129 166 209 274 332 390
#     4   9  21  37  60  94 122 159 222 264 316 385
#     4  10  20  34  63  87 123 176 212 266 312 376
#     4   9  20  38  61  92 123 165 213 271 324 374
#     4  10  22  40  58  87 124 167 235 263 317 390
#
# _framework density 23.822593999999999
#
# number of rings (size 3 to 8) (size 9 to 14) (size 15 to 20)
#    0.000    2.133    2.000    0.000    6.533    3.200 
#    0.000    0.000    0.000    1.600    0.000    0.000 
#    0.000    0.000    0.000    0.000    0.000    0.000 
#
# Total GULP energy -167259.535778 kJ/mol
# GULP energy per Si atom -5575.317859 kJ/mol
# Density = 2.376837 g / cm^3
# Si number density = 23.822594 Si / 1000 Ang^3
#
#
#
# Elastic Constant Matrix: (Units=GPa)
#
#
# Indices 1 2 3 4 5 6 
#
# 1 102.6753 27.3753 11.5403 0.0000 0.0000 0.0000
# 2 27.3753 63.1286 20.6590 -0.0001 0.0001 0.0000
# 3 11.5403 20.6590 94.5006 -0.0005 0.0000 -0.0002
# 4 0.0000 -0.0001 -0.0005 33.4403 0.0000 0.0000
# 5 0.0000 0.0001 0.0000 0.0000 19.7317 0.0000
# 6 0.0000 0.0000 -0.0002 0.0000 0.0000 18.2339
#
#
#
# Elastic Compliance Matrix: (Units=1/GPa)
#
#
# Indices 1 2 3 4 5 6 
#
# 1 0.011022 -0.004673 -0.000324 0.000000 0.000000 0.000000
# 2 -0.004673 0.019043 -0.003592 0.000000 0.000000 0.000000
# 3 -0.000324 -0.003592 0.011407 0.000000 0.000000 0.000000
# 4 0.000000 0.000000 0.000000 0.029904 0.000000 0.000000
# 5 0.000000 0.000000 0.000000 0.000000 0.050680 0.000000
# 6 0.000000 0.000000 0.000000 0.000000 0.000000 0.054843
#
#
# Mechanical properties :
#
#
# Convention : Reuss Voigt Hill
#
# Bulk Modulus (GPa) = 41.16657 42.16153 41.66405
# Shear Modulus (GPa) = 24.73097 27.66319 26.19708
#
# Velocity S-wave (km/s) = 3.22550 3.41136 3.31973
# Velocity P-wave (km/s) = 5.58478 5.76655 5.67639
#
# Compressibility (1/GPa) = 0.02429156
#
# Stress axis : x y z
#
# Youngs Moduli (GPa) = 90.72824 52.51304 87.66646
#
# Poissons Ratio (x) = 0.24542 0.02843
# Poissons Ratio (y) = 0.42401 0.31492
# Poissons Ratio (z) = 0.02942 0.18864
#
# Static dielectric constant tensor:
#      x y z
#    x 1.960330 0.000000 0.000000 
#    y 0.000000 1.969710 0.000000 
#    z 0.000000 0.000000 2.009380 
# 
# From -- ./inp_files/2756.got.cif
#   From: 2010.05.17/outbox.cif.g08.bks.cpg/sg46_2_cif.got.tgz:2756.got - 2010.06.03 19:58:25.
