data_PCOD9379816
_publ_section_title
;
Structure prediction by ZEFSAII (Michael W. Deem and Ramdas Pophale) SiO2 
 PCOD9379816
Probable space group: I M A 2
;
_chemical_formula_sum "Si O2"
_cell_formula_units_Z 48
_cell_length_a 17.826164
_cell_length_b 9.540393
_cell_length_c 13.160632
_cell_angle_alpha 90.000000
_cell_angle_beta 90.000000
_cell_angle_gamma 90.000000
_cell_volume 2238.210394
_symmetry_space_group_name_H-M "I M A 2"
_symmetry_group_IT_number 46
_symmetry_cell_setting 'orthorhombic'
loop_
_space_group_symop_operation_xyz
x,y,z
-x,-y,z
1/2-x,y,z
1/2+x,-y,z
1/2+x,1/2+y,1/2+z
1/2-x,1/2-y,1/2+z
-x,1/2+y,1/2+z
x,1/2-y,1/2+z
loop_
_atom_site_type_symbol
_atom_site_label
_atom_site_fract_x
_atom_site_fract_y
_atom_site_fract_z
Si Si1 0.662803 0.081214 0.223150
Si Si2 0.541122 0.352608 0.571027
Si Si3 0.167124 0.279711 0.830647
Si Si4 0.561864 0.373049 0.911818
Si Si5 0.834906 0.941287 0.540629
Si Si6 0.451130 0.361343 0.211317
O O1 0.750000 0.124834 0.228329
O O2 0.623985 0.113785 0.115797
O O3 0.608978 0.148132 0.309470
O O4 0.661479 0.916687 0.256826
O O5 0.500000 0.500000 0.564052
O O6 0.534283 0.267270 0.466035
O O7 0.500526 0.256785 0.656328
O O8 0.250000 0.215926 0.812554
O O9 0.165793 0.333681 0.946168
O O10 0.093738 0.190232 0.809158
O O11 0.500000 0.500000 0.900303
O O12 0.621648 0.427744 0.994342
O O13 0.750000 0.972599 0.568873
O O14 0.883548 0.889272 0.633114
O O15 0.500000 0.500000 0.225338
#
# Coordination Sequence:
#
# PCOD9379816 Si02
#       6
#     8   8   8   8   8   8
#     4  10  23  41  67  94 125 172 215 262 323 384
#     4  12  23  40  65  95 132 169 212 263 320 383
#     4   9  20  39  65  93 122 169 219 261 312 382
#     4  11  21  41  67  96 121 165 222 262 316 381
#     4  10  20  38  66  93 126 168 217 264 316 383
#     4  12  22  40  63  98 129 167 214 263 321 379
#
# _framework density 21.445706000000001
#
# number of rings (size 3 to 8) (size 9 to 14) (size 15 to 20)
#    0.000    1.333    5.000    2.500    2.333    1.333 
#    0.000    4.167    0.000    2.000    0.000    0.000 
#    0.000    0.000    0.000    0.000    0.000    0.000 
#
# Total GULP energy -134074.436207 kJ/mol
# GULP energy per Si atom -5586.434842 kJ/mol
# Density = 2.139689 g / cm^3
# Si number density = 21.445706 Si / 1000 Ang^3
#
#
#
# Elastic Constant Matrix: (Units=GPa)
#
#
# Indices 1 2 3 4 5 6 
#
# 1 165.3779 57.3212 46.8917 0.0000 0.0000 0.0000
# 2 57.3212 98.4843 29.6079 0.0000 0.0000 0.0000
# 3 46.8917 29.6079 51.3662 0.0000 0.0000 0.0000
# 4 0.0000 0.0000 0.0000 35.1101 0.0000 0.0000
# 5 0.0000 0.0000 0.0000 0.0000 38.2318 0.0000
# 6 0.0000 0.0000 0.0000 0.0000 0.0000 27.1019
#
#
#
# Elastic Compliance Matrix: (Units=1/GPa)
#
#
# Indices 1 2 3 4 5 6 
#
# 1 0.008985 -0.003343 -0.006275 0.000000 0.000000 0.000000
# 2 -0.003343 0.013526 -0.004745 0.000000 0.000000 0.000000
# 3 -0.006275 -0.004745 0.027932 0.000000 0.000000 0.000000
# 4 0.000000 0.000000 0.000000 0.028482 0.000000 0.000000
# 5 0.000000 0.000000 0.000000 0.000000 0.026156 0.000000
# 6 0.000000 0.000000 0.000000 0.000000 0.000000 0.036898
#
#
# Mechanical properties :
#
#
# Convention : Reuss Voigt Hill
#
# Bulk Modulus (GPa) = 46.04793 64.76334 55.40564
# Shear Modulus (GPa) = 28.09892 32.18260 30.14076
#
# Velocity S-wave (km/s) = 3.62364 3.87803 3.75299
# Velocity P-wave (km/s) = 6.24710 7.09341 6.68366
#
# Compressibility (1/GPa) = 0.02171650
#
# Stress axis : x y z
#
# Youngs Moduli (GPa) = 111.30024 73.93151 35.80175
#
# Poissons Ratio (x) = 0.24714 0.22466
# Poissons Ratio (y) = 0.37206 0.16987
# Poissons Ratio (z) = 0.69843 0.35079
#
# Static dielectric constant tensor:
#      x y z
#    x 1.790110 0.000000 0.000000 
#    y 0.000000 1.769480 0.000000 
#    z 0.000000 0.000000 1.816190 
# 
# From -- ./inp_files/16523.got.cif
#   From: 2010.05.17/outbox.cif.g08.bks.cpg/sg46_9_cif.got.tgz:16523.got - 2010.06.03 19:58:25.
