data_PCOD9379399
_publ_section_title
;
Structure prediction by ZEFSAII (Michael W. Deem and Ramdas Pophale) SiO2 
 PCOD9379399
Probable space group: I M A 2
;
_chemical_formula_sum "Si O2"
_cell_formula_units_Z 64
_cell_length_a 10.204329
_cell_length_b 29.544983
_cell_length_c 12.164100
_cell_angle_alpha 90.000000
_cell_angle_beta 90.000000
_cell_angle_gamma 90.000000
_cell_volume 3667.314694
_symmetry_space_group_name_H-M "I M A 2"
_symmetry_group_IT_number 46
_symmetry_cell_setting 'orthorhombic'
loop_
_space_group_symop_operation_xyz
x,y,z
-x,-y,z
1/2-x,y,z
1/2+x,-y,z
1/2+x,1/2+y,1/2+z
1/2-x,1/2-y,1/2+z
-x,1/2+y,1/2+z
x,1/2-y,1/2+z
loop_
_atom_site_type_symbol
_atom_site_label
_atom_site_fract_x
_atom_site_fract_y
_atom_site_fract_z
Si Si1 0.399133 0.605961 0.967760
Si Si2 0.096210 0.361980 0.406052
Si Si3 0.592276 0.544043 0.829042
Si Si4 0.476834 0.811142 0.323553
Si Si5 0.100542 0.866038 0.717025
Si Si6 0.596455 0.618894 0.650974
Si Si7 0.895907 0.741159 0.473990
Si Si8 0.892348 0.239149 0.657897
O O1 0.250000 0.588577 0.945947
O O2 0.516699 0.576319 0.916669
O O3 0.408465 0.655432 0.910486
O O4 0.416561 0.611002 0.098192
O O5 0.250000 0.372894 0.389319
O O6 0.051203 0.380365 0.525173
O O7 0.085951 0.307304 0.415782
O O8 0.005607 0.378929 0.307734
O O9 0.500000 0.500000 0.824234
O O10 0.750000 0.537225 0.851251
O O11 0.583349 0.571477 0.714178
O O12 0.528702 0.843741 0.227266
O O13 0.584940 0.782504 0.389796
O O14 0.395667 0.772476 0.261922
O O15 0.250000 0.874562 0.754427
O O16 0.087942 0.812258 0.695463
O O17 0.750000 0.630663 0.647062
O O18 0.750000 0.741824 0.520744
O O19 0.998630 0.746812 0.571253
O O20 0.750000 0.242221 0.603385
#
# Coordination Sequence:
#
# PCOD9379399 Si02
#       8
#     8   8   8   8   8   8   8   8
#     4  10  21  37  56  81 113 146 184 229 277 328
#     4  10  20  35  52  75 106 148 192 233 271 318
#     4  10  21  39  65  92 115 138 167 215 277 341
#     4  11  19  33  51  77 107 147 195 236 283 321
#     4  10  21  36  51  74 109 152 192 233 272 315
#     4   9  19  35  54  79 112 142 176 224 276 326
#     4  11  22  32  48  71 103 148 195 241 278 319
#     4  11  22  33  47  69 104 149 194 238 278 320
#
# _framework density 17.451461999999999
#
# number of rings (size 3 to 8) (size 9 to 14) (size 15 to 20)
#    0.000    1.750    3.750    1.125    0.000    3.000 
#    0.000    1.250    0.000    0.750    0.000    3.500 
#    0.000    0.000    0.000    0.000    0.000    0.000 
#
# Total GULP energy -178397.788228 kJ/mol
# GULP energy per Si atom -5574.930882 kJ/mol
# Density = 1.741174 g / cm^3
# Si number density = 17.451462 Si / 1000 Ang^3
#
#
#
# Elastic Constant Matrix: (Units=GPa)
#
#
# Indices 1 2 3 4 5 6 
#
# 1 120.5992 30.8095 66.3263 0.0000 -0.0001 0.0000
# 2 30.8095 59.6439 18.0695 0.0000 -0.0001 0.0000
# 3 66.3263 18.0695 108.6641 0.0002 -0.0002 0.0002
# 4 0.0000 0.0000 0.0002 12.2012 -0.0001 0.0000
# 5 -0.0001 -0.0001 -0.0002 -0.0001 30.0075 -0.0001
# 6 0.0000 0.0000 0.0002 0.0000 -0.0001 18.8362
#
#
#
# Elastic Compliance Matrix: (Units=1/GPa)
#
#
# Indices 1 2 3 4 5 6 
#
# 1 0.013660 -0.004770 -0.007544 0.000000 0.000000 0.000000
# 2 -0.004770 0.019322 -0.000301 0.000000 0.000000 0.000000
# 3 -0.007544 -0.000301 0.013858 0.000000 0.000000 0.000000
# 4 0.000000 0.000000 0.000000 0.081959 0.000000 0.000000
# 5 0.000000 0.000000 0.000000 0.000000 0.033325 0.000000
# 6 0.000000 0.000000 0.000000 0.000000 0.000000 0.053089
#
#
# Mechanical properties :
#
#
# Convention : Reuss Voigt Hill
#
# Bulk Modulus (GPa) = 46.28106 57.70198 51.99152
# Shear Modulus (GPa) = 20.19002 23.78911 21.98957
#
# Velocity S-wave (km/s) = 3.40505 3.69610 3.55356
# Velocity P-wave (km/s) = 6.48356 7.16596 6.83328
#
# Compressibility (1/GPa) = 0.02160711
#
# Stress axis : x y z
#
# Youngs Moduli (GPa) = 73.20711 51.75546 72.16194
#
# Poissons Ratio (x) = 0.24690 0.54442
# Poissons Ratio (y) = 0.34923 0.02173
# Poissons Ratio (z) = 0.55231 0.01559
#
# Static dielectric constant tensor:
#      x y z
#    x 1.618420 0.000000 0.000000 
#    y 0.000000 1.590280 0.000000 
#    z 0.000000 0.000000 1.596250 
# 
# From -- ./inp_files/9787.got.cif
#   From: 2010.05.17/outbox.cif.g08.bks.cpg/sg46_5_cif.got.tgz:9787.got - 2010.06.03 19:58:25.
