data_PCOD9379523
_publ_section_title
;
Structure prediction by ZEFSAII (Michael W. Deem and Ramdas Pophale) SiO2 
 PCOD9379523
Probable space group: I M A 2
;
_chemical_formula_sum "Si O2"
_cell_formula_units_Z 60
_cell_length_a 18.846597
_cell_length_b 26.183082
_cell_length_c 5.563672
_cell_angle_alpha 90.000000
_cell_angle_beta 90.000000
_cell_angle_gamma 90.000000
_cell_volume 2745.460683
_symmetry_space_group_name_H-M "I M A 2"
_symmetry_group_IT_number 46
_symmetry_cell_setting 'orthorhombic'
loop_
_space_group_symop_operation_xyz
x,y,z
-x,-y,z
1/2-x,y,z
1/2+x,-y,z
1/2+x,1/2+y,1/2+z
1/2-x,1/2-y,1/2+z
-x,1/2+y,1/2+z
x,1/2-y,1/2+z
loop_
_atom_site_type_symbol
_atom_site_label
_atom_site_fract_x
_atom_site_fract_y
_atom_site_fract_z
Si Si1 0.669567 0.128005 0.560750
Si Si2 0.582696 0.277431 0.881301
Si Si3 0.422848 0.378876 0.387600
Si Si4 0.927091 0.434330 0.367989
Si Si5 0.175200 0.974063 0.245379
Si Si6 0.923527 0.739779 0.379315
Si Si7 0.000000 0.000000 0.488828
Si Si8 0.385586 0.076181 0.379184
O O1 0.750000 0.147655 0.598801
O O2 0.618767 0.167825 0.423149
O O3 0.628390 0.110186 0.799510
O O4 0.675874 0.075335 0.414009
O O5 0.604140 0.245580 0.121907
O O6 0.496227 0.273877 0.880791
O O7 0.496714 0.409243 0.400289
O O8 0.442746 0.319607 0.378170
O O9 0.380636 0.391174 0.634014
O O10 0.385678 0.394894 0.135246
O O11 0.893101 0.466240 0.580937
O O12 0.940051 0.474948 0.156562
O O13 0.250000 0.972989 0.104586
O O14 0.168726 0.029046 0.368780
O O15 0.884919 0.750162 0.129482
O O16 0.037757 0.047583 0.365688
#
# Coordination Sequence:
#
# PCOD9379523 Si02
#       8
#     8   8   8   8   8   8   4   8
#     4  11  25  40  59  84 119 167 220 264 300 363
#     4  10  23  40  60  81 111 157 207 265 312 356
#     4  11  24  36  66  91 125 159 210 261 319 383
#     4  11  21  37  57  85 117 162 212 259 310 363
#     4  11  24  40  61  87 127 174 215 259 307 374
#     4  10  20  36  58  88 117 156 191 249 315 367
#     4  10  20  36  56  84 116 158 204 266 314 368
#     4  11  22  41  57  93 123 162 206 256 316 380
#
# _framework density 21.854255999999999
#
# number of rings (size 3 to 8) (size 9 to 14) (size 15 to 20)
#    0.000    1.333    1.333    5.200    7.467    1.067 
#    0.000    0.000    0.000    0.000    0.000    0.000 
#    0.000   10.667    0.000    0.000    0.000    0.000 
#
# Total GULP energy -167393.878311 kJ/mol
# GULP energy per Si atom -5579.795944 kJ/mol
# Density = 2.180451 g / cm^3
# Si number density = 21.854256 Si / 1000 Ang^3
#
#
#
# Elastic Constant Matrix: (Units=GPa)
#
#
# Indices 1 2 3 4 5 6 
#
# 1 21.9003 8.0292 7.4506 0.0000 0.0000 0.0000
# 2 8.0292 61.3632 30.9368 0.0000 0.0000 0.0000
# 3 7.4506 30.9368 147.4819 0.0000 0.0000 0.0000
# 4 0.0000 0.0000 0.0000 37.6178 0.0000 0.0000
# 5 0.0000 0.0000 0.0000 0.0000 11.6659 0.0000
# 6 0.0000 0.0000 0.0000 0.0000 0.0000 -4.2731
#
#
#
# Elastic Compliance Matrix: (Units=1/GPa)
#
#
# Indices 1 2 3 4 5 6 
#
# 1 0.048165 -0.005676 -0.001243 0.000000 0.000000 0.000000
# 2 -0.005676 0.018892 -0.003676 0.000000 0.000000 0.000000
# 3 -0.001243 -0.003676 0.007614 0.000000 0.000000 0.000000
# 4 0.000000 0.000000 0.000000 0.026583 0.000000 0.000000
# 5 0.000000 0.000000 0.000000 0.000000 0.085720 0.000000
# 6 0.000000 0.000000 0.000000 0.000000 0.000000 -0.234021
#
#
# Mechanical properties :
#
#
# Convention : Reuss Voigt Hill
#
# Bulk Modulus (GPa) = 18.69765 35.95317 27.32541
# Shear Modulus (GPa) = -622.74573 21.29070 -300.72752
#
# Velocity S-wave (km/s) = -16.89889 3.12462 -11.74328
# Velocity P-wave (km/s) = 19.29221 5.43183 13.08978
#
# Compressibility (1/GPa) = 0.05348267
#
# Stress axis : x y z
#
# Youngs Moduli (GPa) = 20.76189 52.93108 131.32956
#
# Poissons Ratio (x) = 0.30042 0.16320
# Poissons Ratio (y) = 0.11784 0.48280
# Poissons Ratio (z) = 0.02580 0.19459
#
# Static dielectric constant tensor:
#      x y z
#    x 1.815810 0.000000 0.000000 
#    y 0.000000 1.801560 0.000000 
#    z 0.000000 0.000000 1.889910 
# 
# From -- ./inp_files/1815.got.cif
#   From: 2010.05.17/outbox.cif.g08.bks.cpg/sg46_1_cif.got.tgz:1815.got - 2010.06.03 19:58:25.
