data_PCOD9379090
_publ_section_title
;
Structure prediction by ZEFSAII (Michael W. Deem and Ramdas Pophale) SiO2 
 PCOD9379090
Probable space group: I M A 2
;
_chemical_formula_sum "Si O2"
_cell_formula_units_Z 56
_cell_length_a 14.870671
_cell_length_b 13.623498
_cell_length_c 12.818155
_cell_angle_alpha 90.000000
_cell_angle_beta 90.000000
_cell_angle_gamma 90.000000
_cell_volume 2596.837156
_symmetry_space_group_name_H-M "I M A 2"
_symmetry_group_IT_number 46
_symmetry_cell_setting 'orthorhombic'
loop_
_space_group_symop_operation_xyz
x,y,z
-x,-y,z
1/2-x,y,z
1/2+x,-y,z
1/2+x,1/2+y,1/2+z
1/2-x,1/2-y,1/2+z
-x,1/2+y,1/2+z
x,1/2-y,1/2+z
loop_
_atom_site_type_symbol
_atom_site_label
_atom_site_fract_x
_atom_site_fract_y
_atom_site_fract_z
Si Si1 0.851220 0.684284 0.583020
Si Si2 0.100948 0.106166 0.496246
Si Si3 0.536916 0.816667 0.280646
Si Si4 0.905034 0.059120 0.791356
Si Si5 0.347481 0.358824 0.349338
Si Si6 0.107238 0.893285 0.559064
Si Si7 0.646939 0.256780 0.872633
O O1 0.750000 0.662150 0.620743
O O2 0.854444 0.799842 0.550730
O O3 0.926794 0.656954 0.666928
O O4 0.866729 0.632398 0.472205
O O5 0.086862 0.122881 0.372531
O O6 0.999787 0.107045 0.540240
O O7 0.141075 0.000387 0.521916
O O8 0.576100 0.706856 0.297605
O O9 0.430647 0.813143 0.305114
O O10 0.883346 0.112567 0.682472
O O11 0.886774 0.143816 0.875449
O O12 0.842287 0.965617 0.802519
O O13 0.000000 0.000000 0.793097
O O14 0.250000 0.308354 0.338063
O O15 0.144390 0.807932 0.486076
O O16 0.750000 0.261212 0.834105
#
# Coordination Sequence:
#
# PCOD9379090 Si02
#       7
#     8   8   8   8   8   8   8
#     4  10  20  35  59  94 130 166 213 277 345 394
#     4   9  18  35  61  90 121 161 216 276 319 393
#     4  10  19  36  61  90 130 174 216 272 340 396
#     4  12  21  41  69  95 126 174 223 273 328 392
#     4  10  21  36  60  96 127 163 220 279 331 393
#     4  10  21  40  65  91 124 169 222 263 324 392
#     4  11  25  41  61  94 135 176 223 276 329 398
#
# _framework density 21.564693999999999
#
# number of rings (size 3 to 8) (size 9 to 14) (size 15 to 20)
#    0.000    1.714    2.857    2.571    0.000    2.286 
#    0.000    1.429    3.143    1.714    0.000    0.000 
#    0.000    0.000    0.000    0.000    0.000    0.000 
#
# Total GULP energy -156246.938154 kJ/mol
# GULP energy per Si atom -5580.247791 kJ/mol
# Density = 2.151561 g / cm^3
# Si number density = 21.564694 Si / 1000 Ang^3
#
#
#
# Elastic Constant Matrix: (Units=GPa)
#
#
# Indices 1 2 3 4 5 6 
#
# 1 131.9560 0.1540 28.9397 0.0000 0.0000 0.0000
# 2 0.1540 68.6014 27.3571 0.0000 0.0000 0.0000
# 3 28.9397 27.3571 92.0547 0.0000 0.0000 0.0000
# 4 0.0000 0.0000 0.0000 18.5626 0.0000 0.0000
# 5 0.0000 0.0000 0.0000 0.0000 2.0589 0.0000
# 6 0.0000 0.0000 0.0000 0.0000 0.0000 41.2211
#
#
#
# Elastic Compliance Matrix: (Units=1/GPa)
#
#
# Indices 1 2 3 4 5 6 
#
# 1 0.008218 0.001148 -0.002925 0.000000 0.000000 0.000000
# 2 0.001148 0.016697 -0.005323 0.000000 0.000000 0.000000
# 3 -0.002925 -0.005323 0.013364 0.000000 0.000000 0.000000
# 4 0.000000 0.000000 0.000000 0.053872 0.000000 0.000000
# 5 0.000000 0.000000 0.000000 0.000000 0.485708 0.000000
# 6 0.000000 0.000000 0.000000 0.000000 0.000000 0.024259
#
#
# Mechanical properties :
#
#
# Convention : Reuss Voigt Hill
#
# Bulk Modulus (GPa) = 41.52777 45.05707 43.29242
# Shear Modulus (GPa) = 8.00839 28.11261 18.06050
#
# Velocity S-wave (km/s) = 1.92918 3.61451 2.89710
# Velocity P-wave (km/s) = 4.92559 6.19345 5.59555
#
# Compressibility (1/GPa) = 0.02408027
#
# Stress axis : x y z
#
# Youngs Moduli (GPa) = 121.67835 59.89067 74.82523
#
# Poissons Ratio (x) = -0.06875 0.21885
# Poissons Ratio (y) = -0.13968 0.39829
# Poissons Ratio (z) = 0.35588 0.31880
#
# Static dielectric constant tensor:
#      x y z
#    x 1.849620 0.000000 0.000000 
#    y 0.000000 1.809460 0.000000 
#    z 0.000000 0.000000 1.799810 
# 
# From -- ./inp_files/11133.got.cif
#   From: 2010.05.17/outbox.cif.g08.bks.cpg/sg46_6_cif.got.tgz:11133.got - 2010.06.03 19:58:25.
