data_PCOD9379592
_publ_section_title
;
Structure prediction by ZEFSAII (Michael W. Deem and Ramdas Pophale) SiO2 
 PCOD9379592
Probable space group: I M A 2
;
_chemical_formula_sum "Si O2"
_cell_formula_units_Z 64
_cell_length_a 8.716898
_cell_length_b 24.347324
_cell_length_c 15.861528
_cell_angle_alpha 90.000000
_cell_angle_beta 90.000000
_cell_angle_gamma 90.000000
_cell_volume 3366.341891
_symmetry_space_group_name_H-M "I M A 2"
_symmetry_group_IT_number 46
_symmetry_cell_setting 'orthorhombic'
loop_
_space_group_symop_operation_xyz
x,y,z
-x,-y,z
1/2-x,y,z
1/2+x,-y,z
1/2+x,1/2+y,1/2+z
1/2-x,1/2-y,1/2+z
-x,1/2+y,1/2+z
x,1/2-y,1/2+z
loop_
_atom_site_type_symbol
_atom_site_label
_atom_site_fract_x
_atom_site_fract_y
_atom_site_fract_z
Si Si1 0.566143 0.747093 0.929970
Si Si2 0.935303 0.438993 0.030308
Si Si3 0.933412 0.747664 0.629501
Si Si4 0.566156 0.131368 0.182123
Si Si5 0.933706 0.362767 0.187996
Si Si6 0.433959 0.061008 0.028866
Si Si7 0.935257 0.867160 0.866184
Si Si8 0.065229 0.632270 0.870690
O O1 0.750000 0.742737 0.921383
O O2 0.518259 0.804550 0.888191
O O3 0.491161 0.693745 0.889434
O O4 0.531084 0.749230 0.029647
O O5 0.750000 0.441377 0.028828
O O6 0.980184 0.402831 0.111553
O O7 0.000000 0.500000 0.034694
O O8 0.988208 0.407575 0.945650
O O9 0.750000 0.742971 0.639369
O O10 0.012322 0.693770 0.666841
O O11 0.992293 0.803232 0.672049
O O12 0.750000 0.128390 0.176359
O O13 0.517736 0.114869 0.276810
O O14 0.493643 0.093718 0.110156
O O15 0.750000 0.357626 0.187000
O O16 0.990194 0.384022 0.278231
O O17 0.250000 0.059402 0.031654
O O18 0.478972 0.094419 0.944610
O O19 0.500000 0.000000 0.027149
O O20 0.750000 0.868189 0.858699
O O21 0.250000 0.632751 0.872714
#
# Coordination Sequence:
#
# PCOD9379592 Si02
#       8
#     8   8   8   8   8   8   8   8
#     4  10  20  36  60  89 119 157 198 238 296 358
#     4  10  23  42  61  83 116 154 199 248 295 351
#     4  11  21  37  61  90 125 161 199 245 300 362
#     4  11  23  39  63  93 123 160 202 248 305 361
#     4  11  23  39  61  91 122 157 200 248 303 359
#     4  11  24  44  65  88 121 161 206 255 306 361
#     4  10  22  41  62  88 122 158 198 245 299 360
#     4  10  22  40  60  88 123 155 194 246 300 357
#
# _framework density 19.011734000000001
#
# number of rings (size 3 to 8) (size 9 to 14) (size 15 to 20)
#    0.000    1.500    2.500    2.250    0.000    7.500 
#    0.000    3.750    0.000    0.000    0.000    0.000 
#    0.000    0.000    0.000    0.000    0.000    0.000 
#
# Total GULP energy -178891.068819 kJ/mol
# GULP energy per Si atom -5590.345901 kJ/mol
# Density = 1.896846 g / cm^3
# Si number density = 19.011734 Si / 1000 Ang^3
#
#
#
# Elastic Constant Matrix: (Units=GPa)
#
#
# Indices 1 2 3 4 5 6 
#
# 1 26.3714 26.1495 45.1622 0.0000 0.0000 0.0000
# 2 26.1495 140.9480 80.5863 0.0000 0.0000 0.0000
# 3 45.1622 80.5863 187.1263 0.0000 0.0000 0.0000
# 4 0.0000 0.0000 0.0000 -1.3635 0.0000 0.0000
# 5 0.0000 0.0000 0.0000 0.0000 19.4629 0.0000
# 6 0.0000 0.0000 0.0000 0.0000 0.0000 32.0700
#
#
#
# Elastic Compliance Matrix: (Units=1/GPa)
#
#
# Indices 1 2 3 4 5 6 
#
# 1 0.066449 -0.004191 -0.014233 0.000000 0.000000 0.000000
# 2 -0.004191 0.009677 -0.003156 0.000000 0.000000 0.000000
# 3 -0.014233 -0.003156 0.010138 0.000000 0.000000 0.000000
# 4 0.000000 0.000000 0.000000 -0.733383 -0.000001 0.000000
# 5 0.000000 0.000000 0.000000 -0.000001 0.051380 0.000000
# 6 0.000000 0.000000 0.000000 0.000000 0.000000 0.031182
#
#
# Mechanical properties :
#
#
# Convention : Reuss Voigt Hill
#
# Bulk Modulus (GPa) = 23.19875 73.13797 48.16836
# Shear Modulus (GPa) = -9.86134 23.53704 6.83785
#
# Velocity S-wave (km/s) = -2.27996 3.52238 1.89854
# Velocity P-wave (km/s) = 2.30170 7.42269 5.49519
#
# Compressibility (1/GPa) = 0.04310577
#
# Stress axis : x y z
#
# Youngs Moduli (GPa) = 15.04907 103.34164 98.63849
#
# Poissons Ratio (x) = 0.43307 1.40388
# Poissons Ratio (y) = 0.06307 0.31129
# Poissons Ratio (z) = 0.21419 0.32613
#
# Static dielectric constant tensor:
#      x y z
#    x 1.648310 0.000000 0.000000 
#    y 0.000000 1.615500 0.000000 
#    z 0.000000 0.000000 1.671200 
# 
# From -- ./inp_files/14518.got.cif
#   From: 2010.05.17/outbox.cif.g08.bks.cpg/sg46_8_cif.got.tgz:14518.got - 2010.06.03 19:58:25.
