data_PCOD9379415
_publ_section_title
;
Structure prediction by ZEFSAII (Michael W. Deem and Ramdas Pophale) SiO2 
 PCOD9379415
Probable space group: I M A 2
;
_chemical_formula_sum "Si O2"
_cell_formula_units_Z 40
_cell_length_a 10.363592
_cell_length_b 7.380187
_cell_length_c 24.096485
_cell_angle_alpha 90.000000
_cell_angle_beta 90.000000
_cell_angle_gamma 90.000000
_cell_volume 1843.025606
_symmetry_space_group_name_H-M "I M A 2"
_symmetry_group_IT_number 46
_symmetry_cell_setting 'orthorhombic'
loop_
_space_group_symop_operation_xyz
x,y,z
-x,-y,z
1/2-x,y,z
1/2+x,-y,z
1/2+x,1/2+y,1/2+z
1/2-x,1/2-y,1/2+z
-x,1/2+y,1/2+z
x,1/2-y,1/2+z
loop_
_atom_site_type_symbol
_atom_site_label
_atom_site_fract_x
_atom_site_fract_y
_atom_site_fract_z
Si Si1 0.250000 0.715772 0.080341
Si Si2 0.250000 0.709838 0.954948
Si Si3 0.492966 0.786690 0.646390
Si Si4 0.250000 0.268187 0.953724
Si Si5 0.750000 0.771035 0.584982
Si Si6 0.003920 0.778038 0.386267
Si Si7 0.091199 0.678192 0.768007
O O1 0.124282 0.786434 0.110546
O O2 0.250000 0.493909 0.082829
O O3 0.250000 0.770956 0.017380
O O4 0.250000 0.489469 0.954745
O O5 0.376480 0.773396 0.924098
O O6 0.626325 0.713951 0.621545
O O7 0.451060 0.766744 0.710185
O O8 0.500000 0.000000 0.635849
O O9 0.374568 0.216117 0.917044
O O10 0.250000 0.215567 0.019420
O O11 0.040824 0.722088 0.323631
O O12 0.000000 0.000000 0.385193
O O13 0.250000 0.652005 0.770794
O O14 0.000000 0.500000 0.767478
#
# Coordination Sequence:
#
# PCOD9379415 Si02
#       7
#     4   4   8   4   4   8   8
#     4   9  16  29  49  73 107 137 172 219 270 320
#     4   9  14  25  44  71  99 135 166 211 272 320
#     4  10  20  35  54  78 109 143 179 222 267 317
#     4   9  16  27  44  73 107 131 162 217 272 326
#     4   9  18  29  49  79 107 137 174 217 272 326
#     4   9  17  27  45  70 105 137 169 211 270 317
#     4  11  23  37  54  79 111 145 186 225 266 320
#
# _framework density 21.703443
#
# number of rings (size 3 to 8) (size 9 to 14) (size 15 to 20)
#    0.000    2.400    2.000    1.200    5.600    4.800 
#    0.000    0.000    0.000    0.000    0.000    8.400 
#    0.000    0.000    0.000    0.000    0.000    0.000 
#
# Total GULP energy -111490.929849 kJ/mol
# GULP energy per Si atom -5574.546492 kJ/mol
# Density = 2.165405 g / cm^3
# Si number density = 21.703443 Si / 1000 Ang^3
#
#
#
# Elastic Constant Matrix: (Units=GPa)
#
#
# Indices 1 2 3 4 5 6 
#
# 1 260.2577 13.4251 133.1835 0.0000 0.0000 0.0000
# 2 13.4251 61.0692 -3.4211 0.0000 0.0000 0.0000
# 3 133.1835 -3.4211 221.3904 0.0000 0.0000 0.0000
# 4 0.0000 0.0000 0.0000 13.3102 0.0000 0.0000
# 5 0.0000 0.0000 0.0000 0.0000 44.6989 0.0000
# 6 0.0000 0.0000 0.0000 0.0000 0.0000 -7.6170
#
#
#
# Elastic Compliance Matrix: (Units=1/GPa)
#
#
# Indices 1 2 3 4 5 6 
#
# 1 0.005675 -0.001440 -0.003436 0.000000 0.000000 0.000000
# 2 -0.001440 0.016754 0.001125 0.000000 0.000000 0.000000
# 3 -0.003436 0.001125 0.006601 0.000000 0.000000 0.000000
# 4 0.000000 0.000000 0.000000 0.075130 0.000000 0.000000
# 5 0.000000 0.000000 0.000000 0.000000 0.022372 0.000000
# 6 0.000000 0.000000 0.000000 0.000000 0.000000 -0.131285
#
#
# Mechanical properties :
#
#
# Convention : Reuss Voigt Hill
#
# Bulk Modulus (GPa) = 46.44942 92.12138 69.28540
# Shear Modulus (GPa) = 503.67846 36.71372 270.19609
#
# Velocity S-wave (km/s) = 15.25047 4.11738 11.16982
# Velocity P-wave (km/s) = 18.20854 8.07102 14.08354
#
# Compressibility (1/GPa) = 0.02152879
#
# Stress axis : x y z
#
# Youngs Moduli (GPa) = 176.20855 59.68557 151.48135
#
# Poissons Ratio (x) = 0.08595 0.52053
# Poissons Ratio (y) = 0.25375 -0.17045
# Poissons Ratio (z) = 0.60550 -0.06716
#
# Static dielectric constant tensor:
#      x y z
#    x 1.794500 0.000000 0.000000 
#    y 0.000000 1.883070 0.000000 
#    z 0.000000 0.000000 1.781670 
# 
# From -- ./inp_files/20860.got.cif
#   From: 2010.05.17/outbox.cif.g08.bks.cpg/sg46_11_cif.got.tgz:20860.got - 2010.06.03 19:58:25.
