data_PCOD9379687
_publ_section_title
;
Structure prediction by ZEFSAII (Michael W. Deem and Ramdas Pophale) SiO2 
 PCOD9379687
Probable space group: I M A 2
;
_chemical_formula_sum "Si O2"
_cell_formula_units_Z 64
_cell_length_a 14.838870
_cell_length_b 12.048311
_cell_length_c 16.436199
_cell_angle_alpha 90.000000
_cell_angle_beta 90.000000
_cell_angle_gamma 90.000000
_cell_volume 2938.518236
_symmetry_space_group_name_H-M "I M A 2"
_symmetry_group_IT_number 46
_symmetry_cell_setting 'orthorhombic'
loop_
_space_group_symop_operation_xyz
x,y,z
-x,-y,z
1/2-x,y,z
1/2+x,-y,z
1/2+x,1/2+y,1/2+z
1/2-x,1/2-y,1/2+z
-x,1/2+y,1/2+z
x,1/2-y,1/2+z
loop_
_atom_site_type_symbol
_atom_site_label
_atom_site_fract_x
_atom_site_fract_y
_atom_site_fract_z
Si Si1 0.395415 0.527842 0.623040
Si Si2 0.442934 0.766203 0.561276
Si Si3 0.607684 0.475427 0.154863
Si Si4 0.348981 0.077915 0.954787
Si Si5 0.850053 0.614330 0.775153
Si Si6 0.350548 0.221508 0.625967
Si Si7 0.515868 0.731659 0.887696
Si Si8 0.086901 0.579810 0.325626
O O1 0.500000 0.500000 0.627557
O O2 0.393365 0.654041 0.591171
O O3 0.357416 0.451541 0.549912
O O4 0.359502 0.488273 0.711098
O O5 0.388995 0.867809 0.599834
O O6 0.548615 0.756083 0.590366
O O7 0.455234 0.793537 0.466014
O O8 0.500000 0.500000 0.158343
O O9 0.650954 0.588670 0.126775
O O10 0.640771 0.446560 0.244985
O O11 0.250000 0.115979 0.932887
O O12 0.416675 0.171981 0.922236
O O13 0.366973 0.962025 0.907747
O O14 0.750000 0.609475 0.811945
O O15 0.854432 0.721700 0.715055
O O16 0.926878 0.636553 0.842666
O O17 0.250000 0.253678 0.592523
O O18 0.450239 0.795821 0.825580
O O19 0.000000 0.500000 0.322885
#
# Coordination Sequence:
#
# PCOD9379687 Si02
#       8
#     8   8   8   8   8   8   8   8
#     4  12  21  39  59  91 133 172 223 270 335 415
#     4  11  21  38  63  88 124 173 225 265 320 413
#     4   9  19  35  59  85 116 155 210 263 316 388
#     4  11  20  33  57  89 126 162 210 281 342 385
#     4  11  23  37  61  97 133 162 203 278 354 399
#     4  10  20  37  61  90 118 151 205 270 327 380
#     4  11  20  35  57  88 121 162 219 265 318 396
#     4   9  17  31  53  84 113 148 196 262 319 373
#
# _framework density 21.779685000000001
#
# number of rings (size 3 to 8) (size 9 to 14) (size 15 to 20)
#    0.000    1.500    3.750    4.125    0.000    3.500 
#    0.000    3.125    0.000    0.000    0.000    0.875 
#    0.000    0.000    0.000    0.000    0.000    0.000 
#
# Total GULP energy -178342.051789 kJ/mol
# GULP energy per Si atom -5573.189118 kJ/mol
# Density = 2.173011 g / cm^3
# Si number density = 21.779685 Si / 1000 Ang^3
#
#
#
# Elastic Constant Matrix: (Units=GPa)
#
#
# Indices 1 2 3 4 5 6 
#
# 1 48.8682 20.1017 6.0944 0.0000 0.0000 0.0000
# 2 20.1017 98.9242 46.7597 0.0000 0.0000 0.0000
# 3 6.0944 46.7597 79.4309 0.0000 0.0000 0.0000
# 4 0.0000 0.0000 0.0000 26.0290 0.0000 0.0000
# 5 0.0000 0.0000 0.0000 0.0000 7.8420 0.0000
# 6 0.0000 0.0000 0.0000 0.0000 0.0000 11.8882
#
#
#
# Elastic Compliance Matrix: (Units=1/GPa)
#
#
# Indices 1 2 3 4 5 6 
#
# 1 0.022431 -0.005188 0.001333 0.000000 0.000000 0.000000
# 2 -0.005188 0.015206 -0.008554 0.000000 0.000000 0.000000
# 3 0.001333 -0.008554 0.017523 0.000000 0.000000 0.000000
# 4 0.000000 0.000000 0.000000 0.038419 0.000000 0.000000
# 5 0.000000 0.000000 0.000000 0.000000 0.127518 0.000000
# 6 0.000000 0.000000 0.000000 0.000000 0.000000 0.084117
#
#
# Mechanical properties :
#
#
# Convention : Reuss Voigt Hill
#
# Bulk Modulus (GPa) = 32.95693 41.45945 37.20819
# Shear Modulus (GPa) = 14.69959 19.43632 17.06796
#
# Velocity S-wave (km/s) = 2.60075 2.99056 2.80244
# Velocity P-wave (km/s) = 4.91765 5.56792 5.25286
#
# Compressibility (1/GPa) = 0.03034264
#
# Stress axis : x y z
#
# Youngs Moduli (GPa) = 44.58097 65.76304 57.06916
#
# Poissons Ratio (x) = 0.34119 -0.07608
# Poissons Ratio (y) = 0.23130 0.48814
# Poissons Ratio (z) = -0.05943 0.56251
#
# Static dielectric constant tensor:
#      x y z
#    x 1.808390 0.000000 0.000000 
#    y 0.000000 1.813190 0.000000 
#    z 0.000000 0.000000 1.865140 
# 
# From -- ./inp_files/16811.got.cif
#   From: 2010.05.17/outbox.cif.g08.bks.cpg/sg46_9_cif.got.tgz:16811.got - 2010.06.03 19:58:25.
