data_PCOD9379975
_publ_section_title
;
Structure prediction by ZEFSAII (Michael W. Deem and Ramdas Pophale) SiO2 
 PCOD9379975
Probable space group: I M A 2
;
_chemical_formula_sum "Si O2"
_cell_formula_units_Z 64
_cell_length_a 22.112754
_cell_length_b 7.042438
_cell_length_c 16.677833
_cell_angle_alpha 90.000000
_cell_angle_beta 90.000000
_cell_angle_gamma 90.000000
_cell_volume 2597.200558
_symmetry_space_group_name_H-M "I M A 2"
_symmetry_group_IT_number 46
_symmetry_cell_setting 'orthorhombic'
loop_
_space_group_symop_operation_xyz
x,y,z
-x,-y,z
1/2-x,y,z
1/2+x,-y,z
1/2+x,1/2+y,1/2+z
1/2-x,1/2-y,1/2+z
-x,1/2+y,1/2+z
x,1/2-y,1/2+z
loop_
_atom_site_type_symbol
_atom_site_label
_atom_site_fract_x
_atom_site_fract_y
_atom_site_fract_z
Si Si1 0.440973 0.784165 0.389780
Si Si2 0.319790 0.167792 0.536790
Si Si3 0.001989 0.228596 0.617014
Si Si4 0.562833 0.780521 0.450200
Si Si5 0.116715 0.187736 0.705674
Si Si6 0.607618 0.239412 0.213178
Si Si7 0.815244 0.530952 0.791155
Si Si8 0.318143 0.717662 0.953222
O O1 0.510027 0.708622 0.390971
O O2 0.424990 0.808600 0.296987
O O3 0.383374 0.681357 0.434740
O O4 0.438866 0.990983 0.433074
O O5 0.250000 0.219368 0.523826
O O6 0.366848 0.252775 0.471856
O O7 0.342828 0.220064 0.625676
O O8 0.323798 0.936913 0.524892
O O9 0.029601 0.279848 0.532714
O O10 0.050810 0.267640 0.685239
O O11 0.936475 0.303139 0.639586
O O12 0.000000 0.000000 0.615543
O O13 0.138858 0.296847 0.783722
O O14 0.117676 0.963320 0.716737
O O15 0.667323 0.114369 0.219957
O O16 0.750000 0.616014 0.778072
O O17 0.814318 0.413699 0.872889
O O18 0.250000 0.808392 0.959749
#
# Coordination Sequence:
#
# PCOD9379975 Si02
#       8
#     8   8   8   8   8   8   8   8
#     4   9  16  29  53  84 112 154 203 250 307 372
#     4   9  17  31  54  84 111 154 211 248 296 378
#     4   9  17  33  53  84 121 157 200 256 315 383
#     4   9  16  29  55  81 117 164 201 253 318 382
#     4  10  21  35  58  85 121 161 201 252 320 381
#     4  10  22  35  57  92 120 153 208 265 312 381
#     4  10  21  38  58  84 121 162 203 258 319 374
#     4   8  16  30  51  78 108 147 200 248 296 364
#
# _framework density 24.641916999999999
#
# number of rings (size 3 to 8) (size 9 to 14) (size 15 to 20)
#    0.000    2.750    1.250    0.375    1.750    6.500 
#    0.000    0.000    2.750    0.000    9.750    0.000 
#    0.000    0.000    0.000    0.000    0.000    0.000 
#
# Total GULP energy -178355.420121 kJ/mol
# GULP energy per Si atom -5573.606879 kJ/mol
# Density = 2.458583 g / cm^3
# Si number density = 24.641917 Si / 1000 Ang^3
#
#
#
# Elastic Constant Matrix: (Units=GPa)
#
#
# Indices 1 2 3 4 5 6 
#
# 1 105.4638 12.8725 -6.4113 0.0000 0.0000 0.0000
# 2 12.8725 57.6353 13.0342 0.0000 0.0000 0.0000
# 3 -6.4113 13.0342 58.8118 0.0000 0.0000 0.0000
# 4 0.0000 0.0000 0.0000 9.2100 0.0000 0.0000
# 5 0.0000 0.0000 0.0000 0.0000 36.1221 0.0000
# 6 0.0000 0.0000 0.0000 0.0000 0.0000 7.6546
#
#
#
# Elastic Compliance Matrix: (Units=1/GPa)
#
#
# Indices 1 2 3 4 5 6 
#
# 1 0.009898 -0.002584 0.001652 0.000000 0.000000 0.000000
# 2 -0.002584 0.018941 -0.004479 0.000000 0.000000 0.000000
# 3 0.001652 -0.004479 0.018176 0.000000 0.000000 0.000000
# 4 0.000000 0.000000 0.000000 0.108578 0.000000 0.000000
# 5 0.000000 0.000000 0.000000 0.000000 0.027684 0.000000
# 6 0.000000 0.000000 0.000000 0.000000 0.000000 0.130641
#
#
# Mechanical properties :
#
#
# Convention : Reuss Voigt Hill
#
# Bulk Modulus (GPa) = 27.63129 28.98909 28.31019
# Shear Modulus (GPa) = 14.84540 24.09170 19.46855
#
# Velocity S-wave (km/s) = 2.45714 3.13017 2.81385
# Velocity P-wave (km/s) = 4.39175 4.98534 4.69793
#
# Compressibility (1/GPa) = 0.03619085
#
# Stress axis : x y z
#
# Youngs Moduli (GPa) = 101.03307 52.79645 55.01695
#
# Poissons Ratio (x) = 0.13643 -0.09087
# Poissons Ratio (y) = 0.26108 0.24645
# Poissons Ratio (z) = -0.16688 0.23650
#
# Static dielectric constant tensor:
#      x y z
#    x 1.893540 0.000000 0.000000 
#    y 0.000000 1.964530 0.000000 
#    z 0.000000 0.000000 1.953380 
# 
# From -- ./inp_files/20408.got.cif
#   From: 2010.05.17/outbox.cif.g08.bks.cpg/sg46_11_cif.got.tgz:20408.got - 2010.06.03 19:58:25.
