data_PCOD9379760
_publ_section_title
;
Structure prediction by ZEFSAII (Michael W. Deem and Ramdas Pophale) SiO2 
 PCOD9379760
Probable space group: I M A 2
;
_chemical_formula_sum "Si O2"
_cell_formula_units_Z 44
_cell_length_a 31.564880
_cell_length_b 8.296227
_cell_length_c 6.886033
_cell_angle_alpha 90.000000
_cell_angle_beta 90.000000
_cell_angle_gamma 90.000000
_cell_volume 1803.241397
_symmetry_space_group_name_H-M "I M A 2"
_symmetry_group_IT_number 46
_symmetry_cell_setting 'orthorhombic'
loop_
_space_group_symop_operation_xyz
x,y,z
-x,-y,z
1/2-x,y,z
1/2+x,-y,z
1/2+x,1/2+y,1/2+z
1/2-x,1/2-y,1/2+z
-x,1/2+y,1/2+z
x,1/2-y,1/2+z
loop_
_atom_site_type_symbol
_atom_site_label
_atom_site_fract_x
_atom_site_fract_y
_atom_site_fract_z
Si Si1 0.162204 0.625651 0.908160
Si Si2 0.750000 0.992483 0.464410
Si Si3 0.430408 0.001268 0.977497
Si Si4 0.661865 0.004707 0.968854
Si Si5 0.000000 0.000000 0.709986
Si Si6 0.750000 0.628245 0.524861
Si Si7 0.569027 0.122165 0.414233
O O1 0.206208 0.581354 0.009912
O O2 0.161850 0.540142 0.699629
O O3 0.116273 0.580883 0.994048
O O4 0.162646 0.817222 0.878596
O O5 0.750000 0.817436 0.556015
O O6 0.750000 0.964205 0.230759
O O7 0.384010 0.074160 0.933921
O O8 0.436608 0.969982 0.208236
O O9 0.468157 0.089249 0.862187
O O10 0.430310 0.816395 0.897047
O O11 0.705362 0.914580 0.924512
O O12 0.031743 0.916107 0.560683
#
# Coordination Sequence:
#
# PCOD9379760 Si02
#       7
#     8   4   8   8   4   4   8
#     4   9  19  35  61  89 115 151 202 249 291 354
#     4  10  21  38  56  84 126 160 189 234 298 362
#     4  10  20  38  61  88 120 155 203 258 304 358
#     4   9  19  35  61  89 115 151 202 249 291 354
#     4  12  22  36  64  86 120 156 198 248 328 354
#     4  10  21  38  56  84 126 160 189 234 298 362
#     4  10  20  38  61  88 120 155 203 258 304 358
#
# _framework density 24.400504999999999
#
# number of rings (size 3 to 8) (size 9 to 14) (size 15 to 20)
#    0.000    2.182    1.818    1.091    2.545    1.455 
#    0.000    1.818    8.000    0.000    0.000    0.000 
#    0.000    0.000    0.000    0.000    0.000    0.000 
#
# Total GULP energy -122816.740116 kJ/mol
# GULP energy per Si atom -5582.579096 kJ/mol
# Density = 2.434497 g / cm^3
# Si number density = 24.400505 Si / 1000 Ang^3
#
#
#
# Elastic Constant Matrix: (Units=GPa)
#
#
# Indices 1 2 3 4 5 6 
#
# 1 270.2554 49.0935 72.1021 0.0000 0.0000 0.0000
# 2 49.0935 17.4269 10.7943 0.0000 0.0000 0.0000
# 3 72.1021 10.7943 107.5310 0.0000 0.0000 0.0000
# 4 0.0000 0.0000 0.0000 28.9255 0.0000 0.0000
# 5 0.0000 0.0000 0.0000 0.0000 21.6045 0.0000
# 6 0.0000 0.0000 0.0000 0.0000 0.0000 30.6331
#
#
#
# Elastic Compliance Matrix: (Units=1/GPa)
#
#
# Indices 1 2 3 4 5 6 
#
# 1 0.008717 -0.022325 -0.003604 0.000000 0.000000 0.000000
# 2 -0.022325 0.118361 0.003088 0.000000 0.000000 0.000000
# 3 -0.003604 0.003088 0.011406 0.000000 0.000000 0.000000
# 4 0.000000 0.000000 0.000000 0.034572 0.000000 0.000000
# 5 0.000000 0.000000 0.000000 0.000000 0.046287 0.000000
# 6 0.000000 0.000000 0.000000 0.000000 0.000000 0.032644
#
#
# Mechanical properties :
#
#
# Convention : Reuss Voigt Hill
#
# Bulk Modulus (GPa) = 10.77556 73.24366 42.00961
# Shear Modulus (GPa) = 15.21591 33.78084 24.49838
#
# Velocity S-wave (km/s) = 2.49989 3.72483 3.17205
# Velocity P-wave (km/s) = 3.57187 6.97005 5.53805
#
# Compressibility (1/GPa) = 0.09280263
#
# Stress axis : x y z
#
# Youngs Moduli (GPa) = 114.71621 8.44871 87.67111
#
# Poissons Ratio (x) = 0.18862 0.31597
# Poissons Ratio (y) = 2.56102 -0.27071
# Poissons Ratio (z) = 0.41344 -0.02609
#
# Static dielectric constant tensor:
#      x y z
#    x 2.011390 0.000000 0.000000 
#    y 0.000000 1.899070 0.000000 
#    z 0.000000 0.000000 2.047720 
# 
# From -- ./inp_files/8359.got.cif
#   From: 2010.05.17/outbox.cif.g08.bks.cpg/sg46_5_cif.got.tgz:8359.got - 2010.06.03 19:58:25.
