data_PCOD9379143
_publ_section_title
;
Structure prediction by ZEFSAII (Michael W. Deem and Ramdas Pophale) SiO2 
 PCOD9379143
Probable space group: I M A 2
;
_chemical_formula_sum "Si O2"
_cell_formula_units_Z 52
_cell_length_a 14.341150
_cell_length_b 19.243739
_cell_length_c 8.965609
_cell_angle_alpha 90.000000
_cell_angle_beta 90.000000
_cell_angle_gamma 90.000000
_cell_volume 2474.304991
_symmetry_space_group_name_H-M "I M A 2"
_symmetry_group_IT_number 46
_symmetry_cell_setting 'orthorhombic'
loop_
_space_group_symop_operation_xyz
x,y,z
-x,-y,z
1/2-x,y,z
1/2+x,-y,z
1/2+x,1/2+y,1/2+z
1/2-x,1/2-y,1/2+z
-x,1/2+y,1/2+z
x,1/2-y,1/2+z
loop_
_atom_site_type_symbol
_atom_site_label
_atom_site_fract_x
_atom_site_fract_y
_atom_site_fract_z
Si Si1 0.854048 0.003271 0.657160
Si Si2 0.398292 0.967864 0.980155
Si Si3 0.522183 0.162123 0.139098
Si Si4 0.639029 0.663386 0.169670
Si Si5 0.000000 0.500000 0.929931
Si Si6 0.854162 0.578615 0.714430
Si Si7 0.967548 0.763871 0.406127
O O1 0.750000 0.005852 0.593908
O O2 0.856459 0.040272 0.817189
O O3 0.876621 0.920405 0.681503
O O4 0.927938 0.035958 0.543622
O O5 0.500000 0.000000 0.951175
O O6 0.416788 0.901170 0.081971
O O7 0.346542 0.023508 0.081382
O O8 0.533984 0.188815 0.304882
O O9 0.410863 0.142547 0.143669
O O10 0.530701 0.222127 0.020383
O O11 0.750000 0.674517 0.183280
O O12 0.585803 0.708767 0.296860
O O13 0.602357 0.690638 0.008682
O O14 0.069750 0.454322 0.828473
O O15 0.750000 0.593859 0.772083
#
# Coordination Sequence:
#
# PCOD9379143 Si02
#       7
#     8   8   8   8   4   8   8
#     4  11  23  37  59  90 123 162 205 257 317 369
#     4  10  19  38  60  83 118 159 201 254 301 357
#     4  10  21  39  57  85 122 159 201 248 300 361
#     4  10  20  33  51  82 122 160 200 242 290 366
#     4  12  22  36  56  86 132 156 194 252 314 366
#     4  11  22  38  62  91 124 163 201 248 312 372
#     4  10  21  33  55  82 119 164 205 235 296 366
#
# _framework density 21.016002
#
# number of rings (size 3 to 8) (size 9 to 14) (size 15 to 20)
#    0.000    1.538    3.077    4.154    0.000    6.154 
#    0.000    0.000    0.000    0.000    0.000    4.308 
#    0.000    0.000    0.000    0.000    0.000    0.000 
#
# Total GULP energy -145085.767228 kJ/mol
# GULP energy per Si atom -5580.221816 kJ/mol
# Density = 2.096817 g / cm^3
# Si number density = 21.016002 Si / 1000 Ang^3
#
#
#
# Elastic Constant Matrix: (Units=GPa)
#
#
# Indices 1 2 3 4 5 6 
#
# 1 76.6447 2.5345 16.8806 0.0000 0.0000 0.0000
# 2 2.5345 39.0791 10.4604 0.0000 0.0000 0.0000
# 3 16.8806 10.4604 115.7628 0.0000 0.0000 0.0000
# 4 0.0000 0.0000 0.0000 41.0600 0.0000 0.0000
# 5 0.0000 0.0000 0.0000 0.0000 9.5271 0.0000
# 6 0.0000 0.0000 0.0000 0.0000 0.0000 0.2686
#
#
#
# Elastic Compliance Matrix: (Units=1/GPa)
#
#
# Indices 1 2 3 4 5 6 
#
# 1 0.013485 -0.000357 -0.001934 0.000000 0.000000 0.000000
# 2 -0.000357 0.026233 -0.002318 0.000000 0.000000 0.000000
# 3 -0.001934 -0.002318 0.009130 0.000000 0.000000 0.000000
# 4 0.000000 0.000000 0.000000 0.024355 0.000000 0.000000
# 5 0.000000 0.000000 0.000000 0.000000 0.104964 0.000000
# 6 0.000000 0.000000 0.000000 0.000000 0.000000 3.723404
#
#
# Mechanical properties :
#
#
# Convention : Reuss Voigt Hill
#
# Bulk Modulus (GPa) = 25.23407 32.35973 28.79690
# Shear Modulus (GPa) = 1.27421 23.61187 12.44304
#
# Velocity S-wave (km/s) = 0.77950 3.35553 2.43590
# Velocity P-wave (km/s) = 3.58375 5.51760 4.65227
#
# Compressibility (1/GPa) = 0.03962897
#
# Stress axis : x y z
#
# Youngs Moduli (GPa) = 74.15649 38.12014 109.53041
#
# Poissons Ratio (x) = 0.01360 0.21185
# Poissons Ratio (y) = 0.02646 0.25393
# Poissons Ratio (z) = 0.14343 0.08838
#
# Static dielectric constant tensor:
#      x y z
#    x 1.842030 0.000000 0.000000 
#    y 0.000000 1.799200 0.000000 
#    z 0.000000 0.000000 1.814350 
# 
# From -- ./inp_files/5884.got.cif
#   From: 2010.05.17/outbox.cif.g08.bks.cpg/sg46_3_cif.got.tgz:5884.got - 2010.06.03 19:58:25.
