data_PCOD9379785
_publ_section_title
;
Structure prediction by ZEFSAII (Michael W. Deem and Ramdas Pophale) SiO2 
 PCOD9379785
Probable space group: I M A 2
;
_chemical_formula_sum "Si O2"
_cell_formula_units_Z 48
_cell_length_a 16.982938
_cell_length_b 8.945419
_cell_length_c 16.068178
_cell_angle_alpha 90.000000
_cell_angle_beta 90.000000
_cell_angle_gamma 90.000000
_cell_volume 2441.069508
_symmetry_space_group_name_H-M "I M A 2"
_symmetry_group_IT_number 46
_symmetry_cell_setting 'orthorhombic'
loop_
_space_group_symop_operation_xyz
x,y,z
-x,-y,z
1/2-x,y,z
1/2+x,-y,z
1/2+x,1/2+y,1/2+z
1/2-x,1/2-y,1/2+z
-x,1/2+y,1/2+z
x,1/2-y,1/2+z
loop_
_atom_site_type_symbol
_atom_site_label
_atom_site_fract_x
_atom_site_fract_y
_atom_site_fract_z
Si Si1 0.656561 0.111542 0.852220
Si Si2 0.086123 0.067420 0.703332
Si Si3 0.910206 0.061338 0.360755
Si Si4 0.656135 0.074521 0.037424
Si Si5 0.155920 0.579462 0.040852
Si Si6 0.914860 0.578746 0.695097
O O1 0.750000 0.153855 0.854463
O O2 0.603398 0.261151 0.846414
O O3 0.640022 0.002821 0.775701
O O4 0.636706 0.037512 0.941548
O O5 0.080933 0.244959 0.705143
O O6 0.117991 0.015575 0.613937
O O7 0.000000 0.000000 0.715990
O O8 0.869394 0.028797 0.448846
O O9 0.874106 0.985482 0.278403
O O10 0.000000 0.000000 0.367304
O O11 0.750000 0.073748 0.044072
O O12 0.629959 0.246808 0.051251
O O13 0.623741 0.968355 0.108453
O O14 0.250000 0.574602 0.047298
O O15 0.000000 0.500000 0.693684
#
# Coordination Sequence:
#
# PCOD9379785 Si02
#       6
#     8   8   8   8   8   8
#     4  10  22  42  65  91 123 163 206 252 306 366
#     4  12  24  39  61  88 121 161 204 254 307 365
#     4  10  20  38  63  91 121 157 205 253 301 363
#     4   9  20  39  63  87 117 156 198 243 299 361
#     4  10  21  39  62  89 120 159 201 248 304 362
#     4  11  24  39  58  86 119 156 199 248 303 359
#
# _framework density 19.663512000000001
#
# number of rings (size 3 to 8) (size 9 to 14) (size 15 to 20)
#    0.000    1.667    0.000    6.500    0.000    7.333 
#    0.000    1.667    0.000    0.000    0.000    0.000 
#    0.000    0.000    0.000    0.000    0.000    0.000 
#
# Total GULP energy -134008.935169 kJ/mol
# GULP energy per Si atom -5583.705632 kJ/mol
# Density = 1.961876 g / cm^3
# Si number density = 19.663512 Si / 1000 Ang^3
#
#
#
# Elastic Constant Matrix: (Units=GPa)
#
#
# Indices 1 2 3 4 5 6 
#
# 1 47.7727 29.2851 18.9658 0.0000 0.0000 0.0000
# 2 29.2851 115.6362 81.0702 0.0000 0.0000 0.0000
# 3 18.9658 81.0702 155.4130 0.0000 0.0000 0.0000
# 4 0.0000 0.0000 0.0000 2.3352 0.0000 0.0000
# 5 0.0000 0.0000 0.0000 0.0000 37.0745 0.0000
# 6 0.0000 0.0000 0.0000 0.0000 0.0000 22.6029
#
#
#
# Elastic Compliance Matrix: (Units=1/GPa)
#
#
# Indices 1 2 3 4 5 6 
#
# 1 0.024795 -0.006555 0.000394 0.000000 0.000000 0.000000
# 2 -0.006555 0.015367 -0.007216 0.000000 0.000000 0.000000
# 3 0.000394 -0.007216 0.010151 0.000000 0.000000 0.000000
# 4 0.000000 0.000000 0.000000 0.428226 0.000000 0.000000
# 5 0.000000 0.000000 0.000000 0.000000 0.026973 0.000000
# 6 0.000000 0.000000 0.000000 0.000000 0.000000 0.044242
#
#
# Mechanical properties :
#
#
# Convention : Reuss Voigt Hill
#
# Bulk Modulus (GPa) = 42.45048 64.16268 53.30658
# Shear Modulus (GPa) = 8.55636 25.03591 16.79614
#
# Velocity S-wave (km/s) = 2.08826 3.57209 2.92580
# Velocity P-wave (km/s) = 5.23925 7.05083 6.21144
#
# Compressibility (1/GPa) = 0.02355686
#
# Stress axis : x y z
#
# Youngs Moduli (GPa) = 40.33136 65.07429 98.51565
#
# Poissons Ratio (x) = 0.42658 -0.03879
# Poissons Ratio (y) = 0.26439 0.71090
# Poissons Ratio (z) = -0.01588 0.46959
#
# Static dielectric constant tensor:
#      x y z
#    x 1.661770 0.000000 0.000000 
#    y 0.000000 1.688420 0.000000 
#    z 0.000000 0.000000 1.703820 
# 
# From -- ./inp_files/16526.got.cif
#   From: 2010.05.17/outbox.cif.g08.bks.cpg/sg46_9_cif.got.tgz:16526.got - 2010.06.03 19:58:25.
