data_PCOD9379197
_publ_section_title
;
Structure prediction by ZEFSAII (Michael W. Deem and Ramdas Pophale) SiO2 
 PCOD9379197
Probable space group: I M A 2
;
_chemical_formula_sum "Si O2"
_cell_formula_units_Z 48
_cell_length_a 8.670199
_cell_length_b 24.289559
_cell_length_c 14.070458
_cell_angle_alpha 90.000000
_cell_angle_beta 90.000000
_cell_angle_gamma 90.000000
_cell_volume 2963.172466
_symmetry_space_group_name_H-M "I M A 2"
_symmetry_group_IT_number 46
_symmetry_cell_setting 'orthorhombic'
loop_
_space_group_symop_operation_xyz
x,y,z
-x,-y,z
1/2-x,y,z
1/2+x,-y,z
1/2+x,1/2+y,1/2+z
1/2-x,1/2-y,1/2+z
-x,1/2+y,1/2+z
x,1/2-y,1/2+z
loop_
_atom_site_type_symbol
_atom_site_label
_atom_site_fract_x
_atom_site_fract_y
_atom_site_fract_z
Si Si1 0.065621 0.560001 0.704680
Si Si2 0.935001 0.559198 0.915561
Si Si3 0.434158 0.335177 0.600112
Si Si4 0.565042 0.831585 0.528102
Si Si5 0.065001 0.728089 0.203795
Si Si6 0.064985 0.774350 0.923533
O O1 0.250000 0.558707 0.704731
O O2 0.000000 0.500000 0.678067
O O3 0.005779 0.571256 0.811802
O O4 0.003976 0.607899 0.636959
O O5 0.750000 0.555918 0.905930
O O6 0.973191 0.608500 0.987193
O O7 0.000000 0.500000 0.946175
O O8 0.250000 0.336923 0.603085
O O9 0.493723 0.285699 0.667828
O O10 0.491564 0.318434 0.495206
O O11 0.750000 0.825514 0.530260
O O12 0.497686 0.817841 0.631549
O O13 0.496223 0.784849 0.458862
O O14 0.250000 0.731740 0.195294
O O15 0.025405 0.717423 0.313334
O O16 0.250000 0.775508 0.933804
#
# Coordination Sequence:
#
# PCOD9379197 Si02
#       6
#     8   8   8   8   8   8
#     4  11  21  34  52  74 101 131 164 202 244 291
#     4  10  20  33  50  74 101 131 166 202 245 292
#     4  11  21  33  51  74 101 132 164 201 245 292
#     4  10  20  32  49  73 100 130 163 201 244 293
#     4  10  20  33  51  74 100 131 165 203 246 292
#     4  10  20  33  50  73  99 129 164 201 244 292
#
# _framework density 16.198854000000001
#
# number of rings (size 3 to 8) (size 9 to 14) (size 15 to 20)
#    0.000    1.667    0.000    9.000    0.000    8.000 
#    0.000    0.000    0.000    1.000    0.000    2.333 
#    0.000    0.000    0.000    0.000    0.000    0.000 
#
# Total GULP energy -134043.287019 kJ/mol
# GULP energy per Si atom -5585.136959 kJ/mol
# Density = 1.616198 g / cm^3
# Si number density = 16.198854 Si / 1000 Ang^3
#
#
#
# Elastic Constant Matrix: (Units=GPa)
#
#
# Indices 1 2 3 4 5 6 
#
# 1 112.7501 67.8437 68.5679 0.0000 0.0000 0.0000
# 2 67.8437 134.9392 98.8578 0.0000 0.0000 0.0000
# 3 68.5679 98.8578 141.7692 0.0000 0.0000 0.0000
# 4 0.0000 0.0000 0.0000 20.6420 0.0000 0.0000
# 5 0.0000 0.0000 0.0000 0.0000 16.6399 0.0000
# 6 0.0000 0.0000 0.0000 0.0000 0.0000 29.3703
#
#
#
# Elastic Compliance Matrix: (Units=1/GPa)
#
#
# Indices 1 2 3 4 5 6 
#
# 1 0.013604 -0.004128 -0.003701 0.000000 0.000000 0.000000
# 2 -0.004128 0.016403 -0.009442 0.000000 0.000000 0.000000
# 3 -0.003701 -0.009442 0.015427 0.000000 0.000000 0.000000
# 4 0.000000 0.000000 0.000000 0.048445 0.000000 0.000000
# 5 0.000000 0.000000 0.000000 0.000000 0.060097 0.000000
# 6 0.000000 0.000000 0.000000 0.000000 0.000000 0.034048
#
#
# Mechanical properties :
#
#
# Convention : Reuss Voigt Hill
#
# Bulk Modulus (GPa) = 91.80166 95.55528 93.67847
# Shear Modulus (GPa) = 22.10461 23.60970 22.85716
#
# Velocity S-wave (km/s) = 3.69803 3.82185 3.76045
# Velocity P-wave (km/s) = 8.66191 8.86524 8.76416
#
# Compressibility (1/GPa) = 0.01089305
#
# Stress axis : x y z
#
# Youngs Moduli (GPa) = 73.50808 60.96293 64.81946
#
# Poissons Ratio (x) = 0.25168 0.23989
# Poissons Ratio (y) = 0.30347 0.61200
# Poissons Ratio (z) = 0.27204 0.57559
#
# Static dielectric constant tensor:
#      x y z
#    x 1.542400 0.000000 0.000000 
#    y 0.000000 1.524890 0.000000 
#    z 0.000000 0.000000 1.532050 
# 
# From -- ./inp_files/14023.got.cif
#   From: 2010.05.17/outbox.cif.g08.bks.cpg/sg46_8_cif.got.tgz:14023.got - 2010.06.03 19:58:25.
