data_PCOD9379377
_publ_section_title
;
Structure prediction by ZEFSAII (Michael W. Deem and Ramdas Pophale) SiO2 
 PCOD9379377
Probable space group: I M A 2
;
_chemical_formula_sum "Si O2"
_cell_formula_units_Z 56
_cell_length_a 20.072028
_cell_length_b 14.732888
_cell_length_c 8.543556
_cell_angle_alpha 90.000000
_cell_angle_beta 90.000000
_cell_angle_gamma 90.000000
_cell_volume 2526.491328
_symmetry_space_group_name_H-M "I M A 2"
_symmetry_group_IT_number 46
_symmetry_cell_setting 'orthorhombic'
loop_
_space_group_symop_operation_xyz
x,y,z
-x,-y,z
1/2-x,y,z
1/2+x,-y,z
1/2+x,1/2+y,1/2+z
1/2-x,1/2-y,1/2+z
-x,1/2+y,1/2+z
x,1/2-y,1/2+z
loop_
_atom_site_type_symbol
_atom_site_label
_atom_site_fract_x
_atom_site_fract_y
_atom_site_fract_z
Si Si1 0.926122 0.984220 0.013450
Si Si2 0.750000 0.888485 0.201225
Si Si3 0.606191 0.646204 0.045660
Si Si4 0.388245 0.846594 0.853688
Si Si5 0.130624 0.987401 0.326753
Si Si6 0.043802 0.192121 0.875046
Si Si7 0.750000 0.726111 0.006419
Si Si8 0.826808 0.181791 0.521022
O O1 0.923281 0.020092 0.190187
O O2 0.880128 0.049851 0.911135
O O3 0.000000 0.000000 0.947457
O O4 0.919239 0.876774 0.995272
O O5 0.812730 0.951901 0.240630
O O6 0.750000 0.805523 0.325762
O O7 0.750000 0.833760 0.039241
O O8 0.565551 0.659291 0.204040
O O9 0.608065 0.545318 0.976557
O O10 0.571465 0.709071 0.914496
O O11 0.681761 0.681462 0.070171
O O12 0.464059 0.813971 0.888678
O O13 0.372059 0.835994 0.671946
O O14 0.341019 0.780689 0.952214
O O15 0.156596 0.891575 0.386866
O O16 0.750000 0.171639 0.567033
#
# Coordination Sequence:
#
# PCOD9379377 Si02
#       8
#     8   4   8   8   8   8   4   8
#     4  10  23  42  64  93 129 167 218 273 329 396
#     4  10  20  38  56  88 122 164 208 258 304 384
#     4  11  22  37  64  94 136 175 215 264 326 393
#     4  11  25  44  68  93 128 168 226 280 339 393
#     4  11  23  40  63  92 130 171 214 267 326 394
#     4  11  22  41  64  98 132 175 218 272 330 401
#     4  10  20  34  58  86 126 166 206 248 304 376
#     4  12  25  46  68  94 129 172 224 289 334 396
#
# _framework density 22.165126999999998
#
# number of rings (size 3 to 8) (size 9 to 14) (size 15 to 20)
#    0.000    1.143    0.714    6.429    0.000    4.571 
#    2.571    0.000    0.000    0.000    0.000    0.000 
#    0.000    0.000    0.000    0.000    0.000    0.000 
#
# Total GULP energy -156557.727485 kJ/mol
# GULP energy per Si atom -5591.347410 kJ/mol
# Density = 2.211468 g / cm^3
# Si number density = 22.165127 Si / 1000 Ang^3
#
#
#
# Elastic Constant Matrix: (Units=GPa)
#
#
# Indices 1 2 3 4 5 6 
#
# 1 52.5306 10.7578 9.2588 0.0000 0.0000 0.0000
# 2 10.7578 69.2608 0.1177 0.0000 0.0000 0.0000
# 3 9.2588 0.1177 56.8370 0.0000 0.0000 0.0000
# 4 0.0000 0.0000 0.0000 38.5419 0.0000 0.0000
# 5 0.0000 0.0000 0.0000 0.0000 19.8422 0.0000
# 6 0.0000 0.0000 0.0000 0.0000 0.0000 14.3260
#
#
#
# Elastic Compliance Matrix: (Units=1/GPa)
#
#
# Indices 1 2 3 4 5 6 
#
# 1 0.020260 -0.003141 -0.003294 0.000000 0.000000 0.000000
# 2 -0.003141 0.014925 0.000481 0.000000 0.000000 0.000000
# 3 -0.003294 0.000481 0.018130 0.000000 0.000000 0.000000
# 4 0.000000 0.000000 0.000000 0.025946 0.000000 0.000000
# 5 0.000000 0.000000 0.000000 0.000000 0.050398 0.000000
# 6 0.000000 0.000000 0.000000 0.000000 0.000000 0.069803
#
#
# Mechanical properties :
#
#
# Convention : Reuss Voigt Hill
#
# Bulk Modulus (GPa) = 24.15072 24.32186 24.23629
# Shear Modulus (GPa) = 22.20515 25.10830 23.65672
#
# Velocity S-wave (km/s) = 3.16857 3.36934 3.27049
# Velocity P-wave (km/s) = 4.93010 5.11209 5.02192
#
# Compressibility (1/GPa) = 0.04140664
#
# Stress axis : x y z
#
# Youngs Moduli (GPa) = 49.35737 67.00041 55.15793
#
# Poissons Ratio (x) = 0.21047 0.18169
# Poissons Ratio (y) = 0.15505 -0.02652
# Poissons Ratio (z) = 0.16258 -0.03222
#
# Static dielectric constant tensor:
#      x y z
#    x 1.808090 0.000000 0.000000 
#    y 0.000000 1.809750 0.000000 
#    z 0.000000 0.000000 1.782580 
# 
# From -- ./inp_files/7434.got.cif
#   From: 2010.05.17/outbox.cif.g08.bks.cpg/sg46_4_cif.got.tgz:7434.got - 2010.06.03 19:58:25.
