data_PCOD9379667
_publ_section_title
;
Structure prediction by ZEFSAII (Michael W. Deem and Ramdas Pophale) SiO2 
 PCOD9379667
Probable space group: I M A 2
;
_chemical_formula_sum "Si O2"
_cell_formula_units_Z 64
_cell_length_a 14.734713
_cell_length_b 9.343459
_cell_length_c 21.555131
_cell_angle_alpha 90.000000
_cell_angle_beta 90.000000
_cell_angle_gamma 90.000000
_cell_volume 2967.563576
_symmetry_space_group_name_H-M "I M A 2"
_symmetry_group_IT_number 46
_symmetry_cell_setting 'orthorhombic'
loop_
_space_group_symop_operation_xyz
x,y,z
-x,-y,z
1/2-x,y,z
1/2+x,-y,z
1/2+x,1/2+y,1/2+z
1/2-x,1/2-y,1/2+z
-x,1/2+y,1/2+z
x,1/2-y,1/2+z
loop_
_atom_site_type_symbol
_atom_site_label
_atom_site_fract_x
_atom_site_fract_y
_atom_site_fract_z
Si Si1 0.993427 0.668463 0.455170
Si Si2 0.104998 0.966137 0.163203
Si Si3 0.850081 0.789622 0.243905
Si Si4 0.356027 0.694382 0.234093
Si Si5 0.146091 0.134440 0.381838
Si Si6 0.087822 0.079053 0.657637
Si Si7 0.359284 0.702754 0.870507
Si Si8 0.148905 0.310056 0.561881
O O1 0.922718 0.774668 0.421780
O O2 0.944650 0.674413 0.522860
O O3 0.000000 0.500000 0.438990
O O4 0.089528 0.729459 0.430117
O O5 0.119065 0.802260 0.178218
O O6 0.143135 0.046415 0.223888
O O7 0.149566 0.050101 0.106291
O O8 0.000000 0.000000 0.158130
O O9 0.750000 0.736715 0.223582
O O10 0.855511 0.784659 0.316362
O O11 0.927797 0.706405 0.207393
O O12 0.250000 0.714280 0.243982
O O13 0.370390 0.538940 0.203991
O O14 0.393351 0.730415 0.303892
O O15 0.250000 0.135812 0.404976
O O16 0.121551 0.967921 0.371992
O O17 0.138969 0.165368 0.603447
O O18 0.000000 0.000000 0.631205
O O19 0.250000 0.722192 0.875570
O O20 0.250000 0.306627 0.531550
#
# Coordination Sequence:
#
# PCOD9379667 Si02
#       8
#     8   8   8   8   8   8   8   8
#     4  12  28  45  70  99 138 181 251 302 358 408
#     4  11  21  36  65  99 133 173 220 274 343 410
#     4  10  20  37  60  91 134 181 222 265 333 418
#     4  11  21  37  64 105 142 170 211 277 348 415
#     4  10  22  42  68  99 135 189 239 281 346 424
#     4  11  24  38  64 103 142 174 219 277 353 410
#     4  10  24  43  68 105 148 185 229 289 363 435
#     4  11  25  50  71  91 132 189 240 289 342 422
#
# _framework density 21.566513
#
# number of rings (size 3 to 8) (size 9 to 14) (size 15 to 20)
#    0.000    1.250    1.250    5.625    5.250    2.000 
#    0.000    0.000    0.000    3.000    0.000    0.000 
#    0.000    0.000    0.000    0.000    0.000    0.000 
#
# Total GULP energy -178209.546138 kJ/mol
# GULP energy per Si atom -5569.048317 kJ/mol
# Density = 2.151743 g / cm^3
# Si number density = 21.566513 Si / 1000 Ang^3
#
#
#
# Elastic Constant Matrix: (Units=GPa)
#
#
# Indices 1 2 3 4 5 6 
#
# 1 82.4937 37.9278 27.1571 0.0000 0.0000 0.0000
# 2 37.9278 117.8697 21.7768 0.0000 0.0000 0.0000
# 3 27.1571 21.7768 70.3840 0.0000 0.0000 0.0000
# 4 0.0000 0.0000 0.0000 13.4784 0.0000 0.0000
# 5 0.0000 0.0000 0.0000 0.0000 28.5758 0.0000
# 6 0.0000 0.0000 0.0000 0.0000 0.0000 31.2597
#
#
#
# Elastic Compliance Matrix: (Units=1/GPa)
#
#
# Indices 1 2 3 4 5 6 
#
# 1 0.015583 -0.004140 -0.004732 0.000000 0.000000 0.000000
# 2 -0.004140 0.010098 -0.001527 0.000000 0.000000 0.000000
# 3 -0.004732 -0.001527 0.016506 0.000000 0.000000 0.000000
# 4 0.000000 0.000000 0.000000 0.074193 0.000000 0.000000
# 5 0.000000 0.000000 0.000000 0.000000 0.034995 0.000000
# 6 0.000000 0.000000 0.000000 0.000000 0.000000 0.031990
#
#
# Mechanical properties :
#
#
# Convention : Reuss Voigt Hill
#
# Bulk Modulus (GPa) = 46.75124 49.38565 48.06845
# Shear Modulus (GPa) = 23.66385 26.92181 25.29283
#
# Velocity S-wave (km/s) = 3.31607 3.53698 3.42831
# Velocity P-wave (km/s) = 6.03212 6.29518 6.16505
#
# Compressibility (1/GPa) = 0.02138980
#
# Stress axis : x y z
#
# Youngs Moduli (GPa) = 64.17102 99.02687 60.58433
#
# Poissons Ratio (x) = 0.40999 0.28667
# Poissons Ratio (y) = 0.26568 0.09251
# Poissons Ratio (z) = 0.30364 0.15121
#
# Static dielectric constant tensor:
#      x y z
#    x 1.855740 0.000000 0.000000 
#    y 0.000000 1.780340 0.000000 
#    z 0.000000 0.000000 1.822620 
# 
# From -- ./inp_files/23658.got.cif
#   From: 2010.05.17/outbox.cif.g08.bks.cpg/sg46_12_cif.got.tgz:23658.got - 2010.06.03 19:58:25.
