data_PCOD9379967
_publ_section_title
;
Structure prediction by ZEFSAII (Michael W. Deem and Ramdas Pophale) SiO2 
 PCOD9379967
Probable space group: I M A 2
;
_chemical_formula_sum "Si O2"
_cell_formula_units_Z 48
_cell_length_a 8.536418
_cell_length_b 18.934843
_cell_length_c 15.435981
_cell_angle_alpha 90.000000
_cell_angle_beta 90.000000
_cell_angle_gamma 90.000000
_cell_volume 2495.006128
_symmetry_space_group_name_H-M "I M A 2"
_symmetry_group_IT_number 46
_symmetry_cell_setting 'orthorhombic'
loop_
_space_group_symop_operation_xyz
x,y,z
-x,-y,z
1/2-x,y,z
1/2+x,-y,z
1/2+x,1/2+y,1/2+z
1/2-x,1/2-y,1/2+z
-x,1/2+y,1/2+z
x,1/2-y,1/2+z
loop_
_atom_site_type_symbol
_atom_site_label
_atom_site_fract_x
_atom_site_fract_y
_atom_site_fract_z
Si Si1 0.938956 0.423959 0.623340
Si Si2 0.560418 0.199318 0.992985
Si Si3 0.435891 0.142839 0.491506
Si Si4 0.560213 0.195493 0.795110
Si Si5 0.062411 0.923747 0.662510
Si Si6 0.939578 0.142571 0.300915
O O1 0.750000 0.424607 0.621964
O O2 0.989597 0.360249 0.560638
O O3 0.989471 0.406554 0.721604
O O4 0.000000 0.500000 0.595495
O O5 0.750000 0.206126 0.997462
O O6 0.490779 0.276617 0.009538
O O7 0.518271 0.178456 0.894452
O O8 0.250000 0.138618 0.494648
O O9 0.508269 0.094130 0.565589
O O10 0.494193 0.124296 0.394975
O O11 0.750000 0.195180 0.790284
O O12 0.503213 0.138401 0.726243
O O13 0.512081 0.276532 0.779118
O O14 0.250000 0.924246 0.665218
O O15 0.000000 0.000000 0.689483
O O16 0.750000 0.141772 0.306496
#
# Coordination Sequence:
#
# PCOD9379967 Si02
#       6
#     8   8   8   8   8   8
#     4  10  21  35  55  81 112 147 181 217 266 320
#     4   9  18  37  60  81 107 144 182 218 263 322
#     4  11  22  36  56  83 108 138 180 229 275 316
#     4   8  16  33  59  81 100 134 182 223 262 314
#     4  11  22  37  55  79 111 147 181 219 266 321
#     4   9  18  36  58  79 104 142 184 222 266 321
#
# _framework density 19.238429
#
# number of rings (size 3 to 8) (size 9 to 14) (size 15 to 20)
#    0.000    2.333    0.000    4.000    0.000    5.333 
#    0.000   11.667    0.000    0.000    0.000    0.000 
#    0.000    0.000    0.000    0.000    0.000    0.000 
#
# Total GULP energy -133995.792296 kJ/mol
# GULP energy per Si atom -5583.158012 kJ/mol
# Density = 1.919464 g / cm^3
# Si number density = 19.238429 Si / 1000 Ang^3
#
#
#
# Elastic Constant Matrix: (Units=GPa)
#
#
# Indices 1 2 3 4 5 6 
#
# 1 35.1537 4.6863 8.8785 0.0000 0.0000 0.0000
# 2 4.6863 17.8404 8.0559 0.0000 0.0000 0.0000
# 3 8.8785 8.0559 39.3396 0.0000 0.0000 0.0000
# 4 0.0000 0.0000 0.0000 1.3049 0.0000 0.0000
# 5 0.0000 0.0000 0.0000 0.0000 11.2751 0.0000
# 6 0.0000 0.0000 0.0000 0.0000 0.0000 29.2603
#
#
#
# Elastic Compliance Matrix: (Units=1/GPa)
#
#
# Indices 1 2 3 4 5 6 
#
# 1 0.030636 -0.005427 -0.005803 0.000000 0.000000 0.000000
# 2 -0.005427 0.062725 -0.011620 0.000000 0.000000 0.000000
# 3 -0.005803 -0.011620 0.029109 0.000000 0.000000 0.000000
# 4 0.000000 0.000000 0.000000 0.766316 0.000000 0.000000
# 5 0.000000 0.000000 0.000000 0.000000 0.088691 0.000000
# 6 0.000000 0.000000 0.000000 0.000000 0.000000 0.034176
#
#
# Mechanical properties :
#
#
# Convention : Reuss Voigt Hill
#
# Bulk Modulus (GPa) = 13.02588 15.06387 14.04488
# Shear Modulus (GPa) = 4.61705 13.08226 8.84966
#
# Velocity S-wave (km/s) = 1.55085 2.61052 2.14709
# Velocity P-wave (km/s) = 3.16106 4.11504 3.66918
#
# Compressibility (1/GPa) = 0.07677023
#
# Stress axis : x y z
#
# Youngs Moduli (GPa) = 32.64184 15.94254 34.35390
#
# Poissons Ratio (x) = 0.08652 0.19935
# Poissons Ratio (y) = 0.17715 0.39919
# Poissons Ratio (z) = 0.18941 0.18525
#
# Static dielectric constant tensor:
#      x y z
#    x 1.658360 0.000000 0.000000 
#    y 0.000000 1.655180 0.000000 
#    z 0.000000 0.000000 1.668740 
# 
# From -- ./inp_files/13887.got.cif
#   From: 2010.05.17/outbox.cif.g08.bks.cpg/sg46_7_cif.got.tgz:13887.got - 2010.06.03 19:58:25.
