data_PCOD9379319
_publ_section_title
;
Structure prediction by ZEFSAII (Michael W. Deem and Ramdas Pophale) SiO2 
 PCOD9379319
Probable space group: I M A 2
;
_chemical_formula_sum "Si O2"
_cell_formula_units_Z 40
_cell_length_a 8.734789
_cell_length_b 13.896340
_cell_length_c 19.079637
_cell_angle_alpha 90.000000
_cell_angle_beta 90.000000
_cell_angle_gamma 90.000000
_cell_volume 2315.916824
_symmetry_space_group_name_H-M "I M A 2"
_symmetry_group_IT_number 46
_symmetry_cell_setting 'orthorhombic'
loop_
_space_group_symop_operation_xyz
x,y,z
-x,-y,z
1/2-x,y,z
1/2+x,-y,z
1/2+x,1/2+y,1/2+z
1/2-x,1/2-y,1/2+z
-x,1/2+y,1/2+z
x,1/2-y,1/2+z
loop_
_atom_site_type_symbol
_atom_site_label
_atom_site_fract_x
_atom_site_fract_y
_atom_site_fract_z
Si Si1 0.066641 0.396370 0.156320
Si Si2 0.935097 0.709718 0.014092
Si Si3 0.434818 0.392813 0.870692
Si Si4 0.564729 0.697195 0.722407
Si Si5 0.067541 0.896267 0.083357
O O1 0.250000 0.403061 0.157847
O O2 0.021751 0.361908 0.077905
O O3 0.021349 0.308033 0.206903
O O4 0.000000 0.500000 0.173510
O O5 0.750000 0.719389 0.015603
O O6 0.007519 0.812405 0.032196
O O7 0.982140 0.666002 0.939779
O O8 0.500000 0.500000 0.872588
O O9 0.250000 0.397934 0.871448
O O10 0.480646 0.340351 0.798663
O O11 0.750000 0.690732 0.716041
O O12 0.492441 0.633699 0.660619
O O13 0.250000 0.899285 0.083355
O O14 0.000000 0.000000 0.064856
#
# Coordination Sequence:
#
# PCOD9379319 Si02
#       5
#     8   8   8   8   8
#     4   9  17  30  49  71  98 130 166 207 250 294
#     4   9  19  35  52  74 103 133 167 210 256 306
#     4  10  20  34  54  77 105 137 168 207 257 306
#     4   9  19  35  52  75 106 138 171 210 254 302
#     4  11  21  34  54  77 101 134 173 214 255 300
#
# _framework density 17.271775999999999
#
# number of rings (size 3 to 8) (size 9 to 14) (size 15 to 20)
#    0.000    2.400    0.000    4.200    0.000    6.400 
#    0.000    1.000    0.000    2.400    0.000    0.000 
#    0.000    0.000    0.000    0.000    0.000    0.000 
#
# Total GULP energy -111603.496503 kJ/mol
# GULP energy per Si atom -5580.174825 kJ/mol
# Density = 1.723246 g / cm^3
# Si number density = 17.271776 Si / 1000 Ang^3
#
#
#
# Elastic Constant Matrix: (Units=GPa)
#
#
# Indices 1 2 3 4 5 6 
#
# 1 29.1166 40.0706 34.7345 0.0000 0.0000 0.0000
# 2 40.0706 164.4767 91.0352 0.0000 0.0000 0.0000
# 3 34.7345 91.0352 149.8410 0.0000 0.0000 0.0000
# 4 0.0000 0.0000 0.0000 14.7040 0.0000 0.0000
# 5 0.0000 0.0000 0.0000 0.0000 18.6031 0.0000
# 6 0.0000 0.0000 0.0000 0.0000 0.0000 35.3326
#
#
#
# Elastic Compliance Matrix: (Units=1/GPa)
#
#
# Indices 1 2 3 4 5 6 
#
# 1 0.056277 -0.009778 -0.007105 0.000000 0.000000 0.000000
# 2 -0.009778 0.010859 -0.004331 0.000000 0.000000 0.000000
# 3 -0.007105 -0.004331 0.010952 0.000000 0.000000 0.000000
# 4 0.000000 0.000000 0.000000 0.068009 0.000000 0.000000
# 5 0.000000 0.000000 0.000000 0.000000 0.053755 0.000000
# 6 0.000000 0.000000 0.000000 0.000000 0.000000 0.028303
#
#
# Mechanical properties :
#
#
# Convention : Reuss Voigt Hill
#
# Bulk Modulus (GPa) = 28.04219 75.01278 51.52748
# Shear Modulus (GPa) = 17.70111 25.56751 21.63431
#
# Velocity S-wave (km/s) = 3.20481 3.85165 3.54302
# Velocity P-wave (km/s) = 5.47408 7.95647 6.82902
#
# Compressibility (1/GPa) = 0.03566056
#
# Stress axis : x y z
#
# Youngs Moduli (GPa) = 17.76924 92.08907 91.30880
#
# Poissons Ratio (x) = 0.90045 0.64874
# Poissons Ratio (y) = 0.17375 0.39543
# Poissons Ratio (z) = 0.12625 0.39881
#
# Static dielectric constant tensor:
#      x y z
#    x 1.585360 0.000000 0.000000 
#    y 0.000000 1.564000 0.000000 
#    z 0.000000 0.000000 1.578260 
# 
# From -- ./inp_files/17963.got.cif
#   From: 2010.05.17/outbox.cif.g08.bks.cpg/sg46_9_cif.got.tgz:17963.got - 2010.06.03 19:58:25.
