data_PCOD9379594
_publ_section_title
;
Structure prediction by ZEFSAII (Michael W. Deem and Ramdas Pophale) SiO2 
 PCOD9379594
Probable space group: I M A 2
;
_chemical_formula_sum "Si O2"
_cell_formula_units_Z 64
_cell_length_a 8.749520
_cell_length_b 25.230156
_cell_length_c 15.217267
_cell_angle_alpha 90.000000
_cell_angle_beta 90.000000
_cell_angle_gamma 90.000000
_cell_volume 3359.238389
_symmetry_space_group_name_H-M "I M A 2"
_symmetry_group_IT_number 46
_symmetry_cell_setting 'orthorhombic'
loop_
_space_group_symop_operation_xyz
x,y,z
-x,-y,z
1/2-x,y,z
1/2+x,-y,z
1/2+x,1/2+y,1/2+z
1/2-x,1/2-y,1/2+z
-x,1/2+y,1/2+z
x,1/2-y,1/2+z
loop_
_atom_site_type_symbol
_atom_site_label
_atom_site_fract_x
_atom_site_fract_y
_atom_site_fract_z
Si Si1 0.933158 0.941180 0.970780
Si Si2 0.932418 0.862115 0.128820
Si Si3 0.932920 0.231817 0.018635
Si Si4 0.431869 0.853171 0.505525
Si Si5 0.932258 0.166091 0.301560
Si Si6 0.931110 0.556028 0.123823
Si Si7 0.432347 0.890992 0.793952
Si Si8 0.067882 0.219473 0.825292
O O1 0.750000 0.942811 0.960024
O O2 0.004761 0.911400 0.887169
O O3 0.968087 0.908297 0.059162
O O4 0.000000 0.000000 0.975328
O O5 0.750000 0.855593 0.132051
O O6 0.009251 0.808832 0.091001
O O7 0.998279 0.870450 0.225887
O O8 0.750000 0.227206 0.005850
O O9 0.966434 0.293419 0.038163
O O10 0.016094 0.217521 0.927383
O O11 0.250000 0.862068 0.518067
O O12 0.463839 0.852698 0.401004
O O13 0.523788 0.897524 0.556720
O O14 0.750000 0.170411 0.292185
O O15 0.005358 0.224437 0.291642
O O16 0.750000 0.552021 0.132951
O O17 0.000000 0.500000 0.094563
O O18 0.004640 0.571787 0.217152
O O19 0.250000 0.891226 0.794296
O O20 0.493303 0.831381 0.779575
O O21 0.250000 0.217091 0.818487
#
# Coordination Sequence:
#
# PCOD9379594 Si02
#       8
#     8   8   8   8   8   8   8   8
#     4  11  24  42  63  90 125 165 210 258 309 367
#     4  11  23  38  60  91 128 165 210 260 307 365
#     4  10  20  36  60  89 124 164 204 247 306 369
#     4   9  21  42  64  90 122 160 207 257 309 370
#     4  10  22  40  63  90 126 166 206 254 313 374
#     4  12  26  44  66  91 122 160 207 260 313 370
#     4  12  24  40  63  90 125 165 206 252 308 373
#     4  11  21  36  58  89 127 163 205 250 303 367
#
# _framework density 19.051938
#
# number of rings (size 3 to 8) (size 9 to 14) (size 15 to 20)
#    0.000    1.250    1.250    6.000    1.750    4.500 
#    0.000    0.625    0.000    1.500    0.000    0.000 
#    0.000    0.000    0.000    0.000    0.000    0.000 
#
# Total GULP energy -178993.470725 kJ/mol
# GULP energy per Si atom -5593.545960 kJ/mol
# Density = 1.900858 g / cm^3
# Si number density = 19.051938 Si / 1000 Ang^3
#
#
#
# Elastic Constant Matrix: (Units=GPa)
#
#
# Indices 1 2 3 4 5 6 
#
# 1 124.6333 59.6959 44.0937 0.0000 0.0000 0.0000
# 2 59.6959 95.4398 37.6954 0.0000 0.0000 0.0000
# 3 44.0937 37.6954 62.3202 0.0001 0.0000 0.0000
# 4 0.0000 0.0000 0.0001 23.6442 0.0000 0.0000
# 5 0.0000 0.0000 0.0000 0.0000 34.8230 0.0000
# 6 0.0000 0.0000 0.0000 0.0000 0.0000 27.8811
#
#
#
# Elastic Compliance Matrix: (Units=1/GPa)
#
#
# Indices 1 2 3 4 5 6 
#
# 1 0.012752 -0.005798 -0.005516 0.000000 0.000000 0.000000
# 2 -0.005798 0.016403 -0.005819 0.000000 0.000000 0.000000
# 3 -0.005516 -0.005819 0.023469 0.000000 0.000000 0.000000
# 4 0.000000 0.000000 0.000000 0.042294 0.000000 0.000000
# 5 0.000000 0.000000 0.000000 0.000000 0.028717 0.000000
# 6 0.000000 0.000000 0.000000 0.000000 0.000000 0.035867
#
#
# Mechanical properties :
#
#
# Convention : Reuss Voigt Hill
#
# Bulk Modulus (GPa) = 54.47255 62.81814 58.64535
# Shear Modulus (GPa) = 25.01452 26.66356 25.83904
#
# Velocity S-wave (km/s) = 3.62742 3.74507 3.68671
# Velocity P-wave (km/s) = 6.79690 7.19336 6.99794
#
# Compressibility (1/GPa) = 0.01835787
#
# Stress axis : x y z
#
# Youngs Moduli (GPa) = 78.42073 60.96627 42.61019
#
# Poissons Ratio (x) = 0.35345 0.23502
# Poissons Ratio (y) = 0.45465 0.24796
# Poissons Ratio (z) = 0.43253 0.35479
#
# Static dielectric constant tensor:
#      x y z
#    x 1.631420 0.000000 0.000000 
#    y 0.000000 1.642830 0.000000 
#    z 0.000000 0.000000 1.681620 
# 
# From -- ./inp_files/14547.got.cif
#   From: 2010.05.17/outbox.cif.g08.bks.cpg/sg46_8_cif.got.tgz:14547.got - 2010.06.03 19:58:25.
