data_PCOD9379394
_publ_section_title
;
Structure prediction by ZEFSAII (Michael W. Deem and Ramdas Pophale) SiO2 
 PCOD9379394
Probable space group: I M A 2
;
_chemical_formula_sum "Si O2"
_cell_formula_units_Z 48
_cell_length_a 9.048761
_cell_length_b 32.538459
_cell_length_c 7.318261
_cell_angle_alpha 90.000000
_cell_angle_beta 90.000000
_cell_angle_gamma 90.000000
_cell_volume 2154.735629
_symmetry_space_group_name_H-M "I M A 2"
_symmetry_group_IT_number 46
_symmetry_cell_setting 'orthorhombic'
loop_
_space_group_symop_operation_xyz
x,y,z
-x,-y,z
1/2-x,y,z
1/2+x,-y,z
1/2+x,1/2+y,1/2+z
1/2-x,1/2-y,1/2+z
-x,1/2+y,1/2+z
x,1/2-y,1/2+z
loop_
_atom_site_type_symbol
_atom_site_label
_atom_site_fract_x
_atom_site_fract_y
_atom_site_fract_z
Si Si1 0.420951 0.458236 0.896930
Si Si2 0.082407 0.041283 0.842772
Si Si3 0.916589 0.377508 0.342252
Si Si4 0.426051 0.710401 0.277752
Si Si5 0.922920 0.792742 0.403212
Si Si6 0.920414 0.125068 0.394868
O O1 0.500000 0.500000 0.837727
O O2 0.250000 0.456781 0.842845
O O3 0.509223 0.417928 0.836925
O O4 0.423761 0.458257 0.119969
O O5 0.250000 0.037957 0.899880
O O6 0.018415 0.085187 0.901897
O O7 0.000000 0.000000 0.901734
O O8 0.750000 0.388490 0.393326
O O9 0.944796 0.330409 0.401295
O O10 0.921166 0.375482 0.118737
O O11 0.250000 0.710479 0.223979
O O12 0.471781 0.754529 0.353295
O O13 0.545749 0.704197 0.118582
O O14 0.750000 0.786176 0.361490
O O15 0.983852 0.836104 0.330731
O O16 0.750000 0.129386 0.339677
#
# Coordination Sequence:
#
# PCOD9379394 Si02
#       6
#     8   8   8   8   8   8
#     4   9  15  22  33  52  78 110 146 184 225 273
#     4   9  15  21  32  50  76 108 142 178 219 267
#     4   8  15  26  40  57  80 111 148 185 224 271
#     4  10  20  35  52  70  95 129 163 197 240 291
#     4  11  21  33  50  73  98 125 160 203 244 285
#     4   9  16  27  41  58  83 117 152 187 230 281
#
# _framework density 22.276516999999998
#
# number of rings (size 3 to 8) (size 9 to 14) (size 15 to 20)
#    0.000    2.667    0.000    4.500    0.000    8.667 
#    0.000    0.000    0.000    0.000    0.000    0.000 
#    0.000    1.333    0.000    9.333    0.000   11.667 
#
# Total GULP energy -133928.388797 kJ/mol
# GULP energy per Si atom -5580.349533 kJ/mol
# Density = 2.222581 g / cm^3
# Si number density = 22.276517 Si / 1000 Ang^3
#
#
#
# Elastic Constant Matrix: (Units=GPa)
#
#
# Indices 1 2 3 4 5 6 
#
# 1 140.9415 105.4826 -1.6117 0.0046 0.0012 -0.0022
# 2 105.4826 218.2514 -6.8480 0.0047 0.0048 0.0014
# 3 -1.6117 -6.8480 56.9335 0.0076 0.0058 0.0022
# 4 0.0046 0.0047 0.0076 -2.0996 0.0042 0.0024
# 5 0.0012 0.0048 0.0058 0.0042 -4.0061 0.0043
# 6 -0.0022 0.0014 0.0022 0.0024 0.0043 44.2896
#
#
#
# Elastic Compliance Matrix: (Units=1/GPa)
#
#
# Indices 1 2 3 4 5 6 
#
# 1 0.011122 -0.005386 -0.000333 0.000011 -0.000004 0.000001
# 2 -0.005386 0.007207 0.000714 0.000007 0.000008 -0.000001
# 3 -0.000333 0.000714 0.017641 0.000065 0.000027 -0.000001
# 4 0.000011 0.000007 0.000065 -0.476292 -0.000494 0.000026
# 5 -0.000004 0.000008 0.000027 -0.000494 -0.249623 0.000024
# 6 0.000001 -0.000001 -0.000001 0.000026 0.000024 0.022579
#
#
# Mechanical properties :
#
#
# Convention : Reuss Voigt Hill
#
# Bulk Modulus (GPa) = 38.51854 67.79692 53.15773
# Shear Modulus (GPa) = -7.70769 28.91036 10.60134
#
# Velocity S-wave (km/s) = -1.86213 3.60640 2.18387
# Velocity P-wave (km/s) = 3.56445 6.91678 5.50214
#
# Compressibility (1/GPa) = 0.02596152
#
# Stress axis : x y z
#
# Youngs Moduli (GPa) = 89.91014 138.74752 56.68665
#
# Poissons Ratio (x) = 0.74728 0.01888
# Poissons Ratio (y) = 0.48425 -0.04050
# Poissons Ratio (z) = 0.02994 -0.09913
#
# Static dielectric constant tensor:
#      x y z
#    x 1.733180 0.000000 0.000000 
#    y 0.000000 1.842200 -0.000010 
#    z 0.000000 -0.000010 1.985680 
# 
# From -- ./inp_files/3954.got.cif
#   From: 2010.05.17/outbox.cif.g08.bks.cpg/sg46_2_cif.got.tgz:3954.got - 2010.06.03 19:58:25.
