data_PCOD9379629
_publ_section_title
;
Structure prediction by ZEFSAII (Michael W. Deem and Ramdas Pophale) SiO2 
 PCOD9379629
Probable space group: I M A 2
;
_chemical_formula_sum "Si O2"
_cell_formula_units_Z 48
_cell_length_a 8.546100
_cell_length_b 30.820918
_cell_length_c 10.246248
_cell_angle_alpha 90.000000
_cell_angle_beta 90.000000
_cell_angle_gamma 90.000000
_cell_volume 2698.847863
_symmetry_space_group_name_H-M "I M A 2"
_symmetry_group_IT_number 46
_symmetry_cell_setting 'orthorhombic'
loop_
_space_group_symop_operation_xyz
x,y,z
-x,-y,z
1/2-x,y,z
1/2+x,-y,z
1/2+x,1/2+y,1/2+z
1/2-x,1/2-y,1/2+z
-x,1/2+y,1/2+z
x,1/2-y,1/2+z
loop_
_atom_site_type_symbol
_atom_site_label
_atom_site_fract_x
_atom_site_fract_y
_atom_site_fract_z
Si Si1 0.563000 0.951550 0.375000
Si Si2 0.563283 0.383795 0.085576
Si Si3 0.560137 0.714655 0.376381
Si Si4 0.438278 0.115664 0.877014
Si Si5 0.940041 0.712094 0.077450
Si Si6 0.936674 0.451826 0.587632
O O1 0.750000 0.952012 0.376750
O O2 0.498966 0.918142 0.481138
O O3 0.504800 0.939708 0.229633
O O4 0.500000 0.000000 0.401727
O O5 0.750000 0.385277 0.091692
O O6 0.493790 0.393051 0.229319
O O7 0.507207 0.335376 0.048248
O O8 0.750000 0.715164 0.380288
O O9 0.512750 0.665339 0.408852
O O10 0.514942 0.723415 0.226449
O O11 0.506150 0.751169 0.476807
O O12 0.250000 0.113448 0.881337
O O13 0.509151 0.081962 0.978603
O O14 0.750000 0.709319 0.073048
O O15 0.750000 0.453406 0.595719
O O16 0.000000 0.500000 0.556862
#
# Coordination Sequence:
#
# PCOD9379629 Si02
#       6
#     8   8   8   8   8   8
#     4  11  22  39  60  83 110 144 182 226 273 327
#     4  11  22  37  55  81 113 147 184 229 277 326
#     4   8  16  30  52  77 104 137 180 224 267 320
#     4  10  20  37  58  83 111 146 187 229 273 325
#     4   9  17  33  53  76 104 140 181 224 269 323
#     4  11  22  38  58  84 114 146 181 224 272 325
#
# _framework density 17.785367000000001
#
# number of rings (size 3 to 8) (size 9 to 14) (size 15 to 20)
#    0.000    2.000    0.000    7.000    0.000    2.000 
#    0.000   10.833    0.000    0.000    0.000    0.000 
#    0.000    0.000    0.000    0.000    0.000    0.000 
#
# Total GULP energy -134012.619289 kJ/mol
# GULP energy per Si atom -5583.859137 kJ/mol
# Density = 1.774489 g / cm^3
# Si number density = 17.785367 Si / 1000 Ang^3
#
#
#
# Elastic Constant Matrix: (Units=GPa)
#
#
# Indices 1 2 3 4 5 6 
#
# 1 96.7825 36.7681 32.3121 -0.0001 -0.0001 0.0000
# 2 36.7681 132.4655 119.2576 0.0000 -0.0001 0.0000
# 3 32.3121 119.2576 123.6733 0.0004 0.0001 0.0001
# 4 -0.0001 0.0000 0.0004 45.9301 0.0001 0.0000
# 5 -0.0001 -0.0001 0.0001 0.0001 27.2968 0.0001
# 6 0.0000 0.0000 0.0001 0.0000 0.0001 27.1828
#
#
#
# Elastic Compliance Matrix: (Units=1/GPa)
#
#
# Indices 1 2 3 4 5 6 
#
# 1 0.011556 -0.003711 0.000560 0.000000 0.000000 0.000000
# 2 -0.003711 0.058446 -0.055390 0.000000 0.000000 0.000000
# 3 0.000560 -0.055390 0.061352 -0.000001 0.000000 0.000000
# 4 0.000000 0.000000 -0.000001 0.021772 0.000000 0.000000
# 5 0.000000 0.000000 0.000000 0.000000 0.036634 0.000000
# 6 0.000000 0.000000 0.000000 0.000000 0.000000 0.036788
#
#
# Mechanical properties :
#
#
# Convention : Reuss Voigt Hill
#
# Bulk Modulus (GPa) = 70.07387 81.06631 75.57009
# Shear Modulus (GPa) = 14.35185 31.05418 22.70301
#
# Velocity S-wave (km/s) = 2.84376 4.18311 3.57669
# Velocity P-wave (km/s) = 7.08999 8.30726 7.72264
#
# Compressibility (1/GPa) = 0.01427065
#
# Stress axis : x y z
#
# Youngs Moduli (GPa) = 86.53861 17.10978 16.29950
#
# Poissons Ratio (x) = 0.06350 -0.00912
# Poissons Ratio (y) = 0.32117 0.90282
# Poissons Ratio (z) = -0.04844 0.94770
#
# Static dielectric constant tensor:
#      x y z
#    x 1.602770 0.000000 0.000000 
#    y 0.000000 1.586070 0.000000 
#    z 0.000000 0.000000 1.584740 
# 
# From -- ./inp_files/3909.got.cif
#   From: 2010.05.17/outbox.cif.g08.bks.cpg/sg46_2_cif.got.tgz:3909.got - 2010.06.03 19:58:25.
