data_PCOD9379678
_publ_section_title
;
Structure prediction by ZEFSAII (Michael W. Deem and Ramdas Pophale) SiO2 
 PCOD9379678
Probable space group: I M A 2
;
_chemical_formula_sum "Si O2"
_cell_formula_units_Z 64
_cell_length_a 15.493013
_cell_length_b 16.967432
_cell_length_c 10.998161
_cell_angle_alpha 90.000000
_cell_angle_beta 90.000000
_cell_angle_gamma 90.000000
_cell_volume 2891.159660
_symmetry_space_group_name_H-M "I M A 2"
_symmetry_group_IT_number 46
_symmetry_cell_setting 'orthorhombic'
loop_
_space_group_symop_operation_xyz
x,y,z
-x,-y,z
1/2-x,y,z
1/2+x,-y,z
1/2+x,1/2+y,1/2+z
1/2-x,1/2-y,1/2+z
-x,1/2+y,1/2+z
x,1/2-y,1/2+z
loop_
_atom_site_type_symbol
_atom_site_label
_atom_site_fract_x
_atom_site_fract_y
_atom_site_fract_z
Si Si1 0.353083 0.674524 0.901090
Si Si2 0.897396 0.008252 0.296868
Si Si3 0.651242 0.595513 0.168624
Si Si4 0.146323 0.152837 0.420915
Si Si5 0.145580 0.330847 0.417770
Si Si6 0.644091 0.211631 0.678686
Si Si7 0.907604 0.454235 0.275828
Si Si8 0.397889 0.486878 0.534418
O O1 0.250000 0.680691 0.903053
O O2 0.375247 0.581805 0.883164
O O3 0.380756 0.718677 0.774811
O O4 0.380838 0.711084 0.033483
O O5 0.867795 0.920857 0.334094
O O6 0.862456 0.021113 0.159783
O O7 0.000000 0.000000 0.293253
O O8 0.750000 0.623068 0.164467
O O9 0.615706 0.629713 0.292698
O O10 0.648701 0.502376 0.178832
O O11 0.607139 0.624851 0.048652
O O12 0.250000 0.160906 0.424993
O O13 0.113681 0.241670 0.407815
O O14 0.250000 0.330733 0.423957
O O15 0.117469 0.392820 0.520734
O O16 0.750000 0.204618 0.682653
O O17 0.598787 0.135291 0.738255
O O18 0.868564 0.470640 0.410227
O O19 0.000000 0.500000 0.269706
O O20 0.500000 0.500000 0.536078
#
# Coordination Sequence:
#
# PCOD9379678 Si02
#       8
#     8   8   8   8   8   8   8   8
#     4  10  23  43  66  94 126 163 213 262 314 369
#     4  11  24  42  58  89 124 168 207 257 309 374
#     4   9  18  34  54  81 114 146 191 244 293 358
#     4  10  21  36  59  85 118 156 196 251 308 358
#     4   9  19  35  58  89 115 151 200 247 302 368
#     4  10  22  41  66  94 125 161 207 263 312 368
#     4  10  20  37  61  87 118 157 203 248 308 371
#     4   9  21  40  58  83 127 160 203 250 309 364
#
# _framework density 22.136444999999998
#
# number of rings (size 3 to 8) (size 9 to 14) (size 15 to 20)
#    0.000    2.250    0.000    1.500    3.500    5.500 
#    6.750    0.000    0.000    0.000    0.000    0.000 
#    0.000    0.000    0.000    0.000    0.000    0.000 
#
# Total GULP energy -178223.541824 kJ/mol
# GULP energy per Si atom -5569.485682 kJ/mol
# Density = 2.208606 g / cm^3
# Si number density = 22.136445 Si / 1000 Ang^3
#
#
#
# Elastic Constant Matrix: (Units=GPa)
#
#
# Indices 1 2 3 4 5 6 
#
# 1 35.0431 16.0092 9.1168 0.0000 0.0000 0.0000
# 2 16.0092 123.4851 52.3040 0.0000 0.0000 0.0000
# 3 9.1168 52.3040 122.5889 0.0000 0.0000 0.0000
# 4 0.0000 0.0000 0.0000 19.7357 0.0000 0.0000
# 5 0.0000 0.0000 0.0000 0.0000 9.8180 0.0000
# 6 0.0000 0.0000 0.0000 0.0000 0.0000 -0.6603
#
#
#
# Elastic Compliance Matrix: (Units=1/GPa)
#
#
# Indices 1 2 3 4 5 6 
#
# 1 0.030383 -0.003640 -0.000707 0.000000 0.000000 0.000000
# 2 -0.003640 0.010320 -0.004133 0.000000 0.000000 0.000000
# 3 -0.000707 -0.004133 0.009973 0.000000 0.000000 0.000000
# 4 0.000000 0.000000 0.000000 0.050670 0.000000 0.000000
# 5 0.000000 0.000000 0.000000 0.000000 0.101854 0.000000
# 6 0.000000 0.000000 0.000000 0.000000 0.000000 -1.514498
#
#
# Mechanical properties :
#
#
# Convention : Reuss Voigt Hill
#
# Bulk Modulus (GPa) = 29.65723 48.44188 39.04956
# Shear Modulus (GPa) = -3.89681 19.35783 7.73051
#
# Velocity S-wave (km/s) = -1.32822 2.96037 1.87077
# Velocity P-wave (km/s) = 3.32781 5.79792 4.72706
#
# Compressibility (1/GPa) = 0.03371859
#
# Stress axis : x y z
#
# Youngs Moduli (GPa) = 32.91322 96.89485 100.26928
#
# Poissons Ratio (x) = 0.35267 0.07085
# Poissons Ratio (y) = 0.11979 0.41438
# Poissons Ratio (z) = 0.02326 0.40043
#
# Static dielectric constant tensor:
#      x y z
#    x 1.856870 0.000000 0.000000 
#    y 0.000000 1.985630 0.000000 
#    z 0.000000 0.000000 1.884750 
# 
# From -- ./inp_files/11955.got.cif
#   From: 2010.05.17/outbox.cif.g08.bks.cpg/sg46_6_cif.got.tgz:11955.got - 2010.06.03 19:58:25.
