data_PCOD9379561
_publ_section_title
;
Structure prediction by ZEFSAII (Michael W. Deem and Ramdas Pophale) SiO2 
 PCOD9379561
Probable space group: I M A 2
;
_chemical_formula_sum "Si O2"
_cell_formula_units_Z 60
_cell_length_a 9.795234
_cell_length_b 12.478253
_cell_length_c 22.841766
_cell_angle_alpha 90.000000
_cell_angle_beta 90.000000
_cell_angle_gamma 90.000000
_cell_volume 2791.889853
_symmetry_space_group_name_H-M "I M A 2"
_symmetry_group_IT_number 46
_symmetry_cell_setting 'orthorhombic'
loop_
_space_group_symop_operation_xyz
x,y,z
-x,-y,z
1/2-x,y,z
1/2+x,-y,z
1/2+x,1/2+y,1/2+z
1/2-x,1/2-y,1/2+z
-x,1/2+y,1/2+z
x,1/2-y,1/2+z
loop_
_atom_site_type_symbol
_atom_site_label
_atom_site_fract_x
_atom_site_fract_y
_atom_site_fract_z
Si Si1 0.250000 0.486320 0.722841
Si Si2 0.091201 0.897495 0.725666
Si Si3 0.485195 0.653614 0.694330
Si Si4 0.600330 0.224180 0.837906
Si Si5 0.913023 0.297770 0.564987
Si Si6 0.410142 0.107163 0.511370
Si Si7 0.094671 0.102647 0.370906
Si Si8 0.897907 0.415253 0.446290
O O1 0.369019 0.581433 0.724144
O O2 0.370474 0.395109 0.711926
O O3 0.250000 0.910554 0.707427
O O4 0.036717 0.781273 0.704952
O O5 0.089390 0.877811 0.795809
O O6 0.000000 0.000000 0.709209
O O7 0.458337 0.646445 0.624549
O O8 0.750000 0.273665 0.826301
O O9 0.474062 0.303399 0.833919
O O10 0.602791 0.186949 0.904851
O O11 0.750000 0.268983 0.568003
O O12 0.929620 0.379354 0.511395
O O13 0.009616 0.198245 0.547326
O O14 0.250000 0.096073 0.528680
O O15 0.407002 0.128543 0.440717
O O16 0.500000 0.000000 0.518885
O O17 0.250000 0.080411 0.351816
O O18 0.000000 0.000000 0.363264
O O19 0.750000 0.466442 0.445755
O O20 0.000000 0.500000 0.421753
#
# Coordination Sequence:
#
# PCOD9379561 Si02
#       8
#     4   8   8   8   8   8   8   8
#     4  10  24  46  74  94 138 168 220 280 342 404
#     4  11  25  46  71  98 135 174 226 281 335 400
#     4  11  24  46  69 102 131 177 221 279 343 396
#     4  10  21  41  61  89 126 167 211 264 321 383
#     4  11  22  37  61  91 129 164 210 261 318 390
#     4  10  21  36  57  85 123 170 216 268 322 380
#     4  10  20  36  58  87 123 167 215 267 323 387
#     4  10  22  35  56  86 120 161 201 244 305 372
#
# _framework density 21.490821
#
# number of rings (size 3 to 8) (size 9 to 14) (size 15 to 20)
#    0.000    1.600    2.667    1.200    3.733    3.200 
#    2.400    1.333    0.000    0.000    0.000    0.000 
#    0.000    0.000    0.000    0.000    0.000    0.000 
#
# Total GULP energy -167029.552961 kJ/mol
# GULP energy per Si atom -5567.651765 kJ/mol
# Density = 2.144191 g / cm^3
# Si number density = 21.490821 Si / 1000 Ang^3
#
#
#
# Elastic Constant Matrix: (Units=GPa)
#
#
# Indices 1 2 3 4 5 6 
#
# 1 199.6291 88.3605 14.2869 0.0000 0.0000 0.0000
# 2 88.3605 108.0940 6.6734 0.0000 0.0000 0.0000
# 3 14.2869 6.6734 54.0740 0.0000 0.0000 0.0000
# 4 0.0000 0.0000 0.0000 21.9806 0.0000 0.0000
# 5 0.0000 0.0000 0.0000 0.0000 13.9181 0.0000
# 6 0.0000 0.0000 0.0000 0.0000 0.0000 58.5941
#
#
#
# Elastic Compliance Matrix: (Units=1/GPa)
#
#
# Indices 1 2 3 4 5 6 
#
# 1 0.007940 -0.006410 -0.001307 0.000000 0.000000 0.000000
# 2 -0.006410 0.014497 -0.000096 0.000000 0.000000 0.000000
# 3 -0.001307 -0.000096 0.018850 0.000000 0.000000 0.000000
# 4 0.000000 0.000000 0.000000 0.045495 0.000000 0.000000
# 5 0.000000 0.000000 0.000000 0.000000 0.071849 0.000000
# 6 0.000000 0.000000 0.000000 0.000000 0.000000 0.017067
#
#
# Mechanical properties :
#
#
# Convention : Reuss Voigt Hill
#
# Bulk Modulus (GPa) = 38.96706 64.49320 51.73013
# Shear Modulus (GPa) = 25.01558 35.73030 30.37294
#
# Velocity S-wave (km/s) = 3.41546 4.08190 3.76346
# Velocity P-wave (km/s) = 5.80734 7.23123 6.55804
#
# Compressibility (1/GPa) = 0.02566270
#
# Stress axis : x y z
#
# Youngs Moduli (GPa) = 125.94598 68.98120 53.04981
#
# Poissons Ratio (x) = 0.44215 0.06932
# Poissons Ratio (y) = 0.80728 0.00507
# Poissons Ratio (z) = 0.16458 0.00659
#
# Static dielectric constant tensor:
#      x y z
#    x 1.752880 0.000000 0.000000 
#    y 0.000000 1.758190 0.000000 
#    z 0.000000 0.000000 1.858830 
# 
# From -- ./inp_files/24258.got.cif
#   From: 2010.05.17/outbox.cif.g08.bks.cpg/sg46_13_cif.got.tgz:24258.got - 2010.06.03 19:58:25.
