data_PCOD9379734
_publ_section_title
;
Structure prediction by ZEFSAII (Michael W. Deem and Ramdas Pophale) SiO2 
 PCOD9379734
Probable space group: I M A 2
;
_chemical_formula_sum "Si O2"
_cell_formula_units_Z 48
_cell_length_a 18.492013
_cell_length_b 5.112343
_cell_length_c 22.522634
_cell_angle_alpha 90.000000
_cell_angle_beta 90.000000
_cell_angle_gamma 90.000000
_cell_volume 2129.233809
_symmetry_space_group_name_H-M "I M A 2"
_symmetry_group_IT_number 46
_symmetry_cell_setting 'orthorhombic'
loop_
_space_group_symop_operation_xyz
x,y,z
-x,-y,z
1/2-x,y,z
1/2+x,-y,z
1/2+x,1/2+y,1/2+z
1/2-x,1/2-y,1/2+z
-x,1/2+y,1/2+z
x,1/2-y,1/2+z
loop_
_atom_site_type_symbol
_atom_site_label
_atom_site_fract_x
_atom_site_fract_y
_atom_site_fract_z
Si Si1 0.584377 0.569796 0.190600
Si Si2 0.610523 0.213381 0.799940
Si Si3 0.000000 0.000000 0.898006
Si Si4 0.250000 0.990576 0.350962
Si Si5 0.894170 0.653296 0.493315
Si Si6 0.580238 0.368168 0.066975
Si Si7 0.750000 0.501344 0.425215
Si Si8 0.500000 0.500000 0.714259
O O1 0.500000 0.500000 0.206493
O O2 0.627068 0.517148 0.251336
O O3 0.608439 0.404576 0.134388
O O4 0.560890 0.861368 0.172751
O O5 0.678785 0.385622 0.817760
O O6 0.556834 0.387790 0.761719
O O7 0.563132 0.114117 0.855725
O O8 0.956904 0.811663 0.943471
O O9 0.250000 0.803298 0.408666
O O10 0.250000 0.295638 0.368845
O O11 0.916363 0.418250 0.538359
O O12 0.822059 0.562853 0.460747
O O13 0.878939 0.925480 0.525436
O O14 0.500000 0.500000 0.068713
#
# Coordination Sequence:
#
# PCOD9379734 Si02
#       8
#     8   8   4   4   8   8   4   4
#     4   9  21  39  66 100 135 173 230 285 353 402
#     4  11  24  42  65 104 134 184 222 295 348 430
#     4  12  22  41  66 102 131 174 232 284 340 414
#     4  12  28  44  70  97 149 180 228 281 360 430
#     4  12  26  43  68  99 136 176 234 281 344 415
#     4  11  23  42  70 102 132 174 230 295 339 407
#     4  12  28  48  64  97 141 192 220 279 356 420
#     4  10  20  37  70 100 137 174 230 284 346 428
#
# _framework density 22.543319
#
# number of rings (size 3 to 8) (size 9 to 14) (size 15 to 20)
#    0.000    1.000    5.833    1.000   11.667    0.000 
#    0.000    1.667    0.000    0.000    0.000    0.000 
#    0.000    0.000    0.000    0.000    0.000    0.000 
#
# Total GULP energy -133642.101576 kJ/mol
# GULP energy per Si atom -5568.420899 kJ/mol
# Density = 2.249201 g / cm^3
# Si number density = 22.543319 Si / 1000 Ang^3
#
#
#
# Elastic Constant Matrix: (Units=GPa)
#
#
# Indices 1 2 3 4 5 6 
#
# 1 62.6726 4.4983 40.8540 0.0000 0.0000 0.0000
# 2 4.4983 68.7223 29.2765 0.0000 0.0000 0.0000
# 3 40.8540 29.2765 114.2103 0.0000 0.0000 0.0000
# 4 0.0000 0.0000 0.0000 29.2358 0.0000 0.0000
# 5 0.0000 0.0000 0.0000 0.0000 17.5002 0.0000
# 6 0.0000 0.0000 0.0000 0.0000 0.0000 18.5451
#
#
#
# Elastic Compliance Matrix: (Units=1/GPa)
#
#
# Indices 1 2 3 4 5 6 
#
# 1 0.021063 0.002056 -0.008061 0.000000 0.000000 0.000000
# 2 0.002056 0.016536 -0.004974 0.000000 0.000000 0.000000
# 3 -0.008061 -0.004974 0.012914 0.000000 0.000000 0.000000
# 4 0.000000 0.000000 0.000000 0.034205 0.000000 0.000000
# 5 0.000000 0.000000 0.000000 0.000000 0.057142 0.000000
# 6 0.000000 0.000000 0.000000 0.000000 0.000000 0.053923
#
#
# Mechanical properties :
#
#
# Convention : Reuss Voigt Hill
#
# Bulk Modulus (GPa) = 35.02173 43.87364 39.44768
# Shear Modulus (GPa) = 22.00117 24.45468 23.22793
#
# Velocity S-wave (km/s) = 3.12741 3.29718 3.21342
# Velocity P-wave (km/s) = 5.34883 5.83090 5.59506
#
# Compressibility (1/GPa) = 0.02855370
#
# Stress axis : x y z
#
# Youngs Moduli (GPa) = 47.47582 60.47501 77.43261
#
# Poissons Ratio (x) = -0.12431 0.62422
# Poissons Ratio (y) = -0.09759 0.38515
# Poissons Ratio (z) = 0.38272 0.30080
#
# Static dielectric constant tensor:
#      x y z
#    x 1.818510 0.000000 0.000000 
#    y 0.000000 1.357870 0.000000 
#    z 0.000000 0.000000 1.883270 
# 
# From -- ./inp_files/23773.got.cif
#   From: 2010.05.17/outbox.cif.g08.bks.cpg/sg46_12_cif.got.tgz:23773.got - 2010.06.03 19:58:25.
