data_PCOD9379953
_publ_section_title
;
Structure prediction by ZEFSAII (Michael W. Deem and Ramdas Pophale) SiO2 
 PCOD9379953
Probable space group: I M A 2
;
_chemical_formula_sum "Si O2"
_cell_formula_units_Z 64
_cell_length_a 8.768317
_cell_length_b 23.893038
_cell_length_c 19.678361
_cell_angle_alpha 90.000000
_cell_angle_beta 90.000000
_cell_angle_gamma 90.000000
_cell_volume 4122.650698
_symmetry_space_group_name_H-M "I M A 2"
_symmetry_group_IT_number 46
_symmetry_cell_setting 'orthorhombic'
loop_
_space_group_symop_operation_xyz
x,y,z
-x,-y,z
1/2-x,y,z
1/2+x,-y,z
1/2+x,1/2+y,1/2+z
1/2-x,1/2-y,1/2+z
-x,1/2+y,1/2+z
x,1/2-y,1/2+z
loop_
_atom_site_type_symbol
_atom_site_label
_atom_site_fract_x
_atom_site_fract_y
_atom_site_fract_z
Si Si1 0.066290 0.771174 0.059780
Si Si2 0.067663 0.061725 0.562309
Si Si3 0.566067 0.225814 0.344830
Si Si4 0.567898 0.749031 0.203250
Si Si5 0.433309 0.561412 0.340470
Si Si6 0.934214 0.618030 0.205904
Si Si7 0.935251 0.164460 0.929259
Si Si8 0.433404 0.659088 0.975936
O O1 0.750000 0.165032 0.929773
O O2 0.994282 0.774809 0.133609
O O3 0.026749 0.711239 0.025493
O O4 0.016388 0.817820 0.004879
O O5 0.250000 0.058993 0.560703
O O6 0.022220 0.088885 0.634925
O O7 0.009304 0.103448 0.504080
O O8 0.000000 0.000000 0.556021
O O9 0.750000 0.226172 0.339812
O O10 0.495484 0.221766 0.270699
O O11 0.518736 0.285255 0.378507
O O12 0.523290 0.178665 0.400005
O O13 0.750000 0.750591 0.203231
O O14 0.520288 0.683352 0.205246
O O15 0.500000 0.500000 0.350684
O O16 0.250000 0.559054 0.339819
O O17 0.490519 0.586407 0.268944
O O18 0.483876 0.605442 0.398542
O O19 0.750000 0.615251 0.212359
O O20 0.750000 0.226853 0.065297
O O21 0.250000 0.653402 0.977766
#
# Coordination Sequence:
#
# PCOD9379953 Si02
#       8
#     8   8   8   8   8   8   8   8
#     4   9  17  31  51  70  92 124 161 197 238 290
#     4  11  22  35  49  67  97 132 170 205 240 284
#     4   9  17  32  51  71  94 125 163 197 238 293
#     4  11  20  30  46  74 104 128 157 196 243 289
#     4  11  21  33  50  69  95 129 167 204 238 279
#     4  10  21  34  45  66  99 133 168 199 229 279
#     4   8  16  31  49  69  91 122 163 201 234 279
#     4   9  18  32  51  72  94 122 162 205 243 288
#
# _framework density 15.523993000000001
#
# number of rings (size 3 to 8) (size 9 to 14) (size 15 to 20)
#    0.000    2.250    2.500    3.000    0.000    3.000 
#    0.000    3.125    0.000    0.000    0.000    0.875 
#    0.000    2.000    0.000    0.000    0.000    0.000 
#
# Total GULP energy -178494.105438 kJ/mol
# GULP energy per Si atom -5577.940795 kJ/mol
# Density = 1.548866 g / cm^3
# Si number density = 15.523993 Si / 1000 Ang^3
#
#
#
# Elastic Constant Matrix: (Units=GPa)
#
#
# Indices 1 2 3 4 5 6 
#
# 1 22.1587 28.7080 38.6392 0.0000 0.0000 0.0000
# 2 28.7080 96.9939 73.3620 0.0000 0.0000 0.0000
# 3 38.6392 73.3620 157.1021 0.0000 0.0000 0.0000
# 4 0.0000 0.0000 0.0000 19.7228 0.0000 0.0000
# 5 0.0000 0.0000 0.0000 0.0000 14.9518 0.0000
# 6 0.0000 0.0000 0.0000 0.0000 0.0000 19.8646
#
#
#
# Elastic Compliance Matrix: (Units=1/GPa)
#
#
# Indices 1 2 3 4 5 6 
#
# 1 0.092230 -0.015678 -0.015363 0.000000 0.000000 0.000000
# 2 -0.015678 0.018605 -0.004832 0.000000 0.000000 0.000000
# 3 -0.015363 -0.004832 0.012400 0.000000 0.000000 0.000000
# 4 0.000000 0.000000 0.000000 0.050703 0.000000 0.000000
# 5 0.000000 0.000000 0.000000 0.000000 0.066882 0.000000
# 6 0.000000 0.000000 0.000000 0.000000 0.000000 0.050341
#
#
# Mechanical properties :
#
#
# Convention : Reuss Voigt Hill
#
# Bulk Modulus (GPa) = 19.42149 61.96368 40.69259
# Shear Modulus (GPa) = 13.15550 19.94421 16.54986
#
# Velocity S-wave (km/s) = 2.91422 3.58821 3.26863
# Velocity P-wave (km/s) = 4.88481 7.56098 6.36513
#
# Compressibility (1/GPa) = 0.05148935
#
# Stress axis : x y z
#
# Youngs Moduli (GPa) = 10.84245 53.74899 80.64477
#
# Poissons Ratio (x) = 0.84270 1.23891
# Poissons Ratio (y) = 0.16999 0.38967
# Poissons Ratio (z) = 0.16657 0.25971
#
# Static dielectric constant tensor:
#      x y z
#    x 1.517620 0.000000 0.000000 
#    y 0.000000 1.500730 0.000000 
#    z 0.000000 0.000000 1.511000 
# 
# From -- ./inp_files/14436.got.cif
#   From: 2010.05.17/outbox.cif.g08.bks.cpg/sg46_8_cif.got.tgz:14436.got - 2010.06.03 19:58:25.
