data_PCOD9379330
_publ_section_title
;
Structure prediction by ZEFSAII (Michael W. Deem and Ramdas Pophale) SiO2 
 PCOD9379330
Probable space group: I M A 2
;
_chemical_formula_sum "Si O2"
_cell_formula_units_Z 56
_cell_length_a 14.731144
_cell_length_b 4.995079
_cell_length_c 32.459636
_cell_angle_alpha 90.000000
_cell_angle_beta 90.000000
_cell_angle_gamma 90.000000
_cell_volume 2388.484798
_symmetry_space_group_name_H-M "I M A 2"
_symmetry_group_IT_number 46
_symmetry_cell_setting 'orthorhombic'
loop_
_space_group_symop_operation_xyz
x,y,z
-x,-y,z
1/2-x,y,z
1/2+x,-y,z
1/2+x,1/2+y,1/2+z
1/2-x,1/2-y,1/2+z
-x,1/2+y,1/2+z
x,1/2-y,1/2+z
loop_
_atom_site_type_symbol
_atom_site_label
_atom_site_fract_x
_atom_site_fract_y
_atom_site_fract_z
Si Si1 0.641485 0.661708 0.810410
Si Si2 0.854600 0.502221 0.937760
Si Si3 0.934700 0.747593 0.220568
Si Si4 0.355899 0.888555 0.083444
Si Si5 0.355071 0.016956 0.992419
Si Si6 0.639314 0.165401 0.859694
Si Si7 0.900951 0.620140 0.135054
O O1 0.750000 0.681025 0.813054
O O2 0.614109 0.708740 0.763755
O O3 0.616406 0.360979 0.822194
O O4 0.607168 0.872905 0.845246
O O5 0.750000 0.578118 0.925393
O O6 0.896075 0.764671 0.960316
O O7 0.894091 0.334327 0.899242
O O8 0.851724 0.273051 0.972031
O O9 0.869388 0.670138 0.182056
O O10 0.000000 0.500000 0.228014
O O11 0.000000 0.000000 0.209922
O O12 0.250000 0.958018 0.082491
O O13 0.359795 0.589701 0.102173
O O14 0.401469 0.092063 0.114558
O O15 0.392706 0.959116 0.037924
O O16 0.250000 0.111099 0.997395
O O17 0.750000 0.147608 0.865277
O O18 0.000000 0.500000 0.140884
#
# Coordination Sequence:
#
# PCOD9379330 Si02
#       7
#     8   8   8   8   8   8   8
#     4  10  20  34  54  83 113 139 178 233 284 327
#     4   9  15  26  45  72 110 148 176 213 272 330
#     4  11  23  41  60  80 108 147 193 233 278 347
#     4  11  22  37  59  89 119 146 188 244 295 340
#     4   9  17  28  46  76 111 143 178 224 274 326
#     4   9  17  29  48  78 113 144 177 222 274 328
#     4  11  23  41  60  82 113 153 195 235 286 356
#
# _framework density 23.445827999999999
#
# number of rings (size 3 to 8) (size 9 to 14) (size 15 to 20)
#    0.000    2.000    0.000    5.143    0.000    6.857 
#    0.000    1.429    0.000    0.000    0.000   35.000 
#    0.000    0.000    0.000    0.000    0.000    0.000 
#
# Total GULP energy -156181.177375 kJ/mol
# GULP energy per Si atom -5577.899192 kJ/mol
# Density = 2.339246 g / cm^3
# Si number density = 23.445828 Si / 1000 Ang^3
#
#
#
# Elastic Constant Matrix: (Units=GPa)
#
#
# Indices 1 2 3 4 5 6 
#
# 1 31.5000 7.5504 4.0546 0.0000 0.0000 0.0000
# 2 7.5504 123.9957 15.7354 0.0000 0.0000 0.0000
# 3 4.0546 15.7354 117.3260 0.0000 0.0000 0.0000
# 4 0.0000 0.0000 0.0000 57.2922 0.0000 0.0000
# 5 0.0000 0.0000 0.0000 0.0000 15.3627 0.0000
# 6 0.0000 0.0000 0.0000 0.0000 0.0000 22.1079
#
#
#
# Elastic Compliance Matrix: (Units=1/GPa)
#
#
# Indices 1 2 3 4 5 6 
#
# 1 0.032303 -0.001857 -0.000867 0.000000 0.000000 0.000000
# 2 -0.001857 0.008311 -0.001051 0.000000 0.000000 0.000000
# 3 -0.000867 -0.001051 0.008694 0.000000 0.000000 0.000000
# 4 0.000000 0.000000 0.000000 0.017454 0.000000 0.000000
# 5 0.000000 0.000000 0.000000 0.000000 0.065093 0.000000
# 6 0.000000 0.000000 0.000000 0.000000 0.000000 0.045233
#
#
# Mechanical properties :
#
#
# Convention : Reuss Voigt Hill
#
# Bulk Modulus (GPa) = 23.94712 36.38915 30.16814
# Shear Modulus (GPa) = 25.18168 35.31796 30.24982
#
# Velocity S-wave (km/s) = 3.28081 3.88540 3.59583
# Velocity P-wave (km/s) = 4.95858 5.97350 5.48955
#
# Compressibility (1/GPa) = 0.04175867
#
# Stress axis : x y z
#
# Youngs Moduli (GPa) = 30.95710 120.31985 115.02022
#
# Poissons Ratio (x) = 0.22343 0.09975
# Poissons Ratio (y) = 0.05749 0.12083
# Poissons Ratio (z) = 0.02685 0.12640
#
# Static dielectric constant tensor:
#      x y z
#    x 1.922680 0.000000 0.000000 
#    y 0.000000 1.745360 0.000000 
#    z 0.000000 0.000000 1.951440 
# 
# From -- ./inp_files/25401.got.cif
#   From: 2010.05.17/outbox.cif.g08.bks.cpg/sg46_13_cif.got.tgz:25401.got - 2010.06.03 19:58:25.
