data_PCOD9379348
_publ_section_title
;
Structure prediction by ZEFSAII (Michael W. Deem and Ramdas Pophale) SiO2 
 PCOD9379348
Probable space group: I M A 2
;
_chemical_formula_sum "Si O2"
_cell_formula_units_Z 60
_cell_length_a 9.600385
_cell_length_b 14.862440
_cell_length_c 21.811548
_cell_angle_alpha 90.000000
_cell_angle_beta 90.000000
_cell_angle_gamma 90.000000
_cell_volume 3112.183912
_symmetry_space_group_name_H-M "I M A 2"
_symmetry_group_IT_number 46
_symmetry_cell_setting 'orthorhombic'
loop_
_space_group_symop_operation_xyz
x,y,z
-x,-y,z
1/2-x,y,z
1/2+x,-y,z
1/2+x,1/2+y,1/2+z
1/2-x,1/2-y,1/2+z
-x,1/2+y,1/2+z
x,1/2-y,1/2+z
loop_
_atom_site_type_symbol
_atom_site_label
_atom_site_fract_x
_atom_site_fract_y
_atom_site_fract_z
Si Si1 0.406849 0.251064 0.124000
Si Si2 0.089741 0.658896 0.318843
Si Si3 0.089329 0.258817 0.986656
Si Si4 0.500000 0.500000 0.778900
Si Si5 0.092094 0.581011 0.655898
Si Si6 0.589258 0.921183 0.711774
Si Si7 0.410428 0.329623 0.855274
Si Si8 0.090449 0.912494 0.956481
O O1 0.250000 0.210879 0.126561
O O2 0.515823 0.174016 0.141237
O O3 0.412865 0.331581 0.171647
O O4 0.425442 0.292078 0.056040
O O5 0.250000 0.668698 0.297840
O O6 0.091351 0.607615 0.383645
O O7 0.994017 0.603432 0.272971
O O8 0.016394 0.755717 0.328502
O O9 0.250000 0.227259 0.979433
O O10 0.066001 0.325656 0.929164
O O11 0.985403 0.175148 0.982791
O O12 0.410497 0.557220 0.729052
O O13 0.430210 0.425500 0.822517
O O14 0.250000 0.580742 0.634401
O O15 0.000000 0.500000 0.628001
O O16 0.750000 0.947056 0.722921
O O17 0.500000 0.000000 0.680926
O O18 0.250000 0.300620 0.844100
O O19 0.250000 0.921549 0.976926
O O20 0.000000 0.000000 0.969664
#
# Coordination Sequence:
#
# PCOD9379348 Si02
#       8
#     8   8   8   4   8   8   8   8
#     4  10  22  41  61  82 115 155 200 247 291 348
#     4  10  21  36  57  86 118 148 185 233 289 347
#     4   9  20  39  60  80 108 152 197 236 286 343
#     4  10  22  34  58  90 122 148 192 242 294 360
#     4  10  22  37  59  89 121 155 193 241 299 359
#     4  11  23  38  58  84 114 151 194 241 291 344
#     4  10  20  37  60  85 116 154 192 236 292 350
#     4  10  20  34  55  84 115 145 182 230 281 338
#
# _framework density 19.279067000000001
#
# number of rings (size 3 to 8) (size 9 to 14) (size 15 to 20)
#    0.400    1.600    0.000    3.200    0.000    8.000 
#    1.200    0.000    0.000    0.000    0.000    0.000 
#    0.000    0.000    0.000    0.000    0.000    0.000 
#
# Total GULP energy -167309.122677 kJ/mol
# GULP energy per Si atom -5576.970756 kJ/mol
# Density = 1.923519 g / cm^3
# Si number density = 19.279067 Si / 1000 Ang^3
#
#
#
# Elastic Constant Matrix: (Units=GPa)
#
#
# Indices 1 2 3 4 5 6 
#
# 1 141.2842 43.6277 37.4543 0.0000 0.0000 0.0000
# 2 43.6277 62.5703 24.8351 0.0000 0.0000 0.0000
# 3 37.4543 24.8351 69.1995 0.0000 0.0000 0.0000
# 4 0.0000 0.0000 0.0000 1.6100 0.0000 0.0000
# 5 0.0000 0.0000 0.0000 0.0000 24.7189 0.0000
# 6 0.0000 0.0000 0.0000 0.0000 0.0000 30.4483
#
#
#
# Elastic Compliance Matrix: (Units=1/GPa)
#
#
# Indices 1 2 3 4 5 6 
#
# 1 0.009613 -0.005408 -0.003262 0.000000 0.000000 0.000000
# 2 -0.005408 0.021679 -0.004853 0.000000 0.000000 0.000000
# 3 -0.003262 -0.004853 0.017958 0.000000 0.000000 0.000000
# 4 0.000000 0.000000 0.000000 0.621135 0.000000 0.000000
# 5 0.000000 0.000000 0.000000 0.000000 0.040455 0.000000
# 6 0.000000 0.000000 0.000000 0.000000 0.000000 0.032843
#
#
# Mechanical properties :
#
#
# Convention : Reuss Voigt Hill
#
# Bulk Modulus (GPa) = 45.03782 53.87648 49.45715
# Shear Modulus (GPa) = 6.42566 22.49788 14.46177
#
# Velocity S-wave (km/s) = 1.82762 3.41978 2.74182
# Velocity P-wave (km/s) = 5.27876 6.60299 5.97766
#
# Compressibility (1/GPa) = 0.02220356
#
# Stress axis : x y z
#
# Youngs Moduli (GPa) = 104.03059 46.12757 55.68418
#
# Poissons Ratio (x) = 0.24944 0.18164
# Poissons Ratio (y) = 0.56257 0.27026
# Poissons Ratio (z) = 0.33935 0.22388
#
# Static dielectric constant tensor:
#      x y z
#    x 1.673980 0.000000 0.000000 
#    y 0.000000 1.645360 0.000000 
#    z 0.000000 0.000000 1.700640 
# 
# From -- ./inp_files/23129.got.cif
#   From: 2010.05.17/outbox.cif.g08.bks.cpg/sg46_12_cif.got.tgz:23129.got - 2010.06.03 19:58:25.
