data_PCOD9379063
_publ_section_title
;
Structure prediction by ZEFSAII (Michael W. Deem and Ramdas Pophale) SiO2 
 PCOD9379063
Probable space group: I M A 2
;
_chemical_formula_sum "Si O2"
_cell_formula_units_Z 56
_cell_length_a 30.072227
_cell_length_b 16.054834
_cell_length_c 5.384234
_cell_angle_alpha 90.000000
_cell_angle_beta 90.000000
_cell_angle_gamma 90.000000
_cell_volume 2599.533010
_symmetry_space_group_name_H-M "I M A 2"
_symmetry_group_IT_number 46
_symmetry_cell_setting 'orthorhombic'
loop_
_space_group_symop_operation_xyz
x,y,z
-x,-y,z
1/2-x,y,z
1/2+x,-y,z
1/2+x,1/2+y,1/2+z
1/2-x,1/2-y,1/2+z
-x,1/2+y,1/2+z
x,1/2-y,1/2+z
loop_
_atom_site_type_symbol
_atom_site_label
_atom_site_fract_x
_atom_site_fract_y
_atom_site_fract_z
Si Si1 0.918935 0.195831 0.904400
Si Si2 0.488668 0.400450 0.412232
Si Si3 0.160584 0.936897 0.907458
Si Si4 0.144556 0.470933 0.909308
Si Si5 0.698375 0.695794 0.971534
Si Si6 0.042997 0.062375 0.413781
Si Si7 0.199701 0.779996 0.092490
O O1 0.915002 0.245253 0.645404
O O2 0.882880 0.122194 0.915418
O O3 0.966637 0.151571 0.918829
O O4 0.500000 0.500000 0.407258
O O5 0.460253 0.387504 0.658781
O O6 0.463077 0.383221 0.158754
O O7 0.164737 0.973737 0.633045
O O8 0.198519 0.872715 0.989236
O O9 0.156870 0.002692 0.129694
O O10 0.163277 0.378906 0.955407
O O11 0.090991 0.480102 0.929834
O O12 0.750000 0.664490 0.966017
O O13 0.693036 0.754042 0.728977
O O14 0.000000 0.000000 0.408991
O O15 0.250000 0.750153 0.132983
O O16 0.178702 0.773102 0.366630
#
# Coordination Sequence:
#
# PCOD9379063 Si02
#       7
#     8   8   8   8   8   8   8
#     4  12  24  40  61  89 124 167 218 261 314 382
#     4  10  20  37  59  79 112 158 204 254 312 366
#     4  12  23  38  60  92 126 159 205 263 304 358
#     4  12  24  39  67  97 122 164 214 254 316 396
#     4  10  23  46  71  96 131 168 205 266 342 400
#     4  10  19  36  58  83 117 154 192 243 305 361
#     4  10  21  38  57  80 118 166 204 243 305 361
#
# _framework density 21.542328999999999
#
# number of rings (size 3 to 8) (size 9 to 14) (size 15 to 20)
#    0.000    1.143    0.000    8.571    0.000    1.143 
#    0.000    4.286    0.000    0.000    0.000    0.000 
#    0.000    0.000    0.000    0.000    0.000    0.000 
#
# Total GULP energy -156398.060560 kJ/mol
# GULP energy per Si atom -5585.645020 kJ/mol
# Density = 2.149330 g / cm^3
# Si number density = 21.542329 Si / 1000 Ang^3
#
#
#
# Elastic Constant Matrix: (Units=GPa)
#
#
# Indices 1 2 3 4 5 6 
#
# 1 46.3982 13.4353 7.5529 0.0000 0.0000 0.0000
# 2 13.4353 54.0743 19.9117 0.0000 0.0000 0.0000
# 3 7.5529 19.9117 176.1738 -0.0001 0.0000 0.0000
# 4 0.0000 0.0000 -0.0001 39.0433 0.0000 0.0000
# 5 0.0000 0.0000 0.0000 0.0000 21.2104 0.0000
# 6 0.0000 0.0000 0.0000 0.0000 0.0000 36.9836
#
#
#
# Elastic Compliance Matrix: (Units=1/GPa)
#
#
# Indices 1 2 3 4 5 6 
#
# 1 0.023245 -0.005643 -0.000359 0.000000 0.000000 0.000000
# 2 -0.005643 0.020666 -0.002094 0.000000 0.000000 0.000000
# 3 -0.000359 -0.002094 0.005928 0.000000 0.000000 0.000000
# 4 0.000000 0.000000 0.000000 0.025613 0.000000 0.000000
# 5 0.000000 0.000000 0.000000 0.000000 0.047147 0.000000
# 6 0.000000 0.000000 0.000000 0.000000 0.000000 0.027039
#
#
# Mechanical properties :
#
#
# Convention : Reuss Voigt Hill
#
# Bulk Modulus (GPa) = 29.71971 39.82736 34.77353
# Shear Modulus (GPa) = 28.24132 35.16389 31.70261
#
# Velocity S-wave (km/s) = 3.62466 4.04458 3.84036
# Velocity P-wave (km/s) = 5.59852 6.35134 5.98678
#
# Compressibility (1/GPa) = 0.03364770
#
# Stress axis : x y z
#
# Youngs Moduli (GPa) = 43.01987 48.38817 168.68407
#
# Poissons Ratio (x) = 0.27307 0.06051
# Poissons Ratio (y) = 0.24278 0.35319
# Poissons Ratio (z) = 0.01543 0.10132
#
# Static dielectric constant tensor:
#      x y z
#    x 1.823690 0.000000 0.000000 
#    y 0.000000 1.764870 0.000000 
#    z 0.000000 0.000000 1.826300 
# 
# From -- ./inp_files/2726.got.cif
#   From: 2010.05.17/outbox.cif.g08.bks.cpg/sg46_2_cif.got.tgz:2726.got - 2010.06.03 19:58:25.
