data_PCOD9379277
_publ_section_title
;
Structure prediction by ZEFSAII (Michael W. Deem and Ramdas Pophale) SiO2 
 PCOD9379277
Probable space group: I M A 2
;
_chemical_formula_sum "Si O2"
_cell_formula_units_Z 56
_cell_length_a 8.908730
_cell_length_b 14.258738
_cell_length_c 23.291140
_cell_angle_alpha 90.000000
_cell_angle_beta 90.000000
_cell_angle_gamma 90.000000
_cell_volume 2958.609393
_symmetry_space_group_name_H-M "I M A 2"
_symmetry_group_IT_number 46
_symmetry_cell_setting 'orthorhombic'
loop_
_space_group_symop_operation_xyz
x,y,z
-x,-y,z
1/2-x,y,z
1/2+x,-y,z
1/2+x,1/2+y,1/2+z
1/2-x,1/2-y,1/2+z
-x,1/2+y,1/2+z
x,1/2-y,1/2+z
loop_
_atom_site_type_symbol
_atom_site_label
_atom_site_fract_x
_atom_site_fract_y
_atom_site_fract_z
Si Si1 0.430818 0.195292 0.087240
Si Si2 0.927007 0.906005 0.553085
Si Si3 0.930057 0.396965 0.699863
Si Si4 0.571690 0.594876 0.353663
Si Si5 0.069647 0.709508 0.818186
Si Si6 0.420436 0.640222 0.471631
Si Si7 0.080711 0.859670 0.437918
O O1 0.250000 0.188799 0.085668
O O2 0.473320 0.305583 0.079732
O O3 0.497244 0.154777 0.145559
O O4 0.500538 0.138905 0.033305
O O5 0.750000 0.913274 0.558299
O O6 0.973834 0.901147 0.486109
O O7 0.000000 0.000000 0.578228
O O8 0.750000 0.402811 0.692884
O O9 0.962029 0.339467 0.758032
O O10 0.000000 0.500000 0.704276
O O11 0.500000 0.500000 0.328597
O O12 0.750000 0.591803 0.350109
O O13 0.509139 0.689995 0.325135
O O14 0.518509 0.599405 0.420098
O O15 0.250000 0.723517 0.823794
O O16 0.026537 0.643027 0.872233
O O17 0.250000 0.602160 0.472781
O O18 0.409248 0.749996 0.454871
O O19 0.250000 0.899363 0.441809
#
# Coordination Sequence:
#
# PCOD9379277 Si02
#       7
#     8   8   8   8   8   8   8
#     4  10  21  38  58  83 114 148 191 238 283 333
#     4  10  20  33  53  82 115 148 183 224 272 332
#     4  11  24  42  63  84 109 144 187 235 285 337
#     4  11  21  34  56  86 119 153 188 229 279 337
#     4   9  20  39  59  82 113 149 189 233 280 331
#     4   9  17  32  54  80 111 146 183 225 276 329
#     4   8  15  30  52  77 108 142 176 218 267 319
#
# _framework density 18.927810000000001
#
# number of rings (size 3 to 8) (size 9 to 14) (size 15 to 20)
#    0.000    2.286    0.000    3.857    0.000    7.429 
#    0.000    5.000    0.000    1.714    0.000    0.000 
#    0.000    0.000    0.000    0.000    0.000    0.000 
#
# Total GULP energy -156256.061014 kJ/mol
# GULP energy per Si atom -5580.573608 kJ/mol
# Density = 1.888473 g / cm^3
# Si number density = 18.927810 Si / 1000 Ang^3
#
#
#
# Elastic Constant Matrix: (Units=GPa)
#
#
# Indices 1 2 3 4 5 6 
#
# 1 86.4783 56.3130 50.6401 0.0000 0.0000 0.0000
# 2 56.3130 117.8882 53.8094 0.0000 0.0000 0.0000
# 3 50.6401 53.8094 132.0745 0.0000 0.0000 0.0000
# 4 0.0000 0.0000 0.0000 15.7048 0.0000 0.0000
# 5 0.0000 0.0000 0.0000 0.0000 24.0476 0.0000
# 6 0.0000 0.0000 0.0000 0.0000 0.0000 29.8221
#
#
#
# Elastic Compliance Matrix: (Units=1/GPa)
#
#
# Indices 1 2 3 4 5 6 
#
# 1 0.018589 -0.006912 -0.004311 0.000000 0.000000 0.000000
# 2 -0.006912 0.012990 -0.002642 0.000000 0.000000 0.000000
# 3 -0.004311 -0.002642 0.010301 0.000000 0.000000 0.000000
# 4 0.000000 0.000000 0.000000 0.063675 0.000000 0.000000
# 5 0.000000 0.000000 0.000000 0.000000 0.041584 0.000000
# 6 0.000000 0.000000 0.000000 0.000000 0.000000 0.033532
#
#
# Mechanical properties :
#
#
# Convention : Reuss Voigt Hill
#
# Bulk Modulus (GPa) = 70.67445 73.10734 71.89089
# Shear Modulus (GPa) = 23.46105 25.62682 24.54394
#
# Velocity S-wave (km/s) = 3.52448 3.68356 3.60490
# Velocity P-wave (km/s) = 7.34728 7.53655 7.44252
#
# Compressibility (1/GPa) = 0.01414938
#
# Stress axis : x y z
#
# Youngs Moduli (GPa) = 53.79503 76.98052 97.07651
#
# Poissons Ratio (x) = 0.53207 0.41854
# Poissons Ratio (y) = 0.37181 0.25651
# Poissons Ratio (z) = 0.23194 0.20341
#
# Static dielectric constant tensor:
#      x y z
#    x 1.644650 0.000000 0.000000 
#    y 0.000000 1.688540 0.000000 
#    z 0.000000 0.000000 1.640720 
# 
# From -- ./inp_files/21112.got.cif
#   From: 2010.05.17/outbox.cif.g08.bks.cpg/sg46_11_cif.got.tgz:21112.got - 2010.06.03 19:58:25.
