data_PCOD9379145
_publ_section_title
;
Structure prediction by ZEFSAII (Michael W. Deem and Ramdas Pophale) SiO2 
 PCOD9379145
Probable space group: I M A 2
;
_chemical_formula_sum "Si O2"
_cell_formula_units_Z 64
_cell_length_a 19.134525
_cell_length_b 18.243237
_cell_length_c 9.545183
_cell_angle_alpha 90.000000
_cell_angle_beta 90.000000
_cell_angle_gamma 90.000000
_cell_volume 3331.991194
_symmetry_space_group_name_H-M "I M A 2"
_symmetry_group_IT_number 46
_symmetry_cell_setting 'orthorhombic'
loop_
_space_group_symop_operation_xyz
x,y,z
-x,-y,z
1/2-x,y,z
1/2+x,-y,z
1/2+x,1/2+y,1/2+z
1/2-x,1/2-y,1/2+z
-x,1/2+y,1/2+z
x,1/2-y,1/2+z
loop_
_atom_site_type_symbol
_atom_site_label
_atom_site_fract_x
_atom_site_fract_y
_atom_site_fract_z
Si Si1 0.924848 0.476518 0.097640
Si Si2 0.419058 0.972216 0.099579
Si Si3 0.329153 0.312854 0.845467
Si Si4 0.602067 0.924538 0.863748
Si Si5 0.874794 0.811960 0.661737
Si Si6 0.964670 0.184213 0.634664
Si Si7 0.668428 0.516043 0.851554
Si Si8 0.465883 0.670360 0.450170
O O1 0.922769 0.512625 0.253020
O O2 0.923166 0.388584 0.091909
O O3 0.000000 0.500000 0.035924
O O4 0.861630 0.507204 0.007084
O O5 0.380381 0.970570 0.247080
O O6 0.500000 0.000000 0.112731
O O7 0.422204 0.894346 0.022181
O O8 0.377821 0.029902 0.000461
O O9 0.250000 0.292050 0.807351
O O10 0.378041 0.262915 0.749721
O O11 0.339806 0.398136 0.815388
O O12 0.338700 0.302186 0.012376
O O13 0.652826 0.872754 0.772149
O O14 0.541342 0.868887 0.919904
O O15 0.953346 0.837947 0.628144
O O16 0.962749 0.258294 0.546666
O O17 0.943768 0.195652 0.795787
O O18 0.750000 0.497177 0.842489
#
# Coordination Sequence:
#
# PCOD9379145 Si02
#       8
#     8   8   8   8   8   8   8   8
#     4  12  19  40  66  91 120 166 211 264 320 380
#     4  10  21  39  64  89 121 158 205 257 321 375
#     4  11  24  39  53  80 123 173 211 241 291 369
#     4  10  19  38  61  88 124 161 202 259 312 375
#     4  11  21  36  57  82 122 157 203 251 300 356
#     4  11  22  34  61  95 124 148 203 258 329 371
#     4  11  26  42  59  88 127 166 216 260 308 381
#     4  10  21  35  57  95 125 151 190 259 322 380
#
# _framework density 19.207733999999999
#
# number of rings (size 3 to 8) (size 9 to 14) (size 15 to 20)
#    0.000    1.250    5.000    2.625    7.000    0.000 
#    0.000    1.250    0.000    0.750    0.000    0.000 
#    0.000    0.000    0.000    0.000    0.000    0.000 
#
# Total GULP energy -178409.207087 kJ/mol
# GULP energy per Si atom -5575.287721 kJ/mol
# Density = 1.916402 g / cm^3
# Si number density = 19.207734 Si / 1000 Ang^3
#
#
#
# Elastic Constant Matrix: (Units=GPa)
#
#
# Indices 1 2 3 4 5 6 
#
# 1 32.7149 8.8847 11.8315 0.0000 0.0000 0.0000
# 2 8.8847 103.6777 34.3640 0.0000 0.0000 0.0000
# 3 11.8315 34.3640 88.1200 0.0000 0.0000 0.0000
# 4 0.0000 0.0000 0.0000 48.0854 0.0000 0.0000
# 5 0.0000 0.0000 0.0000 0.0000 1.1024 0.0000
# 6 0.0000 0.0000 0.0000 0.0000 0.0000 14.1875
#
#
#
# Elastic Compliance Matrix: (Units=1/GPa)
#
#
# Indices 1 2 3 4 5 6 
#
# 1 0.032337 -0.001530 -0.003745 0.000000 0.000000 0.000000
# 2 -0.001530 0.011149 -0.004143 0.000000 0.000000 0.000000
# 3 -0.003745 -0.004143 0.013466 0.000000 0.000000 0.000000
# 4 0.000000 0.000000 0.000000 0.020796 0.000000 0.000000
# 5 0.000000 0.000000 0.000000 0.000000 0.907091 0.000000
# 6 0.000000 0.000000 0.000000 0.000000 0.000000 0.070485
#
#
# Mechanical properties :
#
#
# Convention : Reuss Voigt Hill
#
# Bulk Modulus (GPa) = 26.23440 37.18588 31.71014
# Shear Modulus (GPa) = 4.60038 23.97055 14.28547
#
# Velocity S-wave (km/s) = 1.54928 3.53649 2.73011
# Velocity P-wave (km/s) = 4.10953 6.00646 5.14615
#
# Compressibility (1/GPa) = 0.03811789
#
# Stress axis : x y z
#
# Youngs Moduli (GPa) = 30.92434 89.69081 74.25861
#
# Poissons Ratio (x) = 0.13721 0.27811
# Poissons Ratio (y) = 0.04731 0.30762
# Poissons Ratio (z) = 0.11582 0.37155
#
# Static dielectric constant tensor:
#      x y z
#    x 1.667860 0.000000 0.000000 
#    y 0.000000 1.697260 0.000000 
#    z 0.000000 0.000000 1.696470 
# 
# From -- ./inp_files/7557.got.cif
#   From: 2010.05.17/outbox.cif.g08.bks.cpg/sg46_4_cif.got.tgz:7557.got - 2010.06.03 19:58:25.
