data_PCOD9379024
_publ_section_title
;
Structure prediction by ZEFSAII (Michael W. Deem and Ramdas Pophale) SiO2 
 PCOD9379024
Probable space group: I M A 2
;
_chemical_formula_sum "Si O2"
_cell_formula_units_Z 44
_cell_length_a 13.496188
_cell_length_b 9.861946
_cell_length_c 14.667485
_cell_angle_alpha 90.000000
_cell_angle_beta 90.000000
_cell_angle_gamma 90.000000
_cell_volume 1952.222852
_symmetry_space_group_name_H-M "I M A 2"
_symmetry_group_IT_number 46
_symmetry_cell_setting 'orthorhombic'
loop_
_space_group_symop_operation_xyz
x,y,z
-x,-y,z
1/2-x,y,z
1/2+x,-y,z
1/2+x,1/2+y,1/2+z
1/2-x,1/2-y,1/2+z
-x,1/2+y,1/2+z
x,1/2-y,1/2+z
loop_
_atom_site_type_symbol
_atom_site_label
_atom_site_fract_x
_atom_site_fract_y
_atom_site_fract_z
Si Si1 0.497925 0.675614 0.993340
Si Si2 0.635378 0.681092 0.629547
Si Si3 0.867946 0.750637 0.839697
Si Si4 0.361011 0.892214 0.044255
Si Si5 0.861714 0.382683 0.136352
Si Si6 0.000000 0.500000 0.291365
O O1 0.568169 0.656577 0.907539
O O2 0.567702 0.712382 0.078442
O O3 0.433710 0.814815 0.975827
O O4 0.414175 0.579910 0.039054
O O5 0.750000 0.707129 0.608848
O O6 0.623611 0.693076 0.737404
O O7 0.610515 0.535345 0.586326
O O8 0.750000 0.760741 0.862286
O O9 0.923992 0.896388 0.840761
O O10 0.250000 0.903696 0.005958
O O11 0.357320 0.780815 0.125711
O O12 0.750000 0.436617 0.142407
O O13 0.926512 0.420356 0.222545
#
# Coordination Sequence:
#
# PCOD9379024 Si02
#       6
#     8   8   8   8   8   4
#     4  10  19  37  60  88 121 161 202 256 304 363
#     4  10  19  35  58  88 122 156 203 258 308 361
#     4  11  24  37  59  96 126 161 211 255 311 379
#     4   8  17  34  62  89 113 155 203 252 304 357
#     4   9  20  39  64  91 119 162 210 251 311 373
#     4  12  22  40  62  88 128 168 200 262 314 368
#
# _framework density 22.538409999999999
#
# number of rings (size 3 to 8) (size 9 to 14) (size 15 to 20)
#    1.091    1.091    1.818    1.636    2.545    0.000 
#    0.000    2.727    8.000    0.000    0.000    0.000 
#    0.000    0.000    0.000    0.000    0.000    0.000 
#
# Total GULP energy -122640.711598 kJ/mol
# GULP energy per Si atom -5574.577800 kJ/mol
# Density = 2.248711 g / cm^3
# Si number density = 22.538410 Si / 1000 Ang^3
#
#
#
# Elastic Constant Matrix: (Units=GPa)
#
#
# Indices 1 2 3 4 5 6 
#
# 1 165.7213 18.9700 39.2452 0.0000 0.0000 0.0000
# 2 18.9700 76.1660 4.9611 0.0000 0.0000 0.0000
# 3 39.2452 4.9611 49.9995 0.0000 0.0000 0.0000
# 4 0.0000 0.0000 0.0000 20.6489 0.0000 0.0000
# 5 0.0000 0.0000 0.0000 0.0000 27.4140 0.0000
# 6 0.0000 0.0000 0.0000 0.0000 0.0000 24.7124
#
#
#
# Elastic Compliance Matrix: (Units=1/GPa)
#
#
# Indices 1 2 3 4 5 6 
#
# 1 0.007581 -0.001510 -0.005800 0.000000 0.000000 0.000000
# 2 -0.001510 0.013516 -0.000156 0.000000 0.000000 0.000000
# 3 -0.005800 -0.000156 0.024568 0.000000 0.000000 0.000000
# 4 0.000000 0.000000 0.000000 0.048429 0.000000 0.000000
# 5 0.000000 0.000000 0.000000 0.000000 0.036478 0.000000
# 6 0.000000 0.000000 0.000000 0.000000 0.000000 0.040466
#
#
# Mechanical properties :
#
#
# Convention : Reuss Voigt Hill
#
# Bulk Modulus (GPa) = 32.53921 46.47104 39.50513
# Shear Modulus (GPa) = 25.48249 29.80241 27.64245
#
# Velocity S-wave (km/s) = 3.36612 3.64028 3.50588
# Velocity P-wave (km/s) = 5.43841 6.19130 5.82703
#
# Compressibility (1/GPa) = 0.03073215
#
# Stress axis : x y z
#
# Youngs Moduli (GPa) = 131.91374 73.98912 40.70268
#
# Poissons Ratio (x) = 0.11174 0.23609
# Poissons Ratio (y) = 0.19922 0.00634
# Poissons Ratio (z) = 0.76514 0.01152
#
# Static dielectric constant tensor:
#      x y z
#    x 1.910120 0.000000 0.000000 
#    y 0.000000 2.042950 0.000000 
#    z 0.000000 0.000000 1.806600 
# 
# From -- ./inp_files/15799.got.cif
#   From: 2010.05.17/outbox.cif.g08.bks.cpg/sg46_8_cif.got.tgz:15799.got - 2010.06.03 19:58:25.
