data_PCOD9379608
_publ_section_title
;
Structure prediction by ZEFSAII (Michael W. Deem and Ramdas Pophale) SiO2 
 PCOD9379608
Probable space group: I M A 2
;
_chemical_formula_sum "Si O2"
_cell_formula_units_Z 64
_cell_length_a 8.732089
_cell_length_b 24.255806
_cell_length_c 15.811298
_cell_angle_alpha 90.000000
_cell_angle_beta 90.000000
_cell_angle_gamma 90.000000
_cell_volume 3348.893897
_symmetry_space_group_name_H-M "I M A 2"
_symmetry_group_IT_number 46
_symmetry_cell_setting 'orthorhombic'
loop_
_space_group_symop_operation_xyz
x,y,z
-x,-y,z
1/2-x,y,z
1/2+x,-y,z
1/2+x,1/2+y,1/2+z
1/2-x,1/2-y,1/2+z
-x,1/2+y,1/2+z
x,1/2-y,1/2+z
loop_
_atom_site_type_symbol
_atom_site_label
_atom_site_fract_x
_atom_site_fract_y
_atom_site_fract_z
Si Si1 0.932862 0.870046 0.320670
Si Si2 0.566480 0.438832 0.476838
Si Si3 0.932987 0.253758 0.076365
Si Si4 0.433406 0.369138 0.131037
Si Si5 0.565854 0.870082 0.821726
Si Si6 0.433905 0.250021 0.388643
Si Si7 0.932584 0.061272 0.476443
Si Si8 0.065575 0.632579 0.640039
O O1 0.750000 0.875797 0.325586
O O2 0.972098 0.805885 0.338935
O O3 0.007999 0.906338 0.394021
O O4 0.991457 0.885329 0.227882
O O5 0.500000 0.500000 0.479210
O O6 0.750000 0.440877 0.475914
O O7 0.509460 0.406992 0.393735
O O8 0.518350 0.404580 0.560193
O O9 0.750000 0.260932 0.082570
O O10 0.975991 0.195983 0.119769
O O11 0.017012 0.306018 0.116320
O O12 0.981440 0.250379 0.978334
O O13 0.250000 0.373241 0.123095
O O14 0.478509 0.385613 0.226289
O O15 0.510341 0.405833 0.058952
O O16 0.750000 0.875092 0.828291
O O17 0.527100 0.805967 0.839290
O O18 0.250000 0.249846 0.403547
O O19 0.750000 0.059377 0.475671
O O20 0.000000 0.000000 0.477153
O O21 0.250000 0.629815 0.647118
#
# Coordination Sequence:
#
# PCOD9379608 Si02
#       8
#     8   8   8   8   8   8   8   8
#     4  11  23  40  65  96 127 165 205 251 309 370
#     4  11  24  43  64  88 121 161 209 260 310 364
#     4  11  21  36  61  93 127 167 205 250 310 365
#     4  11  23  41  64  94 128 163 206 255 308 373
#     4  10  22  40  64  93 125 164 206 252 306 365
#     4  10  20  36  61  92 127 163 202 248 304 371
#     4  12  26  45  67  91 122 163 209 260 312 368
#     4  10  23  41  61  91 128 165 207 256 307 367
#
# _framework density 19.110787999999999
#
# number of rings (size 3 to 8) (size 9 to 14) (size 15 to 20)
#    0.000    1.250    2.500    3.375    0.000    5.500 
#    0.000    1.250    0.000    0.000    0.000    0.000 
#    0.000    0.000    0.000    0.000    0.000    0.000 
#
# Total GULP energy -178964.207539 kJ/mol
# GULP energy per Si atom -5592.631486 kJ/mol
# Density = 1.906729 g / cm^3
# Si number density = 19.110788 Si / 1000 Ang^3
#
#
#
# Elastic Constant Matrix: (Units=GPa)
#
#
# Indices 1 2 3 4 5 6 
#
# 1 61.7047 57.4221 68.6947 0.0000 0.0000 0.0000
# 2 57.4221 155.0896 89.8435 0.0000 0.0000 0.0000
# 3 68.6947 89.8435 198.5803 0.0002 0.0000 0.0000
# 4 0.0000 0.0000 0.0002 -4.7498 0.0000 0.0000
# 5 0.0000 0.0000 0.0000 0.0000 22.5418 0.0000
# 6 0.0000 0.0000 0.0000 0.0000 0.0000 22.1522
#
#
#
# Elastic Compliance Matrix: (Units=1/GPa)
#
#
# Indices 1 2 3 4 5 6 
#
# 1 0.031370 -0.007221 -0.007585 0.000000 0.000000 0.000000
# 2 -0.007221 0.010400 -0.002207 0.000000 0.000000 0.000000
# 3 -0.007585 -0.002207 0.008658 0.000000 0.000000 0.000000
# 4 0.000000 0.000000 0.000000 -0.210534 0.000000 0.000000
# 5 0.000000 0.000000 0.000000 0.000000 0.044362 0.000000
# 6 0.000000 0.000000 0.000000 0.000000 0.000000 0.045142
#
#
# Mechanical properties :
#
#
# Convention : Reuss Voigt Hill
#
# Bulk Modulus (GPa) = 60.96770 94.14392 77.55581
# Shear Modulus (GPa) = -160.73405 21.28311 -69.72547
#
# Velocity S-wave (km/s) = -9.18091 3.34079 -6.04682
# Velocity P-wave (km/s) = 8.96738 8.01563 2.84285
#
# Compressibility (1/GPa) = 0.01640213
#
# Stress axis : x y z
#
# Youngs Moduli (GPa) = 31.87761 96.15204 115.49633
#
# Poissons Ratio (x) = 0.69430 0.87602
# Poissons Ratio (y) = 0.23018 0.25495
# Poissons Ratio (z) = 0.24179 0.21225
#
# Static dielectric constant tensor:
#      x y z
#    x 1.640080 0.000000 0.000000 
#    y 0.000000 1.643980 0.000000 
#    z 0.000000 0.000000 1.641760 
# 
# From -- ./inp_files/14537.got.cif
#   From: 2010.05.17/outbox.cif.g08.bks.cpg/sg46_8_cif.got.tgz:14537.got - 2010.06.03 19:58:25.
