data_PCOD9379831
_publ_section_title
;
Structure prediction by ZEFSAII (Michael W. Deem and Ramdas Pophale) SiO2 
 PCOD9379831
Probable space group: I M A 2
;
_chemical_formula_sum "Si O2"
_cell_formula_units_Z 40
_cell_length_a 25.971981
_cell_length_b 5.262502
_cell_length_c 15.575683
_cell_angle_alpha 90.000000
_cell_angle_beta 90.000000
_cell_angle_gamma 90.000000
_cell_volume 2128.847001
_symmetry_space_group_name_H-M "I M A 2"
_symmetry_group_IT_number 46
_symmetry_cell_setting 'orthorhombic'
loop_
_space_group_symop_operation_xyz
x,y,z
-x,-y,z
1/2-x,y,z
1/2+x,-y,z
1/2+x,1/2+y,1/2+z
1/2-x,1/2-y,1/2+z
-x,1/2+y,1/2+z
x,1/2-y,1/2+z
loop_
_atom_site_type_symbol
_atom_site_label
_atom_site_fract_x
_atom_site_fract_y
_atom_site_fract_z
Si Si1 0.558141 0.418915 0.583040
Si Si2 0.626407 0.242660 0.737839
Si Si3 0.382787 0.781735 0.432676
Si Si4 0.808688 0.742524 0.696048
Si Si5 0.350646 0.211165 0.015096
O O1 0.500000 0.500000 0.595522
O O2 0.583492 0.277844 0.664162
O O3 0.568737 0.254949 0.496851
O O4 0.594780 0.662528 0.564447
O O5 0.604029 0.258651 0.833437
O O6 0.665654 0.478570 0.725609
O O7 0.657119 0.980746 0.725832
O O8 0.345795 0.547673 0.460942
O O9 0.355875 0.045750 0.455554
O O10 0.750000 0.764288 0.725570
O O11 0.810872 0.742261 0.591957
#
# Coordination Sequence:
#
# PCOD9379831 Si02
#       5
#     8   8   8   8   8
#     4   9  21  40  61  91 121 165 199 241 304 367
#     4  11  22  40  63  88 127 157 200 258 301 360
#     4  10  20  39  60  84 123 158 195 251 301 346
#     4  11  21  40  64  88 119 163 202 250 311 366
#     4   9  19  39  59  83 120 159 191 256 291 353
#
# _framework density 18.789514
#
# number of rings (size 3 to 8) (size 9 to 14) (size 15 to 20)
#    1.200    0.800    2.000    1.800    0.000    0.800 
#    3.600    6.000    0.000    0.000    0.000    0.000 
#    0.000    0.000    0.000    0.000    0.000    0.000 
#
# Total GULP energy -111409.200018 kJ/mol
# GULP energy per Si atom -5570.460001 kJ/mol
# Density = 1.874675 g / cm^3
# Si number density = 18.789514 Si / 1000 Ang^3
#
#
#
# Elastic Constant Matrix: (Units=GPa)
#
#
# Indices 1 2 3 4 5 6 
#
# 1 60.9029 -9.6427 11.4605 0.0000 0.0000 0.0000
# 2 -9.6427 91.5216 -3.1293 0.0000 0.0000 0.0000
# 3 11.4605 -3.1293 123.8600 0.0000 0.0000 0.0000
# 4 0.0000 0.0000 0.0000 21.4883 0.0000 0.0000
# 5 0.0000 0.0000 0.0000 0.0000 3.3183 0.0000
# 6 0.0000 0.0000 0.0000 0.0000 0.0000 10.9797
#
#
#
# Elastic Compliance Matrix: (Units=1/GPa)
#
#
# Indices 1 2 3 4 5 6 
#
# 1 0.016982 0.001737 -0.001527 0.000000 0.000000 0.000000
# 2 0.001737 0.011113 0.000120 0.000000 0.000000 0.000000
# 3 -0.001527 0.000120 0.008218 0.000000 0.000000 0.000000
# 4 0.000000 0.000000 0.000000 0.046537 0.000000 0.000000
# 5 0.000000 0.000000 0.000000 0.000000 0.301356 0.000000
# 6 0.000000 0.000000 0.000000 0.000000 0.000000 0.091077
#
#
# Mechanical properties :
#
#
# Convention : Reuss Voigt Hill
#
# Bulk Modulus (GPa) = 27.04691 30.40682 28.72687
# Shear Modulus (GPa) = 10.26802 25.66369 17.96586
#
# Velocity S-wave (km/s) = 2.34022 3.69975 3.09554
# Velocity P-wave (km/s) = 4.66134 5.87102 5.30080
#
# Compressibility (1/GPa) = 0.03697280
#
# Stress axis : x y z
#
# Youngs Moduli (GPa) = 58.88580 89.98070 121.68424
#
# Poissons Ratio (x) = -0.15630 0.18586
# Poissons Ratio (y) = -0.10228 -0.01461
# Poissons Ratio (z) = 0.08994 -0.01080
#
# Static dielectric constant tensor:
#      x y z
#    x 1.631420 0.000000 0.000000 
#    y 0.000000 1.658510 0.000000 
#    z 0.000000 0.000000 1.658860 
# 
# From -- ./inp_files/17477.got.cif
#   From: 2010.05.17/outbox.cif.g08.bks.cpg/sg46_9_cif.got.tgz:17477.got - 2010.06.03 19:58:25.
