data_PCOD9379160
_publ_section_title
;
Structure prediction by ZEFSAII (Michael W. Deem and Ramdas Pophale) SiO2 
 PCOD9379160
Probable space group: I M A 2
;
_chemical_formula_sum "Si O2"
_cell_formula_units_Z 52
_cell_length_a 14.689277
_cell_length_b 21.880388
_cell_length_c 8.841146
_cell_angle_alpha 90.000000
_cell_angle_beta 90.000000
_cell_angle_gamma 90.000000
_cell_volume 2841.606921
_symmetry_space_group_name_H-M "I M A 2"
_symmetry_group_IT_number 46
_symmetry_cell_setting 'orthorhombic'
loop_
_space_group_symop_operation_xyz
x,y,z
-x,-y,z
1/2-x,y,z
1/2+x,-y,z
1/2+x,1/2+y,1/2+z
1/2-x,1/2-y,1/2+z
-x,1/2+y,1/2+z
x,1/2-y,1/2+z
loop_
_atom_site_type_symbol
_atom_site_label
_atom_site_fract_x
_atom_site_fract_y
_atom_site_fract_z
Si Si1 0.963096 0.657615 0.436670
Si Si2 0.647431 0.946653 0.797100
Si Si3 0.351252 0.804144 0.413318
Si Si4 0.477340 0.754024 0.670210
Si Si5 0.086192 0.545342 0.516097
Si Si6 0.500000 0.500000 0.076200
Si Si7 0.151935 0.553327 0.857480
O O1 0.962395 0.702750 0.582605
O O2 0.974118 0.701075 0.289758
O O3 0.049195 0.611535 0.463027
O O4 0.880561 0.610658 0.404062
O O5 0.750000 0.937932 0.736173
O O6 0.562465 0.955670 0.681050
O O7 0.645457 0.010021 0.891776
O O8 0.250000 0.778164 0.442839
O O9 0.424713 0.791268 0.542184
O O10 0.396621 0.777975 0.262994
O O11 0.342469 0.875629 0.392764
O O12 0.131501 0.547507 0.679798
O O13 0.000000 0.500000 0.532134
O O14 0.426970 0.529685 0.964980
O O15 0.250000 0.523897 0.891493
#
# Coordination Sequence:
#
# PCOD9379160 Si02
#       7
#     8   8   8   8   8   4   8
#     4  10  20  39  61  87 118 159 199 247 306 364
#     4  11  23  41  65  91 119 160 208 255 309 367
#     4  10  20  32  48  77 112 148 196 242 285 354
#     4  10  20  35  57  80 113 164 195 238 310 351
#     4  10  19  39  60  83 121 159 196 249 300 365
#     4  12  22  38  58  86 126 154 198 256 308 364
#     4  11  22  35  55  85 119 158 199 245 303 367
#
# _framework density 18.299505
#
# number of rings (size 3 to 8) (size 9 to 14) (size 15 to 20)
#    0.000    1.538    4.615    2.308    0.000    0.000 
#    0.000    2.308    0.000    0.000    0.000    0.000 
#    0.000    0.000    0.000    0.000    0.000    0.000 
#
# Total GULP energy -144814.336000 kJ/mol
# GULP energy per Si atom -5569.782154 kJ/mol
# Density = 1.825785 g / cm^3
# Si number density = 18.299505 Si / 1000 Ang^3
#
#
#
# Elastic Constant Matrix: (Units=GPa)
#
#
# Indices 1 2 3 4 5 6 
#
# 1 97.2739 18.6116 20.6286 0.0000 0.0000 0.0000
# 2 18.6116 81.4642 28.4961 0.0000 0.0000 0.0000
# 3 20.6286 28.4961 84.4394 0.0000 0.0000 0.0000
# 4 0.0000 0.0000 0.0000 21.9910 0.0000 0.0000
# 5 0.0000 0.0000 0.0000 0.0000 7.0320 0.0000
# 6 0.0000 0.0000 0.0000 0.0000 0.0000 -22.8523
#
#
#
# Elastic Compliance Matrix: (Units=1/GPa)
#
#
# Indices 1 2 3 4 5 6 
#
# 1 0.011069 -0.001795 -0.002098 0.000000 0.000000 0.000000
# 2 -0.001795 0.014209 -0.004357 0.000000 0.000000 0.000000
# 3 -0.002098 -0.004357 0.013826 0.000000 0.000000 0.000000
# 4 0.000000 0.000000 0.000000 0.045473 0.000000 0.000000
# 5 0.000000 0.000000 0.000000 0.000000 0.142208 0.000000
# 6 0.000000 0.000000 0.000000 0.000000 0.000000 -0.043759
#
#
# Mechanical properties :
#
#
# Convention : Reuss Voigt Hill
#
# Bulk Modulus (GPa) = 44.24032 44.29445 44.26738
# Shear Modulus (GPa) = 24.14758 14.26355 19.20556
#
# Velocity S-wave (km/s) = 3.63654 2.79489 3.24313
# Velocity P-wave (km/s) = 6.46999 5.88838 6.18602
#
# Compressibility (1/GPa) = 0.02260382
#
# Stress axis : x y z
#
# Youngs Moduli (GPa) = 90.34529 70.37603 72.32877
#
# Poissons Ratio (x) = 0.12631 0.15177
# Poissons Ratio (y) = 0.16215 0.31512
# Poissons Ratio (z) = 0.18958 0.30662
#
# Static dielectric constant tensor:
#      x y z
#    x 1.655870 0.000000 0.000000 
#    y 0.000000 1.641700 0.000000 
#    z 0.000000 0.000000 1.665780 
# 
# From -- ./inp_files/5862.got.cif
#   From: 2010.05.17/outbox.cif.g08.bks.cpg/sg46_3_cif.got.tgz:5862.got - 2010.06.03 19:58:25.
