data_PCOD9379280
_publ_section_title
;
Structure prediction by ZEFSAII (Michael W. Deem and Ramdas Pophale) SiO2 
 PCOD9379280
Probable space group: I M A 2
;
_chemical_formula_sum "Si O2"
_cell_formula_units_Z 56
_cell_length_a 20.855492
_cell_length_b 11.490208
_cell_length_c 14.143861
_cell_angle_alpha 90.000000
_cell_angle_beta 90.000000
_cell_angle_gamma 90.000000
_cell_volume 3389.349153
_symmetry_space_group_name_H-M "I M A 2"
_symmetry_group_IT_number 46
_symmetry_cell_setting 'orthorhombic'
loop_
_space_group_symop_operation_xyz
x,y,z
-x,-y,z
1/2-x,y,z
1/2+x,-y,z
1/2+x,1/2+y,1/2+z
1/2-x,1/2-y,1/2+z
-x,1/2+y,1/2+z
x,1/2-y,1/2+z
loop_
_atom_site_type_symbol
_atom_site_label
_atom_site_fract_x
_atom_site_fract_y
_atom_site_fract_z
Si Si1 0.454570 0.331159 0.831070
Si Si2 0.176368 0.584468 0.410867
Si Si3 0.064066 0.081863 0.923280
Si Si4 0.526069 0.871662 0.121851
Si Si5 0.603431 0.252764 0.055550
Si Si6 0.177395 0.777006 0.248308
Si Si7 0.594585 0.426153 0.884971
O O1 0.446042 0.204578 0.873961
O O2 0.444964 0.324418 0.718351
O O3 0.527813 0.370337 0.849198
O O4 0.413182 0.434741 0.878715
O O5 0.250000 0.552746 0.433698
O O6 0.127534 0.481392 0.387576
O O7 0.141744 0.655984 0.495028
O O8 0.177827 0.670889 0.321955
O O9 0.072909 0.106713 0.034687
O O10 0.000000 0.000000 0.913833
O O11 0.468239 0.793306 0.079189
O O12 0.500000 0.000000 0.147433
O O13 0.637577 0.259740 0.156550
O O14 0.604788 0.367526 0.988474
O O15 0.250000 0.805313 0.220533
O O16 0.146202 0.881605 0.308689
#
# Coordination Sequence:
#
# PCOD9379280 Si02
#       7
#     8   8   8   8   8   8   8
#     4  11  20  36  53  80 115 144 170 231 278 320
#     4  10  21  36  56  81 109 142 184 230 269 316
#     4  11  21  37  56  81 108 147 189 227 268 327
#     4  11  18  31  57  80 111 140 180 222 268 320
#     4  11  18  33  54  83 109 141 178 225 271 326
#     4  10  20  35  56  81 109 144 181 223 275 326
#     4  10  20  33  54  80 113 140 178 224 276 326
#
# _framework density 16.522345999999999
#
# number of rings (size 3 to 8) (size 9 to 14) (size 15 to 20)
#    0.000    1.429    7.143    1.286    0.000    0.571 
#    2.571    0.714    0.000    0.857    0.000    0.000 
#    0.000    0.000    0.000    0.000    0.000    0.000 
#
# Total GULP energy -156064.217322 kJ/mol
# GULP energy per Si atom -5573.722047 kJ/mol
# Density = 1.648474 g / cm^3
# Si number density = 16.522346 Si / 1000 Ang^3
#
#
#
# Elastic Constant Matrix: (Units=GPa)
#
#
# Indices 1 2 3 4 5 6 
#
# 1 57.1708 29.6287 -0.2959 0.0000 0.0000 0.0000
# 2 29.6287 112.2193 37.4361 0.0000 0.0000 0.0000
# 3 -0.2959 37.4361 78.4437 0.0000 0.0000 0.0000
# 4 0.0000 0.0000 0.0000 15.4941 0.0000 0.0000
# 5 0.0000 0.0000 0.0000 0.0000 17.9151 0.0000
# 6 0.0000 0.0000 0.0000 0.0000 0.0000 19.8781
#
#
#
# Elastic Compliance Matrix: (Units=1/GPa)
#
#
# Indices 1 2 3 4 5 6 
#
# 1 0.020931 -0.006604 0.003231 0.000000 0.000000 0.000000
# 2 -0.006604 0.012682 -0.006077 0.000000 0.000000 0.000000
# 3 0.003231 -0.006077 0.015660 0.000000 0.000000 0.000000
# 4 0.000000 0.000000 0.000000 0.064541 0.000000 0.000000
# 5 0.000000 0.000000 0.000000 0.000000 0.055819 0.000000
# 6 0.000000 0.000000 0.000000 0.000000 0.000000 0.050307
#
#
# Mechanical properties :
#
#
# Convention : Reuss Voigt Hill
#
# Bulk Modulus (GPa) = 32.92509 42.37463 37.64986
# Shear Modulus (GPa) = 20.08320 22.72847 21.40584
#
# Velocity S-wave (km/s) = 3.49021 3.71296 3.60331
# Velocity P-wave (km/s) = 6.01772 6.63957 6.33628
#
# Compressibility (1/GPa) = 0.03037198
#
# Stress axis : x y z
#
# Youngs Moduli (GPa) = 47.77687 78.85146 63.85513
#
# Poissons Ratio (x) = 0.52073 -0.20629
# Poissons Ratio (y) = 0.31551 0.38806
# Poissons Ratio (z) = -0.15435 0.47920
#
# Static dielectric constant tensor:
#      x y z
#    x 1.573620 0.000000 0.000000 
#    y 0.000000 1.560920 0.000000 
#    z 0.000000 0.000000 1.569160 
# 
# From -- ./inp_files/12395.got.cif
#   From: 2010.05.17/outbox.cif.g08.bks.cpg/sg46_7_cif.got.tgz:12395.got - 2010.06.03 19:58:25.
