data_PCOD9379820
_publ_section_title
;
Structure prediction by ZEFSAII (Michael W. Deem and Ramdas Pophale) SiO2 
 PCOD9379820
Probable space group: I M A 2
;
_chemical_formula_sum "Si O2"
_cell_formula_units_Z 64
_cell_length_a 17.687334
_cell_length_b 12.816563
_cell_length_c 13.509926
_cell_angle_alpha 90.000000
_cell_angle_beta 90.000000
_cell_angle_gamma 90.000000
_cell_volume 3062.576345
_symmetry_space_group_name_H-M "I M A 2"
_symmetry_group_IT_number 46
_symmetry_cell_setting 'orthorhombic'
loop_
_space_group_symop_operation_xyz
x,y,z
-x,-y,z
1/2-x,y,z
1/2+x,-y,z
1/2+x,1/2+y,1/2+z
1/2-x,1/2-y,1/2+z
-x,1/2+y,1/2+z
x,1/2-y,1/2+z
loop_
_atom_site_type_symbol
_atom_site_label
_atom_site_fract_x
_atom_site_fract_y
_atom_site_fract_z
Si Si1 0.919639 0.286329 0.992710
Si Si2 0.835981 0.127508 0.872568
Si Si3 0.081678 0.940430 0.680808
Si Si4 0.165005 0.076002 0.008479
Si Si5 0.332761 0.271628 0.860286
Si Si6 0.516088 0.880796 0.319019
Si Si7 0.334470 0.151291 0.650774
Si Si8 0.543679 0.811108 0.107415
O O1 0.849826 0.226237 0.943892
O O2 0.958681 0.347863 0.903845
O O3 0.912573 0.361817 0.087697
O O4 0.977929 0.196347 0.027974
O O5 0.750000 0.128908 0.833303
O O6 0.895700 0.117479 0.782846
O O7 0.844106 0.024731 0.940554
O O8 0.142999 0.032350 0.666929
O O9 0.000000 0.000000 0.685805
O O10 0.250000 0.075384 0.051478
O O11 0.158406 0.177069 0.937540
O O12 0.100228 0.092525 0.089294
O O13 0.250000 0.320056 0.873337
O O14 0.400160 0.353964 0.859386
O O15 0.333266 0.212631 0.754744
O O16 0.510023 0.816578 0.217021
O O17 0.500000 0.000000 0.295430
O O18 0.250000 0.161593 0.607486
O O19 0.403459 0.208588 0.596292
#
# Coordination Sequence:
#
# PCOD9379820 Si02
#       8
#     8   8   8   8   8   8   8   8
#     4  12  26  43  67  96 139 181 226 282 340 423
#     4  11  27  46  69 100 138 183 235 293 352 423
#     4  12  24  42  72 104 131 183 240 294 350 414
#     4  10  20  38  67 101 132 169 224 283 337 398
#     4   9  18  38  67  98 129 165 216 283 341 389
#     4  11  25  43  63  96 140 177 222 275 337 421
#     4  10  20  38  66  99 133 167 219 286 345 396
#     4  11  23  39  65 100 132 178 221 276 347 404
#
# _framework density 20.897438000000001
#
# number of rings (size 3 to 8) (size 9 to 14) (size 15 to 20)
#    0.000    1.250    3.750    1.875    5.250    1.500 
#    0.000    0.625    0.000    0.000    0.000    0.000 
#    0.000    0.000    0.000    0.000    0.000    0.000 
#
# Total GULP energy -178747.494967 kJ/mol
# GULP energy per Si atom -5585.859218 kJ/mol
# Density = 2.084987 g / cm^3
# Si number density = 20.897438 Si / 1000 Ang^3
#
#
#
# Elastic Constant Matrix: (Units=GPa)
#
#
# Indices 1 2 3 4 5 6 
#
# 1 75.8185 43.3020 22.7929 0.0000 0.0000 0.0000
# 2 43.3020 72.0880 10.4116 0.0000 0.0000 0.0000
# 3 22.7929 10.4116 78.9831 0.0000 0.0000 0.0000
# 4 0.0000 0.0000 0.0000 25.6423 0.0000 0.0000
# 5 0.0000 0.0000 0.0000 0.0000 13.8076 0.0000
# 6 0.0000 0.0000 0.0000 0.0000 0.0000 25.4005
#
#
#
# Elastic Compliance Matrix: (Units=1/GPa)
#
#
# Indices 1 2 3 4 5 6 
#
# 1 0.021609 -0.012314 -0.004613 0.000000 0.000000 0.000000
# 2 -0.012314 0.021158 0.000764 0.000000 0.000000 0.000000
# 3 -0.004613 0.000764 0.013891 0.000000 0.000000 0.000000
# 4 0.000000 0.000000 0.000000 0.038998 0.000000 0.000000
# 5 0.000000 0.000000 0.000000 0.000000 0.072424 0.000000
# 6 0.000000 0.000000 0.000000 0.000000 0.000000 0.039369
#
#
# Mechanical properties :
#
#
# Convention : Reuss Voigt Hill
#
# Bulk Modulus (GPa) = 41.09436 42.21140 41.65288
# Shear Modulus (GPa) = 20.17062 22.99563 21.58312
#
# Velocity S-wave (km/s) = 3.11017 3.32083 3.21723
# Velocity P-wave (km/s) = 5.71008 5.91161 5.81172
#
# Compressibility (1/GPa) = 0.02433424
#
# Stress axis : x y z
#
# Youngs Moduli (GPa) = 46.27735 47.26286 71.98756
#
# Poissons Ratio (x) = 0.58199 0.33205
# Poissons Ratio (y) = 0.56985 -0.05503
# Poissons Ratio (z) = 0.21346 -0.03613
#
# Static dielectric constant tensor:
#      x y z
#    x 1.767200 0.000000 0.000000 
#    y 0.000000 1.741060 0.000000 
#    z 0.000000 0.000000 1.775730 
# 
# From -- ./inp_files/16747.got.cif
#   From: 2010.05.17/outbox.cif.g08.bks.cpg/sg46_9_cif.got.tgz:16747.got - 2010.06.03 19:58:25.
