data_PCOD9379560
_publ_section_title
;
Structure prediction by ZEFSAII (Michael W. Deem and Ramdas Pophale) SiO2 
 PCOD9379560
Probable space group: I M A 2
;
_chemical_formula_sum "Si O2"
_cell_formula_units_Z 64
_cell_length_a 11.299165
_cell_length_b 14.512820
_cell_length_c 18.835598
_cell_angle_alpha 90.000000
_cell_angle_beta 90.000000
_cell_angle_gamma 90.000000
_cell_volume 3088.713116
_symmetry_space_group_name_H-M "I M A 2"
_symmetry_group_IT_number 46
_symmetry_cell_setting 'orthorhombic'
loop_
_space_group_symop_operation_xyz
x,y,z
-x,-y,z
1/2-x,y,z
1/2+x,-y,z
1/2+x,1/2+y,1/2+z
1/2-x,1/2-y,1/2+z
-x,1/2+y,1/2+z
x,1/2-y,1/2+z
loop_
_atom_site_type_symbol
_atom_site_label
_atom_site_fract_x
_atom_site_fract_y
_atom_site_fract_z
Si Si1 0.875907 0.139345 0.695500
Si Si2 0.877492 0.056314 0.383949
Si Si3 0.441786 0.599989 0.038565
Si Si4 0.380163 0.143674 0.763282
Si Si5 0.621539 0.842853 0.196478
Si Si6 0.882977 0.730583 0.535318
Si Si7 0.611601 0.569953 0.422836
Si Si8 0.877225 0.354490 0.738035
O O1 0.750000 0.103224 0.725460
O O2 0.876549 0.123167 0.611523
O O3 0.876823 0.248389 0.713165
O O4 0.001931 0.105472 0.725517
O O5 0.750000 0.005758 0.373157
O O6 0.876168 0.094169 0.463638
O O7 0.880865 0.133589 0.322921
O O8 0.000000 0.000000 0.376802
O O9 0.500000 0.500000 0.048698
O O10 0.535336 0.681506 0.028854
O O11 0.250000 0.112637 0.735725
O O12 0.380510 0.253560 0.748356
O O13 0.388306 0.117765 0.845534
O O14 0.750000 0.888422 0.205665
O O15 0.614626 0.804412 0.116409
O O16 0.500074 0.895751 0.210287
O O17 0.750000 0.760246 0.518315
O O18 0.911307 0.646760 0.482902
O O19 0.500000 0.500000 0.425019
O O20 0.750000 0.535242 0.433187
O O21 0.750000 0.393464 0.713790
#
# Coordination Sequence:
#
# PCOD9379560 Si02
#       8
#     8   8   8   8   8   8   8   8
#     4  10  20  36  58  87 122 160 198 245 309 371
#     4  10  23  41  60  87 123 164 212 263 314 376
#     4  11  23  38  62  93 128 164 210 259 313 375
#     4   9  18  35  58  86 121 157 204 251 299 369
#     4   9  17  34  59  88 117 156 208 252 299 368
#     4  10  21  40  66  92 127 172 216 262 314 378
#     4  10  23  43  66  95 127 166 217 268 319 379
#     4   9  18  35  58  84 118 155 201 252 306 368
#
# _framework density 20.720604999999999
#
# number of rings (size 3 to 8) (size 9 to 14) (size 15 to 20)
#    0.000    2.250    2.500    0.375    3.500    4.000 
#    0.000    3.750    0.000    3.000    0.000    0.000 
#    0.000    0.000    0.000    0.000    0.000    0.000 
#
# Total GULP energy -178234.591243 kJ/mol
# GULP energy per Si atom -5569.830976 kJ/mol
# Density = 2.067344 g / cm^3
# Si number density = 20.720605 Si / 1000 Ang^3
#
#
#
# Elastic Constant Matrix: (Units=GPa)
#
#
# Indices 1 2 3 4 5 6 
#
# 1 232.2645 57.2398 54.3366 0.0000 0.0000 0.0000
# 2 57.2398 84.8168 42.4043 0.0000 0.0000 0.0000
# 3 54.3366 42.4043 73.5245 0.0000 0.0000 0.0000
# 4 0.0000 0.0000 0.0000 20.1895 0.0000 0.0000
# 5 0.0000 0.0000 0.0000 0.0000 23.3764 0.0000
# 6 0.0000 0.0000 0.0000 0.0000 0.0000 2.5182
#
#
#
# Elastic Compliance Matrix: (Units=1/GPa)
#
#
# Indices 1 2 3 4 5 6 
#
# 1 0.005525 -0.002371 -0.002716 0.000000 0.000000 0.000000
# 2 -0.002371 0.017584 -0.008389 0.000000 0.000000 0.000000
# 3 -0.002716 -0.008389 0.020446 0.000000 0.000000 0.000000
# 4 0.000000 0.000000 0.000000 0.049531 0.000000 0.000000
# 5 0.000000 0.000000 0.000000 0.000000 0.042778 0.000000
# 6 0.000000 0.000000 0.000000 0.000000 0.000000 0.397117
#
#
# Mechanical properties :
#
#
# Convention : Reuss Voigt Hill
#
# Bulk Modulus (GPa) = 60.22750 77.61857 68.92303
# Shear Modulus (GPa) = 8.84223 24.99182 16.91703
#
# Velocity S-wave (km/s) = 2.06800 3.47671 2.86043
# Velocity P-wave (km/s) = 5.90184 7.32514 6.65167
#
# Compressibility (1/GPa) = 0.01660371
#
# Stress axis : x y z
#
# Youngs Moduli (GPa) = 180.99333 56.86832 48.90826
#
# Poissons Ratio (x) = 0.13483 0.13282
# Poissons Ratio (y) = 0.42912 0.41031
# Poissons Ratio (z) = 0.49154 0.47709
#
# Static dielectric constant tensor:
#      x y z
#    x 1.857670 0.000000 0.000000 
#    y 0.000000 1.703120 0.000000 
#    z 0.000000 0.000000 1.707680 
# 
# From -- ./inp_files/19024.got.cif
#   From: 2010.05.17/outbox.cif.g08.bks.cpg/sg46_10_cif.got.tgz:19024.got - 2010.06.03 19:58:25.
