data_PCOD9379273
_publ_section_title
;
Structure prediction by ZEFSAII (Michael W. Deem and Ramdas Pophale) SiO2 
 PCOD9379273
Probable space group: I M A 2
;
_chemical_formula_sum "Si O2"
_cell_formula_units_Z 64
_cell_length_a 20.389511
_cell_length_b 9.001809
_cell_length_c 16.076685
_cell_angle_alpha 90.000000
_cell_angle_beta 90.000000
_cell_angle_gamma 90.000000
_cell_volume 2950.754693
_symmetry_space_group_name_H-M "I M A 2"
_symmetry_group_IT_number 46
_symmetry_cell_setting 'orthorhombic'
loop_
_space_group_symop_operation_xyz
x,y,z
-x,-y,z
1/2-x,y,z
1/2+x,-y,z
1/2+x,1/2+y,1/2+z
1/2-x,1/2-y,1/2+z
-x,1/2+y,1/2+z
x,1/2-y,1/2+z
loop_
_atom_site_type_symbol
_atom_site_label
_atom_site_fract_x
_atom_site_fract_y
_atom_site_fract_z
Si Si1 0.573516 0.996704 0.534960
Si Si2 0.177392 0.774883 0.497786
Si Si3 0.323417 0.073387 0.028314
Si Si4 0.176355 0.624642 0.802672
Si Si5 0.676791 0.821370 0.639553
Si Si6 0.063339 0.412340 0.840430
Si Si7 0.432150 0.415354 0.395771
Si Si8 0.825284 0.055137 0.784533
O O1 0.614273 0.148559 0.537391
O O2 0.500000 0.000000 0.568684
O O3 0.619305 0.886552 0.584508
O O4 0.568829 0.951532 0.438473
O O5 0.250000 0.829611 0.524751
O O6 0.174905 0.602972 0.521135
O O7 0.173941 0.813186 0.398811
O O8 0.250000 0.117292 0.995349
O O9 0.385089 0.126434 0.973254
O O10 0.327535 0.145557 0.120172
O O11 0.250000 0.571790 0.786699
O O12 0.125782 0.489741 0.798087
O O13 0.165153 0.776802 0.750091
O O14 0.750000 0.861648 0.609098
O O15 0.672016 0.911365 0.724995
O O16 0.056143 0.234319 0.841716
O O17 0.000000 0.500000 0.807950
O O18 0.500000 0.500000 0.416479
O O19 0.384992 0.526866 0.346169
O O20 0.750000 0.056526 0.818560
#
# Coordination Sequence:
#
# PCOD9379273 Si02
#       8
#     8   8   8   8   8   8   8   8
#     4  10  20  33  53  80 115 153 192 250 299 364
#     4   9  17  31  54  81 114 150 193 244 303 361
#     4  10  20  35  57  87 119 154 201 256 307 364
#     4   9  17  32  55  82 113 154 199 249 304 367
#     4  10  21  38  58  83 118 157 203 254 309 371
#     4  10  21  35  52  83 119 148 192 251 303 360
#     4  12  23  35  61  89 120 161 204 259 313 376
#     4  10  21  39  60  85 120 161 203 251 311 381
#
# _framework density 21.689367000000001
#
# number of rings (size 3 to 8) (size 9 to 14) (size 15 to 20)
#    0.000    2.000    2.500    1.500    3.500    2.000 
#    0.000    1.250    0.000    5.250    0.000    0.000 
#    0.000    0.000    0.000    0.000    0.000    0.000 
#
# Total GULP energy -178237.008736 kJ/mol
# GULP energy per Si atom -5569.906523 kJ/mol
# Density = 2.164000 g / cm^3
# Si number density = 21.689367 Si / 1000 Ang^3
#
#
#
# Elastic Constant Matrix: (Units=GPa)
#
#
# Indices 1 2 3 4 5 6 
#
# 1 182.1986 49.8113 35.4791 0.0000 0.0000 0.0000
# 2 49.8113 86.8461 9.8727 0.0000 0.0000 0.0000
# 3 35.4791 9.8727 20.6497 0.0000 0.0000 0.0000
# 4 0.0000 0.0000 0.0000 18.7002 0.0000 0.0000
# 5 0.0000 0.0000 0.0000 0.0000 11.2685 0.0000
# 6 0.0000 0.0000 0.0000 0.0000 0.0000 -186.4940
#
#
#
# Elastic Compliance Matrix: (Units=1/GPa)
#
#
# Indices 1 2 3 4 5 6 
#
# 1 0.009251 -0.003700 -0.014125 0.000000 0.000000 0.000000
# 2 -0.003700 0.013656 -0.000172 0.000000 0.000000 0.000000
# 3 -0.014125 -0.000172 0.072777 0.000000 0.000000 0.000000
# 4 0.000000 0.000000 0.000000 0.053475 0.000000 0.000000
# 5 0.000000 0.000000 0.000000 0.000000 0.088743 0.000000
# 6 0.000000 0.000000 0.000000 0.000000 0.000000 -0.005362
#
#
# Mechanical properties :
#
#
# Convention : Reuss Voigt Hill
#
# Bulk Modulus (GPa) = 16.75300 53.33563 35.04431
# Shear Modulus (GPa) = 17.33518 -18.33630 -0.50056
#
# Velocity S-wave (km/s) = 2.83016 -2.91074 -0.48092
# Velocity P-wave (km/s) = 4.29192 3.65343 3.98548
#
# Compressibility (1/GPa) = 0.05969080
#
# Stress axis : x y z
#
# Youngs Moduli (GPa) = 108.10177 73.22596 13.74051
#
# Poissons Ratio (x) = 0.27094 0.19408
# Poissons Ratio (y) = 0.39998 0.00236
# Poissons Ratio (z) = 1.52691 0.01260
#
# Static dielectric constant tensor:
#      x y z
#    x 1.780590 0.000000 0.000000 
#    y 0.000000 1.834420 0.000000 
#    z 0.000000 0.000000 1.845360 
# 
# From -- ./inp_files/20225.got.cif
#   From: 2010.05.17/outbox.cif.g08.bks.cpg/sg46_11_cif.got.tgz:20225.got - 2010.06.03 19:58:25.
