data_PCOD9379718
_publ_section_title
;
Structure prediction by ZEFSAII (Michael W. Deem and Ramdas Pophale) SiO2 
 PCOD9379718
Probable space group: I M A 2
;
_chemical_formula_sum "Si O2"
_cell_formula_units_Z 64
_cell_length_a 16.365393
_cell_length_b 11.498501
_cell_length_c 16.652651
_cell_angle_alpha 90.000000
_cell_angle_beta 90.000000
_cell_angle_gamma 90.000000
_cell_volume 3133.654030
_symmetry_space_group_name_H-M "I M A 2"
_symmetry_group_IT_number 46
_symmetry_cell_setting 'orthorhombic'
loop_
_space_group_symop_operation_xyz
x,y,z
-x,-y,z
1/2-x,y,z
1/2+x,-y,z
1/2+x,1/2+y,1/2+z
1/2-x,1/2-y,1/2+z
-x,1/2+y,1/2+z
x,1/2-y,1/2+z
loop_
_atom_site_type_symbol
_atom_site_label
_atom_site_fract_x
_atom_site_fract_y
_atom_site_fract_z
Si Si1 0.878948 0.167144 0.552760
Si Si2 0.847639 0.918668 0.106737
Si Si3 0.653965 0.535820 0.941782
Si Si4 0.905034 0.032112 0.271006
Si Si5 0.340453 0.992946 0.694922
Si Si6 0.429854 0.170692 0.589184
Si Si7 0.656795 0.398317 0.483099
Si Si8 0.150642 0.789862 0.819204
O O1 0.834670 0.089603 0.617807
O O2 0.843753 0.294905 0.547551
O O3 0.973633 0.171413 0.576352
O O4 0.865345 0.095650 0.470909
O O5 0.750000 0.901451 0.098904
O O6 0.893751 0.796849 0.105960
O O7 0.863770 0.989227 0.188659
O O8 0.878420 0.991602 0.029167
O O9 0.750000 0.558086 0.948635
O O10 0.627810 0.538043 0.849132
O O11 0.607876 0.616742 0.006657
O O12 0.888350 0.169720 0.287251
O O13 0.000000 0.000000 0.264241
O O14 0.250000 0.042752 0.712688
O O15 0.364517 0.901997 0.763168
O O16 0.402998 0.090391 0.664491
O O17 0.750000 0.428012 0.460379
O O18 0.619098 0.336838 0.405307
O O19 0.250000 0.769902 0.822608
#
# Coordination Sequence:
#
# PCOD9379718 Si02
#       8
#     8   8   8   8   8   8   8   8
#     4  11  20  35  64  92 125 158 207 266 321 364
#     4  11  25  44  64  90 130 177 213 255 325 400
#     4  11  21  40  67  93 122 165 214 262 318 383
#     4  12  25  40  64  97 131 161 210 274 327 376
#     4  10  20  37  64  93 121 163 211 260 312 373
#     4  11  24  40  62  91 134 167 213 259 318 392
#     4  10  21  39  66  93 123 162 211 268 321 378
#     4  10  21  40  68  97 124 158 214 271 317 376
#
# _framework density 20.423441
#
# number of rings (size 3 to 8) (size 9 to 14) (size 15 to 20)
#    0.000    1.250    1.250    7.125    3.500    2.000 
#    2.250    0.000    2.750    0.000    0.000    0.000 
#    0.000    0.000    0.000    0.000    0.000    0.000 
#
# Total GULP energy -178629.800531 kJ/mol
# GULP energy per Si atom -5582.181267 kJ/mol
# Density = 2.037696 g / cm^3
# Si number density = 20.423441 Si / 1000 Ang^3
#
#
#
# Elastic Constant Matrix: (Units=GPa)
#
#
# Indices 1 2 3 4 5 6 
#
# 1 103.4372 17.1087 10.9209 0.0000 0.0000 0.0000
# 2 17.1087 100.3409 31.4431 0.0000 0.0000 0.0000
# 3 10.9209 31.4431 69.0592 0.0000 0.0000 0.0000
# 4 0.0000 0.0000 0.0000 25.3697 0.0000 0.0000
# 5 0.0000 0.0000 0.0000 0.0000 15.5819 0.0000
# 6 0.0000 0.0000 0.0000 0.0000 0.0000 41.3597
#
#
#
# Elastic Compliance Matrix: (Units=1/GPa)
#
#
# Indices 1 2 3 4 5 6 
#
# 1 0.010000 -0.001411 -0.000939 0.000000 0.000000 0.000000
# 2 -0.001411 0.011824 -0.005160 0.000000 0.000000 0.000000
# 3 -0.000939 -0.005160 0.016978 0.000000 0.000000 0.000000
# 4 0.000000 0.000000 0.000000 0.039417 0.000000 0.000000
# 5 0.000000 0.000000 0.000000 0.000000 0.064177 0.000000
# 6 0.000000 0.000000 0.000000 0.000000 0.000000 0.024178
#
#
# Mechanical properties :
#
#
# Convention : Reuss Voigt Hill
#
# Bulk Modulus (GPa) = 42.04885 43.53139 42.79012
# Shear Modulus (GPa) = 26.38218 30.68658 28.53438
#
# Velocity S-wave (km/s) = 3.59801 3.88044 3.74189
# Velocity P-wave (km/s) = 6.15582 6.43722 6.29809
#
# Compressibility (1/GPa) = 0.02378187
#
# Stress axis : x y z
#
# Youngs Moduli (GPa) = 99.99796 84.57653 58.89864
#
# Poissons Ratio (x) = 0.11932 0.05531
# Poissons Ratio (y) = 0.14108 0.30393
# Poissons Ratio (z) = 0.09390 0.43644
#
# Static dielectric constant tensor:
#      x y z
#    x 1.741060 0.000000 0.000000 
#    y 0.000000 1.717240 0.000000 
#    z 0.000000 0.000000 1.810800 
# 
# From -- ./inp_files/19673.got.cif
#   From: 2010.05.17/outbox.cif.g08.bks.cpg/sg46_10_cif.got.tgz:19673.got - 2010.06.03 19:58:25.
