data_PCOD9379547
_publ_section_title
;
Structure prediction by ZEFSAII (Michael W. Deem and Ramdas Pophale) SiO2 
 PCOD9379547
Probable space group: I M A 2
;
_chemical_formula_sum "Si O2"
_cell_formula_units_Z 64
_cell_length_a 8.478519
_cell_length_b 14.423816
_cell_length_c 25.242444
_cell_angle_alpha 90.000000
_cell_angle_beta 90.000000
_cell_angle_gamma 90.000000
_cell_volume 3086.964057
_symmetry_space_group_name_H-M "I M A 2"
_symmetry_group_IT_number 46
_symmetry_cell_setting 'orthorhombic'
loop_
_space_group_symop_operation_xyz
x,y,z
-x,-y,z
1/2-x,y,z
1/2+x,-y,z
1/2+x,1/2+y,1/2+z
1/2-x,1/2-y,1/2+z
-x,1/2+y,1/2+z
x,1/2-y,1/2+z
loop_
_atom_site_type_symbol
_atom_site_label
_atom_site_fract_x
_atom_site_fract_y
_atom_site_fract_z
Si Si1 0.938004 0.219226 0.751030
Si Si2 0.439950 0.719102 0.134576
Si Si3 0.439264 0.395274 0.803547
Si Si4 0.060940 0.105394 0.850568
Si Si5 0.060572 0.395348 0.582110
Si Si6 0.939183 0.105660 0.532392
Si Si7 0.438858 0.393873 0.921826
Si Si8 0.559447 0.893805 0.965318
O O1 0.750000 0.212723 0.752095
O O2 0.994487 0.188180 0.692795
O O3 0.988927 0.324854 0.761686
O O4 0.004271 0.160391 0.799599
O O5 0.250000 0.715015 0.134046
O O6 0.492608 0.824088 0.124177
O O7 0.497320 0.658943 0.084643
O O8 0.500000 0.500000 0.797480
O O9 0.250000 0.394650 0.800349
O O10 0.483889 0.360220 0.863102
O O11 0.250000 0.105193 0.850593
O O12 0.008899 0.145880 0.908245
O O13 0.000000 0.000000 0.847467
O O14 0.250000 0.395430 0.584037
O O15 0.007291 0.360330 0.523262
O O16 0.000000 0.500000 0.588981
O O17 0.750000 0.104817 0.531744
O O18 0.996421 0.148203 0.476305
O O19 0.000000 0.000000 0.534952
O O20 0.500000 0.500000 0.922164
O O21 0.250000 0.392161 0.924979
O O22 0.750000 0.891672 0.965950
O O23 0.500000 0.000000 0.964052
#
# Coordination Sequence:
#
# PCOD9379547 Si02
#       8
#     8   8   8   8   8   8   8   8
#     4  11  24  41  58  79 110 149 195 239 278 326
#     4  10  24  42  56  77 110 147 191 237 275 322
#     4  10  21  38  60  86 115 147 183 227 280 335
#     4  10  20  37  60  86 117 149 184 228 279 333
#     4  10  20  36  60  86 113 146 182 223 275 331
#     4  10  20  36  58  83 112 145 182 226 277 330
#     4   9  17  31  54  84 115 143 176 220 272 333
#     4   8  16  31  53  83 114 142 175 218 270 330
#
# _framework density 20.732344000000001
#
# number of rings (size 3 to 8) (size 9 to 14) (size 15 to 20)
#    0.000    2.250    0.000    3.000    0.000    6.500 
#    0.000    5.000    0.000    0.000    0.000    0.000 
#    0.000    0.000    0.000    0.000    0.000    0.000 
#
# Total GULP energy -178605.637798 kJ/mol
# GULP energy per Si atom -5581.426181 kJ/mol
# Density = 2.068516 g / cm^3
# Si number density = 20.732344 Si / 1000 Ang^3
#
#
#
# Elastic Constant Matrix: (Units=GPa)
#
#
# Indices 1 2 3 4 5 6 
#
# 1 25.7642 -5.5180 18.8220 0.0000 0.0000 0.0000
# 2 -5.5180 37.3462 8.5815 0.0000 0.0000 0.0000
# 3 18.8220 8.5815 111.4504 0.0000 0.0000 0.0000
# 4 0.0000 0.0000 0.0000 31.4979 0.0000 0.0000
# 5 0.0000 0.0000 0.0000 0.0000 44.6299 0.0000
# 6 0.0000 0.0000 0.0000 0.0000 0.0000 23.6452
#
#
#
# Elastic Compliance Matrix: (Units=1/GPa)
#
#
# Indices 1 2 3 4 5 6 
#
# 1 0.047032 0.008932 -0.008631 0.000000 0.000000 0.000000
# 2 0.008932 0.028955 -0.003738 0.000000 0.000000 0.000000
# 3 -0.008631 -0.003738 0.010718 0.000000 0.000000 0.000000
# 4 0.000000 0.000000 0.000000 0.031748 0.000000 0.000000
# 5 0.000000 0.000000 0.000000 0.000000 0.022406 0.000000
# 6 0.000000 0.000000 0.000000 0.000000 0.000000 0.042292
#
#
# Mechanical properties :
#
#
# Convention : Reuss Voigt Hill
#
# Bulk Modulus (GPa) = 12.52631 24.25908 18.39270
# Shear Modulus (GPa) = 23.08034 30.13296 26.60665
#
# Velocity S-wave (km/s) = 3.34016 3.81652 3.58626
# Velocity P-wave (km/s) = 4.57500 5.58100 5.10285
#
# Compressibility (1/GPa) = 0.07983198
#
# Stress axis : x y z
#
# Youngs Moduli (GPa) = 21.26232 34.53615 93.30133
#
# Poissons Ratio (x) = -0.30848 0.80524
# Poissons Ratio (y) = -0.18992 0.34876
# Poissons Ratio (z) = 0.18351 0.12910
#
# Static dielectric constant tensor:
#      x y z
#    x 1.679930 0.000000 0.000000 
#    y 0.000000 1.728510 0.000000 
#    z 0.000000 0.000000 1.792690 
# 
# From -- ./inp_files/23232.got.cif
#   From: 2010.05.17/outbox.cif.g08.bks.cpg/sg46_12_cif.got.tgz:23232.got - 2010.06.03 19:58:25.
