data_PCOD9379917
_publ_section_title
;
Structure prediction by ZEFSAII (Michael W. Deem and Ramdas Pophale) SiO2 
 PCOD9379917
Probable space group: I M A 2
;
_chemical_formula_sum "Si O2"
_cell_formula_units_Z 32
_cell_length_a 11.149156
_cell_length_b 16.586496
_cell_length_c 7.255080
_cell_angle_alpha 90.000000
_cell_angle_beta 90.000000
_cell_angle_gamma 90.000000
_cell_volume 1341.648799
_symmetry_space_group_name_H-M "I M A 2"
_symmetry_group_IT_number 46
_symmetry_cell_setting 'orthorhombic'
loop_
_space_group_symop_operation_xyz
x,y,z
-x,-y,z
1/2-x,y,z
1/2+x,-y,z
1/2+x,1/2+y,1/2+z
1/2-x,1/2-y,1/2+z
-x,1/2+y,1/2+z
x,1/2-y,1/2+z
loop_
_atom_site_type_symbol
_atom_site_label
_atom_site_fract_x
_atom_site_fract_y
_atom_site_fract_z
Si Si1 0.379819 0.048586 0.936250
Si Si2 0.516069 0.863318 0.621047
Si Si3 0.750000 0.135641 0.635770
Si Si4 0.750000 0.322454 0.706897
Si Si5 0.984233 0.826033 0.192734
O O1 0.250000 0.009790 0.968646
O O2 0.391944 0.080833 0.727827
O O3 0.500000 0.000000 0.984249
O O4 0.392373 0.128171 0.063295
O O5 0.382886 0.895905 0.676519
O O6 0.526472 0.858588 0.400996
O O7 0.528627 0.770636 0.688458
O O8 0.750000 0.225458 0.720007
O O9 0.750000 0.144670 0.414051
O O10 0.621052 0.342638 0.622720
#
# Coordination Sequence:
#
# PCOD9379917 Si02
#       5
#     8   8   4   4   8
#     4  12  30  48  68 102 141 188 230 285 358 419
#     4  10  20  41  71 107 137 178 232 291 339 405
#     4   8  16  28  58 102 134 164 212 270 337 387
#     4   8  16  28  58 102 134 164 212 270 337 387
#     4  10  20  41  71 107 137 178 232 291 339 405
#
# _framework density 23.851248999999999
#
# number of rings (size 3 to 8) (size 9 to 14) (size 15 to 20)
#    0.000    2.000    2.500    0.000    7.000    3.000 
#    0.000    0.000    0.000    0.000    0.000    0.000 
#    0.000    0.000    0.000    0.000    0.000    0.000 
#
# Total GULP energy -89405.284279 kJ/mol
# GULP energy per Si atom -5587.830267 kJ/mol
# Density = 2.379696 g / cm^3
# Si number density = 23.851249 Si / 1000 Ang^3
#
#
#
# Elastic Constant Matrix: (Units=GPa)
#
#
# Indices 1 2 3 4 5 6 
#
# 1 145.8433 40.4671 15.7588 0.0000 0.0000 0.0000
# 2 40.4671 84.1387 12.4701 0.0000 0.0000 0.0000
# 3 15.7588 12.4701 78.5807 0.0000 0.0000 0.0000
# 4 0.0000 0.0000 0.0000 14.3147 0.0000 0.0000
# 5 0.0000 0.0000 0.0000 0.0000 14.2116 0.0000
# 6 0.0000 0.0000 0.0000 0.0000 0.0000 37.9296
#
#
#
# Elastic Compliance Matrix: (Units=1/GPa)
#
#
# Indices 1 2 3 4 5 6 
#
# 1 0.007991 -0.003693 -0.001017 0.000000 0.000000 0.000000
# 2 -0.003693 0.013878 -0.001462 0.000000 0.000000 0.000000
# 3 -0.001017 -0.001462 0.013162 0.000000 0.000000 0.000000
# 4 0.000000 0.000000 0.000000 0.069858 0.000000 0.000000
# 5 0.000000 0.000000 0.000000 0.000000 0.070365 0.000000
# 6 0.000000 0.000000 0.000000 0.000000 0.000000 0.026365
#
#
# Mechanical properties :
#
#
# Convention : Reuss Voigt Hill
#
# Bulk Modulus (GPa) = 44.07520 49.55052 46.81286
# Shear Modulus (GPa) = 22.57098 29.28231 25.92664
#
# Velocity S-wave (km/s) = 3.07957 3.50766 3.30057
# Velocity P-wave (km/s) = 5.58250 6.10122 5.84761
#
# Compressibility (1/GPa) = 0.02268850
#
# Stress axis : x y z
#
# Youngs Moduli (GPa) = 125.13865 72.05745 75.97860
#
# Poissons Ratio (x) = 0.26609 0.07724
# Poissons Ratio (y) = 0.46210 0.11106
# Poissons Ratio (z) = 0.12721 0.10533
#
# Static dielectric constant tensor:
#      x y z
#    x 1.925930 0.000000 0.000000 
#    y 0.000000 1.883700 0.000000 
#    z 0.000000 0.000000 1.870040 
# 
# From -- ./inp_files/4302.got.cif
#   From: 2010.05.17/outbox.cif.g08.bks.cpg/sg46_3_cif.got.tgz:4302.got - 2010.06.03 19:58:25.
