data_PCOD9379157
_publ_section_title
;
Structure prediction by ZEFSAII (Michael W. Deem and Ramdas Pophale) SiO2 
 PCOD9379157
Probable space group: I M A 2
;
_chemical_formula_sum "Si O2"
_cell_formula_units_Z 44
_cell_length_a 10.509823
_cell_length_b 13.356260
_cell_length_c 13.670558
_cell_angle_alpha 90.000000
_cell_angle_beta 90.000000
_cell_angle_gamma 90.000000
_cell_volume 1918.962591
_symmetry_space_group_name_H-M "I M A 2"
_symmetry_group_IT_number 46
_symmetry_cell_setting 'orthorhombic'
loop_
_space_group_symop_operation_xyz
x,y,z
-x,-y,z
1/2-x,y,z
1/2+x,-y,z
1/2+x,1/2+y,1/2+z
1/2-x,1/2-y,1/2+z
-x,1/2+y,1/2+z
x,1/2-y,1/2+z
loop_
_atom_site_type_symbol
_atom_site_label
_atom_site_fract_x
_atom_site_fract_y
_atom_site_fract_z
Si Si1 0.250000 0.477184 0.659140
Si Si2 0.601728 0.104827 0.037222
Si Si3 0.750000 0.413000 0.029760
Si Si4 0.750000 0.351625 0.822635
Si Si5 0.750000 0.691135 0.825308
Si Si6 0.481715 0.802525 0.624294
Si Si7 0.250000 0.366557 0.046640
Si Si8 0.017887 0.694567 0.337158
O O1 0.129584 0.495465 0.586125
O O2 0.250000 0.576093 0.728771
O O3 0.250000 0.382205 0.730437
O O4 0.750000 0.135761 0.016887
O O5 0.534432 0.125567 0.932884
O O6 0.548222 0.184572 0.115280
O O7 0.623195 0.354062 0.057078
O O8 0.750000 0.519403 0.080959
O O9 0.750000 0.424589 0.914302
O O10 0.626582 0.280746 0.834738
O O11 0.621778 0.756701 0.829317
O O12 0.750000 0.636483 0.929623
O O13 0.622881 0.816160 0.585352
O O14 0.464772 0.852458 0.730137
#
# Coordination Sequence:
#
# PCOD9379157 Si02
#       8
#     4   8   4   4   4   8   4   8
#     4  10  22  39  62 107 140 180 221 303 351 438
#     4  10  19  38  67  97 128 183 239 277 339 437
#     4  12  22  39  64  95 125 168 219 292 344 419
#     4  12  18  36  66  96 126 163 233 268 349 407
#     4  12  25  39  65 106 151 168 220 301 390 402
#     4  12  22  40  63  95 132 176 239 285 340 439
#     4  12  25  39  61 100 144 165 209 310 378 404
#     4  12  22  39  68  99 128 190 235 290 339 446
#
# _framework density 22.929055000000002
#
# number of rings (size 3 to 8) (size 9 to 14) (size 15 to 20)
#    0.545    0.000    8.182    1.636    0.000    0.727 
#    0.000    0.000    0.000    7.636    0.000    0.000 
#    0.000    0.000    0.000    0.000    0.000    0.000 
#
# Total GULP energy -122837.090276 kJ/mol
# GULP energy per Si atom -5583.504103 kJ/mol
# Density = 2.287687 g / cm^3
# Si number density = 22.929055 Si / 1000 Ang^3
#
#
#
# Elastic Constant Matrix: (Units=GPa)
#
#
# Indices 1 2 3 4 5 6 
#
# 1 154.7841 27.4223 21.7466 0.0000 0.0000 0.0000
# 2 27.4223 64.4984 21.7449 0.0000 0.0000 0.0000
# 3 21.7466 21.7449 180.9128 0.0000 0.0000 0.0000
# 4 0.0000 0.0000 0.0000 36.2111 0.0000 0.0000
# 5 0.0000 0.0000 0.0000 0.0000 32.5565 0.0000
# 6 0.0000 0.0000 0.0000 0.0000 0.0000 16.1072
#
#
#
# Elastic Compliance Matrix: (Units=1/GPa)
#
#
# Indices 1 2 3 4 5 6 
#
# 1 0.007031 -0.002819 -0.000506 0.000000 0.000000 0.000000
# 2 -0.002819 0.017289 -0.001739 0.000000 0.000000 0.000000
# 3 -0.000506 -0.001739 0.005797 0.000000 0.000000 0.000000
# 4 0.000000 0.000000 0.000000 0.027616 0.000000 0.000000
# 5 0.000000 0.000000 0.000000 0.000000 0.030716 0.000000
# 6 0.000000 0.000000 0.000000 0.000000 0.000000 0.062084
#
#
# Mechanical properties :
#
#
# Convention : Reuss Voigt Hill
#
# Bulk Modulus (GPa) = 50.02748 60.22480 55.12614
# Shear Modulus (GPa) = 29.88199 38.92706 34.40452
#
# Velocity S-wave (km/s) = 3.61395 4.12481 3.87780
# Velocity P-wave (km/s) = 6.26737 7.00058 6.64410
#
# Compressibility (1/GPa) = 0.01998901
#
# Stress axis : x y z
#
# Youngs Moduli (GPa) = 142.22482 57.84018 172.48980
#
# Poissons Ratio (x) = 0.16303 0.08735
# Poissons Ratio (y) = 0.40088 0.30000
# Poissons Ratio (z) = 0.07202 0.10060
#
# Static dielectric constant tensor:
#      x y z
#    x 1.914000 0.000000 0.000000 
#    y 0.000000 1.859150 0.000000 
#    z 0.000000 0.000000 1.866810 
# 
# From -- ./inp_files/13870.got.cif
#   From: 2010.05.17/outbox.cif.g08.bks.cpg/sg46_7_cif.got.tgz:13870.got - 2010.06.03 19:58:25.
