data_PCOD9379400
_publ_section_title
;
Structure prediction by ZEFSAII (Michael W. Deem and Ramdas Pophale) SiO2 
 PCOD9379400
Probable space group: I M A 2
;
_chemical_formula_sum "Si O2"
_cell_formula_units_Z 40
_cell_length_a 17.600549
_cell_length_b 13.518121
_cell_length_c 7.516064
_cell_angle_alpha 90.000000
_cell_angle_beta 90.000000
_cell_angle_gamma 90.000000
_cell_volume 1788.269682
_symmetry_space_group_name_H-M "I M A 2"
_symmetry_group_IT_number 46
_symmetry_cell_setting 'orthorhombic'
loop_
_space_group_symop_operation_xyz
x,y,z
-x,-y,z
1/2-x,y,z
1/2+x,-y,z
1/2+x,1/2+y,1/2+z
1/2-x,1/2-y,1/2+z
-x,1/2+y,1/2+z
x,1/2-y,1/2+z
loop_
_atom_site_type_symbol
_atom_site_label
_atom_site_fract_x
_atom_site_fract_y
_atom_site_fract_z
Si Si1 0.336976 0.090851 0.179010
Si Si2 0.903446 0.315843 0.147633
Si Si3 0.910676 0.508180 0.335538
Si Si4 0.451656 0.403986 0.966249
Si Si5 0.332048 0.863288 0.292798
O O1 0.250000 0.128738 0.184716
O O2 0.397972 0.140012 0.313312
O O3 0.336614 0.978257 0.252688
O O4 0.367050 0.073696 0.979150
O O5 0.888450 0.392983 0.308545
O O6 0.895676 0.203514 0.203622
O O7 0.842247 0.344081 0.999958
O O8 0.984928 0.335202 0.056806
O O9 0.000000 0.500000 0.382052
O O10 0.905385 0.555061 0.137545
O O11 0.500000 0.500000 0.897669
O O12 0.250000 0.827338 0.230255
#
# Coordination Sequence:
#
# PCOD9379400 Si02
#       5
#     8   8   8   8   8
#     4  11  21  33  56  84 114 152 191 244 300 351
#     4  10  20  35  52  78 120 162 195 236 287 361
#     4   9  19  33  53  74 106 153 196 241 279 347
#     4   9  18  38  54  75 110 157 202 243 279 344
#     4  11  21  32  50  83 124 154 181 226 297 365
#
# _framework density 22.367988
#
# number of rings (size 3 to 8) (size 9 to 14) (size 15 to 20)
#    0.000    2.400    4.000    2.400    0.000    4.000 
#    0.000    0.000    0.000    0.000    0.000    1.400 
#    0.000    0.000    0.000    0.000    0.000    0.000 
#
# Total GULP energy -111601.802771 kJ/mol
# GULP energy per Si atom -5580.090139 kJ/mol
# Density = 2.231708 g / cm^3
# Si number density = 22.367988 Si / 1000 Ang^3
#
#
#
# Elastic Constant Matrix: (Units=GPa)
#
#
# Indices 1 2 3 4 5 6 
#
# 1 90.0445 1.1549 34.7668 0.0000 0.0000 0.0000
# 2 1.1549 17.7071 -10.9205 0.0000 0.0000 0.0000
# 3 34.7668 -10.9205 87.1993 0.0000 0.0000 0.0000
# 4 0.0000 0.0000 0.0000 8.9354 0.0000 0.0000
# 5 0.0000 0.0000 0.0000 0.0000 -50.5860 0.0000
# 6 0.0000 0.0000 0.0000 0.0000 0.0000 21.2562
#
#
#
# Elastic Compliance Matrix: (Units=1/GPa)
#
#
# Indices 1 2 3 4 5 6 
#
# 1 0.013454 -0.004536 -0.005932 0.000000 0.000000 0.000000
# 2 -0.004536 0.062731 0.009665 0.000000 0.000000 0.000000
# 3 -0.005932 0.009665 0.015044 0.000000 0.000000 0.000000
# 4 0.000000 0.000000 0.000000 0.111914 0.000000 0.000000
# 5 0.000000 0.000000 0.000000 0.000000 -0.019768 0.000000
# 6 0.000000 0.000000 0.000000 0.000000 0.000000 0.047045
#
#
# Mechanical properties :
#
#
# Convention : Reuss Voigt Hill
#
# Bulk Modulus (GPa) = 11.15807 27.21704 19.18755
# Shear Modulus (GPa) = 19.09116 7.25112 13.17114
#
# Velocity S-wave (km/s) = 2.92465 1.80244 2.42923
# Velocity P-wave (km/s) = 4.05018 4.06521 4.05771
#
# Compressibility (1/GPa) = 0.08962126
#
# Stress axis : x y z
#
# Youngs Moduli (GPa) = 74.32538 15.94109 66.47328
#
# Poissons Ratio (x) = 0.07231 0.39435
# Poissons Ratio (y) = 0.33716 -0.64245
# Poissons Ratio (z) = 0.44093 -0.15407
#
# Static dielectric constant tensor:
#      x y z
#    x 2.007110 0.000000 0.000000 
#    y 0.000000 1.865370 0.000000 
#    z 0.000000 0.000000 1.866000 
# 
# From -- ./inp_files/5406.got.cif
#   From: 2010.05.17/outbox.cif.g08.bks.cpg/sg46_3_cif.got.tgz:5406.got - 2010.06.03 19:58:25.
