data_PCOD9379894
_publ_section_title
;
Structure prediction by ZEFSAII (Michael W. Deem and Ramdas Pophale) SiO2 
 PCOD9379894
Probable space group: I M A 2
;
_chemical_formula_sum "Si O2"
_cell_formula_units_Z 36
_cell_length_a 18.361787
_cell_length_b 6.880589
_cell_length_c 10.824985
_cell_angle_alpha 90.000000
_cell_angle_beta 90.000000
_cell_angle_gamma 90.000000
_cell_volume 1367.627627
_symmetry_space_group_name_H-M "I M A 2"
_symmetry_group_IT_number 46
_symmetry_cell_setting 'orthorhombic'
loop_
_space_group_symop_operation_xyz
x,y,z
-x,-y,z
1/2-x,y,z
1/2+x,-y,z
1/2+x,1/2+y,1/2+z
1/2-x,1/2-y,1/2+z
-x,1/2+y,1/2+z
x,1/2-y,1/2+z
loop_
_atom_site_type_symbol
_atom_site_label
_atom_site_fract_x
_atom_site_fract_y
_atom_site_fract_z
Si Si1 0.124671 0.790217 0.507360
Si Si2 0.750000 0.566941 0.116332
Si Si3 0.750000 0.345176 0.354155
Si Si4 0.515549 0.730350 0.120399
Si Si5 0.909004 0.643748 0.871610
Si Si6 0.250000 0.099603 0.268131
O O1 0.178593 0.953186 0.567288
O O2 0.178739 0.650604 0.437382
O O3 0.066229 0.691425 0.595714
O O4 0.079975 0.916163 0.407099
O O5 0.750000 0.513893 0.258962
O O6 0.750000 0.800179 0.131970
O O7 0.750000 0.138333 0.277573
O O8 0.500000 0.500000 0.135294
O O9 0.552557 0.797337 0.245264
O O10 0.562969 0.754154 0.994791
O O11 0.823225 0.656230 0.840999
#
# Coordination Sequence:
#
# PCOD9379894 Si02
#       6
#     8   4   4   8   8   4
#     4   9  21  41  61  97 142 175 230 295 341 410
#     4  11  21  41  75  94 137 185 219 306 342 403
#     4   9  21  39  66  99 131 180 231 280 356 412
#     4  10  21  39  64  93 138 177 229 283 355 403
#     4  10  21  39  66  95 130 189 224 290 347 407
#     4  10  20  40  67  95 136 175 244 276 350 415
#
# _framework density 26.322952999999998
#
# number of rings (size 3 to 8) (size 9 to 14) (size 15 to 20)
#    0.000    2.222    0.000    3.333    3.111    0.889 
#    0.000   21.111    0.000    0.000    0.000    0.000 
#    0.000    0.000    0.000    0.000    0.000    0.000 
#
# Total GULP energy -100730.363784 kJ/mol
# GULP energy per Si atom -5596.131321 kJ/mol
# Density = 2.626304 g / cm^3
# Si number density = 26.322953 Si / 1000 Ang^3
#
#
#
# Elastic Constant Matrix: (Units=GPa)
#
#
# Indices 1 2 3 4 5 6 
#
# 1 161.8239 21.8158 76.2224 0.0000 0.0000 0.0000
# 2 21.8158 66.4045 39.9367 0.0000 0.0000 0.0000
# 3 76.2224 39.9367 171.6686 0.0000 0.0000 0.0000
# 4 0.0000 0.0000 0.0000 51.7476 0.0000 0.0000
# 5 0.0000 0.0000 0.0000 0.0000 19.3471 0.0000
# 6 0.0000 0.0000 0.0000 0.0000 0.0000 48.1164
#
#
#
# Elastic Compliance Matrix: (Units=1/GPa)
#
#
# Indices 1 2 3 4 5 6 
#
# 1 0.007832 -0.000560 -0.003347 0.000000 0.000000 0.000000
# 2 -0.000560 0.017549 -0.003834 0.000000 0.000000 0.000000
# 3 -0.003347 -0.003834 0.008203 0.000000 0.000000 0.000000
# 4 0.000000 0.000000 0.000000 0.019325 0.000000 0.000000
# 5 0.000000 0.000000 0.000000 0.000000 0.051687 0.000000
# 6 0.000000 0.000000 0.000000 0.000000 0.000000 0.020783
#
#
# Mechanical properties :
#
#
# Convention : Reuss Voigt Hill
#
# Bulk Modulus (GPa) = 55.24277 75.09408 65.16843
# Shear Modulus (GPa) = 34.03809 41.30369 37.67089
#
# Velocity S-wave (km/s) = 3.59986 3.96550 3.78710
# Velocity P-wave (km/s) = 6.18957 7.03966 6.62826
#
# Compressibility (1/GPa) = 0.01810192
#
# Stress axis : x y z
#
# Youngs Moduli (GPa) = 127.68852 56.98343 121.90360
#
# Poissons Ratio (x) = 0.03191 0.40801
# Poissons Ratio (y) = 0.07150 0.46737
# Poissons Ratio (z) = 0.42738 0.21847
#
# Static dielectric constant tensor:
#      x y z
#    x 2.121050 0.000000 0.000000 
#    y 0.000000 2.130640 0.000000 
#    z 0.000000 0.000000 2.076660 
# 
# From -- ./inp_files/7180.got.cif
#   From: 2010.05.17/outbox.cif.g08.bks.cpg/sg46_4_cif.got.tgz:7180.got - 2010.06.03 19:58:25.
