data_PCOD9379546
_publ_section_title
;
Structure prediction by ZEFSAII (Michael W. Deem and Ramdas Pophale) SiO2 
 PCOD9379546
Probable space group: I M A 2
;
_chemical_formula_sum "Si O2"
_cell_formula_units_Z 56
_cell_length_a 19.202960
_cell_length_b 16.087756
_cell_length_c 9.268587
_cell_angle_alpha 90.000000
_cell_angle_beta 90.000000
_cell_angle_gamma 90.000000
_cell_volume 2863.368077
_symmetry_space_group_name_H-M "I M A 2"
_symmetry_group_IT_number 46
_symmetry_cell_setting 'orthorhombic'
loop_
_space_group_symop_operation_xyz
x,y,z
-x,-y,z
1/2-x,y,z
1/2+x,-y,z
1/2+x,1/2+y,1/2+z
1/2-x,1/2-y,1/2+z
-x,1/2+y,1/2+z
x,1/2-y,1/2+z
loop_
_atom_site_type_symbol
_atom_site_label
_atom_site_fract_x
_atom_site_fract_y
_atom_site_fract_z
Si Si1 0.972409 0.220903 0.707400
Si Si2 0.068693 0.551537 0.264047
Si Si3 0.483475 0.360899 0.900114
Si Si4 0.895179 0.493209 0.815535
Si Si5 0.176716 0.894720 0.525161
Si Si6 0.327141 0.715342 0.601834
Si Si7 0.331526 0.975098 0.013657
O O1 0.958885 0.142300 0.812234
O O2 0.897699 0.266682 0.688786
O O3 0.021625 0.287533 0.783176
O O4 0.999184 0.182009 0.554760
O O5 0.115429 0.573702 0.126435
O O6 0.120268 0.508045 0.375602
O O7 0.000000 0.500000 0.228411
O O8 0.544509 0.424058 0.844146
O O9 0.417685 0.422642 0.896169
O O10 0.875072 0.508304 0.650594
O O11 0.828471 0.447908 0.882433
O O12 0.250000 0.908633 0.602190
O O13 0.171426 0.796466 0.498276
O O14 0.250000 0.719640 0.674047
O O15 0.330682 0.625667 0.529754
O O16 0.250000 0.001339 0.007204
#
# Coordination Sequence:
#
# PCOD9379546 Si02
#       7
#     8   8   8   8   8   8   8
#     4  11  21  38  57  85 119 160 196 245 302 354
#     4  11  23  36  56  86 121 158 198 245 292 353
#     4  11  23  37  59  84 120 156 204 253 293 355
#     4  11  22  37  57  85 120 157 202 247 299 345
#     4  10  20  36  58  82 117 160 197 238 297 359
#     4   9  18  31  49  77 113 152 187 219 271 356
#     4  11  23  36  54  84 122 160 201 242 294 359
#
# _framework density 19.557388
#
# number of rings (size 3 to 8) (size 9 to 14) (size 15 to 20)
#    0.000    1.429    4.286    2.571    2.000    0.571 
#    0.000    5.000    0.000    0.000    0.000   18.000 
#    0.000    0.000    0.000    0.000    0.000    0.000 
#
# Total GULP energy -156045.320541 kJ/mol
# GULP energy per Si atom -5573.047162 kJ/mol
# Density = 1.951287 g / cm^3
# Si number density = 19.557388 Si / 1000 Ang^3
#
#
#
# Elastic Constant Matrix: (Units=GPa)
#
#
# Indices 1 2 3 4 5 6 
#
# 1 66.2676 20.9197 4.6004 0.0000 0.0000 0.0000
# 2 20.9197 61.2307 7.1183 0.0000 0.0000 0.0000
# 3 4.6004 7.1183 65.8641 0.0000 0.0000 0.0000
# 4 0.0000 0.0000 0.0000 13.2898 0.0000 0.0000
# 5 0.0000 0.0000 0.0000 0.0000 20.5417 0.0000
# 6 0.0000 0.0000 0.0000 0.0000 0.0000 25.6651
#
#
#
# Elastic Compliance Matrix: (Units=1/GPa)
#
#
# Indices 1 2 3 4 5 6 
#
# 1 0.016935 -0.005720 -0.000565 0.000000 0.000000 0.000000
# 2 -0.005720 0.018472 -0.001597 0.000000 0.000000 0.000000
# 3 -0.000565 -0.001597 0.015395 0.000000 0.000000 0.000000
# 4 0.000000 0.000000 0.000000 0.075246 0.000000 0.000000
# 5 0.000000 0.000000 0.000000 0.000000 0.048681 0.000000
# 6 0.000000 0.000000 0.000000 0.000000 0.000000 0.038963
#
#
# Mechanical properties :
#
#
# Convention : Reuss Voigt Hill
#
# Bulk Modulus (GPa) = 28.54027 28.73769 28.63898
# Shear Modulus (GPa) = 20.73524 22.61427 21.67475
#
# Velocity S-wave (km/s) = 3.25964 3.40413 3.33267
# Velocity P-wave (km/s) = 5.36580 5.49334 5.42994
#
# Compressibility (1/GPa) = 0.03503821
#
# Stress axis : x y z
#
# Youngs Moduli (GPa) = 59.04807 54.13691 64.95708
#
# Poissons Ratio (x) = 0.30968 0.03668
# Poissons Ratio (y) = 0.33778 0.10372
# Poissons Ratio (z) = 0.03334 0.08645
#
# Static dielectric constant tensor:
#      x y z
#    x 1.761450 0.000000 0.000000 
#    y 0.000000 1.687010 0.000000 
#    z 0.000000 0.000000 1.763610 
# 
# From -- ./inp_files/7415.got.cif
#   From: 2010.05.17/outbox.cif.g08.bks.cpg/sg46_4_cif.got.tgz:7415.got - 2010.06.03 19:58:25.
