data_PCOD9379125
_publ_section_title
;
Structure prediction by ZEFSAII (Michael W. Deem and Ramdas Pophale) SiO2 
 PCOD9379125
Probable space group: I M A 2
;
_chemical_formula_sum "Si O2"
_cell_formula_units_Z 64
_cell_length_a 8.620077
_cell_length_b 15.850938
_cell_length_c 24.334434
_cell_angle_alpha 90.000000
_cell_angle_beta 90.000000
_cell_angle_gamma 90.000000
_cell_volume 3324.967172
_symmetry_space_group_name_H-M "I M A 2"
_symmetry_group_IT_number 46
_symmetry_cell_setting 'orthorhombic'
loop_
_space_group_symop_operation_xyz
x,y,z
-x,-y,z
1/2-x,y,z
1/2+x,-y,z
1/2+x,1/2+y,1/2+z
1/2-x,1/2-y,1/2+z
-x,1/2+y,1/2+z
x,1/2-y,1/2+z
loop_
_atom_site_type_symbol
_atom_site_label
_atom_site_fract_x
_atom_site_fract_y
_atom_site_fract_z
Si Si1 0.436344 0.409577 0.705070
Si Si2 0.563736 0.909018 0.702323
Si Si3 0.062792 0.149903 0.823746
Si Si4 0.936216 0.248380 0.137185
Si Si5 0.564691 0.089429 0.938864
Si Si6 0.937314 0.251648 0.009227
Si Si7 0.438375 0.346871 0.823846
Si Si8 0.435878 0.090242 0.442525
O O1 0.500000 0.500000 0.686952
O O2 0.250000 0.410222 0.704285
O O3 0.496021 0.332783 0.668201
O O4 0.489936 0.391438 0.767864
O O5 0.750000 0.908238 0.699636
O O6 0.517541 0.891242 0.765803
O O7 0.498794 0.832885 0.665906
O O8 0.500000 0.000000 0.685220
O O9 0.250000 0.146283 0.828085
O O10 0.015944 0.248490 0.823376
O O11 0.991204 0.105835 0.876720
O O12 0.750000 0.246808 0.141099
O O13 0.980443 0.246817 0.073083
O O14 0.750000 0.086674 0.939821
O O15 0.500000 0.000000 0.958437
O O16 0.512068 0.168196 0.976071
O O17 0.750000 0.256395 0.005785
O O18 0.006937 0.333877 0.980539
O O19 0.250000 0.348252 0.823820
O O20 0.491219 0.390234 0.880094
O O21 0.250000 0.088431 0.442473
O O22 0.500000 0.000000 0.460425
#
# Coordination Sequence:
#
# PCOD9379125 Si02
#       8
#     8   8   8   8   8   8   8   8
#     4  11  22  40  63  92 126 160 199 245 298 357
#     4  11  23  40  63  91 124 159 198 246 299 360
#     4  10  19  37  62  90 123 156 194 240 295 357
#     4  11  24  43  64  87 118 158 205 255 302 353
#     4  11  23  39  61  90 121 156 197 243 297 355
#     4  10  24  44  62  85 118 155 203 254 297 348
#     4   9  18  35  60  90 123 157 192 238 294 355
#     4  11  22  38  63  91 122 158 197 240 296 355
#
# _framework density 19.24831
#
# number of rings (size 3 to 8) (size 9 to 14) (size 15 to 20)
#    0.000    1.500    2.500    2.625    0.000    4.500 
#    0.000    3.125    0.000    0.000    0.000    0.000 
#    0.000    0.000    0.000    0.000    0.000    0.000 
#
# Total GULP energy -178900.836801 kJ/mol
# GULP energy per Si atom -5590.651150 kJ/mol
# Density = 1.920450 g / cm^3
# Si number density = 19.248310 Si / 1000 Ang^3
#
#
#
# Elastic Constant Matrix: (Units=GPa)
#
#
# Indices 1 2 3 4 5 6 
#
# 1 40.1662 44.1440 44.1442 0.0000 0.0000 0.0000
# 2 44.1440 197.7837 82.6270 0.0000 0.0000 0.0000
# 3 44.1442 82.6270 143.6385 0.0000 0.0000 0.0000
# 4 0.0000 0.0000 0.0000 -4.3218 0.0000 0.0000
# 5 0.0000 0.0000 0.0000 0.0000 -0.2985 0.0000
# 6 0.0000 0.0000 0.0000 0.0000 0.0000 32.2060
#
#
#
# Elastic Compliance Matrix: (Units=1/GPa)
#
#
# Indices 1 2 3 4 5 6 
#
# 1 0.041221 -0.005144 -0.009709 0.000000 0.000000 0.000000
# 2 -0.005144 0.007297 -0.002617 0.000000 0.000000 0.000000
# 3 -0.009709 -0.002617 0.011451 0.000000 0.000000 0.000000
# 4 0.000000 0.000000 0.000000 -0.231384 0.000000 0.000000
# 5 0.000000 0.000000 0.000000 0.000000 -3.350000 0.000000
# 6 0.000000 0.000000 0.000000 0.000000 0.000000 0.031050
#
#
# Mechanical properties :
#
#
# Convention : Reuss Voigt Hill
#
# Bulk Modulus (GPa) = 39.95347 80.37984 60.16666
# Shear Modulus (GPa) = -1.45050 19.56201 9.05575
#
# Velocity S-wave (km/s) = -0.86903 3.19140 2.17139
# Velocity P-wave (km/s) = 4.44916 7.44514 6.13291
#
# Compressibility (1/GPa) = 0.02502911
#
# Stress axis : x y z
#
# Youngs Moduli (GPa) = 24.25955 137.03570 87.32722
#
# Poissons Ratio (x) = 0.70492 0.84788
# Poissons Ratio (y) = 0.12479 0.22852
# Poissons Ratio (z) = 0.23554 0.35860
#
# Static dielectric constant tensor:
#      x y z
#    x 1.647700 0.000000 0.000000 
#    y 0.000000 1.647320 0.000000 
#    z 0.000000 0.000000 1.656090 
# 
# From -- ./inp_files/23246.got.cif
#   From: 2010.05.17/outbox.cif.g08.bks.cpg/sg46_12_cif.got.tgz:23246.got - 2010.06.03 19:58:25.
