data_PCOD9379539
_publ_section_title
;
Structure prediction by ZEFSAII (Michael W. Deem and Ramdas Pophale) SiO2 
 PCOD9379539
Probable space group: I M A 2
;
_chemical_formula_sum "Si O2"
_cell_formula_units_Z 64
_cell_length_a 19.030143
_cell_length_b 12.280804
_cell_length_c 14.598692
_cell_angle_alpha 90.000000
_cell_angle_beta 90.000000
_cell_angle_gamma 90.000000
_cell_volume 3411.793975
_symmetry_space_group_name_H-M "I M A 2"
_symmetry_group_IT_number 46
_symmetry_cell_setting 'orthorhombic'
loop_
_space_group_symop_operation_xyz
x,y,z
-x,-y,z
1/2-x,y,z
1/2+x,-y,z
1/2+x,1/2+y,1/2+z
1/2-x,1/2-y,1/2+z
-x,1/2+y,1/2+z
x,1/2-y,1/2+z
loop_
_atom_site_type_symbol
_atom_site_label
_atom_site_fract_x
_atom_site_fract_y
_atom_site_fract_z
Si Si1 0.434706 0.083012 0.186240
Si Si2 0.828907 0.101870 0.236784
Si Si3 0.170211 0.710056 0.361398
Si Si4 0.165271 0.023273 0.783934
Si Si5 0.546373 0.802894 0.802951
Si Si6 0.127125 0.721152 0.561624
Si Si7 0.556921 0.422063 0.157513
Si Si8 0.489405 0.380708 0.492340
O O1 0.443460 0.189743 0.249286
O O2 0.500000 0.000000 0.196412
O O3 0.369688 0.009627 0.218709
O O4 0.435003 0.117242 0.077834
O O5 0.750000 0.076649 0.268231
O O6 0.864886 0.191036 0.304998
O O7 0.828232 0.167869 0.141587
O O8 0.250000 0.710107 0.325806
O O9 0.149286 0.584056 0.346358
O O10 0.167085 0.737363 0.467460
O O11 0.250000 0.039240 0.779680
O O12 0.125725 0.986876 0.691176
O O13 0.119619 0.128830 0.810498
O O14 0.489079 0.870565 0.741960
O O15 0.521692 0.798034 0.908684
O O16 0.087829 0.827697 0.596326
O O17 0.063198 0.641006 0.540423
O O18 0.500000 0.500000 0.110255
O O19 0.500000 0.500000 0.449449
#
# Coordination Sequence:
#
# PCOD9379539 Si02
#       8
#     8   8   8   8   8   8   8   8
#     4  11  23  42  60  89 126 158 206 250 298 367
#     4  11  23  41  63  88 124 166 201 254 311 363
#     4  10  22  37  58  92 122 154 203 254 310 363
#     4  10  21  37  62  88 118 155 198 249 303 354
#     4  11  22  40  61  87 121 162 199 249 304 357
#     4  12  20  35  61  88 120 152 204 250 305 363
#     4  10  20  36  57  89 123 154 199 250 303 366
#     4  11  21  36  62  89 117 152 198 257 303 348
#
# _framework density 18.758458999999998
#
# number of rings (size 3 to 8) (size 9 to 14) (size 15 to 20)
#    0.000    1.250    5.000    3.000    1.750    1.000 
#    2.250    0.000    0.000    0.000    0.000    0.000 
#    0.000    0.000    0.000    0.000    0.000    0.000 
#
# Total GULP energy -178256.309561 kJ/mol
# GULP energy per Si atom -5570.509674 kJ/mol
# Density = 1.871576 g / cm^3
# Si number density = 18.758459 Si / 1000 Ang^3
#
#
#
# Elastic Constant Matrix: (Units=GPa)
#
#
# Indices 1 2 3 4 5 6 
#
# 1 79.8628 25.9819 1.0974 0.0000 0.0000 0.0000
# 2 25.9819 85.0380 39.1519 0.0000 0.0000 0.0000
# 3 1.0974 39.1519 79.9774 0.0000 0.0000 0.0000
# 4 0.0000 0.0000 0.0000 17.6049 0.0000 0.0000
# 5 0.0000 0.0000 0.0000 0.0000 -1.4254 0.0000
# 6 0.0000 0.0000 0.0000 0.0000 0.0000 10.9235
#
#
#
# Elastic Compliance Matrix: (Units=1/GPa)
#
#
# Indices 1 2 3 4 5 6 
#
# 1 0.014282 -0.005517 0.002505 0.000000 0.000000 0.000000
# 2 -0.005517 0.017312 -0.008399 0.000000 0.000000 0.000000
# 3 0.002505 -0.008399 0.016581 0.000000 0.000000 0.000000
# 4 0.000000 0.000000 0.000000 0.056802 0.000000 0.000000
# 5 0.000000 0.000000 0.000000 0.000000 -0.701543 0.000000
# 6 0.000000 0.000000 0.000000 0.000000 0.000000 0.091545
#
#
# Mechanical properties :
#
#
# Convention : Reuss Voigt Hill
#
# Bulk Modulus (GPa) = 39.44425 41.92675 40.68550
# Shear Modulus (GPa) = -10.55415 17.33041 3.38813
#
# Velocity S-wave (km/s) = -2.37456 3.04282 1.34540
# Velocity P-wave (km/s) = 3.68171 5.89444 4.91424
#
# Compressibility (1/GPa) = 0.02535224
#
# Stress axis : x y z
#
# Youngs Moduli (GPa) = 70.01910 57.76341 60.31050
#
# Poissons Ratio (x) = 0.31866 -0.15106
# Poissons Ratio (y) = 0.38628 0.50656
# Poissons Ratio (z) = -0.17537 0.48516
#
# Static dielectric constant tensor:
#      x y z
#    x 1.800350 0.000000 0.000000 
#    y 0.000000 1.721100 0.000000 
#    z 0.000000 0.000000 1.677910 
# 
# From -- ./inp_files/16771.got.cif
#   From: 2010.05.17/outbox.cif.g08.bks.cpg/sg46_9_cif.got.tgz:16771.got - 2010.06.03 19:58:25.
