data_PCOD9379525
_publ_section_title
;
Structure prediction by ZEFSAII (Michael W. Deem and Ramdas Pophale) SiO2 
 PCOD9379525
Probable space group: I M A 2
;
_chemical_formula_sum "Si O2"
_cell_formula_units_Z 40
_cell_length_a 8.643356
_cell_length_b 9.820945
_cell_length_c 26.049346
_cell_angle_alpha 90.000000
_cell_angle_beta 90.000000
_cell_angle_gamma 90.000000
_cell_volume 2211.222802
_symmetry_space_group_name_H-M "I M A 2"
_symmetry_group_IT_number 46
_symmetry_cell_setting 'orthorhombic'
loop_
_space_group_symop_operation_xyz
x,y,z
-x,-y,z
1/2-x,y,z
1/2+x,-y,z
1/2+x,1/2+y,1/2+z
1/2-x,1/2-y,1/2+z
-x,1/2+y,1/2+z
x,1/2-y,1/2+z
loop_
_atom_site_type_symbol
_atom_site_label
_atom_site_fract_x
_atom_site_fract_y
_atom_site_fract_z
Si Si1 0.936395 0.849493 0.649280
Si Si2 0.564104 0.849123 0.766984
Si Si3 0.436072 0.151698 0.464507
Si Si4 0.063216 0.152480 0.058208
Si Si5 0.065311 0.651165 0.853317
O O1 0.750000 0.856941 0.646955
O O2 0.979426 0.814538 0.707993
O O3 0.988636 0.737169 0.608401
O O4 0.000000 0.000000 0.637240
O O5 0.750000 0.848276 0.770751
O O6 0.493019 0.747728 0.808204
O O7 0.500000 0.000000 0.776735
O O8 0.250000 0.144053 0.462217
O O9 0.481482 0.258183 0.508527
O O10 0.500629 0.194476 0.408996
O O11 0.500000 0.000000 0.475586
O O12 0.250000 0.146165 0.059144
O O13 0.000000 0.000000 0.056884
O O14 0.250000 0.647603 0.855138
O O15 0.000000 0.500000 0.844450
#
# Coordination Sequence:
#
# PCOD9379525 Si02
#       5
#     8   8   8   8   8
#     4   9  19  36  57  81 108 141 180 220 263 317
#     4  10  20  36  57  82 112 144 182 224 269 322
#     4  10  20  36  57  80 107 140 181 223 266 321
#     4  10  22  37  54  80 111 141 176 220 268 318
#     4  11  22  37  57  81 110 144 183 225 272 322
#
# _framework density 18.089538999999998
#
# number of rings (size 3 to 8) (size 9 to 14) (size 15 to 20)
#    0.000    2.000    0.000    4.800    0.000    4.800 
#    0.000    4.000    0.000    0.000    0.000    0.000 
#    0.000    0.000    0.000    0.000    0.000    0.000 
#
# Total GULP energy -111696.068696 kJ/mol
# GULP energy per Si atom -5584.803435 kJ/mol
# Density = 1.804837 g / cm^3
# Si number density = 18.089539 Si / 1000 Ang^3
#
#
#
# Elastic Constant Matrix: (Units=GPa)
#
#
# Indices 1 2 3 4 5 6 
#
# 1 69.3702 46.1117 56.9610 0.0000 0.0000 0.0000
# 2 46.1117 137.4956 136.6836 0.0000 0.0000 0.0000
# 3 56.9610 136.6836 176.7742 0.0000 0.0000 0.0000
# 4 0.0000 0.0000 0.0000 41.1308 0.0000 0.0000
# 5 0.0000 0.0000 0.0000 0.0000 428.8427 0.0000
# 6 0.0000 0.0000 0.0000 0.0000 0.0000 37.2652
#
#
#
# Elastic Compliance Matrix: (Units=1/GPa)
#
#
# Indices 1 2 3 4 5 6 
#
# 1 0.019654 -0.001278 -0.005345 0.000000 0.000000 0.000000
# 2 -0.001278 0.031519 -0.023959 0.000000 0.000000 0.000000
# 3 -0.005345 -0.023959 0.025905 0.000000 0.000000 0.000000
# 4 0.000000 0.000000 0.000000 0.024313 0.000000 0.000000
# 5 0.000000 0.000000 0.000000 0.000000 0.002332 0.000000
# 6 0.000000 0.000000 0.000000 0.000000 0.000000 0.026835
#
#
# Mechanical properties :
#
#
# Convention : Reuss Voigt Hill
#
# Bulk Modulus (GPa) = 62.83944 95.90583 79.37264
# Shear Modulus (GPa) = 25.37749 111.03999 68.20874
#
# Velocity S-wave (km/s) = 3.74957 7.84326 6.14720
# Velocity P-wave (km/s) = 7.31841 11.62561 9.71375
#
# Compressibility (1/GPa) = 0.01591357
#
# Stress axis : x y z
#
# Youngs Moduli (GPa) = 50.88137 31.72660 38.60325
#
# Poissons Ratio (x) = 0.04055 0.20632
# Poissons Ratio (y) = 0.06504 0.92490
# Poissons Ratio (z) = 0.27194 0.76014
#
# Static dielectric constant tensor:
#      x y z
#    x 1.605850 0.000000 0.000000 
#    y 0.000000 1.571420 0.000000 
#    z 0.000000 0.000000 1.623870 
# 
# From -- ./inp_files/22731.got.cif
#   From: 2010.05.17/outbox.cif.g08.bks.cpg/sg46_12_cif.got.tgz:22731.got - 2010.06.03 19:58:25.
