data_PCOD9379275
_publ_section_title
;
Structure prediction by ZEFSAII (Michael W. Deem and Ramdas Pophale) SiO2 
 PCOD9379275
Probable space group: I M A 2
;
_chemical_formula_sum "Si O2"
_cell_formula_units_Z 64
_cell_length_a 9.070550
_cell_length_b 33.217906
_cell_length_c 12.010190
_cell_angle_alpha 90.000000
_cell_angle_beta 90.000000
_cell_angle_gamma 90.000000
_cell_volume 3618.726422
_symmetry_space_group_name_H-M "I M A 2"
_symmetry_group_IT_number 46
_symmetry_cell_setting 'orthorhombic'
loop_
_space_group_symop_operation_xyz
x,y,z
-x,-y,z
1/2-x,y,z
1/2+x,-y,z
1/2+x,1/2+y,1/2+z
1/2-x,1/2-y,1/2+z
-x,1/2+y,1/2+z
x,1/2-y,1/2+z
loop_
_atom_site_type_symbol
_atom_site_label
_atom_site_fract_x
_atom_site_fract_y
_atom_site_fract_z
Si Si1 0.075715 0.722394 0.182920
Si Si2 0.084419 0.314347 0.983325
Si Si3 0.424787 0.957001 0.428267
Si Si4 0.927760 0.880036 0.059210
Si Si5 0.572643 0.455817 0.673272
Si Si6 0.916998 0.900790 0.600626
Si Si7 0.427812 0.351817 0.309551
Si Si8 0.425687 0.307564 0.724937
O O1 0.250000 0.721487 0.197287
O O2 0.002099 0.689145 0.264927
O O3 0.010877 0.766494 0.202090
O O4 0.029400 0.710130 0.057722
O O5 0.250000 0.296512 0.995050
O O6 0.049276 0.317590 0.854118
O O7 0.089252 0.358538 0.035598
O O8 0.250000 0.960839 0.433955
O O9 0.461606 0.943110 0.301858
O O10 0.482389 0.929048 0.526703
O O11 0.500000 0.000000 0.441078
O O12 0.750000 0.885800 0.065021
O O13 0.968505 0.844599 0.145784
O O14 0.006545 0.921467 0.093715
O O15 0.963875 0.864407 0.935104
O O16 0.500000 0.500000 0.655875
O O17 0.750000 0.458790 0.661794
O O18 0.750000 0.917234 0.607048
O O19 0.968027 0.887735 0.723658
O O20 0.250000 0.346548 0.300757
O O21 0.250000 0.300921 0.708915
#
# Coordination Sequence:
#
# PCOD9379275 Si02
#       8
#     8   8   8   8   8   8   8   8
#     4  11  23  36  53  79 112 145 182 232 285 332
#     4   9  19  36  56  76 102 139 181 221 268 329
#     4  10  20  33  53  82 113 144 178 221 275 331
#     4  10  21  38  61  86 110 145 192 239 284 337
#     4  10  21  37  58  85 118 151 184 230 283 339
#     4   9  17  33  56  79 105 136 176 225 269 321
#     4   9  20  39  59  79 108 149 192 228 275 340
#     4  10  21  36  57  82 108 143 187 232 278 337
#
# _framework density 17.685780999999999
#
# number of rings (size 3 to 8) (size 9 to 14) (size 15 to 20)
#    0.000    2.250    0.000    3.375    1.750    6.000 
#    0.000    0.625    0.000    0.000    0.000    0.000 
#    0.000    0.000    0.000    0.000    0.000    0.000 
#
# Total GULP energy -178512.319910 kJ/mol
# GULP energy per Si atom -5578.509997 kJ/mol
# Density = 1.764553 g / cm^3
# Si number density = 17.685781 Si / 1000 Ang^3
#
#
#
# Elastic Constant Matrix: (Units=GPa)
#
#
# Indices 1 2 3 4 5 6 
#
# 1 54.2235 46.6754 56.4187 -0.0001 0.0001 0.0000
# 2 46.6754 88.6222 72.5180 -0.0003 -0.0002 -0.0001
# 3 56.4187 72.5180 142.5752 -0.0003 0.0021 -0.0003
# 4 -0.0001 -0.0003 -0.0003 12.7041 0.0004 -0.0001
# 5 0.0001 -0.0002 0.0021 0.0004 72.6417 0.0001
# 6 0.0000 -0.0001 -0.0003 -0.0001 0.0001 25.0011
#
#
#
# Elastic Compliance Matrix: (Units=1/GPa)
#
#
# Indices 1 2 3 4 5 6 
#
# 1 0.038986 -0.013548 -0.008536 0.000000 0.000000 0.000000
# 2 -0.013548 0.024036 -0.006865 0.000000 0.000000 0.000000
# 3 -0.008536 -0.006865 0.013883 0.000000 0.000000 0.000000
# 4 0.000000 0.000000 0.000000 0.078715 0.000000 0.000000
# 5 0.000000 0.000000 0.000000 0.000000 0.013766 0.000000
# 6 0.000000 0.000000 0.000000 0.000000 0.000000 0.039998
#
#
# Mechanical properties :
#
#
# Convention : Reuss Voigt Hill
#
# Bulk Modulus (GPa) = 52.60921 70.73834 61.67377
# Shear Modulus (GPa) = 18.27358 29.38996 23.83177
#
# Velocity S-wave (km/s) = 3.21789 4.08092 3.67483
# Velocity P-wave (km/s) = 6.60436 7.89236 7.27691
#
# Compressibility (1/GPa) = 0.01900808
#
# Stress axis : x y z
#
# Youngs Moduli (GPa) = 25.65007 41.60351 72.02896
#
# Poissons Ratio (x) = 0.56365 0.61487
# Poissons Ratio (y) = 0.34751 0.49445
# Poissons Ratio (z) = 0.21896 0.28559
#
# Static dielectric constant tensor:
#      x y z
#    x 1.586970 0.000000 0.000000 
#    y 0.000000 1.584580 0.000000 
#    z 0.000000 0.000000 1.617910 
# 
# From -- ./inp_files/9719.got.cif
#   From: 2010.05.17/outbox.cif.g08.bks.cpg/sg46_5_cif.got.tgz:9719.got - 2010.06.03 19:58:25.
