data_PCOD9379750
_publ_section_title
;
Structure prediction by ZEFSAII (Michael W. Deem and Ramdas Pophale) SiO2 
 PCOD9379750
Probable space group: I M A 2
;
_chemical_formula_sum "Si O2"
_cell_formula_units_Z 60
_cell_length_a 9.546124
_cell_length_b 25.667648
_cell_length_c 11.275373
_cell_angle_alpha 90.000000
_cell_angle_beta 90.000000
_cell_angle_gamma 90.000000
_cell_volume 2762.765753
_symmetry_space_group_name_H-M "I M A 2"
_symmetry_group_IT_number 46
_symmetry_cell_setting 'orthorhombic'
loop_
_space_group_symop_operation_xyz
x,y,z
-x,-y,z
1/2-x,y,z
1/2+x,-y,z
1/2+x,1/2+y,1/2+z
1/2-x,1/2-y,1/2+z
-x,1/2+y,1/2+z
x,1/2-y,1/2+z
loop_
_atom_site_type_symbol
_atom_site_label
_atom_site_fract_x
_atom_site_fract_y
_atom_site_fract_z
Si Si1 0.250000 0.997595 0.687850
Si Si2 0.414886 0.632999 0.927832
Si Si3 0.590864 0.952683 0.037678
Si Si4 0.093874 0.454036 0.819475
Si Si5 0.913145 0.347008 0.535272
Si Si6 0.415693 0.183301 0.821502
Si Si7 0.090729 0.775034 0.264914
Si Si8 0.502936 0.917682 0.675811
O O1 0.371205 0.952673 0.710626
O O2 0.371126 0.042005 0.660389
O O3 0.250000 0.619994 0.912050
O O4 0.511249 0.598532 0.842014
O O5 0.431634 0.692538 0.886774
O O6 0.462248 0.614608 0.057115
O O7 0.750000 0.949206 0.987422
O O8 0.606299 0.963114 0.178687
O O9 0.500880 0.900407 0.032769
O O10 0.500000 0.000000 0.984812
O O11 0.250000 0.453828 0.869873
O O12 0.000000 0.500000 0.873022
O O13 0.750000 0.356193 0.505061
O O14 0.916092 0.318081 0.661191
O O15 0.993185 0.311762 0.440565
O O16 0.250000 0.187641 0.839786
O O17 0.477429 0.230419 0.743779
O O18 0.452028 0.126882 0.768303
O O19 0.250000 0.753560 0.265094
#
# Coordination Sequence:
#
# PCOD9379750 Si02
#       8
#     4   8   8   8   8   8   8   8
#     4  10  24  48  74 102 146 180 238 294 366 432
#     4  11  23  40  67 101 141 183 235 290 349 423
#     4  10  20  38  60  93 134 178 228 278 338 406
#     4  10  21  32  55  87 130 179 222 276 338 407
#     4  11  24  46  73 100 139 182 235 290 350 422
#     4  12  28  49  72 104 140 185 238 297 354 427
#     4  10  25  47  72 103 140 188 240 292 355 420
#     4  11  25  46  72 108 139 187 235 298 360 432
#
# _framework density 21.717366999999999
#
# number of rings (size 3 to 8) (size 9 to 14) (size 15 to 20)
#    0.000    1.333    2.667    1.600    6.533    2.667 
#    2.400    0.000    0.000    0.000    0.000    0.000 
#    0.000    0.000    0.000    0.000    0.000    0.000 
#
# Total GULP energy -167130.953926 kJ/mol
# GULP energy per Si atom -5571.031798 kJ/mol
# Density = 2.166794 g / cm^3
# Si number density = 21.717367 Si / 1000 Ang^3
#
#
#
# Elastic Constant Matrix: (Units=GPa)
#
#
# Indices 1 2 3 4 5 6 
#
# 1 236.2663 84.2039 29.8625 -0.0004 0.0001 0.0002
# 2 84.2039 107.9061 14.9766 -0.0003 0.0003 0.0001
# 3 29.8625 14.9766 36.3525 0.0000 0.0011 0.0010
# 4 -0.0004 -0.0003 0.0000 7.0166 0.0001 0.0001
# 5 0.0001 0.0003 0.0011 0.0001 17.4952 -0.0001
# 6 0.0002 0.0001 0.0010 0.0001 -0.0001 38.9517
#
#
#
# Elastic Compliance Matrix: (Units=1/GPa)
#
#
# Indices 1 2 3 4 5 6 
#
# 1 0.006214 -0.004392 -0.003295 0.000000 0.000000 0.000000
# 2 -0.004392 0.012933 -0.001720 0.000000 0.000000 0.000000
# 3 -0.003295 -0.001720 0.030924 0.000000 -0.000002 -0.000001
# 4 0.000000 0.000000 0.000000 0.142519 0.000000 0.000000
# 5 0.000000 0.000000 -0.000002 0.000000 0.057158 0.000000
# 6 0.000000 0.000000 -0.000001 0.000000 0.000000 0.025673
#
#
# Mechanical properties :
#
#
# Convention : Reuss Voigt Hill
#
# Bulk Modulus (GPa) = 31.99360 70.95678 51.47519
# Shear Modulus (GPa) = 16.41192 29.45817 22.93505
#
# Velocity S-wave (km/s) = 2.75199 3.68698 3.25325
# Velocity P-wave (km/s) = 4.98615 7.13224 6.15348
#
# Compressibility (1/GPa) = 0.03125625
#
# Stress axis : x y z
#
# Youngs Moduli (GPa) = 160.91959 77.31983 32.33697
#
# Poissons Ratio (x) = 0.33958 0.10657
# Poissons Ratio (y) = 0.70674 0.05563
# Poissons Ratio (z) = 0.53031 0.13303
#
# Static dielectric constant tensor:
#      x y z
#    x 1.747800 0.000000 0.000000 
#    y 0.000000 1.814750 0.000000 
#    z 0.000000 0.000000 1.928870 
# 
# From -- ./inp_files/9555.got.cif
#   From: 2010.05.17/outbox.cif.g08.bks.cpg/sg46_5_cif.got.tgz:9555.got - 2010.06.03 19:58:25.
