data_PCOD9379386
_publ_section_title
;
Structure prediction by ZEFSAII (Michael W. Deem and Ramdas Pophale) SiO2 
 PCOD9379386
Probable space group: I M A 2
;
_chemical_formula_sum "Si O2"
_cell_formula_units_Z 36
_cell_length_a 18.777703
_cell_length_b 10.468780
_cell_length_c 8.880315
_cell_angle_alpha 90.000000
_cell_angle_beta 90.000000
_cell_angle_gamma 90.000000
_cell_volume 1745.689140
_symmetry_space_group_name_H-M "I M A 2"
_symmetry_group_IT_number 46
_symmetry_cell_setting 'orthorhombic'
loop_
_space_group_symop_operation_xyz
x,y,z
-x,-y,z
1/2-x,y,z
1/2+x,-y,z
1/2+x,1/2+y,1/2+z
1/2-x,1/2-y,1/2+z
-x,1/2+y,1/2+z
x,1/2-y,1/2+z
loop_
_atom_site_type_symbol
_atom_site_label
_atom_site_fract_x
_atom_site_fract_y
_atom_site_fract_z
Si Si1 0.750000 0.213072 0.610311
Si Si2 0.593508 0.124149 0.586383
Si Si3 0.601103 0.557519 0.346845
Si Si4 0.000000 0.000000 0.083555
Si Si5 0.250000 0.552219 0.415942
Si Si6 0.001759 0.710070 0.810291
O O1 0.675154 0.157742 0.547664
O O2 0.750000 0.363660 0.568614
O O3 0.750000 0.161061 0.783157
O O4 0.563326 0.220446 0.713173
O O5 0.541069 0.140292 0.446997
O O6 0.590887 0.990322 0.675714
O O7 0.561844 0.463804 0.466779
O O8 0.682282 0.538136 0.390383
O O9 0.559752 0.691287 0.359525
O O10 0.971022 0.891661 0.192645
#
# Coordination Sequence:
#
# PCOD9379386 Si02
#       6
#     4   8   8   4   4   8
#     4  10  20  34  60  94 124 164 208 260 325 379
#     4  11  21  38  63  92 130 160 211 270 322 382
#     4  11  23  43  63  95 129 167 214 273 331 384
#     4  12  24  38  64  92 122 170 220 266 324 380
#     4  10  22  40  66  90 134 174 210 272 327 383
#     4  12  23  38  63  93 124 168 216 263 320 390
#
# _framework density 20.622228
#
# number of rings (size 3 to 8) (size 9 to 14) (size 15 to 20)
#    0.000    0.889    4.444    4.000    3.111    0.000 
#    0.000    1.111    0.000    0.000    0.000    0.000 
#    0.000    0.000    0.000    0.000    0.000    0.000 
#
# Total GULP energy -100416.833756 kJ/mol
# GULP energy per Si atom -5578.712986 kJ/mol
# Density = 2.057529 g / cm^3
# Si number density = 20.622228 Si / 1000 Ang^3
#
#
#
# Elastic Constant Matrix: (Units=GPa)
#
#
# Indices 1 2 3 4 5 6 
#
# 1 165.1102 40.7225 51.3747 0.0000 0.0000 0.0000
# 2 40.7225 59.6225 27.7434 0.0000 0.0000 0.0000
# 3 51.3747 27.7434 104.4706 0.0000 0.0000 0.0000
# 4 0.0000 0.0000 0.0000 33.2522 0.0000 0.0000
# 5 0.0000 0.0000 0.0000 0.0000 23.8499 0.0000
# 6 0.0000 0.0000 0.0000 0.0000 0.0000 19.9876
#
#
#
# Elastic Compliance Matrix: (Units=1/GPa)
#
#
# Indices 1 2 3 4 5 6 
#
# 1 0.007948 -0.004119 -0.002815 0.000000 0.000000 0.000000
# 2 -0.004119 0.021271 -0.003623 0.000000 0.000000 0.000000
# 3 -0.002815 -0.003623 0.011919 0.000000 0.000000 0.000000
# 4 0.000000 0.000000 0.000000 0.030073 0.000000 0.000000
# 5 0.000000 0.000000 0.000000 0.000000 0.041929 0.000000
# 6 0.000000 0.000000 0.000000 0.000000 0.000000 0.050031
#
#
# Mechanical properties :
#
#
# Convention : Reuss Voigt Hill
#
# Bulk Modulus (GPa) = 49.94003 63.20940 56.57472
# Shear Modulus (GPa) = 26.18347 29.37547 27.77947
#
# Velocity S-wave (km/s) = 3.56711 3.77829 3.67422
# Velocity P-wave (km/s) = 6.42144 7.05348 6.74487
#
# Compressibility (1/GPa) = 0.02002402
#
# Stress axis : x y z
#
# Youngs Moduli (GPa) = 125.81318 47.01137 83.90298
#
# Poissons Ratio (x) = 0.19364 0.23617
# Poissons Ratio (y) = 0.51822 0.30401
# Poissons Ratio (z) = 0.35414 0.17034
#
# Static dielectric constant tensor:
#      x y z
#    x 1.744920 0.000000 0.000000 
#    y 0.000000 1.801270 0.000000 
#    z 0.000000 0.000000 1.752240 
# 
# From -- ./inp_files/7227.got.cif
#   From: 2010.05.17/outbox.cif.g08.bks.cpg/sg46_4_cif.got.tgz:7227.got - 2010.06.03 19:58:25.
