data_PCOD9379936
_publ_section_title
;
Structure prediction by ZEFSAII (Michael W. Deem and Ramdas Pophale) SiO2 
 PCOD9379936
Probable space group: I M A 2
;
_chemical_formula_sum "Si O2"
_cell_formula_units_Z 64
_cell_length_a 28.753029
_cell_length_b 11.935026
_cell_length_c 9.066835
_cell_angle_alpha 90.000000
_cell_angle_beta 90.000000
_cell_angle_gamma 90.000000
_cell_volume 3111.448981
_symmetry_space_group_name_H-M "I M A 2"
_symmetry_group_IT_number 46
_symmetry_cell_setting 'orthorhombic'
loop_
_space_group_symop_operation_xyz
x,y,z
-x,-y,z
1/2-x,y,z
1/2+x,-y,z
1/2+x,1/2+y,1/2+z
1/2-x,1/2-y,1/2+z
-x,1/2+y,1/2+z
x,1/2-y,1/2+z
loop_
_atom_site_type_symbol
_atom_site_label
_atom_site_fract_x
_atom_site_fract_y
_atom_site_fract_z
Si Si1 0.319092 0.485833 0.202980
Si Si2 0.196585 0.187192 0.954110
Si Si3 0.303651 0.827691 0.946338
Si Si4 0.358187 0.996217 0.127528
Si Si5 0.941167 0.723299 0.805303
Si Si6 0.800770 0.065471 0.386901
Si Si7 0.383620 0.348698 0.060547
Si Si8 0.460565 0.411113 0.545131
O O1 0.305163 0.373555 0.293161
O O2 0.310078 0.591968 0.305023
O O3 0.371543 0.459773 0.151263
O O4 0.297000 0.510904 0.046780
O O5 0.250000 0.216129 0.985425
O O6 0.161037 0.288455 0.984050
O O7 0.176304 0.088334 0.056455
O O8 0.250000 0.841338 0.997727
O O9 0.309253 0.697873 0.908434
O O10 0.340896 0.877617 0.060210
O O11 0.343072 0.987598 0.296712
O O12 0.410426 0.030968 0.083215
O O13 0.902569 0.765627 0.687824
O O14 0.974617 0.659324 0.692415
O O15 0.920702 0.641879 0.930453
O O16 0.955974 0.828979 0.904415
O O17 0.750000 0.049952 0.312875
O O18 0.500000 0.500000 0.514361
#
# Coordination Sequence:
#
# PCOD9379936 Si02
#       8
#     8   8   8   8   8   8   8   8
#     4  11  21  34  55  84 121 167 220 256 301 359
#     4  11  22  35  55  89 134 174 211 250 297 365
#     4  10  21  38  57  83 124 174 216 260 317 368
#     4  11  20  40  61  88 124 165 213 264 319 373
#     4  10  20  44  72  90 129 162 203 249 329 386
#     4  11  22  35  57  87 123 173 225 266 314 369
#     4  11  20  39  61  93 123 177 199 248 309 377
#     4  11  24  45  72  98 123 163 206 265 326 391
#
# _framework density 20.569194
#
# number of rings (size 3 to 8) (size 9 to 14) (size 15 to 20)
#    0.000    1.250    3.750    5.250    0.000    3.500 
#    2.250    2.500    0.000    0.000    0.000    0.000 
#    0.000    0.000    0.000    0.000    0.000    0.000 
#
# Total GULP energy -178459.115873 kJ/mol
# GULP energy per Si atom -5576.847371 kJ/mol
# Density = 2.052238 g / cm^3
# Si number density = 20.569194 Si / 1000 Ang^3
#
#
#
# Elastic Constant Matrix: (Units=GPa)
#
#
# Indices 1 2 3 4 5 6 
#
# 1 58.9952 36.3168 35.4916 0.0000 0.0000 0.0000
# 2 36.3168 84.6873 29.9193 0.0000 0.0000 0.0000
# 3 35.4916 29.9193 119.2126 0.0000 0.0000 0.0000
# 4 0.0000 0.0000 0.0000 20.2357 0.0000 0.0000
# 5 0.0000 0.0000 0.0000 0.0000 1.3420 0.0000
# 6 0.0000 0.0000 0.0000 0.0000 0.0000 29.6480
#
#
#
# Elastic Compliance Matrix: (Units=1/GPa)
#
#
# Indices 1 2 3 4 5 6 
#
# 1 0.025843 -0.009178 -0.005391 0.000000 0.000000 0.000000
# 2 -0.009178 0.016217 -0.001337 0.000000 0.000000 0.000000
# 3 -0.005391 -0.001337 0.010329 0.000000 0.000000 0.000000
# 4 0.000000 0.000000 0.000000 0.049418 0.000000 0.000000
# 5 0.000000 0.000000 0.000000 0.000000 0.745166 0.000000
# 6 0.000000 0.000000 0.000000 0.000000 0.000000 0.033729
#
#
# Mechanical properties :
#
#
# Convention : Reuss Voigt Hill
#
# Bulk Modulus (GPa) = 48.59881 51.81674 50.20778
# Shear Modulus (GPa) = 5.43849 20.98963 13.21406
#
# Velocity S-wave (km/s) = 1.62780 3.19790 2.53735
# Velocity P-wave (km/s) = 5.21644 6.23551 5.74860
#
# Compressibility (1/GPa) = 0.02057664
#
# Stress axis : x y z
#
# Youngs Moduli (GPa) = 38.69449 61.66543 96.81569
#
# Poissons Ratio (x) = 0.56597 0.52189
# Poissons Ratio (y) = 0.35514 0.12949
# Poissons Ratio (z) = 0.20859 0.08248
#
# Static dielectric constant tensor:
#      x y z
#    x 1.771240 0.000000 0.000000 
#    y 0.000000 1.768800 0.000000 
#    z 0.000000 0.000000 1.791750 
# 
# From -- ./inp_files/8501.got.cif
#   From: 2010.05.17/outbox.cif.g08.bks.cpg/sg46_5_cif.got.tgz:8501.got - 2010.06.03 19:58:25.
