data_PCOD9379367
_publ_section_title
;
Structure prediction by ZEFSAII (Michael W. Deem and Ramdas Pophale) SiO2 
 PCOD9379367
Probable space group: I M A 2
;
_chemical_formula_sum "Si O2"
_cell_formula_units_Z 48
_cell_length_a 10.398052
_cell_length_b 7.311078
_cell_length_c 32.260720
_cell_angle_alpha 90.000000
_cell_angle_beta 90.000000
_cell_angle_gamma 90.000000
_cell_volume 2452.491202
_symmetry_space_group_name_H-M "I M A 2"
_symmetry_group_IT_number 46
_symmetry_cell_setting 'orthorhombic'
loop_
_space_group_symop_operation_xyz
x,y,z
-x,-y,z
1/2-x,y,z
1/2+x,-y,z
1/2+x,1/2+y,1/2+z
1/2-x,1/2-y,1/2+z
-x,1/2+y,1/2+z
x,1/2-y,1/2+z
loop_
_atom_site_type_symbol
_atom_site_label
_atom_site_fract_x
_atom_site_fract_y
_atom_site_fract_z
Si Si1 0.500000 0.500000 0.928951
Si Si2 0.250000 0.496352 0.984422
Si Si3 0.250000 0.311083 0.546883
Si Si4 0.250000 0.751077 0.064424
Si Si5 0.903019 0.825463 0.870563
Si Si6 0.105493 0.344403 0.690747
Si Si7 0.110585 0.144765 0.778186
Si Si8 0.984809 0.721300 0.606064
O O1 0.376578 0.535968 0.957683
O O2 0.541641 0.670832 0.900568
O O3 0.250000 0.287515 0.002303
O O4 0.250000 0.625913 0.024253
O O5 0.250000 0.533616 0.549865
O O6 0.124140 0.245257 0.571888
O O7 0.377153 0.711681 0.091242
O O8 0.750000 0.864520 0.879685
O O9 0.906058 0.757215 0.822518
O O10 0.000000 0.000000 0.873033
O O11 0.250000 0.412025 0.680551
O O12 0.109440 0.257477 0.736054
O O13 0.062416 0.220677 0.651670
O O14 0.000000 0.500000 0.693503
O O15 0.250000 0.050967 0.780885
O O16 0.000000 0.000000 0.774907
O O17 0.000000 0.500000 0.608213
#
# Coordination Sequence:
#
# PCOD9379367 Si02
#       8
#     4   4   4   4   8   8   8   8
#     4  12  26  44  66  98 138 158 218 280 324 396
#     4  12  26  42  64  96 124 164 216 268 326 396
#     4  10  20  40  62  81 121 163 201 262 314 370
#     4  10  22  40  62  87 117 165 211 258 320 382
#     4  10  23  44  71  96 129 176 215 263 328 393
#     4  10  20  34  56  88 124 161 207 256 297 361
#     4   9  20  40  59  88 126 161 207 252 308 373
#     4   9  18  35  58  82 117 160 209 251 309 371
#
# _framework density 19.571933999999999
#
# number of rings (size 3 to 8) (size 9 to 14) (size 15 to 20)
#    0.000    2.000    1.667    1.000    5.833    2.000 
#    3.000    0.000    0.000    0.000    0.000    0.000 
#    0.000    0.000    0.000    0.000    0.000    0.000 
#
# Total GULP energy -133821.123378 kJ/mol
# GULP energy per Si atom -5575.880141 kJ/mol
# Density = 1.952739 g / cm^3
# Si number density = 19.571934 Si / 1000 Ang^3
#
#
#
# Elastic Constant Matrix: (Units=GPa)
#
#
# Indices 1 2 3 4 5 6 
#
# 1 199.6608 38.8630 84.9219 0.0000 0.0000 0.0000
# 2 38.8630 49.6819 35.4804 0.0000 0.0000 0.0000
# 3 84.9219 35.4804 128.8425 0.0000 0.0000 0.0000
# 4 0.0000 0.0000 0.0000 12.3608 0.0000 0.0000
# 5 0.0000 0.0000 0.0000 0.0000 29.6565 0.0000
# 6 0.0000 0.0000 0.0000 0.0000 0.0000 19.4277
#
#
#
# Elastic Compliance Matrix: (Units=1/GPa)
#
#
# Indices 1 2 3 4 5 6 
#
# 1 0.007263 -0.002817 -0.004011 0.000000 0.000000 0.000000
# 2 -0.002817 0.026148 -0.005344 0.000000 0.000000 0.000000
# 3 -0.004011 -0.005344 0.011877 0.000000 0.000000 0.000000
# 4 0.000000 0.000000 0.000000 0.080901 0.000000 0.000000
# 5 0.000000 0.000000 0.000000 0.000000 0.033719 0.000000
# 6 0.000000 0.000000 0.000000 0.000000 0.000000 0.051473
#
#
# Mechanical properties :
#
#
# Convention : Reuss Voigt Hill
#
# Bulk Modulus (GPa) = 47.74744 77.41287 62.58016
# Shear Modulus (GPa) = 20.60103 26.88366 23.74235
#
# Velocity S-wave (km/s) = 3.24787 3.71021 3.48671
# Velocity P-wave (km/s) = 6.20594 7.61532 6.94647
#
# Compressibility (1/GPa) = 0.02094353
#
# Stress axis : x y z
#
# Youngs Moduli (GPa) = 137.68559 38.24421 84.19564
#
# Poissons Ratio (x) = 0.10772 0.33775
# Poissons Ratio (y) = 0.38779 0.44995
# Poissons Ratio (z) = 0.55232 0.20438
#
# Static dielectric constant tensor:
#      x y z
#    x 1.690040 0.000000 0.000000 
#    y 0.000000 1.717840 0.000000 
#    z 0.000000 0.000000 1.717920 
# 
# From -- ./inp_files/25066.got.cif
#   From: 2010.05.17/outbox.cif.g08.bks.cpg/sg46_13_cif.got.tgz:25066.got - 2010.06.03 19:58:25.
