data_PCOD9379108
_publ_section_title
;
Structure prediction by ZEFSAII (Michael W. Deem and Ramdas Pophale) SiO2 
 PCOD9379108
Probable space group: I M A 2
;
_chemical_formula_sum "Si O2"
_cell_formula_units_Z 56
_cell_length_a 14.196773
_cell_length_b 15.957712
_cell_length_c 10.245311
_cell_angle_alpha 90.000000
_cell_angle_beta 90.000000
_cell_angle_gamma 90.000000
_cell_volume 2321.054869
_symmetry_space_group_name_H-M "I M A 2"
_symmetry_group_IT_number 46
_symmetry_cell_setting 'orthorhombic'
loop_
_space_group_symop_operation_xyz
x,y,z
-x,-y,z
1/2-x,y,z
1/2+x,-y,z
1/2+x,1/2+y,1/2+z
1/2-x,1/2-y,1/2+z
-x,1/2+y,1/2+z
x,1/2-y,1/2+z
loop_
_atom_site_type_symbol
_atom_site_label
_atom_site_fract_x
_atom_site_fract_y
_atom_site_fract_z
Si Si1 0.914216 0.946593 0.390910
Si Si2 0.250000 0.659568 0.540231
Si Si3 0.643173 0.628072 0.635414
Si Si4 0.750000 0.312414 0.839585
Si Si5 0.440230 0.806978 0.439673
Si Si6 0.488188 0.286709 0.204663
Si Si7 0.138552 0.451154 0.177850
Si Si8 0.359633 0.987375 0.945816
O O1 0.849382 0.924968 0.269859
O O2 0.881259 0.981621 0.530482
O O3 0.964305 0.859830 0.430337
O O4 0.000000 0.000000 0.336699
O O5 0.250000 0.694620 0.685097
O O6 0.250000 0.727364 0.425322
O O7 0.157584 0.599981 0.519515
O O8 0.750000 0.655640 0.600470
O O9 0.577370 0.707764 0.662113
O O10 0.598140 0.563542 0.529666
O O11 0.848338 0.353413 0.883378
O O12 0.462097 0.730942 0.342141
O O13 0.432398 0.790838 0.592487
O O14 0.422209 0.368234 0.207647
O O15 0.250000 0.432198 0.180210
O O16 0.111638 0.515346 0.294445
O O17 0.250000 0.015199 0.937230
#
# Coordination Sequence:
#
# PCOD9379108 Si02
#       8
#     8   4   8   4   8   8   8   8
#     4  10  23  39  57  91 131 165 216 266 327 383
#     4  10  24  44  64  98 116 156 230 282 326 394
#     4  10  19  36  65  97 130 177 210 259 328 399
#     4  12  24  46  70  86 122 176 228 280 336 392
#     4  10  23  40  61  91 123 167 216 272 320 390
#     4  10  20  37  62  97 134 161 215 262 323 396
#     4  10  19  39  62  90 131 170 205 264 330 408
#     4   8  19  38  59  92 127 155 210 265 318 391
#
# _framework density 24.12696
#
# number of rings (size 3 to 8) (size 9 to 14) (size 15 to 20)
#    0.429    1.714    0.000    2.571    2.000    0.000 
#    9.000    5.000    0.000    0.000    0.000    0.000 
#    0.000    0.000    0.000    0.000    0.000    0.000 
#
# Total GULP energy -156201.629255 kJ/mol
# GULP energy per Si atom -5578.629616 kJ/mol
# Density = 2.407205 g / cm^3
# Si number density = 24.126960 Si / 1000 Ang^3
#
#
#
# Elastic Constant Matrix: (Units=GPa)
#
#
# Indices 1 2 3 4 5 6 
#
# 1 83.3043 0.7630 35.3883 0.0000 0.0000 0.0000
# 2 0.7630 56.0140 41.0471 0.0000 0.0000 0.0000
# 3 35.3883 41.0471 118.5582 0.0000 0.0000 0.0000
# 4 0.0000 0.0000 0.0000 31.9405 0.0000 0.0000
# 5 0.0000 0.0000 0.0000 0.0000 28.3815 0.0000
# 6 0.0000 0.0000 0.0000 0.0000 0.0000 15.3317
#
#
#
# Elastic Compliance Matrix: (Units=1/GPa)
#
#
# Indices 1 2 3 4 5 6 
#
# 1 0.014371 0.003950 -0.005657 0.000000 0.000000 0.000000
# 2 0.003950 0.025007 -0.009837 0.000000 0.000000 0.000000
# 3 -0.005657 -0.009837 0.013529 0.000000 0.000000 0.000000
# 4 0.000000 0.000000 0.000000 0.031308 0.000000 0.000000
# 5 0.000000 0.000000 0.000000 0.000000 0.035234 0.000000
# 6 0.000000 0.000000 0.000000 0.000000 0.000000 0.065224
#
#
# Mechanical properties :
#
#
# Convention : Reuss Voigt Hill
#
# Bulk Modulus (GPa) = 33.53570 45.80813 39.67191
# Shear Modulus (GPa) = 22.96707 27.17594 25.07150
#
# Velocity S-wave (km/s) = 3.08868 3.35979 3.22708
# Velocity P-wave (km/s) = 5.16234 5.83767 5.51036
#
# Compressibility (1/GPa) = 0.02981897
#
# Stress axis : x y z
#
# Youngs Moduli (GPa) = 69.58365 39.98804 73.91507
#
# Poissons Ratio (x) = -0.15795 0.41815
# Poissons Ratio (y) = -0.27484 0.72711
# Poissons Ratio (z) = 0.39364 0.39336
#
# Static dielectric constant tensor:
#      x y z
#    x 1.968930 0.000000 0.000000 
#    y 0.000000 1.971070 0.000000 
#    z 0.000000 0.000000 1.967390 
# 
# From -- ./inp_files/5966.got.cif
#   From: 2010.05.17/outbox.cif.g08.bks.cpg/sg46_3_cif.got.tgz:5966.got - 2010.06.03 19:58:25.
