data_PCOD9379225
_publ_section_title
;
Structure prediction by ZEFSAII (Michael W. Deem and Ramdas Pophale) SiO2 
 PCOD9379225
Probable space group: I M A 2
;
_chemical_formula_sum "Si O2"
_cell_formula_units_Z 64
_cell_length_a 8.667208
_cell_length_b 15.212428
_cell_length_c 27.881854
_cell_angle_alpha 90.000000
_cell_angle_beta 90.000000
_cell_angle_gamma 90.000000
_cell_volume 3676.202310
_symmetry_space_group_name_H-M "I M A 2"
_symmetry_group_IT_number 46
_symmetry_cell_setting 'orthorhombic'
loop_
_space_group_symop_operation_xyz
x,y,z
-x,-y,z
1/2-x,y,z
1/2+x,-y,z
1/2+x,1/2+y,1/2+z
1/2-x,1/2-y,1/2+z
-x,1/2+y,1/2+z
x,1/2-y,1/2+z
loop_
_atom_site_type_symbol
_atom_site_label
_atom_site_fract_x
_atom_site_fract_y
_atom_site_fract_z
Si Si1 0.435534 0.096185 0.872810
Si Si2 0.435412 0.718901 0.454954
Si Si3 0.064319 0.906018 0.420061
Si Si4 0.433824 0.405130 0.260963
Si Si5 0.436161 0.905431 0.309212
Si Si6 0.934203 0.904707 0.036472
Si Si7 0.435950 0.772577 0.227012
Si Si8 0.935586 0.094925 0.142863
O O1 0.250000 0.096884 0.877354
O O2 0.509130 0.168309 0.907285
O O3 0.477910 0.110576 0.816973
O O4 0.500000 0.000000 0.886299
O O5 0.250000 0.714371 0.457758
O O6 0.482560 0.820852 0.450240
O O7 0.508228 0.668765 0.499821
O O8 0.250000 0.910326 0.420252
O O9 0.015165 0.891897 0.364447
O O10 0.000000 0.000000 0.436050
O O11 0.500000 0.500000 0.246973
O O12 0.250000 0.408386 0.258782
O O13 0.495989 0.324356 0.230165
O O14 0.250000 0.908509 0.307951
O O15 0.487129 0.828679 0.273581
O O16 0.500000 0.000000 0.293482
O O17 0.750000 0.909046 0.037141
O O18 0.997499 0.888355 0.089990
O O19 0.000000 0.000000 0.021227
O O20 0.250000 0.766665 0.228248
O O21 0.478769 0.829405 0.180409
O O22 0.750000 0.089670 0.140283
O O23 0.000000 0.000000 0.158802
#
# Coordination Sequence:
#
# PCOD9379225 Si02
#       8
#     8   8   8   8   8   8   8   8
#     4  10  20  33  49  74 105 138 173 211 253 302
#     4  11  21  34  53  76 102 135 172 212 257 307
#     4   9  19  33  50  71 100 136 171 207 247 290
#     4  10  21  35  52  73 102 138 176 215 255 299
#     4   9  17  30  47  72 104 137 169 203 244 292
#     4  11  22  37  56  78 105 135 166 207 255 308
#     4  10  20  33  52  76 104 136 172 211 253 300
#     4  10  20  35  55  80 108 137 167 206 254 306
#
# _framework density 17.409268999999998
#
# number of rings (size 3 to 8) (size 9 to 14) (size 15 to 20)
#    0.000    2.000    0.000    4.875    0.000    5.000 
#    0.000    2.500    0.000    0.750    0.000    3.500 
#    0.000    0.000    0.000    0.000    0.000    0.000 
#
# Total GULP energy -178711.532633 kJ/mol
# GULP energy per Si atom -5584.735395 kJ/mol
# Density = 1.736964 g / cm^3
# Si number density = 17.409269 Si / 1000 Ang^3
#
#
#
# Elastic Constant Matrix: (Units=GPa)
#
#
# Indices 1 2 3 4 5 6 
#
# 1 55.5291 48.4619 35.3877 0.0000 0.0000 0.0000
# 2 48.4619 178.6315 85.1259 0.0000 0.0000 0.0000
# 3 35.3877 85.1259 73.4619 0.0000 0.0000 0.0000
# 4 0.0000 0.0000 0.0000 28.5553 0.0000 0.0000
# 5 0.0000 0.0000 0.0000 0.0000 24.1176 0.0000
# 6 0.0000 0.0000 0.0000 0.0000 0.0000 31.8814
#
#
#
# Elastic Compliance Matrix: (Units=1/GPa)
#
#
# Indices 1 2 3 4 5 6 
#
# 1 0.026464 -0.002467 -0.009890 0.000000 0.000000 0.000000
# 2 -0.002467 0.012732 -0.013565 0.000000 0.000000 0.000000
# 3 -0.009890 -0.013565 0.034095 0.000000 0.000000 0.000000
# 4 0.000000 0.000000 0.000000 0.035020 0.000000 0.000000
# 5 0.000000 0.000000 0.000000 0.000000 0.041463 0.000000
# 6 0.000000 0.000000 0.000000 0.000000 0.000000 0.031366
#
#
# Mechanical properties :
#
#
# Convention : Reuss Voigt Hill
#
# Bulk Modulus (GPa) = 46.62417 71.73040 59.17729
# Shear Modulus (GPa) = 20.82189 26.15398 23.48794
#
# Velocity S-wave (km/s) = 3.46211 3.88016 3.67708
# Velocity P-wave (km/s) = 6.54377 7.83365 7.21758
#
# Compressibility (1/GPa) = 0.02144810
#
# Stress axis : x y z
#
# Youngs Moduli (GPa) = 37.78736 78.54520 29.32968
#
# Poissons Ratio (x) = 0.19374 0.29007
# Poissons Ratio (y) = 0.09321 0.39785
# Poissons Ratio (z) = 0.37371 1.06545
#
# Static dielectric constant tensor:
#      x y z
#    x 1.587310 0.000000 0.000000 
#    y 0.000000 1.580730 0.000000 
#    z 0.000000 0.000000 1.584710 
# 
# From -- ./inp_files/23195.got.cif
#   From: 2010.05.17/outbox.cif.g08.bks.cpg/sg46_12_cif.got.tgz:23195.got - 2010.06.03 19:58:25.
