data_PCOD9379029
_publ_section_title
;
Structure prediction by ZEFSAII (Michael W. Deem and Ramdas Pophale) SiO2 
 PCOD9379029
Probable space group: I M A 2
;
_chemical_formula_sum "Si O2"
_cell_formula_units_Z 48
_cell_length_a 8.510215
_cell_length_b 20.997177
_cell_length_c 14.931009
_cell_angle_alpha 90.000000
_cell_angle_beta 90.000000
_cell_angle_gamma 90.000000
_cell_volume 2668.029324
_symmetry_space_group_name_H-M "I M A 2"
_symmetry_group_IT_number 46
_symmetry_cell_setting 'orthorhombic'
loop_
_space_group_symop_operation_xyz
x,y,z
-x,-y,z
1/2-x,y,z
1/2+x,-y,z
1/2+x,1/2+y,1/2+z
1/2-x,1/2-y,1/2+z
-x,1/2+y,1/2+z
x,1/2-y,1/2+z
loop_
_atom_site_type_symbol
_atom_site_label
_atom_site_fract_x
_atom_site_fract_y
_atom_site_fract_z
Si Si1 0.939799 0.314583 0.636930
Si Si2 0.562162 0.929982 0.253926
Si Si3 0.938365 0.430452 0.132735
Si Si4 0.058683 0.810352 0.748867
Si Si5 0.938551 0.623276 0.946542
Si Si6 0.440404 0.732079 0.443839
O O1 0.750000 0.316908 0.640258
O O2 0.990364 0.251808 0.692407
O O3 0.987546 0.304756 0.533880
O O4 0.004841 0.377096 0.684143
O O5 0.750000 0.930837 0.254412
O O6 0.508073 0.908908 0.353569
O O7 0.500000 0.000000 0.232970
O O8 0.750000 0.430975 0.133488
O O9 0.994032 0.374621 0.199808
O O10 0.000000 0.500000 0.157332
O O11 0.994207 0.412131 0.033146
O O12 0.250000 0.811032 0.747759
O O13 0.009215 0.801303 0.851574
O O14 0.750000 0.621253 0.950101
O O15 0.994845 0.696298 0.947089
O O16 0.250000 0.736333 0.443615
#
# Coordination Sequence:
#
# PCOD9379029 Si02
#       6
#     8   8   8   8   8   8
#     4  10  19  35  60  85 110 149 189 229 278 331
#     4  11  24  39  56  82 115 151 187 232 283 336
#     4  11  22  38  57  83 115 152 190 229 280 335
#     4   9  18  34  58  84 112 148 189 227 272 332
#     4  11  22  35  55  86 117 147 182 231 286 333
#     4  10  19  35  59  86 114 148 188 229 275 333
#
# _framework density 17.990805999999999
#
# number of rings (size 3 to 8) (size 9 to 14) (size 15 to 20)
#    0.000    1.667    3.333    2.000    0.000    4.000 
#    0.000    2.500    0.000    2.000    0.000    0.000 
#    0.000    0.000    0.000    0.000    0.000    0.000 
#
# Total GULP energy -134061.395183 kJ/mol
# GULP energy per Si atom -5585.891466 kJ/mol
# Density = 1.794986 g / cm^3
# Si number density = 17.990806 Si / 1000 Ang^3
#
#
#
# Elastic Constant Matrix: (Units=GPa)
#
#
# Indices 1 2 3 4 5 6 
#
# 1 24.3918 29.0091 28.7802 0.0000 0.0000 0.0000
# 2 29.0091 182.9037 97.5283 0.0000 0.0000 0.0000
# 3 28.7802 97.5283 160.8179 0.0000 0.0000 0.0000
# 4 0.0000 0.0000 0.0000 17.7110 0.0000 0.0000
# 5 0.0000 0.0000 0.0000 0.0000 12.4848 0.0000
# 6 0.0000 0.0000 0.0000 0.0000 0.0000 32.7227
#
#
#
# Elastic Compliance Matrix: (Units=1/GPa)
#
#
# Indices 1 2 3 4 5 6 
#
# 1 0.055059 -0.005141 -0.006736 0.000000 0.000000 0.000000
# 2 -0.005141 0.008560 -0.004271 0.000000 0.000000 0.000000
# 3 -0.006736 -0.004271 0.010014 0.000000 0.000000 0.000000
# 4 0.000000 0.000000 0.000000 0.056462 0.000000 0.000000
# 5 0.000000 0.000000 0.000000 0.000000 0.080097 0.000000
# 6 0.000000 0.000000 0.000000 0.000000 0.000000 0.030560
#
#
# Mechanical properties :
#
#
# Convention : Reuss Voigt Hill
#
# Bulk Modulus (GPa) = 24.19125 75.41651 49.80388
# Shear Modulus (GPa) = 17.43207 26.77010 22.10109
#
# Velocity S-wave (km/s) = 3.11616 3.86163 3.50875
# Velocity P-wave (km/s) = 5.14032 7.86723 6.64516
#
# Compressibility (1/GPa) = 0.04133726
#
# Stress axis : x y z
#
# Youngs Moduli (GPa) = 18.16236 116.81789 99.85972
#
# Poissons Ratio (x) = 0.60055 0.67263
# Poissons Ratio (y) = 0.09337 0.42654
# Poissons Ratio (z) = 0.12234 0.49898
#
# Static dielectric constant tensor:
#      x y z
#    x 1.612980 0.000000 0.000000 
#    y 0.000000 1.582550 0.000000 
#    z 0.000000 0.000000 1.613860 
# 
# From -- ./inp_files/13872.got.cif
#   From: 2010.05.17/outbox.cif.g08.bks.cpg/sg46_7_cif.got.tgz:13872.got - 2010.06.03 19:58:25.
