data_PCOD9379292
_publ_section_title
;
Structure prediction by ZEFSAII (Michael W. Deem and Ramdas Pophale) SiO2 
 PCOD9379292
Probable space group: I M A 2
;
_chemical_formula_sum "Si O2"
_cell_formula_units_Z 64
_cell_length_a 8.876083
_cell_length_b 31.008510
_cell_length_c 14.865221
_cell_angle_alpha 90.000000
_cell_angle_beta 90.000000
_cell_angle_gamma 90.000000
_cell_volume 4091.415849
_symmetry_space_group_name_H-M "I M A 2"
_symmetry_group_IT_number 46
_symmetry_cell_setting 'orthorhombic'
loop_
_space_group_symop_operation_xyz
x,y,z
-x,-y,z
1/2-x,y,z
1/2+x,-y,z
1/2+x,1/2+y,1/2+z
1/2-x,1/2-y,1/2+z
-x,1/2+y,1/2+z
x,1/2-y,1/2+z
loop_
_atom_site_type_symbol
_atom_site_label
_atom_site_fract_x
_atom_site_fract_y
_atom_site_fract_z
Si Si1 0.428939 0.292268 0.540210
Si Si2 0.569150 0.636936 0.395748
Si Si3 0.568438 0.546041 0.118660
Si Si4 0.928690 0.864008 0.545709
Si Si5 0.568959 0.211118 0.432138
Si Si6 0.430430 0.454334 0.327807
Si Si7 0.422800 0.674305 0.218461
Si Si8 0.575922 0.222557 0.226554
O O1 0.250000 0.285280 0.538337
O O2 0.463458 0.335939 0.485104
O O3 0.504138 0.251501 0.488980
O O4 0.484578 0.295480 0.642410
O O5 0.750000 0.640036 0.379077
O O6 0.528978 0.586415 0.389627
O O7 0.480087 0.659374 0.315013
O O8 0.500000 0.500000 0.093238
O O9 0.750000 0.543644 0.117318
O O10 0.523604 0.586025 0.055617
O O11 0.523832 0.554734 0.223391
O O12 0.750000 0.862098 0.529278
O O13 0.014052 0.833461 0.475958
O O14 0.967394 0.844193 0.643074
O O15 0.750000 0.214072 0.435532
O O16 0.520666 0.213273 0.327651
O O17 0.500000 0.500000 0.354396
O O18 0.250000 0.458390 0.328121
O O19 0.250000 0.660251 0.201934
O O20 0.425974 0.725829 0.215315
O O21 0.750000 0.208169 0.220398
#
# Coordination Sequence:
#
# PCOD9379292 Si02
#       8
#     8   8   8   8   8   8   8   8
#     4  11  22  33  52  75  97 131 169 206 248 294
#     4  10  20  34  49  71 102 134 167 206 248 291
#     4   9  18  31  48  70  99 131 161 199 244 292
#     4  11  21  34  50  73 101 133 168 206 247 291
#     4  11  22  36  51  71  99 133 169 206 247 290
#     4   9  17  31  47  68  99 130 162 201 244 294
#     4  11  20  30  48  72  99 135 171 204 242 290
#     4  10  22  37  50  68 101 135 167 210 248 285
#
# _framework density 15.642507
#
# number of rings (size 3 to 8) (size 9 to 14) (size 15 to 20)
#    0.000    1.750    3.750    1.500    0.000    3.500 
#    0.000    0.000    0.000    0.000    0.000    0.875 
#    0.000    2.000    0.000    0.000    0.000    0.000 
#
# Total GULP energy -178492.609508 kJ/mol
# GULP energy per Si atom -5577.894047 kJ/mol
# Density = 1.560690 g / cm^3
# Si number density = 15.642507 Si / 1000 Ang^3
#
#
#
# Elastic Constant Matrix: (Units=GPa)
#
#
# Indices 1 2 3 4 5 6 
#
# 1 24.4986 25.3553 24.4469 0.0001 0.0000 0.0000
# 2 25.3553 101.2467 36.6786 0.0001 0.0000 0.0000
# 3 24.4469 36.6786 83.2412 -0.0001 -0.0001 0.0000
# 4 0.0001 0.0001 -0.0001 19.6837 0.0000 0.0000
# 5 0.0000 0.0000 -0.0001 0.0000 18.5280 0.0000
# 6 0.0000 0.0000 0.0000 0.0000 0.0000 18.9630
#
#
#
# Elastic Compliance Matrix: (Units=1/GPa)
#
#
# Indices 1 2 3 4 5 6 
#
# 1 0.067479 -0.011566 -0.014722 0.000000 0.000000 0.000000
# 2 -0.011566 0.013735 -0.002655 0.000000 0.000000 0.000000
# 3 -0.014722 -0.002655 0.017507 0.000000 0.000000 0.000000
# 4 0.000000 0.000000 0.000000 0.050803 0.000000 0.000000
# 5 0.000000 0.000000 0.000000 0.000000 0.053972 0.000000
# 6 0.000000 0.000000 0.000000 0.000000 0.000000 0.052734
#
#
# Mechanical properties :
#
#
# Convention : Reuss Voigt Hill
#
# Bulk Modulus (GPa) = 24.48827 42.43868 33.46348
# Shear Modulus (GPa) = 15.25652 19.60199 17.42926
#
# Velocity S-wave (km/s) = 3.12641 3.54379 3.34162
# Velocity P-wave (km/s) = 5.35924 6.62826 6.02724
#
# Compressibility (1/GPa) = 0.04083587
#
# Stress axis : x y z
#
# Youngs Moduli (GPa) = 14.81939 72.80528 57.12027
#
# Poissons Ratio (x) = 0.84204 0.84090
# Poissons Ratio (y) = 0.17140 0.15168
# Poissons Ratio (z) = 0.21816 0.19333
#
# Static dielectric constant tensor:
#      x y z
#    x 1.531410 0.000000 0.000000 
#    y 0.000000 1.524290 0.000000 
#    z 0.000000 0.000000 1.510010 
# 
# From -- ./inp_files/14750.got.cif
#   From: 2010.05.17/outbox.cif.g08.bks.cpg/sg46_8_cif.got.tgz:14750.got - 2010.06.03 19:58:25.
