data_PCOD9379359
_publ_section_title
;
Structure prediction by ZEFSAII (Michael W. Deem and Ramdas Pophale) SiO2 
 PCOD9379359
Probable space group: I M A 2
;
_chemical_formula_sum "Si O2"
_cell_formula_units_Z 56
_cell_length_a 15.920541
_cell_length_b 20.566550
_cell_length_c 9.119427
_cell_angle_alpha 90.000000
_cell_angle_beta 90.000000
_cell_angle_gamma 90.000000
_cell_volume 2985.979477
_symmetry_space_group_name_H-M "I M A 2"
_symmetry_group_IT_number 46
_symmetry_cell_setting 'orthorhombic'
loop_
_space_group_symop_operation_xyz
x,y,z
-x,-y,z
1/2-x,y,z
1/2+x,-y,z
1/2+x,1/2+y,1/2+z
1/2-x,1/2-y,1/2+z
-x,1/2+y,1/2+z
x,1/2-y,1/2+z
loop_
_atom_site_type_symbol
_atom_site_label
_atom_site_fract_x
_atom_site_fract_y
_atom_site_fract_z
Si Si1 0.491083 0.388157 0.313470
Si Si2 0.848900 0.549951 0.485330
Si Si3 0.347147 0.599965 0.523219
Si Si4 0.155988 0.330502 0.680965
Si Si5 0.934572 0.189168 0.586380
Si Si6 0.085621 0.256492 0.429253
Si Si7 0.152033 0.703739 0.780202
O O1 0.420150 0.441164 0.358618
O O2 0.574064 0.389904 0.415061
O O3 0.528752 0.378021 0.151046
O O4 0.441769 0.320728 0.342615
O O5 0.750000 0.564116 0.442501
O O6 0.849051 0.477492 0.548552
O O7 0.875043 0.602583 0.608504
O O8 0.250000 0.614618 0.470913
O O9 0.361802 0.645468 0.663988
O O10 0.250000 0.341667 0.732487
O O11 0.154879 0.279666 0.545459
O O12 0.106540 0.299729 0.815139
O O13 0.891337 0.231616 0.714788
O O14 0.877515 0.184056 0.442245
O O15 0.010095 0.233269 0.529354
O O16 0.250000 0.717550 0.786161
#
# Coordination Sequence:
#
# PCOD9379359 Si02
#       7
#     8   8   8   8   8   8   8
#     4  11  21  36  60  86 119 157 191 244 300 356
#     4   9  21  40  64  87 113 155 208 249 286 353
#     4  10  21  40  65  88 114 155 206 249 292 355
#     4  10  20  34  56  84 114 149 192 239 292 346
#     4  12  21  36  55  86 127 150 191 244 301 365
#     4  11  19  34  53  82 117 149 183 234 293 349
#     4  11  22  36  59  89 121 159 197 245 306 362
#
# _framework density 18.754315999999999
#
# number of rings (size 3 to 8) (size 9 to 14) (size 15 to 20)
#    0.000    1.429    4.286    1.286    2.000    2.857 
#    0.000    0.000    6.286    0.000    0.000    0.000 
#    0.000    0.000    0.000    0.000    0.000    0.000 
#
# Total GULP energy -155970.202145 kJ/mol
# GULP energy per Si atom -5570.364362 kJ/mol
# Density = 1.871163 g / cm^3
# Si number density = 18.754316 Si / 1000 Ang^3
#
#
#
# Elastic Constant Matrix: (Units=GPa)
#
#
# Indices 1 2 3 4 5 6 
#
# 1 67.6241 15.5506 19.8904 0.0000 0.0000 0.0000
# 2 15.5506 63.7601 8.2701 0.0000 0.0000 0.0000
# 3 19.8904 8.2701 52.4458 0.0000 0.0000 0.0000
# 4 0.0000 0.0000 0.0000 19.3498 0.0000 0.0000
# 5 0.0000 0.0000 0.0000 0.0000 26.9078 0.0000
# 6 0.0000 0.0000 0.0000 0.0000 0.0000 25.5572
#
#
#
# Elastic Compliance Matrix: (Units=1/GPa)
#
#
# Indices 1 2 3 4 5 6 
#
# 1 0.017357 -0.003450 -0.006039 0.000000 0.000000 0.000000
# 2 -0.003450 0.016697 -0.001324 0.000000 0.000000 0.000000
# 3 -0.006039 -0.001324 0.021566 0.000000 0.000000 0.000000
# 4 0.000000 0.000000 0.000000 0.051680 0.000000 0.000000
# 5 0.000000 0.000000 0.000000 0.000000 0.037164 0.000000
# 6 0.000000 0.000000 0.000000 0.000000 0.000000 0.039128
#
#
# Mechanical properties :
#
#
# Convention : Reuss Voigt Hill
#
# Bulk Modulus (GPa) = 29.41696 30.13916 29.77806
# Shear Modulus (GPa) = 23.08931 23.70422 23.39676
#
# Velocity S-wave (km/s) = 3.51258 3.55904 3.53589
# Velocity P-wave (km/s) = 5.67190 5.74408 5.70810
#
# Compressibility (1/GPa) = 0.03399399
#
# Stress axis : x y z
#
# Youngs Moduli (GPa) = 57.61306 59.89091 46.36839
#
# Poissons Ratio (x) = 0.20662 0.28001
# Poissons Ratio (y) = 0.19877 0.06141
# Poissons Ratio (z) = 0.34791 0.07933
#
# Static dielectric constant tensor:
#      x y z
#    x 1.723000 0.000000 0.000000 
#    y 0.000000 1.653890 0.000000 
#    z 0.000000 0.000000 1.679880 
# 
# From -- ./inp_files/5915.got.cif
#   From: 2010.05.17/outbox.cif.g08.bks.cpg/sg46_3_cif.got.tgz:5915.got - 2010.06.03 19:58:25.
