data_PCOD9379243
_publ_section_title
;
Structure prediction by ZEFSAII (Michael W. Deem and Ramdas Pophale) SiO2 
 PCOD9379243
Probable space group: I M A 2
;
_chemical_formula_sum "Si O2"
_cell_formula_units_Z 56
_cell_length_a 9.203057
_cell_length_b 15.582768
_cell_length_c 19.681919
_cell_angle_alpha 90.000000
_cell_angle_beta 90.000000
_cell_angle_gamma 90.000000
_cell_volume 2822.566332
_symmetry_space_group_name_H-M "I M A 2"
_symmetry_group_IT_number 46
_symmetry_cell_setting 'orthorhombic'
loop_
_space_group_symop_operation_xyz
x,y,z
-x,-y,z
1/2-x,y,z
1/2+x,-y,z
1/2+x,1/2+y,1/2+z
1/2-x,1/2-y,1/2+z
-x,1/2+y,1/2+z
x,1/2-y,1/2+z
loop_
_atom_site_type_symbol
_atom_site_label
_atom_site_fract_x
_atom_site_fract_y
_atom_site_fract_z
Si Si1 0.418893 0.417871 0.949000
Si Si2 0.421992 0.246598 0.880494
Si Si3 0.419066 0.239636 0.226081
Si Si4 0.907226 0.112154 0.571242
Si Si5 0.913409 0.080801 0.726613
Si Si6 0.416999 0.816421 0.098327
Si Si7 0.074080 0.593110 0.455268
O O1 0.500000 0.500000 0.919050
O O2 0.250000 0.421514 0.934004
O O3 0.475329 0.325269 0.926207
O O4 0.454878 0.417091 0.028817
O O5 0.250000 0.228383 0.892777
O O6 0.431549 0.285850 0.804714
O O7 0.511153 0.161574 0.900518
O O8 0.250000 0.251340 0.208985
O O9 0.498137 0.331564 0.230717
O O10 0.490457 0.180765 0.167875
O O11 0.750000 0.094299 0.536477
O O12 0.900843 0.071227 0.645274
O O13 0.917769 0.214999 0.580380
O O14 0.750000 0.087766 0.754523
O O15 0.000000 0.000000 0.755664
O O16 0.250000 0.840156 0.113433
O O17 0.462730 0.869068 0.031127
O O18 0.250000 0.588239 0.450351
O O19 0.000000 0.500000 0.447146
#
# Coordination Sequence:
#
# PCOD9379243 Si02
#       7
#     8   8   8   8   8   8   8
#     4  11  22  35  55  82 113 147 186 233 287 347
#     4  10  23  42  60  86 121 158 203 253 304 368
#     4  10  21  37  59  82 112 155 199 247 306 361
#     4   9  17  32  53  79 111 142 179 226 276 336
#     4  10  20  33  50  77 112 146 187 233 282 347
#     4   9  19  37  59  86 117 151 196 245 295 355
#     4  11  23  40  65  94 125 164 209 260 314 370
#
# _framework density 19.840101000000001
#
# number of rings (size 3 to 8) (size 9 to 14) (size 15 to 20)
#    0.000    2.000    1.429    3.000    0.000    7.429 
#    0.000    0.714    0.000    3.429    0.000    0.000 
#    0.000    0.000    0.000    0.000    0.000    0.000 
#
# Total GULP energy -156058.653970 kJ/mol
# GULP energy per Si atom -5573.523356 kJ/mol
# Density = 1.979494 g / cm^3
# Si number density = 19.840101 Si / 1000 Ang^3
#
#
#
# Elastic Constant Matrix: (Units=GPa)
#
#
# Indices 1 2 3 4 5 6 
#
# 1 78.3757 21.9834 24.2285 0.0000 0.0000 0.0000
# 2 21.9834 67.8545 3.5627 0.0000 0.0000 0.0000
# 3 24.2285 3.5627 58.6760 0.0000 0.0000 0.0000
# 4 0.0000 0.0000 0.0000 9.1723 0.0000 0.0000
# 5 0.0000 0.0000 0.0000 0.0000 11.8062 0.0000
# 6 0.0000 0.0000 0.0000 0.0000 0.0000 27.8259
#
#
#
# Elastic Compliance Matrix: (Units=1/GPa)
#
#
# Indices 1 2 3 4 5 6 
#
# 1 0.016090 -0.004880 -0.006348 0.000000 0.000000 0.000000
# 2 -0.004880 0.016264 0.001027 0.000000 0.000000 0.000000
# 3 -0.006348 0.001027 0.019601 0.000000 0.000000 0.000000
# 4 0.000000 0.000000 0.000000 0.109024 0.000000 0.000000
# 5 0.000000 0.000000 0.000000 0.000000 0.084701 0.000000
# 6 0.000000 0.000000 0.000000 0.000000 0.000000 0.035938
#
#
# Mechanical properties :
#
#
# Convention : Reuss Voigt Hill
#
# Bulk Modulus (GPa) = 31.68957 33.82836 32.75897
# Shear Modulus (GPa) = 15.99812 20.10299 18.05055
#
# Velocity S-wave (km/s) = 2.84272 3.18661 3.01956
# Velocity P-wave (km/s) = 5.17512 5.53415 5.35764
#
# Compressibility (1/GPa) = 0.03155612
#
# Stress axis : x y z
#
# Youngs Moduli (GPa) = 62.15065 61.48426 51.01671
#
# Poissons Ratio (x) = 0.30001 0.32383
# Poissons Ratio (y) = 0.30326 -0.05241
# Poissons Ratio (z) = 0.39451 -0.06316
#
# Static dielectric constant tensor:
#      x y z
#    x 1.732440 0.000000 0.000000 
#    y 0.000000 1.696720 0.000000 
#    z 0.000000 0.000000 1.749150 
# 
# From -- ./inp_files/21114.got.cif
#   From: 2010.05.17/outbox.cif.g08.bks.cpg/sg46_11_cif.got.tgz:21114.got - 2010.06.03 19:58:25.
