data_PCOD9379335
_publ_section_title
;
Structure prediction by ZEFSAII (Michael W. Deem and Ramdas Pophale) SiO2 
 PCOD9379335
Probable space group: I M A 2
;
_chemical_formula_sum "Si O2"
_cell_formula_units_Z 64
_cell_length_a 8.803796
_cell_length_b 25.481610
_cell_length_c 15.395481
_cell_angle_alpha 90.000000
_cell_angle_beta 90.000000
_cell_angle_gamma 90.000000
_cell_volume 3453.743632
_symmetry_space_group_name_H-M "I M A 2"
_symmetry_group_IT_number 46
_symmetry_cell_setting 'orthorhombic'
loop_
_space_group_symop_operation_xyz
x,y,z
-x,-y,z
1/2-x,y,z
1/2+x,-y,z
1/2+x,1/2+y,1/2+z
1/2-x,1/2-y,1/2+z
-x,1/2+y,1/2+z
x,1/2-y,1/2+z
loop_
_atom_site_type_symbol
_atom_site_label
_atom_site_fract_x
_atom_site_fract_y
_atom_site_fract_z
Si Si1 0.068471 0.391713 0.666770
Si Si2 0.567099 0.640201 0.996771
Si Si3 0.071857 0.718693 0.700816
Si Si4 0.931153 0.442998 0.496742
Si Si5 0.932118 0.852293 0.878237
Si Si6 0.567000 0.942165 0.352510
Si Si7 0.571246 0.240351 0.405731
Si Si8 0.932182 0.830711 0.681098
O O1 0.250000 0.395212 0.656390
O O2 0.026150 0.414744 0.761230
O O3 0.016692 0.331272 0.664515
O O4 0.988192 0.424328 0.591312
O O5 0.750000 0.643453 0.989174
O O6 0.529277 0.633673 0.098264
O O7 0.515006 0.594222 0.932499
O O8 0.498568 0.694965 0.964324
O O9 0.250000 0.713575 0.681145
O O10 0.052775 0.721757 0.805471
O O11 0.008467 0.774084 0.668213
O O12 0.750000 0.445300 0.495145
O O13 0.000000 0.500000 0.477531
O O14 0.991556 0.399607 0.429495
O O15 0.750000 0.855637 0.885737
O O16 0.975220 0.852242 0.775880
O O17 0.988321 0.796150 0.914434
O O18 0.750000 0.945244 0.355280
O O19 0.500000 0.000000 0.356917
O O20 0.750000 0.247021 0.422790
O O21 0.750000 0.823209 0.682680
#
# Coordination Sequence:
#
# PCOD9379335 Si02
#       8
#     8   8   8   8   8   8   8   8
#     4  11  22  38  60  87 118 159 199 240 295 357
#     4  10  20  37  58  85 118 157 199 244 293 354
#     4  10  20  34  54  84 122 158 195 241 292 348
#     4  12  26  44  64  88 117 153 199 252 302 358
#     4  10  21  40  63  87 116 156 199 248 301 354
#     4  10  22  38  59  84 116 156 198 241 291 349
#     4  10  20  34  55  86 120 157 196 242 293 349
#     4   9  20  37  60  85 118 158 199 244 294 353
#
# _framework density 18.530615999999998
#
# number of rings (size 3 to 8) (size 9 to 14) (size 15 to 20)
#    0.000    1.750    1.250    3.000    1.750    4.500 
#    0.000    0.625    0.000    1.500    0.000    0.000 
#    0.000    0.000    0.000    0.000    0.000    0.000 
#
# Total GULP energy -178816.190974 kJ/mol
# GULP energy per Si atom -5588.005968 kJ/mol
# Density = 1.848844 g / cm^3
# Si number density = 18.530616 Si / 1000 Ang^3
#
#
#
# Elastic Constant Matrix: (Units=GPa)
#
#
# Indices 1 2 3 4 5 6 
#
# 1 56.0318 45.2134 34.6596 0.0000 0.0000 0.0000
# 2 45.2134 124.5972 62.4215 0.0000 0.0000 0.0000
# 3 34.6596 62.4215 94.9065 0.0000 0.0000 0.0000
# 4 0.0000 0.0000 0.0000 22.4310 0.0000 0.0000
# 5 0.0000 0.0000 0.0000 0.0000 15.8112 0.0000
# 6 0.0000 0.0000 0.0000 0.0000 0.0000 35.8520
#
#
#
# Elastic Compliance Matrix: (Units=1/GPa)
#
#
# Indices 1 2 3 4 5 6 
#
# 1 0.026767 -0.007183 -0.005051 0.000000 0.000000 0.000000
# 2 -0.007183 0.013897 -0.006518 0.000000 0.000000 0.000000
# 3 -0.005051 -0.006518 0.016668 0.000000 0.000000 0.000000
# 4 0.000000 0.000000 0.000000 0.044581 0.000000 0.000000
# 5 0.000000 0.000000 0.000000 0.000000 0.063246 0.000000
# 6 0.000000 0.000000 0.000000 0.000000 0.000000 0.027892
#
#
# Mechanical properties :
#
#
# Convention : Reuss Voigt Hill
#
# Bulk Modulus (GPa) = 50.42829 62.23605 56.33217
# Shear Modulus (GPa) = 21.08231 23.70157 22.39194
#
# Velocity S-wave (km/s) = 3.37664 3.58026 3.47994
# Velocity P-wave (km/s) = 6.51727 7.12386 6.82731
#
# Compressibility (1/GPa) = 0.01983014
#
# Stress axis : x y z
#
# Youngs Moduli (GPa) = 37.35890 71.95558 59.99504
#
# Poissons Ratio (x) = 0.51683 0.30305
# Poissons Ratio (y) = 0.26834 0.39102
# Poissons Ratio (z) = 0.18871 0.46897
#
# Static dielectric constant tensor:
#      x y z
#    x 1.618550 0.000000 0.000000 
#    y 0.000000 1.589530 0.000000 
#    z 0.000000 0.000000 1.670200 
# 
# From -- ./inp_files/14510.got.cif
#   From: 2010.05.17/outbox.cif.g08.bks.cpg/sg46_8_cif.got.tgz:14510.got - 2010.06.03 19:58:25.
