data_PCOD9379471
_publ_section_title
;
Structure prediction by ZEFSAII (Michael W. Deem and Ramdas Pophale) SiO2 
 PCOD9379471
Probable space group: I M A 2
;
_chemical_formula_sum "Si O2"
_cell_formula_units_Z 48
_cell_length_a 8.669968
_cell_length_b 9.481528
_cell_length_c 31.997812
_cell_angle_alpha 90.000000
_cell_angle_beta 90.000000
_cell_angle_gamma 90.000000
_cell_volume 2630.365556
_symmetry_space_group_name_H-M "I M A 2"
_symmetry_group_IT_number 46
_symmetry_cell_setting 'orthorhombic'
loop_
_space_group_symop_operation_xyz
x,y,z
-x,-y,z
1/2-x,y,z
1/2+x,-y,z
1/2+x,1/2+y,1/2+z
1/2-x,1/2-y,1/2+z
-x,1/2+y,1/2+z
x,1/2-y,1/2+z
loop_
_atom_site_type_symbol
_atom_site_label
_atom_site_fract_x
_atom_site_fract_y
_atom_site_fract_z
Si Si1 0.935441 0.342755 0.140550
Si Si2 0.565339 0.841998 0.730011
Si Si3 0.934687 0.157203 0.060045
Si Si4 0.565212 0.840761 0.391689
Si Si5 0.434772 0.159014 0.484554
Si Si6 0.934293 0.340827 0.805620
O O1 0.750000 0.350280 0.144173
O O2 0.977031 0.241403 0.102281
O O3 0.000000 0.500000 0.132662
O O4 0.005765 0.292862 0.184562
O O5 0.750000 0.844326 0.730560
O O6 0.500547 0.746398 0.767026
O O7 0.500000 0.000000 0.735168
O O8 0.750000 0.152606 0.057676
O O9 0.000000 0.000000 0.060721
O O10 0.998278 0.243327 0.020565
O O11 0.750000 0.843957 0.386787
O O12 0.527900 0.783339 0.437852
O O13 0.490498 0.776980 0.350084
O O14 0.500000 0.000000 0.393042
O O15 0.250000 0.151537 0.487877
O O16 0.500000 0.000000 0.488450
O O17 0.750000 0.344947 0.804608
O O18 0.000000 0.500000 0.803266
#
# Coordination Sequence:
#
# PCOD9379471 Si02
#       6
#     8   8   8   8   8   8
#     4  10  21  38  59  83 108 141 184 228 272 325
#     4  11  22  38  59  83 112 146 183 227 274 326
#     4  11  24  39  57  81 113 147 182 226 278 330
#     4   9  17  31  52  80 110 143 183 228 272 319
#     4  10  20  35  58  84 112 145 186 229 271 323
#     4  11  21  35  56  83 114 148 185 228 274 325
#
# _framework density 18.248415000000001
#
# number of rings (size 3 to 8) (size 9 to 14) (size 15 to 20)
#    0.000    1.667    0.000    7.500    0.000    6.667 
#    0.000    2.500    0.000    4.000    0.000    0.000 
#    0.000    0.000    0.000    0.000    0.000    0.000 
#
# Total GULP energy -134030.710279 kJ/mol
# GULP energy per Si atom -5584.612928 kJ/mol
# Density = 1.820688 g / cm^3
# Si number density = 18.248415 Si / 1000 Ang^3
#
#
#
# Elastic Constant Matrix: (Units=GPa)
#
#
# Indices 1 2 3 4 5 6 
#
# 1 124.4791 45.0638 92.5626 0.0000 0.0000 0.0000
# 2 45.0638 75.4063 97.2773 0.0000 0.0000 0.0000
# 3 92.5626 97.2773 224.6191 0.0000 0.0000 0.0000
# 4 0.0000 0.0000 0.0000 32.3683 0.0000 0.0000
# 5 0.0000 0.0000 0.0000 0.0000 35.0763 0.0000
# 6 0.0000 0.0000 0.0000 0.0000 0.0000 30.1717
#
#
#
# Elastic Compliance Matrix: (Units=1/GPa)
#
#
# Indices 1 2 3 4 5 6 
#
# 1 0.011683 -0.001747 -0.004058 0.000000 0.000000 0.000000
# 2 -0.001747 0.030311 -0.012407 0.000000 0.000000 0.000000
# 3 -0.004058 -0.012407 0.011497 0.000000 0.000000 0.000000
# 4 0.000000 0.000000 0.000000 0.030894 0.000000 0.000000
# 5 0.000000 0.000000 0.000000 0.000000 0.028509 0.000000
# 6 0.000000 0.000000 0.000000 0.000000 0.000000 0.033144
#
#
# Mechanical properties :
#
#
# Convention : Reuss Voigt Hill
#
# Bulk Modulus (GPa) = 58.59054 99.36801 78.97928
# Shear Modulus (GPa) = 26.57406 32.16334 29.36870
#
# Velocity S-wave (km/s) = 3.82021 4.20280 4.01606
# Velocity P-wave (km/s) = 7.18579 8.83870 8.05475
#
# Compressibility (1/GPa) = 0.01706760
#
# Stress axis : x y z
#
# Youngs Moduli (GPa) = 85.59086 32.99086 86.97629
#
# Poissons Ratio (x) = 0.05765 0.35294
# Poissons Ratio (y) = 0.14956 1.07912
# Poissons Ratio (z) = 0.34731 0.40932
#
# Static dielectric constant tensor:
#      x y z
#    x 1.608530 0.000000 0.000000 
#    y 0.000000 1.589400 0.000000 
#    z 0.000000 0.000000 1.654410 
# 
# From -- ./inp_files/25009.got.cif
#   From: 2010.05.17/outbox.cif.g08.bks.cpg/sg46_13_cif.got.tgz:25009.got - 2010.06.03 19:58:25.
