data_PCOD9379775
_publ_section_title
;
Structure prediction by ZEFSAII (Michael W. Deem and Ramdas Pophale) SiO2 
 PCOD9379775
Probable space group: I M A 2
;
_chemical_formula_sum "Si O2"
_cell_formula_units_Z 28
_cell_length_a 17.877361
_cell_length_b 15.924445
_cell_length_c 5.065970
_cell_angle_alpha 90.000000
_cell_angle_beta 90.000000
_cell_angle_gamma 90.000000
_cell_volume 1442.216065
_symmetry_space_group_name_H-M "I M A 2"
_symmetry_group_IT_number 46
_symmetry_cell_setting 'orthorhombic'
loop_
_space_group_symop_operation_xyz
x,y,z
-x,-y,z
1/2-x,y,z
1/2+x,-y,z
1/2+x,1/2+y,1/2+z
1/2-x,1/2-y,1/2+z
-x,1/2+y,1/2+z
x,1/2-y,1/2+z
loop_
_atom_site_type_symbol
_atom_site_label
_atom_site_fract_x
_atom_site_fract_y
_atom_site_fract_z
Si Si1 0.334132 0.956679 0.528630
Si Si2 0.337525 0.193493 0.875897
Si Si3 0.250000 0.697232 0.848935
Si Si4 0.913137 0.521398 0.523100
O O1 0.250000 0.994166 0.531256
O O2 0.319876 0.862132 0.426292
O O3 0.384324 0.004854 0.318176
O O4 0.368230 0.962630 0.817708
O O5 0.250000 0.167395 0.902193
O O6 0.349295 0.267567 0.087900
O O7 0.390515 0.115319 0.937851
O O8 0.250000 0.724050 0.546094
O O9 0.000000 0.500000 0.503407
#
# Coordination Sequence:
#
# PCOD9379775 Si02
#       4
#     8   8   4   8
#     4  10  22  38  64  86 119 165 213 257 304 368
#     4  10  21  38  62  88 118 158 208 261 305 362
#     4  10  20  38  62  90 118 152 216 260 300 366
#     4  12  23  40  61  94 129 163 207 261 328 387
#
# _framework density 19.414565
#
# number of rings (size 3 to 8) (size 9 to 14) (size 15 to 20)
#    0.857    0.571    0.000    6.857    0.000    2.286 
#    0.000    8.571    0.000    0.000    0.000    0.000 
#    0.000    0.000    0.000    0.000    0.000    0.000 
#
# Total GULP energy -78173.649551 kJ/mol
# GULP energy per Si atom -5583.832111 kJ/mol
# Density = 1.937038 g / cm^3
# Si number density = 19.414565 Si / 1000 Ang^3
#
#
#
# Elastic Constant Matrix: (Units=GPa)
#
#
# Indices 1 2 3 4 5 6 
#
# 1 107.0551 28.6176 0.6054 0.0000 0.0000 0.0000
# 2 28.6176 56.0859 -18.0111 0.0000 0.0000 0.0000
# 3 0.6054 -18.0111 57.6910 0.0000 0.0000 0.0000
# 4 0.0000 0.0000 0.0000 38.3897 0.0000 0.0000
# 5 0.0000 0.0000 0.0000 0.0000 -112.8386 0.0000
# 6 0.0000 0.0000 0.0000 0.0000 0.0000 27.8755
#
#
#
# Elastic Compliance Matrix: (Units=1/GPa)
#
#
# Indices 1 2 3 4 5 6 
#
# 1 0.011037 -0.006300 -0.002083 0.000000 0.000000 0.000000
# 2 -0.006300 0.023413 0.007376 0.000000 0.000000 0.000000
# 3 -0.002083 0.007376 0.019658 0.000000 0.000000 0.000000
# 4 0.000000 0.000000 0.000000 0.026049 0.000000 0.000000
# 5 0.000000 0.000000 0.000000 0.000000 -0.008862 0.000000
# 6 0.000000 0.000000 0.000000 0.000000 0.000000 0.035874
#
#
# Mechanical properties :
#
#
# Convention : Reuss Voigt Hill
#
# Bulk Modulus (GPa) = 19.19634 27.02843 23.11239
# Shear Modulus (GPa) = 39.51064 4.65999 22.08531
#
# Velocity S-wave (km/s) = 4.51611 1.55096 3.37644
# Velocity P-wave (km/s) = 6.09120 4.14237 5.20874
#
# Compressibility (1/GPa) = 0.05209325
#
# Stress axis : x y z
#
# Youngs Moduli (GPa) = 90.60452 42.71104 50.86920
#
# Poissons Ratio (x) = 0.26910 0.10595
# Poissons Ratio (y) = 0.57085 -0.37519
# Poissons Ratio (z) = 0.18871 -0.31502
#
# Static dielectric constant tensor:
#      x y z
#    x 1.665980 0.000000 0.000000 
#    y 0.000000 1.700720 0.000000 
#    z 0.000000 0.000000 1.643440 
# 
# From -- ./inp_files/1032.got.cif
#   From: 2010.05.17/outbox.cif.g08.bks.cpg/sg46_1_cif.got.tgz:1032.got - 2010.06.03 19:58:25.
