data_PCOD9379214
_publ_section_title
;
Structure prediction by ZEFSAII (Michael W. Deem and Ramdas Pophale) SiO2 
 PCOD9379214
Probable space group: I M A 2
;
_chemical_formula_sum "Si O2"
_cell_formula_units_Z 36
_cell_length_a 13.482429
_cell_length_b 10.412068
_cell_length_c 12.024646
_cell_angle_alpha 90.000000
_cell_angle_beta 90.000000
_cell_angle_gamma 90.000000
_cell_volume 1688.019415
_symmetry_space_group_name_H-M "I M A 2"
_symmetry_group_IT_number 46
_symmetry_cell_setting 'orthorhombic'
loop_
_space_group_symop_operation_xyz
x,y,z
-x,-y,z
1/2-x,y,z
1/2+x,-y,z
1/2+x,1/2+y,1/2+z
1/2-x,1/2-y,1/2+z
-x,1/2+y,1/2+z
x,1/2-y,1/2+z
loop_
_atom_site_type_symbol
_atom_site_label
_atom_site_fract_x
_atom_site_fract_y
_atom_site_fract_z
Si Si1 0.000000 0.500000 0.929420
Si Si2 0.866509 0.231067 0.424834
Si Si3 0.866697 0.630324 0.116008
Si Si4 0.477313 0.134495 0.064471
Si Si5 0.364954 0.018111 0.850761
O O1 0.067152 0.614183 0.876812
O O2 0.077844 0.427898 0.010130
O O3 0.750000 0.197712 0.442180
O O4 0.869670 0.363555 0.355946
O O5 0.924837 0.281076 0.536085
O O6 0.750000 0.617732 0.101212
O O7 0.900057 0.777138 0.126731
O O8 0.896101 0.561765 0.229547
O O9 0.500000 0.000000 0.122636
O O10 0.425628 0.089341 0.947972
O O11 0.250000 0.053920 0.867758
#
# Coordination Sequence:
#
# PCOD9379214 Si02
#       5
#     4   8   8   8   8
#     4  10  20  32  54  82 112 156 188 244 278 338
#     4   9  18  33  53  80 112 151 194 233 285 336
#     4  10  20  33  56  88 117 150 194 237 284 342
#     4   9  18  33  57  83 114 157 187 233 284 340
#     4   9  18  33  57  86 117 151 187 233 288 349
#
# _framework density 21.326768999999999
#
# number of rings (size 3 to 8) (size 9 to 14) (size 15 to 20)
#    0.000    2.667    0.000    1.333    4.667    0.889 
#    0.000    0.000    9.778    0.000    0.000    0.000 
#    0.000    0.000    0.000    0.000    0.000    0.000 
#
# Total GULP energy -100365.689086 kJ/mol
# GULP energy per Si atom -5575.871616 kJ/mol
# Density = 2.127823 g / cm^3
# Si number density = 21.326769 Si / 1000 Ang^3
#
#
#
# Elastic Constant Matrix: (Units=GPa)
#
#
# Indices 1 2 3 4 5 6 
#
# 1 157.1906 45.9683 25.3396 0.0000 0.0000 0.0000
# 2 45.9683 95.6609 16.9295 0.0000 0.0000 0.0000
# 3 25.3396 16.9295 26.8274 0.0000 0.0000 0.0000
# 4 0.0000 0.0000 0.0000 26.4547 0.0000 0.0000
# 5 0.0000 0.0000 0.0000 0.0000 -44.7867 0.0000
# 6 0.0000 0.0000 0.0000 0.0000 0.0000 42.4520
#
#
#
# Elastic Compliance Matrix: (Units=1/GPa)
#
#
# Indices 1 2 3 4 5 6 
#
# 1 0.008151 -0.002876 -0.005885 0.000000 0.000000 0.000000
# 2 -0.002876 0.012782 -0.005350 0.000000 0.000000 0.000000
# 3 -0.005885 -0.005350 0.046210 0.000000 0.000000 0.000000
# 4 0.000000 0.000000 0.000000 0.037800 0.000000 0.000000
# 5 0.000000 0.000000 0.000000 0.000000 -0.022328 0.000000
# 6 0.000000 0.000000 0.000000 0.000000 0.000000 0.023556
#
#
# Mechanical properties :
#
#
# Convention : Reuss Voigt Hill
#
# Bulk Modulus (GPa) = 25.69200 50.68376 38.18788
# Shear Modulus (GPa) = 33.92906 17.58679 25.75792
#
# Velocity S-wave (km/s) = 3.99295 2.87476 3.47907
# Velocity P-wave (km/s) = 5.77332 5.90220 5.83811
#
# Compressibility (1/GPa) = 0.03892262
#
# Stress axis : x y z
#
# Youngs Moduli (GPa) = 122.68111 78.23364 21.64046
#
# Poissons Ratio (x) = 0.22496 0.12734
# Poissons Ratio (y) = 0.35277 0.11578
# Poissons Ratio (z) = 0.72192 0.41857
#
# Static dielectric constant tensor:
#      x y z
#    x 1.799180 0.000000 0.000000 
#    y 0.000000 1.818080 0.000000 
#    z 0.000000 0.000000 1.766310 
# 
# From -- ./inp_files/10878.got.cif
#   From: 2010.05.17/outbox.cif.g08.bks.cpg/sg46_6_cif.got.tgz:10878.got - 2010.06.03 19:58:25.
