data_PCOD9379459
_publ_section_title
;
Structure prediction by ZEFSAII (Michael W. Deem and Ramdas Pophale) SiO2 
 PCOD9379459
Probable space group: I M A 2
;
_chemical_formula_sum "Si O2"
_cell_formula_units_Z 56
_cell_length_a 16.752229
_cell_length_b 20.178101
_cell_length_c 9.217189
_cell_angle_alpha 90.000000
_cell_angle_beta 90.000000
_cell_angle_gamma 90.000000
_cell_volume 3115.669519
_symmetry_space_group_name_H-M "I M A 2"
_symmetry_group_IT_number 46
_symmetry_cell_setting 'orthorhombic'
loop_
_space_group_symop_operation_xyz
x,y,z
-x,-y,z
1/2-x,y,z
1/2+x,-y,z
1/2+x,1/2+y,1/2+z
1/2-x,1/2-y,1/2+z
-x,1/2+y,1/2+z
x,1/2-y,1/2+z
loop_
_atom_site_type_symbol
_atom_site_label
_atom_site_fract_x
_atom_site_fract_y
_atom_site_fract_z
Si Si1 0.157336 0.702250 0.471260
Si Si2 0.412681 0.254190 0.123010
Si Si3 0.008922 0.621103 0.017829
Si Si4 0.922647 0.963937 0.743926
Si Si5 0.341911 0.163778 0.873699
Si Si6 0.339821 0.598692 0.217703
Si Si7 0.566384 0.308622 0.770675
O O1 0.250000 0.722275 0.482705
O O2 0.153013 0.637156 0.369818
O O3 0.122157 0.687626 0.629615
O O4 0.107901 0.759085 0.386722
O O5 0.454277 0.314014 0.035545
O O6 0.352018 0.286872 0.236725
O O7 0.484243 0.222116 0.213537
O O8 0.374428 0.201907 0.013969
O O9 0.954795 0.563296 0.087926
O O10 0.087549 0.624816 0.119337
O O11 0.043347 0.623958 0.855550
O O12 0.893749 0.900765 0.833599
O O13 0.855901 0.020235 0.730493
O O14 0.000000 0.000000 0.811359
O O15 0.250000 0.145405 0.892237
O O16 0.250000 0.611557 0.161955
#
# Coordination Sequence:
#
# PCOD9379459 Si02
#       7
#     8   8   8   8   8   8   8
#     4  11  22  33  55  91 125 158 195 240 300 354
#     4  11  20  35  57  85 115 149 185 232 291 359
#     4  10  20  35  57  85 113 151 194 236 287 357
#     4   9  21  37  62  82 108 151 204 238 281 351
#     4  11  22  37  59  88 117 146 186 243 299 343
#     4  10  20  38  61  84 114 153 199 246 288 344
#     4  12  20  35  57  84 127 156 190 241 296 360
#
# _framework density 17.973663999999999
#
# number of rings (size 3 to 8) (size 9 to 14) (size 15 to 20)
#    0.000    1.429    4.286    1.286    4.000    2.286 
#    0.000    0.000    9.429    0.000    0.000    0.000 
#    0.000    0.000    0.000    0.000    0.000    0.000 
#
# Total GULP energy -156152.747787 kJ/mol
# GULP energy per Si atom -5576.883850 kJ/mol
# Density = 1.793276 g / cm^3
# Si number density = 17.973664 Si / 1000 Ang^3
#
#
#
# Elastic Constant Matrix: (Units=GPa)
#
#
# Indices 1 2 3 4 5 6 
#
# 1 85.4394 30.7313 21.7367 0.0000 0.0000 0.0000
# 2 30.7313 92.1850 33.4815 0.0000 0.0000 0.0000
# 3 21.7367 33.4815 75.3355 0.0000 0.0000 0.0000
# 4 0.0000 0.0000 0.0000 15.0609 0.0000 0.0000
# 5 0.0000 0.0000 0.0000 0.0000 25.6451 0.0000
# 6 0.0000 0.0000 0.0000 0.0000 0.0000 23.1023
#
#
#
# Elastic Compliance Matrix: (Units=1/GPa)
#
#
# Indices 1 2 3 4 5 6 
#
# 1 0.013619 -0.003712 -0.002280 0.000000 0.000000 0.000000
# 2 -0.003712 0.013948 -0.005128 0.000000 0.000000 0.000000
# 3 -0.002280 -0.005128 0.016211 0.000000 0.000000 0.000000
# 4 0.000000 0.000000 0.000000 0.066397 0.000000 0.000000
# 5 0.000000 0.000000 0.000000 0.000000 0.038994 0.000000
# 6 0.000000 0.000000 0.000000 0.000000 0.000000 0.043286
#
#
# Mechanical properties :
#
#
# Convention : Reuss Voigt Hill
#
# Bulk Modulus (GPa) = 46.42890 47.20654 46.81772
# Shear Modulus (GPa) = 22.53540 23.89569 23.21554
#
# Velocity S-wave (km/s) = 3.54475 3.65016 3.59784
# Velocity P-wave (km/s) = 6.53003 6.63975 6.58512
#
# Compressibility (1/GPa) = 0.02153831
#
# Stress axis : x y z
#
# Youngs Moduli (GPa) = 73.42444 71.69672 61.68779
#
# Poissons Ratio (x) = 0.26615 0.14064
# Poissons Ratio (y) = 0.27257 0.31632
# Poissons Ratio (z) = 0.16739 0.36764
#
# Static dielectric constant tensor:
#      x y z
#    x 1.624730 0.000000 0.000000 
#    y 0.000000 1.633010 0.000000 
#    z 0.000000 0.000000 1.619860 
# 
# From -- ./inp_files/5918.got.cif
#   From: 2010.05.17/outbox.cif.g08.bks.cpg/sg46_3_cif.got.tgz:5918.got - 2010.06.03 19:58:25.
