data_PCOD9379651
_publ_section_title
;
Structure prediction by ZEFSAII (Michael W. Deem and Ramdas Pophale) SiO2 
 PCOD9379651
Probable space group: I M A 2
;
_chemical_formula_sum "Si O2"
_cell_formula_units_Z 64
_cell_length_a 8.583574
_cell_length_b 33.031016
_cell_length_c 11.942187
_cell_angle_alpha 90.000000
_cell_angle_beta 90.000000
_cell_angle_gamma 90.000000
_cell_volume 3385.898659
_symmetry_space_group_name_H-M "I M A 2"
_symmetry_group_IT_number 46
_symmetry_cell_setting 'orthorhombic'
loop_
_space_group_symop_operation_xyz
x,y,z
-x,-y,z
1/2-x,y,z
1/2+x,-y,z
1/2+x,1/2+y,1/2+z
1/2-x,1/2-y,1/2+z
-x,1/2+y,1/2+z
x,1/2-y,1/2+z
loop_
_atom_site_type_symbol
_atom_site_label
_atom_site_fract_x
_atom_site_fract_y
_atom_site_fract_z
Si Si1 0.570289 0.900008 0.447960
Si Si2 0.936561 0.122588 0.905008
Si Si3 0.431030 0.727144 0.036158
Si Si4 0.932698 0.044648 0.266681
Si Si5 0.937796 0.648693 0.163159
Si Si6 0.571344 0.172922 0.325201
Si Si7 0.566366 0.813083 0.083661
Si Si8 0.435825 0.046138 0.030375
O O1 0.750000 0.912917 0.449068
O O2 0.469362 0.932045 0.380499
O O3 0.522255 0.886212 0.572042
O O4 0.547461 0.859540 0.375136
O O5 0.750000 0.123235 0.906781
O O6 0.998144 0.136101 0.783490
O O7 0.995734 0.078078 0.941960
O O8 0.002638 0.154840 0.994209
O O9 0.250000 0.735843 0.063548
O O10 0.491064 0.690633 0.115553
O O11 0.532163 0.767280 0.045815
O O12 0.436950 0.710798 0.908941
O O13 0.750000 0.043700 0.244105
O O14 0.000000 0.000000 0.278857
O O15 0.015110 0.061690 0.154738
O O16 0.750000 0.652446 0.165590
O O17 0.750000 0.157271 0.331363
O O18 0.525101 0.181918 0.199626
O O19 0.750000 0.819455 0.099799
O O20 0.250000 0.044999 0.022657
O O21 0.500000 0.000000 0.018660
#
# Coordination Sequence:
#
# PCOD9379651 Si02
#       8
#     8   8   8   8   8   8   8   8
#     4  10  20  37  60  85 116 151 191 237 292 352
#     4  12  25  42  63  89 122 161 207 254 305 365
#     4  10  22  40  61  85 116 155 197 244 301 359
#     4  11  21  35  58  89 123 156 195 242 298 355
#     4  10  22  41  63  87 118 158 202 249 302 361
#     4  10  21  38  59  83 112 147 192 238 291 348
#     4  12  25  39  59  86 119 155 199 250 300 356
#     4  11  22  40  64  92 126 161 202 250 308 366
#
# _framework density 18.901924000000001
#
# number of rings (size 3 to 8) (size 9 to 14) (size 15 to 20)
#    0.000    1.250    0.000    7.500    1.750    3.000 
#    0.000    0.625    0.000    3.000    0.000    0.000 
#    0.000    0.000    0.000    0.000    0.000    0.000 
#
# Total GULP energy -178824.804572 kJ/mol
# GULP energy per Si atom -5588.275143 kJ/mol
# Density = 1.885890 g / cm^3
# Si number density = 18.901924 Si / 1000 Ang^3
#
#
#
# Elastic Constant Matrix: (Units=GPa)
#
#
# Indices 1 2 3 4 5 6 
#
# 1 90.0210 15.8856 33.5030 -0.0004 -0.0002 0.0000
# 2 15.8856 64.7233 51.2258 -0.0004 -0.0005 0.0000
# 3 33.5030 51.2258 131.5915 -0.0008 -0.0008 -0.0001
# 4 -0.0004 -0.0004 -0.0008 9.2194 -0.0007 -0.0001
# 5 -0.0002 -0.0005 -0.0008 -0.0007 6.8408 -0.0001
# 6 0.0000 0.0000 -0.0001 -0.0001 -0.0001 34.2030
#
#
#
# Elastic Compliance Matrix: (Units=1/GPa)
#
#
# Indices 1 2 3 4 5 6 
#
# 1 0.012299 -0.000781 -0.002827 0.000000 0.000000 0.000000
# 2 -0.000781 0.022380 -0.008513 0.000000 0.000000 0.000000
# 3 -0.002827 -0.008513 0.011633 0.000000 0.000001 0.000000
# 4 0.000000 0.000000 0.000000 0.108467 0.000012 0.000000
# 5 0.000000 0.000000 0.000001 0.000012 0.146182 0.000001
# 6 0.000000 0.000000 0.000000 0.000000 0.000001 0.029237
#
#
# Mechanical properties :
#
#
# Convention : Reuss Voigt Hill
#
# Bulk Modulus (GPa) = 45.31272 54.17383 49.74328
# Shear Modulus (GPa) = 13.81993 22.43408 18.12701
#
# Velocity S-wave (km/s) = 2.70689 3.44883 3.10014
# Velocity P-wave (km/s) = 5.81328 6.67697 6.26004
#
# Compressibility (1/GPa) = 0.02206886
#
# Stress axis : x y z
#
# Youngs Moduli (GPa) = 81.31067 44.68297 85.96182
#
# Poissons Ratio (x) = 0.03490 0.24303
# Poissons Ratio (y) = 0.06350 0.73181
# Poissons Ratio (z) = 0.22988 0.38039
#
# Static dielectric constant tensor:
#      x y z
#    x 1.668010 0.000000 0.000000 
#    y 0.000000 1.654480 0.000000 
#    z 0.000000 0.000000 1.646690 
# 
# From -- ./inp_files/9735.got.cif
#   From: 2010.05.17/outbox.cif.g08.bks.cpg/sg46_5_cif.got.tgz:9735.got - 2010.06.03 19:58:25.
