data_PCOD9379287
_publ_section_title
;
Structure prediction by ZEFSAII (Michael W. Deem and Ramdas Pophale) SiO2 
 PCOD9379287
Probable space group: I M A 2
;
_chemical_formula_sum "Si O2"
_cell_formula_units_Z 56
_cell_length_a 15.326644
_cell_length_b 5.088531
_cell_length_c 35.440759
_cell_angle_alpha 90.000000
_cell_angle_beta 90.000000
_cell_angle_gamma 90.000000
_cell_volume 2764.028449
_symmetry_space_group_name_H-M "I M A 2"
_symmetry_group_IT_number 46
_symmetry_cell_setting 'orthorhombic'
loop_
_space_group_symop_operation_xyz
x,y,z
-x,-y,z
1/2-x,y,z
1/2+x,-y,z
1/2+x,1/2+y,1/2+z
1/2-x,1/2-y,1/2+z
-x,1/2+y,1/2+z
x,1/2-y,1/2+z
loop_
_atom_site_type_symbol
_atom_site_label
_atom_site_fract_x
_atom_site_fract_y
_atom_site_fract_z
Si Si1 0.849830 0.624131 0.768820
Si Si2 0.938550 0.750946 0.847089
Si Si3 0.152798 0.945544 0.052139
Si Si4 0.000000 0.500000 0.609317
Si Si5 0.395548 0.454403 0.006475
Si Si6 0.500000 0.000000 0.658930
Si Si7 0.436822 0.250408 0.429917
Si Si8 0.647035 0.353893 0.218565
O O1 0.750000 0.542426 0.773841
O O2 0.883078 0.695999 0.810124
O O3 0.888843 0.381676 0.745150
O O4 0.854824 0.882010 0.743246
O O5 0.104852 0.208472 0.888482
O O6 0.000000 0.500000 0.850218
O O7 0.000000 0.000000 0.840648
O O8 0.250000 0.929344 0.068003
O O9 0.144274 0.732101 0.018547
O O10 0.078425 0.898239 0.082921
O O11 0.134570 0.234287 0.035764
O O12 0.028482 0.250827 0.634169
O O13 0.500000 0.500000 0.008536
O O14 0.377106 0.330975 0.965182
O O15 0.581315 0.099568 0.684150
O O16 0.500000 0.500000 0.438521
O O17 0.500000 0.000000 0.426552
O O18 0.750000 0.305007 0.207975
#
# Coordination Sequence:
#
# PCOD9379287 Si02
#       8
#     8   8   8   4   8   4   8   8
#     4  10  21  38  58  85 123 163 201 250 310 357
#     4  10  20  33  55  89 121 159 212 254 296 356
#     4  12  25  42  66  97 128 163 208 259 316 379
#     4  12  26  46  64  96 125 160 201 252 322 392
#     4  11  19  39  66  89 125 171 215 259 309 371
#     4  12  26  42  70  92 119 160 207 244 318 392
#     4   9  18  32  55  89 123 163 208 256 307 350
#     4  10  23  41  62  91 123 158 204 254 304 367
#
# _framework density 20.260283000000001
#
# number of rings (size 3 to 8) (size 9 to 14) (size 15 to 20)
#    0.000    1.429    1.429    4.714    3.000    1.143 
#    0.000    1.429    0.000    1.714    0.000    0.000 
#    0.000    0.000    0.000    0.000    0.000    0.000 
#
# Total GULP energy -156249.438812 kJ/mol
# GULP energy per Si atom -5580.337100 kJ/mol
# Density = 2.021417 g / cm^3
# Si number density = 20.260283 Si / 1000 Ang^3
#
#
#
# Elastic Constant Matrix: (Units=GPa)
#
#
# Indices 1 2 3 4 5 6 
#
# 1 76.3827 12.6170 44.1170 0.0000 0.0000 0.0000
# 2 12.6170 120.7735 22.3698 0.0000 0.0000 0.0000
# 3 44.1170 22.3698 114.3778 0.0000 0.0000 0.0000
# 4 0.0000 0.0000 0.0000 38.2680 0.0000 0.0000
# 5 0.0000 0.0000 0.0000 0.0000 -47.5455 0.0000
# 6 0.0000 0.0000 0.0000 0.0000 0.0000 4.2338
#
#
#
# Elastic Compliance Matrix: (Units=1/GPa)
#
#
# Indices 1 2 3 4 5 6 
#
# 1 0.016883 -0.000579 -0.006399 0.000000 0.000000 0.000000
# 2 -0.000579 0.008611 -0.001461 0.000000 0.000000 0.000000
# 3 -0.006399 -0.001461 0.011497 0.000000 0.000000 0.000000
# 4 0.000000 0.000000 0.000000 0.026131 0.000000 0.000000
# 5 0.000000 0.000000 0.000000 0.000000 -0.021032 0.000000
# 6 0.000000 0.000000 0.000000 0.000000 0.000000 0.236193
#
#
# Mechanical properties :
#
#
# Convention : Reuss Voigt Hill
#
# Bulk Modulus (GPa) = 49.71596 52.19353 50.95474
# Shear Modulus (GPa) = 16.56370 14.48662 15.52516
#
# Velocity S-wave (km/s) = 2.86238 2.67690 2.77119
# Velocity P-wave (km/s) = 5.95954 5.94742 5.95348
#
# Compressibility (1/GPa) = 0.02011426
#
# Stress axis : x y z
#
# Youngs Moduli (GPa) = 59.22948 116.13049 86.98014
#
# Poissons Ratio (x) = 0.06719 0.55659
# Poissons Ratio (y) = 0.03427 0.12708
# Poissons Ratio (z) = 0.37901 0.16966
#
# Static dielectric constant tensor:
#      x y z
#    x 1.744260 0.000000 0.000000 
#    y 0.000000 1.690850 0.000000 
#    z 0.000000 0.000000 1.787020 
# 
# From -- ./inp_files/25453.got.cif
#   From: 2010.05.17/outbox.cif.g08.bks.cpg/sg46_13_cif.got.tgz:25453.got - 2010.06.03 19:58:25.
