data_PCOD9379226
_publ_section_title
;
Structure prediction by ZEFSAII (Michael W. Deem and Ramdas Pophale) SiO2 
 PCOD9379226
Probable space group: I M A 2
;
_chemical_formula_sum "Si O2"
_cell_formula_units_Z 56
_cell_length_a 8.857473
_cell_length_b 15.928680
_cell_length_c 20.288419
_cell_angle_alpha 90.000000
_cell_angle_beta 90.000000
_cell_angle_gamma 90.000000
_cell_volume 2862.449478
_symmetry_space_group_name_H-M "I M A 2"
_symmetry_group_IT_number 46
_symmetry_cell_setting 'orthorhombic'
loop_
_space_group_symop_operation_xyz
x,y,z
-x,-y,z
1/2-x,y,z
1/2+x,-y,z
1/2+x,1/2+y,1/2+z
1/2-x,1/2-y,1/2+z
-x,1/2+y,1/2+z
x,1/2-y,1/2+z
loop_
_atom_site_type_symbol
_atom_site_label
_atom_site_fract_x
_atom_site_fract_y
_atom_site_fract_z
Si Si1 0.923507 0.417091 0.582730
Si Si2 0.929289 0.260931 0.795882
Si Si3 0.925710 0.685135 0.929176
Si Si4 0.585542 0.616578 0.460656
Si Si5 0.578630 0.917403 0.810238
Si Si6 0.066092 0.747985 0.146210
Si Si7 0.567646 0.093068 0.554902
O O1 0.750000 0.418649 0.600489
O O2 0.987372 0.327068 0.603683
O O3 0.000000 0.500000 0.610683
O O4 0.949996 0.416156 0.504541
O O5 0.750000 0.272295 0.801714
O O6 0.978174 0.273672 0.720311
O O7 0.007407 0.313013 0.854801
O O8 0.973982 0.163328 0.802707
O O9 0.750000 0.659800 0.927727
O O10 0.931323 0.783354 0.950120
O O11 0.012495 0.631279 0.984481
O O12 0.750000 0.601125 0.493373
O O13 0.590737 0.575817 0.389121
O O14 0.750000 0.904487 0.785098
O O15 0.500000 0.000000 0.782046
O O16 0.250000 0.744115 0.145708
O O17 0.018610 0.660254 0.112025
O O18 0.750000 0.088734 0.554994
O O19 0.500000 0.000000 0.564517
#
# Coordination Sequence:
#
# PCOD9379226 Si02
#       7
#     8   8   8   8   8   8   8
#     4  11  21  35  55  82 113 146 185 232 285 348
#     4  10  20  37  60  82 112 158 201 248 309 366
#     4  10  20  37  59  88 119 152 200 250 297 359
#     4   9  18  32  52  79 111 143 180 227 277 333
#     4  10  20  33  49  77 113 147 189 236 284 350
#     4   9  21  40  60  85 120 158 202 249 304 372
#     4  11  22  40  64  93 124 164 210 260 316 372
#
# _framework density 19.563663999999999
#
# number of rings (size 3 to 8) (size 9 to 14) (size 15 to 20)
#    0.000    2.000    1.429    3.429    0.000    4.571 
#    0.000    7.857    0.000    1.714    0.000    0.000 
#    0.000    0.000    0.000    0.000    0.000    0.000 
#
# Total GULP energy -156020.190886 kJ/mol
# GULP energy per Si atom -5572.149674 kJ/mol
# Density = 1.951914 g / cm^3
# Si number density = 19.563664 Si / 1000 Ang^3
#
#
#
# Elastic Constant Matrix: (Units=GPa)
#
#
# Indices 1 2 3 4 5 6 
#
# 1 62.8306 26.6574 18.3688 0.0000 0.0000 0.0000
# 2 26.6574 81.2898 8.8705 0.0000 0.0000 0.0000
# 3 18.3688 8.8705 73.8882 0.0000 0.0000 0.0000
# 4 0.0000 0.0000 0.0000 4.8141 0.0000 0.0000
# 5 0.0000 0.0000 0.0000 0.0000 8.8305 0.0000
# 6 0.0000 0.0000 0.0000 0.0000 0.0000 29.3790
#
#
#
# Elastic Compliance Matrix: (Units=1/GPa)
#
#
# Indices 1 2 3 4 5 6 
#
# 1 0.019681 -0.005999 -0.004173 0.000000 0.000000 0.000000
# 2 -0.005999 0.014293 -0.000225 0.000000 0.000000 0.000000
# 3 -0.004173 -0.000225 0.014598 0.000000 0.000000 0.000000
# 4 0.000000 0.000000 0.000000 0.207724 0.000000 0.000000
# 5 0.000000 0.000000 0.000000 0.000000 0.113244 0.000000
# 6 0.000000 0.000000 0.000000 0.000000 0.000000 0.034038
#
#
# Mechanical properties :
#
#
# Convention : Reuss Voigt Hill
#
# Bulk Modulus (GPa) = 35.99630 36.20023 36.09826
# Shear Modulus (GPa) = 11.53055 19.54549 15.53802
#
# Velocity S-wave (km/s) = 2.43036 3.16424 2.82126
# Velocity P-wave (km/s) = 5.12982 5.64746 5.39485
#
# Compressibility (1/GPa) = 0.02778064
#
# Stress axis : x y z
#
# Youngs Moduli (GPa) = 50.81111 69.96277 68.50136
#
# Poissons Ratio (x) = 0.41968 0.28582
# Poissons Ratio (y) = 0.30480 0.01539
# Poissons Ratio (z) = 0.21201 0.01572
#
# Static dielectric constant tensor:
#      x y z
#    x 1.703550 0.000000 0.000000 
#    y 0.000000 1.711420 0.000000 
#    z 0.000000 0.000000 1.730610 
# 
# From -- ./inp_files/21043.got.cif
#   From: 2010.05.17/outbox.cif.g08.bks.cpg/sg46_11_cif.got.tgz:21043.got - 2010.06.03 19:58:25.
