data_PCOD9379616
_publ_section_title
;
Structure prediction by ZEFSAII (Michael W. Deem and Ramdas Pophale) SiO2 
 PCOD9379616
Probable space group: I M A 2
;
_chemical_formula_sum "Si O2"
_cell_formula_units_Z 64
_cell_length_a 18.514274
_cell_length_b 18.072015
_cell_length_c 9.064761
_cell_angle_alpha 90.000000
_cell_angle_beta 90.000000
_cell_angle_gamma 90.000000
_cell_volume 3032.980535
_symmetry_space_group_name_H-M "I M A 2"
_symmetry_group_IT_number 46
_symmetry_cell_setting 'orthorhombic'
loop_
_space_group_symop_operation_xyz
x,y,z
-x,-y,z
1/2-x,y,z
1/2+x,-y,z
1/2+x,1/2+y,1/2+z
1/2-x,1/2-y,1/2+z
-x,1/2+y,1/2+z
x,1/2-y,1/2+z
loop_
_atom_site_type_symbol
_atom_site_label
_atom_site_fract_x
_atom_site_fract_y
_atom_site_fract_z
Si Si1 0.916611 0.469517 0.937240
Si Si2 0.669405 0.976350 0.007080
Si Si3 0.460853 0.287456 0.919473
Si Si4 0.666289 0.899246 0.332225
Si Si5 0.166163 0.846901 0.941356
Si Si6 0.938303 0.144864 0.676300
Si Si7 0.438309 0.857544 0.183601
Si Si8 0.541025 0.885759 0.926543
O O1 0.860924 0.536056 0.939224
O O2 0.907007 0.420239 0.790083
O O3 0.000000 0.500000 0.938209
O O4 0.902321 0.413929 0.068887
O O5 0.750000 0.956305 0.960888
O O6 0.659638 0.938249 0.169952
O O7 0.608959 0.936973 0.913414
O O8 0.663586 0.064843 0.982924
O O9 0.390742 0.334285 0.869075
O O10 0.518692 0.302430 0.790070
O O11 0.441345 0.201675 0.930750
O O12 0.504626 0.312730 0.066595
O O13 0.750000 0.878074 0.351023
O O14 0.250000 0.824742 0.938092
O O15 0.123826 0.827282 0.790611
O O16 0.118779 0.816357 0.078221
O O17 0.989809 0.102311 0.789470
O O18 0.495424 0.897590 0.075585
#
# Coordination Sequence:
#
# PCOD9379616 Si02
#       8
#     8   8   8   8   8   8   8   8
#     4  11  19  36  58  87 118 151 203 250 301 353
#     4  10  21  36  59  89 121 161 198 237 294 359
#     4  11  22  40  59  88 122 161 211 241 279 353
#     4  11  22  37  61  91 124 161 202 248 294 354
#     4  10  22  39  61  94 124 145 190 254 318 367
#     4  10  24  35  60  88 120 154 195 251 310 348
#     4  10  20  36  64  83 110 157 202 251 290 349
#     4  11  22  37  60  86 120 161 204 243 279 349
#
# _framework density 21.101354000000001
#
# number of rings (size 3 to 8) (size 9 to 14) (size 15 to 20)
#    0.000    1.500    5.000    0.750    1.750    2.000 
#    0.000    3.750    0.000   12.000    0.000    1.750 
#    0.000    0.000    0.000    0.000    0.000    0.000 
#
# Total GULP energy -178547.616383 kJ/mol
# GULP energy per Si atom -5579.613012 kJ/mol
# Density = 2.105333 g / cm^3
# Si number density = 21.101354 Si / 1000 Ang^3
#
#
#
# Elastic Constant Matrix: (Units=GPa)
#
#
# Indices 1 2 3 4 5 6 
#
# 1 131.4618 20.3166 44.8590 0.0000 0.0000 0.0000
# 2 20.3166 54.2703 11.4366 0.0000 0.0000 0.0000
# 3 44.8590 11.4366 113.4588 0.0000 0.0000 0.0000
# 4 0.0000 0.0000 0.0000 14.3807 0.0000 0.0000
# 5 0.0000 0.0000 0.0000 0.0000 14.0264 0.0000
# 6 0.0000 0.0000 0.0000 0.0000 0.0000 21.4677
#
#
#
# Elastic Compliance Matrix: (Units=1/GPa)
#
#
# Indices 1 2 3 4 5 6 
#
# 1 0.009172 -0.002727 -0.003351 0.000000 0.000000 0.000000
# 2 -0.002727 0.019637 -0.000901 0.000000 0.000000 0.000000
# 3 -0.003351 -0.000901 0.010230 0.000000 0.000000 0.000000
# 4 0.000000 0.000000 0.000000 0.069538 0.000000 0.000000
# 5 0.000000 0.000000 0.000000 0.000000 0.071294 0.000000
# 6 0.000000 0.000000 0.000000 0.000000 0.000000 0.046582
#
#
# Mechanical properties :
#
#
# Convention : Reuss Voigt Hill
#
# Bulk Modulus (GPa) = 39.87397 50.26837 45.07117
# Shear Modulus (GPa) = 20.09876 24.81354 22.45615
#
# Velocity S-wave (km/s) = 3.08959 3.43289 3.26575
# Velocity P-wave (km/s) = 5.62715 6.29182 5.96875
#
# Compressibility (1/GPa) = 0.02507902
#
# Stress axis : x y z
#
# Youngs Moduli (GPa) = 109.02884 50.92385 97.75473
#
# Poissons Ratio (x) = 0.13889 0.32762
# Poissons Ratio (y) = 0.29736 0.08809
# Poissons Ratio (z) = 0.36540 0.04589
#
# Static dielectric constant tensor:
#      x y z
#    x 1.760930 0.000000 0.000000 
#    y 0.000000 1.801280 0.000000 
#    z 0.000000 0.000000 1.805440 
# 
# From -- ./inp_files/6939.got.cif
#   From: 2010.05.17/outbox.cif.g08.bks.cpg/sg46_4_cif.got.tgz:6939.got - 2010.06.03 19:58:25.
