data_PCOD9379990
_publ_section_title
;
Structure prediction by ZEFSAII (Michael W. Deem and Ramdas Pophale) SiO2 
 PCOD9379990
Probable space group: I M A 2
;
_chemical_formula_sum "Si O2"
_cell_formula_units_Z 52
_cell_length_a 20.133638
_cell_length_b 25.525209
_cell_length_c 5.131885
_cell_angle_alpha 90.000000
_cell_angle_beta 90.000000
_cell_angle_gamma 90.000000
_cell_volume 2637.354311
_symmetry_space_group_name_H-M "I M A 2"
_symmetry_group_IT_number 46
_symmetry_cell_setting 'orthorhombic'
loop_
_space_group_symop_operation_xyz
x,y,z
-x,-y,z
1/2-x,y,z
1/2+x,-y,z
1/2+x,1/2+y,1/2+z
1/2-x,1/2-y,1/2+z
-x,1/2+y,1/2+z
x,1/2-y,1/2+z
loop_
_atom_site_type_symbol
_atom_site_label
_atom_site_fract_x
_atom_site_fract_y
_atom_site_fract_z
Si Si1 0.060848 0.458496 0.849110
Si Si2 0.030750 0.394907 0.339378
Si Si3 0.169780 0.719222 0.196816
Si Si4 0.374856 0.898464 0.733318
Si Si5 0.396577 0.212977 0.778334
Si Si6 0.827435 0.040314 0.232549
Si Si7 0.750000 0.783994 0.868848
O O1 0.043990 0.415786 0.629101
O O2 0.126320 0.489904 0.768384
O O3 0.000000 0.500000 0.858738
O O4 0.068252 0.430977 0.128029
O O5 0.053288 0.335001 0.308024
O O6 0.953557 0.402561 0.271253
O O7 0.250000 0.717632 0.198526
O O8 0.147895 0.760590 0.415126
O O9 0.144762 0.661852 0.262288
O O10 0.351806 0.918858 0.452573
O O11 0.340195 0.933582 0.952927
O O12 0.403717 0.244009 0.507435
O O13 0.320962 0.190499 0.806195
O O14 0.750000 0.029126 0.267606
O O15 0.750000 0.734149 0.669707
#
# Coordination Sequence:
#
# PCOD9379990 Si02
#       7
#     8   8   8   8   8   8   4
#     4  12  23  45  65  89 127 164 204 255 308 371
#     4  12  24  40  67  94 122 166 204 248 313 368
#     4  10  21  36  54  81 119 156 196 248 297 346
#     4  12  23  40  64  90 121 164 208 247 308 374
#     4  10  21  39  62  91 127 161 204 252 301 368
#     4  12  25  42  66  91 120 160 210 258 302 366
#     4   8  16  34  58  82 118 166 198 236 300 360
#
# _framework density 19.716729999999998
#
# number of rings (size 3 to 8) (size 9 to 14) (size 15 to 20)
#    0.000    0.923    3.077    4.615    0.000    2.462 
#    2.769    0.000    0.000    0.000    0.000    0.000 
#    0.000    0.000    0.000    0.000    0.000    0.000 
#
# Total GULP energy -145379.062420 kJ/mol
# GULP energy per Si atom -5591.502401 kJ/mol
# Density = 1.967185 g / cm^3
# Si number density = 19.716730 Si / 1000 Ang^3
#
#
#
# Elastic Constant Matrix: (Units=GPa)
#
#
# Indices 1 2 3 4 5 6 
#
# 1 84.4131 18.0217 -17.1076 0.0000 0.0000 0.0000
# 2 18.0217 48.4762 -6.3591 0.0000 0.0000 0.0000
# 3 -17.1076 -6.3591 59.6505 0.0000 0.0000 0.0000
# 4 0.0000 0.0000 0.0000 27.8151 0.0000 0.0000
# 5 0.0000 0.0000 0.0000 0.0000 -25.1499 0.0000
# 6 0.0000 0.0000 0.0000 0.0000 0.0000 155.4597
#
#
#
# Elastic Compliance Matrix: (Units=1/GPa)
#
#
# Indices 1 2 3 4 5 6 
#
# 1 0.013510 -0.004578 0.003387 0.000000 0.000000 0.000000
# 2 -0.004578 0.022473 0.001083 0.000000 0.000000 0.000000
# 3 0.003387 0.001083 0.017851 0.000000 0.000000 0.000000
# 4 0.000000 0.000000 0.000000 0.035952 0.000000 0.000000
# 5 0.000000 0.000000 0.000000 0.000000 -0.039762 0.000000
# 6 0.000000 0.000000 0.000000 0.000000 0.000000 0.006433
#
#
# Mechanical properties :
#
#
# Convention : Reuss Voigt Hill
#
# Bulk Modulus (GPa) = 18.65116 20.18330 19.41723
# Shear Modulus (GPa) = 67.07193 44.82398 55.94795
#
# Velocity S-wave (km/s) = 5.83880 4.77319 5.33268
# Velocity P-wave (km/s) = 7.41186 6.37469 6.91275
#
# Compressibility (1/GPa) = 0.05361596
#
# Stress axis : x y z
#
# Youngs Moduli (GPa) = 74.01749 44.49826 56.01923
#
# Poissons Ratio (x) = 0.20373 -0.18972
# Poissons Ratio (y) = 0.33888 -0.06065
# Poissons Ratio (z) = -0.25067 -0.04818
#
# Static dielectric constant tensor:
#      x y z
#    x 1.699790 0.000000 0.000000 
#    y 0.000000 1.656120 0.000000 
#    z 0.000000 0.000000 1.678320 
# 
# From -- ./inp_files/2073.got.cif
#   From: 2010.05.17/outbox.cif.g08.bks.cpg/sg46_2_cif.got.tgz:2073.got - 2010.06.03 19:58:25.
