data_PCOD9379304
_publ_section_title
;
Structure prediction by ZEFSAII (Michael W. Deem and Ramdas Pophale) SiO2 
 PCOD9379304
Probable space group: I M A 2
;
_chemical_formula_sum "Si O2"
_cell_formula_units_Z 64
_cell_length_a 8.758257
_cell_length_b 23.674470
_cell_length_c 19.497690
_cell_angle_alpha 90.000000
_cell_angle_beta 90.000000
_cell_angle_gamma 90.000000
_cell_volume 4042.789334
_symmetry_space_group_name_H-M "I M A 2"
_symmetry_group_IT_number 46
_symmetry_cell_setting 'orthorhombic'
loop_
_space_group_symop_operation_xyz
x,y,z
-x,-y,z
1/2-x,y,z
1/2+x,-y,z
1/2+x,1/2+y,1/2+z
1/2-x,1/2-y,1/2+z
-x,1/2+y,1/2+z
x,1/2-y,1/2+z
loop_
_atom_site_type_symbol
_atom_site_label
_atom_site_fract_x
_atom_site_fract_y
_atom_site_fract_z
Si Si1 0.933798 0.381999 0.537710
Si Si2 0.567946 0.438120 0.682396
Si Si3 0.432348 0.437386 0.400858
Si Si4 0.066672 0.267739 0.897118
Si Si5 0.067373 0.661632 0.314540
Si Si6 0.067757 0.161339 0.266966
Si Si7 0.432770 0.751779 0.542515
Si Si8 0.933037 0.723278 0.187165
O O1 0.750000 0.387343 0.528987
O O2 0.979068 0.412659 0.608298
O O3 0.969303 0.315440 0.542513
O O4 0.015182 0.410212 0.473110
O O5 0.500000 0.500000 0.691781
O O6 0.750000 0.441291 0.682694
O O7 0.513603 0.394116 0.739785
O O8 0.500000 0.500000 0.395847
O O9 0.250000 0.438774 0.397406
O O10 0.499392 0.396694 0.342198
O O11 0.250000 0.260822 0.898106
O O12 0.029736 0.317737 0.843575
O O13 0.993584 0.210987 0.865216
O O14 0.002275 0.276353 0.972741
O O15 0.250000 0.660627 0.316699
O O16 0.007775 0.678922 0.239426
O O17 0.250000 0.153264 0.262963
O O18 0.028397 0.214636 0.218087
O O19 0.250000 0.757399 0.543101
O O20 0.503657 0.778838 0.610556
O O21 0.750000 0.717556 0.188838
#
# Coordination Sequence:
#
# PCOD9379304 Si02
#       8
#     8   8   8   8   8   8   8   8
#     4  10  21  35  49  73 105 140 180 216 252 302
#     4  11  22  35  51  71 100 136 177 215 255 301
#     4  12  24  37  54  74 102 140 181 220 262 308
#     4  10  20  34  52  76 103 135 172 213 262 313
#     4  11  21  35  53  75 103 135 174 218 262 310
#     4   9  19  34  51  72  99 131 171 213 256 303
#     4  11  20  32  52  79 108 139 174 212 258 310
#     4  10  20  34  53  76 104 136 172 214 262 312
#
# _framework density 15.830653999999999
#
# number of rings (size 3 to 8) (size 9 to 14) (size 15 to 20)
#    0.000    1.500    2.500    4.875    0.000    5.000 
#    0.000    0.000    0.000    0.000    0.000    0.875 
#    0.000    4.000    0.000    0.000    0.000    0.000 
#
# Total GULP energy -178765.996970 kJ/mol
# GULP energy per Si atom -5586.437405 kJ/mol
# Density = 1.579462 g / cm^3
# Si number density = 15.830654 Si / 1000 Ang^3
#
#
#
# Elastic Constant Matrix: (Units=GPa)
#
#
# Indices 1 2 3 4 5 6 
#
# 1 78.7616 48.3246 58.8352 0.0000 0.0000 0.0000
# 2 48.3246 88.9924 63.6584 0.0000 0.0000 0.0000
# 3 58.8352 63.6584 148.6139 0.0000 0.0000 0.0000
# 4 0.0000 0.0000 0.0000 17.8616 0.0000 0.0000
# 5 0.0000 0.0000 0.0000 0.0000 30.2784 0.0000
# 6 0.0000 0.0000 0.0000 0.0000 0.0000 24.3582
#
#
#
# Elastic Compliance Matrix: (Units=1/GPa)
#
#
# Indices 1 2 3 4 5 6 
#
# 1 0.021364 -0.008003 -0.005030 0.000000 0.000000 0.000000
# 2 -0.008003 0.019199 -0.005055 0.000000 0.000000 0.000000
# 3 -0.005030 -0.005055 0.010886 0.000000 0.000000 0.000000
# 4 0.000000 0.000000 0.000000 0.055986 0.000000 0.000000
# 5 0.000000 0.000000 0.000000 0.000000 0.033027 0.000000
# 6 0.000000 0.000000 0.000000 0.000000 0.000000 0.041054
#
#
# Mechanical properties :
#
#
# Convention : Reuss Voigt Hill
#
# Bulk Modulus (GPa) = 65.47951 73.11160 69.29555
# Shear Modulus (GPa) = 22.44331 24.20295 23.32313
#
# Velocity S-wave (km/s) = 3.76934 3.91431 3.84251
# Velocity P-wave (km/s) = 7.77150 8.16780 7.97211
#
# Compressibility (1/GPa) = 0.01527195
#
# Stress axis : x y z
#
# Youngs Moduli (GPa) = 46.80711 52.08564 91.86455
#
# Poissons Ratio (x) = 0.41686 0.46206
# Poissons Ratio (y) = 0.37461 0.46442
# Poissons Ratio (z) = 0.23543 0.26332
#
# Static dielectric constant tensor:
#      x y z
#    x 1.525640 0.000000 0.000000 
#    y 0.000000 1.502920 0.000000 
#    z 0.000000 0.000000 1.525570 
# 
# From -- ./inp_files/18540.got.cif
#   From: 2010.05.17/outbox.cif.g08.bks.cpg/sg46_10_cif.got.tgz:18540.got - 2010.06.03 19:58:25.
