data_PCOD9379241
_publ_section_title
;
Structure prediction by ZEFSAII (Michael W. Deem and Ramdas Pophale) SiO2 
 PCOD9379241
Probable space group: I M A 2
;
_chemical_formula_sum "Si O2"
_cell_formula_units_Z 64
_cell_length_a 14.929719
_cell_length_b 14.505498
_cell_length_c 15.500552
_cell_angle_alpha 90.000000
_cell_angle_beta 90.000000
_cell_angle_gamma 90.000000
_cell_volume 3356.846184
_symmetry_space_group_name_H-M "I M A 2"
_symmetry_group_IT_number 46
_symmetry_cell_setting 'orthorhombic'
loop_
_space_group_symop_operation_xyz
x,y,z
-x,-y,z
1/2-x,y,z
1/2+x,-y,z
1/2+x,1/2+y,1/2+z
1/2-x,1/2-y,1/2+z
-x,1/2+y,1/2+z
x,1/2-y,1/2+z
loop_
_atom_site_type_symbol
_atom_site_label
_atom_site_fract_x
_atom_site_fract_y
_atom_site_fract_z
Si Si1 0.060341 0.408507 0.060400
Si Si2 0.849394 0.610879 0.242749
Si Si3 0.022296 0.775773 0.120556
Si Si4 0.060342 0.091492 0.367682
Si Si5 0.600327 0.458039 0.558358
Si Si6 0.600327 0.041961 0.869724
Si Si7 0.477704 0.724227 0.307526
Si Si8 0.349394 0.110879 0.185333
O O1 0.126007 0.402838 0.142425
O O2 0.999148 0.316970 0.069320
O O3 0.000000 0.500000 0.070367
O O4 0.100667 0.409831 0.964041
O O5 0.750000 0.649556 0.253304
O O6 0.853792 0.513518 0.292874
O O7 0.926655 0.674339 0.285404
O O8 0.060721 0.749999 0.214041
O O9 0.926655 0.825661 0.142678
O O10 0.085074 0.850350 0.075476
O O11 0.999149 0.183029 0.358761
O O12 0.126008 0.097161 0.285657
O O13 0.000000 0.000000 0.357715
O O14 0.500000 0.500000 0.556311
O O15 0.640915 0.474674 0.464041
O O16 0.646208 0.513519 0.635207
O O17 0.585073 0.149650 0.852607
O O18 0.500000 0.000000 0.871771
O O19 0.250000 0.149557 0.174778
#
# Coordination Sequence:
#
# PCOD9379241 Si02
#       8
#     8   8   8   8   8   8   8   8
#     4  10  20  34  53  75  99 133 175 211 243 287
#     4  10  20  33  50  77 109 133 158 200 256 311
#     4   9  17  31  53  76 100 131 167 207 250 295
#     4  10  20  34  53  75  99 133 175 211 243 287
#     4   9  17  31  51  73  98 131 170 208 245 289
#     4   9  17  31  51  73  98 131 170 208 245 289
#     4   9  17  31  53  76 100 131 167 207 250 295
#     4  10  20  33  50  77 109 133 158 200 256 311
#
# _framework density 19.065515000000001
#
# number of rings (size 3 to 8) (size 9 to 14) (size 15 to 20)
#    0.000    2.500    0.000    4.500    0.000    6.500 
#    0.000    0.000    0.000    6.750    0.000    7.000 
#    0.000    0.000    0.000    0.000    0.000    0.000 
#
# Total GULP energy -178359.678863 kJ/mol
# GULP energy per Si atom -5573.739964 kJ/mol
# Density = 1.902212 g / cm^3
# Si number density = 19.065515 Si / 1000 Ang^3
#
#
#
# Elastic Constant Matrix: (Units=GPa)
#
#
# Indices 1 2 3 4 5 6 
#
# 1 25.3850 7.3417 10.5286 0.0000 0.0000 0.0000
# 2 7.3417 125.1513 37.6589 0.0000 0.0000 0.0000
# 3 10.5286 37.6589 113.8366 0.0000 0.0000 0.0000
# 4 0.0000 0.0000 0.0000 11.8292 0.0000 0.0000
# 5 0.0000 0.0000 0.0000 0.0000 -2.9178 0.0000
# 6 0.0000 0.0000 0.0000 0.0000 0.0000 4.6193
#
#
#
# Elastic Compliance Matrix: (Units=1/GPa)
#
#
# Indices 1 2 3 4 5 6 
#
# 1 0.041188 -0.001410 -0.003343 0.000000 0.000000 0.000000
# 2 -0.001410 0.008922 -0.002821 0.000000 0.000000 0.000000
# 3 -0.003343 -0.002821 0.010027 0.000000 0.000000 0.000000
# 4 0.000000 0.000000 0.000000 0.084537 0.000000 0.000000
# 5 0.000000 0.000000 0.000000 0.000000 -0.342722 0.000000
# 6 0.000000 0.000000 0.000000 0.000000 0.000000 0.216485
#
#
# Mechanical properties :
#
#
# Convention : Reuss Voigt Hill
#
# Bulk Modulus (GPa) = 22.22805 41.71458 31.97131
# Shear Modulus (GPa) = 102.92191 16.62904 59.77547
#
# Velocity S-wave (km/s) = 7.35530 2.95652 5.60542
# Velocity P-wave (km/s) = 9.15522 5.79498 7.66159
#
# Compressibility (1/GPa) = 0.04498820
#
# Stress axis : x y z
#
# Youngs Moduli (GPa) = 24.27905 112.08324 99.73123
#
# Poissons Ratio (x) = 0.15807 0.33339
# Poissons Ratio (y) = 0.03424 0.28135
# Poissons Ratio (z) = 0.08116 0.31620
#
# Static dielectric constant tensor:
#      x y z
#    x 1.642640 0.000000 0.000000 
#    y 0.000000 1.686840 0.000000 
#    z 0.000000 0.000000 1.688350 
# 
# From -- ./inp_files/16863.got.cif
#   From: 2010.05.17/outbox.cif.g08.bks.cpg/sg46_9_cif.got.tgz:16863.got - 2010.06.03 19:58:25.
