data_PCOD9379994
_publ_section_title
;
Structure prediction by ZEFSAII (Michael W. Deem and Ramdas Pophale) SiO2 
 PCOD9379994
Probable space group: I M A 2
;
_chemical_formula_sum "Si O2"
_cell_formula_units_Z 36
_cell_length_a 10.106265
_cell_length_b 32.069416
_cell_length_c 5.892103
_cell_angle_alpha 90.000000
_cell_angle_beta 90.000000
_cell_angle_gamma 90.000000
_cell_volume 1909.642464
_symmetry_space_group_name_H-M "I M A 2"
_symmetry_group_IT_number 46
_symmetry_cell_setting 'orthorhombic'
loop_
_space_group_symop_operation_xyz
x,y,z
-x,-y,z
1/2-x,y,z
1/2+x,-y,z
1/2+x,1/2+y,1/2+z
1/2-x,1/2-y,1/2+z
-x,1/2+y,1/2+z
x,1/2-y,1/2+z
loop_
_atom_site_type_symbol
_atom_site_label
_atom_site_fract_x
_atom_site_fract_y
_atom_site_fract_z
Si Si1 0.591606 0.233317 0.506400
Si Si2 0.500000 0.500000 0.017098
Si Si3 0.891006 0.065427 0.193059
Si Si4 0.903155 0.575105 0.316162
Si Si5 0.600637 0.135468 0.562965
O O1 0.750000 0.242140 0.504736
O O2 0.542985 0.249274 0.255265
O O3 0.571982 0.183577 0.516122
O O4 0.401427 0.527355 0.866580
O O5 0.578345 0.534199 0.161892
O O6 0.750000 0.062558 0.066605
O O7 0.894193 0.108275 0.333755
O O8 0.021527 0.063683 0.045214
O O9 0.750000 0.585514 0.342243
O O10 0.989718 0.612921 0.212906
O O11 0.750000 0.133112 0.664319
#
# Coordination Sequence:
#
# PCOD9379994 Si02
#       5
#     8   4   8   8   8
#     4   9  18  32  57  91 122 152 196 253 306 354
#     4  10  22  38  56  78 108 146 196 242 288 346
#     4  10  21  36  56  80 110 149 191 240 293 349
#     4  11  23  37  57  83 114 151 190 238 292 354
#     4   9  20  37  58  84 115 151 192 240 292 350
#
# _framework density 18.851697000000001
#
# number of rings (size 3 to 8) (size 9 to 14) (size 15 to 20)
#    0.000    2.222    0.000    2.000    3.111    8.889 
#    0.000    0.000    0.000    1.333    0.000    0.000 
#    0.000    0.000    0.000    0.000    0.000    0.000 
#
# Total GULP energy -100290.033467 kJ/mol
# GULP energy per Si atom -5571.668526 kJ/mol
# Density = 1.880879 g / cm^3
# Si number density = 18.851697 Si / 1000 Ang^3
#
#
#
# Elastic Constant Matrix: (Units=GPa)
#
#
# Indices 1 2 3 4 5 6 
#
# 1 128.6401 42.4224 36.5356 0.0054 0.0046 -0.0114
# 2 42.4224 131.5805 59.3272 0.0023 0.0042 0.0045
# 3 36.5356 59.3272 92.7238 0.0236 0.0382 -0.0088
# 4 0.0054 0.0023 0.0236 -4.9049 -0.0033 0.0205
# 5 0.0046 0.0042 0.0382 -0.0033 18.6708 0.0067
# 6 -0.0114 0.0045 -0.0088 0.0205 0.0067 12.1203
#
#
#
# Elastic Compliance Matrix: (Units=1/GPa)
#
#
# Indices 1 2 3 4 5 6 
#
# 1 0.009060 -0.001843 -0.002391 -0.000002 0.000003 0.000007
# 2 -0.001843 0.011056 -0.006348 -0.000027 0.000011 -0.000010
# 3 -0.002391 -0.006348 0.015788 0.000071 -0.000030 0.000011
# 4 -0.000002 -0.000027 0.000071 -0.203877 -0.000036 0.000344
# 5 0.000003 0.000011 -0.000030 -0.000036 0.053560 -0.000030
# 6 0.000007 -0.000010 0.000011 0.000344 -0.000030 0.082506
#
#
# Mechanical properties :
#
#
# Convention : Reuss Voigt Hill
#
# Bulk Modulus (GPa) = 67.83593 69.94607 68.89100
# Shear Modulus (GPa) = -857.64715 19.48787 -419.07964
#
# Velocity S-wave (km/s) = -21.35256 3.21868 -14.92602
# Velocity P-wave (km/s) = 23.91332 7.14122 16.13769
#
# Compressibility (1/GPa) = 0.01474145
#
# Stress axis : x y z
#
# Youngs Moduli (GPa) = 110.36952 90.44624 63.33831
#
# Poissons Ratio (x) = 0.16671 0.15142
# Poissons Ratio (y) = 0.20344 0.40206
# Poissons Ratio (z) = 0.26386 0.57414
#
# Static dielectric constant tensor:
#      x y z
#    x 1.641180 0.000000 0.000000 
#    y 0.000000 1.624460 0.000000 
#    z 0.000000 0.000000 1.724710 
# 
# From -- ./inp_files/913.got.cif
#   From: 2010.05.17/outbox.cif.g08.bks.cpg/sg46_1_cif.got.tgz:913.got - 2010.06.03 19:58:25.
