data_PCOD9379192
_publ_section_title
;
Structure prediction by ZEFSAII (Michael W. Deem and Ramdas Pophale) SiO2 
 PCOD9379192
Probable space group: I M A 2
;
_chemical_formula_sum "Si O2"
_cell_formula_units_Z 64
_cell_length_a 8.686933
_cell_length_b 23.791893
_cell_length_c 19.780342
_cell_angle_alpha 90.000000
_cell_angle_beta 90.000000
_cell_angle_gamma 90.000000
_cell_volume 4088.173005
_symmetry_space_group_name_H-M "I M A 2"
_symmetry_group_IT_number 46
_symmetry_cell_setting 'orthorhombic'
loop_
_space_group_symop_operation_xyz
x,y,z
-x,-y,z
1/2-x,y,z
1/2+x,-y,z
1/2+x,1/2+y,1/2+z
1/2-x,1/2-y,1/2+z
-x,1/2+y,1/2+z
x,1/2-y,1/2+z
loop_
_atom_site_type_symbol
_atom_site_label
_atom_site_fract_x
_atom_site_fract_y
_atom_site_fract_z
Si Si1 0.934807 0.725057 0.531900
Si Si2 0.065282 0.938353 0.817567
Si Si3 0.436054 0.273315 0.826912
Si Si4 0.933809 0.166558 0.906440
Si Si5 0.437310 0.247080 0.679510
Si Si6 0.567019 0.438214 0.043560
Si Si7 0.434635 0.341760 0.953944
Si Si8 0.935296 0.615487 0.180641
O O1 0.750000 0.718184 0.529964
O O2 0.989006 0.725318 0.609330
O O3 0.966724 0.786980 0.500623
O O4 0.008602 0.680030 0.481711
O O5 0.250000 0.940588 0.813360
O O6 0.021351 0.893406 0.875363
O O7 0.000291 0.915048 0.746720
O O8 0.000000 0.000000 0.830545
O O9 0.250000 0.270986 0.828217
O O10 0.495784 0.215308 0.859097
O O11 0.487243 0.276119 0.749233
O O12 0.481048 0.322912 0.878348
O O13 0.750000 0.171147 0.904256
O O14 0.250000 0.247947 0.678209
O O15 0.481366 0.181273 0.681131
O O16 0.500000 0.500000 0.031548
O O17 0.750000 0.440951 0.049593
O O18 0.497014 0.413778 0.113121
O O19 0.518317 0.395189 0.984696
O O20 0.250000 0.350916 0.955993
O O21 0.750000 0.612830 0.181064
#
# Coordination Sequence:
#
# PCOD9379192 Si02
#       8
#     8   8   8   8   8   8   8   8
#     4   9  17  31  51  72  97 128 162 195 236 290
#     4  11  23  36  49  69  97 131 171 207 243 287
#     4   9  17  31  52  73  96 128 161 194 239 291
#     4  10  20  32  46  70  99 125 160 205 245 283
#     4   9  16  29  51  76  98 128 164 195 230 285
#     4  12  24  36  50  68  96 132 171 206 245 287
#     4   9  17  31  49  72  98 126 162 202 240 283
#     4  11  20  34  52  70  99 132 168 204 236 282
#
# _framework density 15.654915000000001
#
# number of rings (size 3 to 8) (size 9 to 14) (size 15 to 20)
#    0.000    2.000    2.500    3.375    0.000    3.500 
#    0.000    0.625    0.000    0.000    0.000    0.875 
#    0.000    2.000    0.000    0.000    0.000    0.000 
#
# Total GULP energy -178542.301329 kJ/mol
# GULP energy per Si atom -5579.446917 kJ/mol
# Density = 1.561928 g / cm^3
# Si number density = 15.654915 Si / 1000 Ang^3
#
#
#
# Elastic Constant Matrix: (Units=GPa)
#
#
# Indices 1 2 3 4 5 6 
#
# 1 40.8694 36.9862 34.7658 0.0000 0.0000 0.0000
# 2 36.9862 101.0502 76.5601 0.0000 0.0000 0.0000
# 3 34.7658 76.5601 152.2424 0.0000 0.0000 0.0000
# 4 0.0000 0.0000 0.0000 17.5245 0.0000 0.0000
# 5 0.0000 0.0000 0.0000 0.0000 19.6525 0.0000
# 6 0.0000 0.0000 0.0000 0.0000 0.0000 22.2111
#
#
#
# Elastic Compliance Matrix: (Units=1/GPa)
#
#
# Indices 1 2 3 4 5 6 
#
# 1 0.037245 -0.011613 -0.002665 0.000000 0.000000 0.000000
# 2 -0.011613 0.019608 -0.007209 0.000000 0.000000 0.000000
# 3 -0.002665 -0.007209 0.010802 0.000000 0.000000 0.000000
# 4 0.000000 0.000000 0.000000 0.057063 0.000000 0.000000
# 5 0.000000 0.000000 0.000000 0.000000 0.050884 0.000000
# 6 0.000000 0.000000 0.000000 0.000000 0.000000 0.045023
#
#
# Mechanical properties :
#
#
# Convention : Reuss Voigt Hill
#
# Bulk Modulus (GPa) = 40.51607 65.64291 53.07949
# Shear Modulus (GPa) = 18.39408 21.60093 19.99751
#
# Velocity S-wave (km/s) = 3.43150 3.71862 3.57794
# Velocity P-wave (km/s) = 6.45269 7.77558 7.14482
#
# Compressibility (1/GPa) = 0.02468156
#
# Stress axis : x y z
#
# Youngs Moduli (GPa) = 26.84924 50.99875 92.57329
#
# Poissons Ratio (x) = 0.59225 0.24673
# Poissons Ratio (y) = 0.31180 0.66734
# Poissons Ratio (z) = 0.07156 0.36764
#
# Static dielectric constant tensor:
#      x y z
#    x 1.526200 0.000000 0.000000 
#    y 0.000000 1.495780 0.000000 
#    z 0.000000 0.000000 1.537570 
# 
# From -- ./inp_files/21430.got.cif
#   From: 2010.05.17/outbox.cif.g08.bks.cpg/sg46_11_cif.got.tgz:21430.got - 2010.06.03 19:58:25.
