data_PCOD9379861
_publ_section_title
;
Structure prediction by ZEFSAII (Michael W. Deem and Ramdas Pophale) SiO2 
 PCOD9379861
Probable space group: I M A 2
;
_chemical_formula_sum "Si O2"
_cell_formula_units_Z 64
_cell_length_a 14.682610
_cell_length_b 12.554398
_cell_length_c 16.387718
_cell_angle_alpha 90.000000
_cell_angle_beta 90.000000
_cell_angle_gamma 90.000000
_cell_volume 3020.769848
_symmetry_space_group_name_H-M "I M A 2"
_symmetry_group_IT_number 46
_symmetry_cell_setting 'orthorhombic'
loop_
_space_group_symop_operation_xyz
x,y,z
-x,-y,z
1/2-x,y,z
1/2+x,-y,z
1/2+x,1/2+y,1/2+z
1/2-x,1/2-y,1/2+z
-x,1/2+y,1/2+z
x,1/2-y,1/2+z
loop_
_atom_site_type_symbol
_atom_site_label
_atom_site_fract_x
_atom_site_fract_y
_atom_site_fract_z
Si Si1 0.899374 0.455541 0.427020
Si Si2 0.861021 0.044759 0.574368
Si Si3 0.858802 0.209153 0.069410
Si Si4 0.139448 0.246337 0.292573
Si Si5 0.350587 0.373624 0.543507
Si Si6 0.858599 0.989915 0.756691
Si Si7 0.860505 0.653904 0.968976
Si Si8 0.513499 0.609833 0.677373
O O1 0.878643 0.359011 0.487842
O O2 0.843855 0.557086 0.461535
O O3 0.883014 0.433409 0.331916
O O4 0.000000 0.500000 0.434410
O O5 0.750000 0.038277 0.574358
O O6 0.882841 0.167078 0.555311
O O7 0.892817 0.017759 0.666466
O O8 0.892994 0.955680 0.509647
O O9 0.750000 0.200471 0.087579
O O10 0.922402 0.163944 0.142127
O O11 0.250000 0.236466 0.281750
O O12 0.115789 0.371143 0.285454
O O13 0.113751 0.190231 0.378154
O O14 0.079026 0.189534 0.224716
O O15 0.250000 0.369836 0.580813
O O16 0.383715 0.254608 0.525740
O O17 0.423522 0.426783 0.601398
O O18 0.750000 0.991248 0.750416
O O19 0.750000 0.650439 0.967997
O O20 0.500000 0.500000 0.726227
#
# Coordination Sequence:
#
# PCOD9379861 Si02
#       8
#     8   8   8   8   8   8   8   8
#     4  12  22  38  64  95 128 163 213 268 313 376
#     4   9  20  39  63  92 128 170 215 256 312 392
#     4  11  23  42  63  85 125 176 215 256 315 389
#     4  10  21  38  64  96 128 160 206 271 330 377
#     4  11  19  36  65  92 120 157 203 264 322 369
#     4  10  20  39  66  98 127 162 215 268 321 377
#     4   9  18  37  66  96 123 159 207 265 328 381
#     4  12  24  39  58  91 127 162 216 260 313 385
#
# _framework density 21.186651000000001
#
# number of rings (size 3 to 8) (size 9 to 14) (size 15 to 20)
#    0.000    1.500    3.750    2.250    0.000    3.500 
#    0.000    5.625    0.000    4.500    0.000    0.000 
#    0.000    0.000    0.000    0.000    0.000    0.000 
#
# Total GULP energy -178645.733003 kJ/mol
# GULP energy per Si atom -5582.679156 kJ/mol
# Density = 2.113843 g / cm^3
# Si number density = 21.186651 Si / 1000 Ang^3
#
#
#
# Elastic Constant Matrix: (Units=GPa)
#
#
# Indices 1 2 3 4 5 6 
#
# 1 81.1578 29.3587 14.7194 0.0000 0.0000 0.0000
# 2 29.3587 151.5910 58.5718 0.0000 0.0000 0.0000
# 3 14.7194 58.5718 89.0920 0.0000 0.0000 0.0000
# 4 0.0000 0.0000 0.0000 26.3383 0.0000 0.0000
# 5 0.0000 0.0000 0.0000 0.0000 18.6878 0.0000
# 6 0.0000 0.0000 0.0000 0.0000 0.0000 57.1287
#
#
#
# Elastic Compliance Matrix: (Units=1/GPa)
#
#
# Indices 1 2 3 4 5 6 
#
# 1 0.013280 -0.002311 -0.000675 0.000000 0.000000 0.000000
# 2 -0.002311 0.009245 -0.005696 0.000000 0.000000 0.000000
# 3 -0.000675 -0.005696 0.015081 0.000000 0.000000 0.000000
# 4 0.000000 0.000000 0.000000 0.037968 0.000000 0.000000
# 5 0.000000 0.000000 0.000000 0.000000 0.053511 0.000000
# 6 0.000000 0.000000 0.000000 0.000000 0.000000 0.017504
#
#
# Mechanical properties :
#
#
# Convention : Reuss Voigt Hill
#
# Bulk Modulus (GPa) = 49.40263 58.57117 53.98690
# Shear Modulus (GPa) = 29.29108 35.04368 32.16738
#
# Velocity S-wave (km/s) = 3.72227 4.07141 3.90075
# Velocity P-wave (km/s) = 6.46855 7.05742 6.76939
#
# Compressibility (1/GPa) = 0.02024184
#
# Stress axis : x y z
#
# Youngs Moduli (GPa) = 75.30036 108.16362 66.30997
#
# Poissons Ratio (x) = 0.25000 0.04473
# Poissons Ratio (y) = 0.17405 0.37772
# Poissons Ratio (z) = 0.05079 0.61613
#
# Static dielectric constant tensor:
#      x y z
#    x 1.899260 0.000000 0.000000 
#    y 0.000000 1.780000 0.000000 
#    z 0.000000 0.000000 1.792990 
# 
# From -- ./inp_files/19657.got.cif
#   From: 2010.05.17/outbox.cif.g08.bks.cpg/sg46_10_cif.got.tgz:19657.got - 2010.06.03 19:58:25.
