data_PCOD9379913
_publ_section_title
;
Structure prediction by ZEFSAII (Michael W. Deem and Ramdas Pophale) SiO2 
 PCOD9379913
Probable space group: I M A 2
;
_chemical_formula_sum "Si O2"
_cell_formula_units_Z 64
_cell_length_a 25.278182
_cell_length_b 9.335628
_cell_length_c 13.605066
_cell_angle_alpha 90.000000
_cell_angle_beta 90.000000
_cell_angle_gamma 90.000000
_cell_volume 3210.628284
_symmetry_space_group_name_H-M "I M A 2"
_symmetry_group_IT_number 46
_symmetry_cell_setting 'orthorhombic'
loop_
_space_group_symop_operation_xyz
x,y,z
-x,-y,z
1/2-x,y,z
1/2+x,-y,z
1/2+x,1/2+y,1/2+z
1/2-x,1/2-y,1/2+z
-x,1/2+y,1/2+z
x,1/2-y,1/2+z
loop_
_atom_site_type_symbol
_atom_site_label
_atom_site_fract_x
_atom_site_fract_y
_atom_site_fract_z
Si Si1 0.089042 0.208420 0.756100
Si Si2 0.310669 0.176538 0.957592
Si Si3 0.549636 0.110336 0.057007
Si Si4 0.310110 0.113665 0.188623
Si Si5 0.021079 0.139034 0.590685
Si Si6 0.096791 0.100144 0.418050
Si Si7 0.878750 0.132573 0.256666
Si Si8 0.879752 0.061681 0.860628
O O1 0.146197 0.279446 0.734470
O O2 0.052832 0.239461 0.664199
O O3 0.065911 0.284633 0.851456
O O4 0.092855 0.042958 0.781671
O O5 0.250000 0.211251 0.935256
O O6 0.348947 0.314277 0.943196
O O7 0.330806 0.039495 0.895312
O O8 0.314326 0.131838 0.071667
O O9 0.524115 0.266510 0.043288
O O10 0.581951 0.118805 0.161466
O O11 0.500000 0.000000 0.060059
O O12 0.586329 0.079100 0.961605
O O13 0.250000 0.146111 0.217805
O O14 0.326736 0.953603 0.220266
O O15 0.063086 0.078339 0.514018
O O16 0.000000 0.000000 0.645473
O O17 0.102407 0.963004 0.349411
O O18 0.870143 0.290000 0.302655
#
# Coordination Sequence:
#
# PCOD9379913 Si02
#       8
#     8   8   8   8   8   8   8   8
#     4  10  22  39  63  90 120 158 212 251 294 361
#     4  10  20  41  69  90 118 160 204 252 308 366
#     4  12  24  40  62  85 126 167 208 250 306 361
#     4  10  20  41  69  90 118 160 204 252 308 366
#     4  12  24  38  58  87 124 163 204 256 302 351
#     4  10  22  39  63  90 120 158 212 251 294 361
#     4  11  24  40  61  93 127 160 199 252 314 373
#     4  11  24  40  61  93 127 160 199 252 314 373
#
# _framework density 19.933792
#
# number of rings (size 3 to 8) (size 9 to 14) (size 15 to 20)
#    0.000    1.250    2.500    4.500    0.000   11.000 
#    0.000    0.000    0.000    3.000    0.000    0.000 
#    0.000    0.000    0.000    0.000    0.000    0.000 
#
# Total GULP energy -178407.630269 kJ/mol
# GULP energy per Si atom -5575.238446 kJ/mol
# Density = 1.988842 g / cm^3
# Si number density = 19.933792 Si / 1000 Ang^3
#
#
#
# Elastic Constant Matrix: (Units=GPa)
#
#
# Indices 1 2 3 4 5 6 
#
# 1 78.3421 29.0921 42.1545 0.0000 0.0000 0.0000
# 2 29.0921 124.6540 22.6458 0.0000 0.0000 0.0000
# 3 42.1545 22.6458 96.8097 0.0000 0.0000 0.0000
# 4 0.0000 0.0000 0.0000 33.0703 0.0000 0.0000
# 5 0.0000 0.0000 0.0000 0.0000 -56.5262 0.0000
# 6 0.0000 0.0000 0.0000 0.0000 0.0000 9.9689
#
#
#
# Elastic Compliance Matrix: (Units=1/GPa)
#
#
# Indices 1 2 3 4 5 6 
#
# 1 0.017578 -0.002832 -0.006992 0.000000 0.000000 0.000000
# 2 -0.002832 0.008835 -0.000833 0.000000 0.000000 0.000000
# 3 -0.006992 -0.000833 0.013569 0.000000 0.000000 0.000000
# 4 0.000000 0.000000 0.000000 0.030239 0.000000 0.000000
# 5 0.000000 0.000000 0.000000 0.000000 -0.017691 0.000000
# 6 0.000000 0.000000 0.000000 0.000000 0.000000 0.100312
#
#
# Mechanical properties :
#
#
# Convention : Reuss Voigt Hill
#
# Bulk Modulus (GPa) = 53.56984 54.17674 53.87329
# Shear Modulus (GPa) = 27.71940 11.03014 19.37477
#
# Velocity S-wave (km/s) = 3.73308 2.35487 3.12100
# Velocity P-wave (km/s) = 6.74637 5.88483 6.33027
#
# Compressibility (1/GPa) = 0.01866722
#
# Stress axis : x y z
#
# Youngs Moduli (GPa) = 56.88786 113.19119 73.69769
#
# Poissons Ratio (x) = 0.32059 0.51528
# Poissons Ratio (y) = 0.16112 0.06141
# Poissons Ratio (z) = 0.39775 0.09432
#
# Static dielectric constant tensor:
#      x y z
#    x 1.718070 0.000000 0.000000 
#    y 0.000000 1.715540 0.000000 
#    z 0.000000 0.000000 1.723050 
# 
# From -- ./inp_files/17398.got.cif
#   From: 2010.05.17/outbox.cif.g08.bks.cpg/sg46_9_cif.got.tgz:17398.got - 2010.06.03 19:58:25.
