data_PCOD9379541
_publ_section_title
;
Structure prediction by ZEFSAII (Michael W. Deem and Ramdas Pophale) SiO2 
 PCOD9379541
Probable space group: I M A 2
;
_chemical_formula_sum "Si O2"
_cell_formula_units_Z 64
_cell_length_a 15.078938
_cell_length_b 8.994811
_cell_length_c 22.127168
_cell_angle_alpha 90.000000
_cell_angle_beta 90.000000
_cell_angle_gamma 90.000000
_cell_volume 3001.156418
_symmetry_space_group_name_H-M "I M A 2"
_symmetry_group_IT_number 46
_symmetry_cell_setting 'orthorhombic'
loop_
_space_group_symop_operation_xyz
x,y,z
-x,-y,z
1/2-x,y,z
1/2+x,-y,z
1/2+x,1/2+y,1/2+z
1/2-x,1/2-y,1/2+z
-x,1/2+y,1/2+z
x,1/2-y,1/2+z
loop_
_atom_site_type_symbol
_atom_site_label
_atom_site_fract_x
_atom_site_fract_y
_atom_site_fract_z
Si Si1 0.098055 0.931613 0.859850
Si Si2 0.972881 0.346616 0.801548
Si Si3 0.150211 0.284368 0.132613
Si Si4 0.847907 0.160409 0.057320
Si Si5 0.847933 0.606975 0.473099
Si Si6 0.851138 0.660088 0.262152
Si Si7 0.901742 0.462124 0.674132
Si Si8 0.979148 0.669472 0.018754
O O1 0.084794 0.760896 0.843065
O O2 0.143820 0.983659 0.921063
O O3 0.143396 0.016915 0.804603
O O4 0.000000 0.000000 0.864615
O O5 0.919274 0.397374 0.740886
O O6 0.000000 0.500000 0.832801
O O7 0.064716 0.263175 0.781617
O O8 0.250000 0.305187 0.108924
O O9 0.135629 0.383939 0.192184
O O10 0.079400 0.317331 0.080579
O O11 0.145397 0.120510 0.164282
O O12 0.750000 0.212127 0.039879
O O13 0.857783 0.154805 0.129424
O O14 0.927495 0.251302 0.029545
O O15 0.856877 0.989569 0.034228
O O16 0.750000 0.673761 0.470066
O O17 0.922495 0.732714 0.471359
O O18 0.750000 0.722505 0.268591
O O19 0.000000 0.500000 0.649887
O O20 0.000000 0.500000 0.003352
#
# Coordination Sequence:
#
# PCOD9379541 Si02
#       8
#     8   8   8   8   8   8   8   8
#     4  10  22  40  65  92 126 173 225 271 332 403
#     4  10  20  38  63  94 131 175 217 277 339 405
#     4  11  21  37  62  95 134 180 224 268 334 410
#     4  11  22  38  65  95 128 173 225 274 328 398
#     4  11  23  45  71  93 126 178 229 274 333 408
#     4  10  20  36  57  89 134 181 225 269 327 406
#     4  11  17  35  62  93 133 176 219 267 336 401
#     4  12  25  41  65  96 133 174 220 283 341 398
#
# _framework density 21.325113000000002
#
# number of rings (size 3 to 8) (size 9 to 14) (size 15 to 20)
#    0.000    1.250    5.000    2.250    0.000    3.500 
#    0.000   10.625    0.000    1.500    0.000    0.000 
#    0.000    0.000    0.000    0.000    0.000    0.000 
#
# Total GULP energy -178621.657142 kJ/mol
# GULP energy per Si atom -5581.926786 kJ/mol
# Density = 2.127658 g / cm^3
# Si number density = 21.325113 Si / 1000 Ang^3
#
#
#
# Elastic Constant Matrix: (Units=GPa)
#
#
# Indices 1 2 3 4 5 6 
#
# 1 132.3392 38.2414 22.8358 0.0000 0.0000 0.0000
# 2 38.2414 108.4326 43.0232 0.0000 0.0000 0.0000
# 3 22.8358 43.0232 79.9685 0.0000 0.0000 0.0000
# 4 0.0000 0.0000 0.0000 22.9612 0.0000 0.0000
# 5 0.0000 0.0000 0.0000 0.0000 82.7065 0.0000
# 6 0.0000 0.0000 0.0000 0.0000 0.0000 -30.8417
#
#
#
# Elastic Compliance Matrix: (Units=1/GPa)
#
#
# Indices 1 2 3 4 5 6 
#
# 1 0.008480 -0.002581 -0.001033 0.000000 0.000000 0.000000
# 2 -0.002581 0.012511 -0.005994 0.000000 0.000000 0.000000
# 3 -0.001033 -0.005994 0.016025 0.000000 0.000000 0.000000
# 4 0.000000 0.000000 0.000000 0.043552 0.000000 0.000000
# 5 0.000000 0.000000 0.000000 0.000000 0.012091 0.000000
# 6 0.000000 0.000000 0.000000 0.000000 0.000000 -0.032424
#
#
# Mechanical properties :
#
#
# Convention : Reuss Voigt Hill
#
# Bulk Modulus (GPa) = 56.17950 58.77124 57.47537
# Shear Modulus (GPa) = 58.55913 29.40786 43.98350
#
# Velocity S-wave (km/s) = 5.24593 3.71755 4.54643
# Velocity P-wave (km/s) = 7.94321 6.78575 7.38718
#
# Compressibility (1/GPa) = 0.01780009
#
# Stress axis : x y z
#
# Youngs Moduli (GPa) = 117.91893 79.93153 62.40403
#
# Poissons Ratio (x) = 0.20629 0.06447
# Poissons Ratio (y) = 0.30434 0.37404
# Poissons Ratio (z) = 0.12183 0.47909
#
# Static dielectric constant tensor:
#      x y z
#    x 1.773790 0.000000 0.000000 
#    y 0.000000 1.801530 0.000000 
#    z 0.000000 0.000000 1.829240 
# 
# From -- ./inp_files/23694.got.cif
#   From: 2010.05.17/outbox.cif.g08.bks.cpg/sg46_12_cif.got.tgz:23694.got - 2010.06.03 19:58:25.
