data_PCOD9379726
_publ_section_title
;
Structure prediction by ZEFSAII (Michael W. Deem and Ramdas Pophale) SiO2 
 PCOD9379726
Probable space group: I M A 2
;
_chemical_formula_sum "Si O2"
_cell_formula_units_Z 60
_cell_length_a 15.778304
_cell_length_b 9.345242
_cell_length_c 18.040143
_cell_angle_alpha 90.000000
_cell_angle_beta 90.000000
_cell_angle_gamma 90.000000
_cell_volume 2660.056415
_symmetry_space_group_name_H-M "I M A 2"
_symmetry_group_IT_number 46
_symmetry_cell_setting 'orthorhombic'
loop_
_space_group_symop_operation_xyz
x,y,z
-x,-y,z
1/2-x,y,z
1/2+x,-y,z
1/2+x,1/2+y,1/2+z
1/2-x,1/2-y,1/2+z
-x,1/2+y,1/2+z
x,1/2-y,1/2+z
loop_
_atom_site_type_symbol
_atom_site_label
_atom_site_fract_x
_atom_site_fract_y
_atom_site_fract_z
Si Si1 0.151557 0.329111 0.220060
Si Si2 0.147021 0.111072 0.444908
Si Si3 0.080297 0.777492 0.196552
Si Si4 0.091046 0.940275 0.832731
Si Si5 0.352600 0.972548 0.595039
Si Si6 0.349397 0.053476 0.978731
Si Si7 0.000000 0.000000 0.094057
Si Si8 0.850521 0.538351 0.785263
O O1 0.250000 0.303395 0.202764
O O2 0.143694 0.445000 0.284864
O O3 0.112307 0.401925 0.148396
O O4 0.115111 0.182728 0.249189
O O5 0.250000 0.104710 0.445913
O O6 0.129391 0.282212 0.451873
O O7 0.115135 0.040204 0.368839
O O8 0.117120 0.014992 0.513722
O O9 0.069347 0.682214 0.271859
O O10 0.122825 0.672395 0.136446
O O11 0.133671 0.906672 0.232094
O O12 0.013020 0.863235 0.146707
O O13 0.139245 0.938024 0.911538
O O14 0.000000 0.000000 0.854552
O O15 0.250000 0.976585 0.594714
O O16 0.250000 0.053774 0.001853
O O17 0.416277 0.017351 0.043080
O O18 0.750000 0.553810 0.793082
#
# Coordination Sequence:
#
# PCOD9379726 Si02
#       8
#     8   8   8   8   8   8   4   8
#     4   9  18  35  64  98 134 183 242 296 355 442
#     4   9  19  37  68 105 139 184 249 305 362 444
#     4  11  27  42  65 100 155 197 235 312 373 453
#     4  11  23  43  72 102 139 189 245 304 369 439
#     4   9  19  38  64 100 142 191 250 304 368 441
#     4  11  24  47  78 108 147 198 251 315 378 452
#     4  12  30  48  68 112 158 196 258 308 390 468
#     4  10  20  37  65 101 138 183 239 298 364 440
#
# _framework density 22.555913
#
# number of rings (size 3 to 8) (size 9 to 14) (size 15 to 20)
#    0.000    1.867    2.000    0.800    3.733    4.800 
#    0.000    1.333    0.000    0.000    0.000    0.000 
#    0.000    0.000    0.000    0.000    0.000    0.000 
#
# Total GULP energy -167291.141408 kJ/mol
# GULP energy per Si atom -5576.371380 kJ/mol
# Density = 2.250458 g / cm^3
# Si number density = 22.555913 Si / 1000 Ang^3
#
#
#
# Elastic Constant Matrix: (Units=GPa)
#
#
# Indices 1 2 3 4 5 6 
#
# 1 58.4906 27.6271 55.8186 0.0000 0.0000 0.0000
# 2 27.6271 110.3099 80.8483 0.0000 0.0000 0.0000
# 3 55.8186 80.8483 193.4873 0.0000 0.0000 0.0000
# 4 0.0000 0.0000 0.0000 29.1477 0.0000 0.0000
# 5 0.0000 0.0000 0.0000 0.0000 30.8255 0.0000
# 6 0.0000 0.0000 0.0000 0.0000 0.0000 23.2150
#
#
#
# Elastic Compliance Matrix: (Units=1/GPa)
#
#
# Indices 1 2 3 4 5 6 
#
# 1 0.023727 -0.001334 -0.006287 0.000000 0.000000 0.000000
# 2 -0.001334 0.013142 -0.005107 0.000000 0.000000 0.000000
# 3 -0.006287 -0.005107 0.009116 0.000000 0.000000 0.000000
# 4 0.000000 0.000000 0.000000 0.034308 0.000000 0.000000
# 5 0.000000 0.000000 0.000000 0.000000 0.032441 0.000000
# 6 0.000000 0.000000 0.000000 0.000000 0.000000 0.043076
#
#
# Mechanical properties :
#
#
# Convention : Reuss Voigt Hill
#
# Bulk Modulus (GPa) = 48.71203 76.76396 62.73799
# Shear Modulus (GPa) = 26.58030 29.83722 28.20876
#
# Velocity S-wave (km/s) = 3.43653 3.64099 3.54024
# Velocity P-wave (km/s) = 6.11468 7.19600 6.67727
#
# Compressibility (1/GPa) = 0.02052881
#
# Stress axis : x y z
#
# Youngs Moduli (GPa) = 42.14567 76.09069 109.69836
#
# Poissons Ratio (x) = 0.10152 0.68973
# Poissons Ratio (y) = 0.05623 0.56018
# Poissons Ratio (z) = 0.26499 0.38856
#
# Static dielectric constant tensor:
#      x y z
#    x 1.855690 0.000000 0.000000 
#    y 0.000000 1.851400 0.000000 
#    z 0.000000 0.000000 1.873220 
# 
# From -- ./inp_files/19962.got.cif
#   From: 2010.05.17/outbox.cif.g08.bks.cpg/sg46_10_cif.got.tgz:19962.got - 2010.06.03 19:58:25.
