data_PCOD9379756
_publ_section_title
;
Structure prediction by ZEFSAII (Michael W. Deem and Ramdas Pophale) SiO2 
 PCOD9379756
Probable space group: I M A 2
;
_chemical_formula_sum "Si O2"
_cell_formula_units_Z 48
_cell_length_a 8.591831
_cell_length_b 19.524166
_cell_length_c 15.289416
_cell_angle_alpha 90.000000
_cell_angle_beta 90.000000
_cell_angle_gamma 90.000000
_cell_volume 2564.774072
_symmetry_space_group_name_H-M "I M A 2"
_symmetry_group_IT_number 46
_symmetry_cell_setting 'orthorhombic'
loop_
_space_group_symop_operation_xyz
x,y,z
-x,-y,z
1/2-x,y,z
1/2+x,-y,z
1/2+x,1/2+y,1/2+z
1/2-x,1/2-y,1/2+z
-x,1/2+y,1/2+z
x,1/2-y,1/2+z
loop_
_atom_site_type_symbol
_atom_site_label
_atom_site_fract_x
_atom_site_fract_y
_atom_site_fract_z
Si Si1 0.435596 0.328386 0.397880
Si Si2 0.562414 0.325124 0.890862
Si Si3 0.436398 0.425039 0.743236
Si Si4 0.562617 0.075603 0.747171
Si Si5 0.063777 0.574436 0.547638
Si Si6 0.563036 0.425276 0.045511
O O1 0.250000 0.330279 0.404060
O O2 0.494970 0.250842 0.393545
O O3 0.491475 0.369177 0.312124
O O4 0.508423 0.368112 0.480435
O O5 0.750000 0.322177 0.888207
O O6 0.501220 0.367693 0.808016
O O7 0.513349 0.367706 0.977132
O O8 0.500000 0.500000 0.770174
O O9 0.250000 0.426123 0.744335
O O10 0.496295 0.413183 0.644536
O O11 0.750000 0.076231 0.753913
O O12 0.517142 0.088858 0.645986
O O13 0.500000 0.000000 0.769867
O O14 0.250000 0.571796 0.551607
O O15 0.000000 0.500000 0.518742
O O16 0.500000 0.500000 0.020626
O O17 0.750000 0.428504 0.043597
#
# Coordination Sequence:
#
# PCOD9379756 Si02
#       6
#     8   8   8   8   8   8
#     4  12  25  40  57  84 119 157 196 241 294 351
#     4  11  23  40  59  85 119 158 197 239 291 349
#     4  11  22  39  62  90 119 153 195 243 293 348
#     4  10  20  38  61  87 115 149 192 240 289 345
#     4  11  22  40  64  89 116 152 195 244 294 349
#     4   9  20  37  61  87 114 147 189 235 283 336
#
# _framework density 18.715098999999999
#
# number of rings (size 3 to 8) (size 9 to 14) (size 15 to 20)
#    0.000    1.333    0.000    7.500    0.000    4.667 
#    0.000    5.000    0.000    0.000    0.000    0.000 
#    0.000    0.000    0.000    0.000    0.000    0.000 
#
# Total GULP energy -134230.072579 kJ/mol
# GULP energy per Si atom -5592.919691 kJ/mol
# Density = 1.867250 g / cm^3
# Si number density = 18.715099 Si / 1000 Ang^3
#
#
#
# Elastic Constant Matrix: (Units=GPa)
#
#
# Indices 1 2 3 4 5 6 
#
# 1 120.4077 51.6578 39.5108 0.0000 0.0003 0.0000
# 2 51.6578 178.0965 103.1703 0.0000 0.0002 0.0000
# 3 39.5108 103.1703 101.8960 0.0000 -0.0009 0.0000
# 4 0.0000 0.0000 0.0000 -28.2296 -0.0008 0.0000
# 5 0.0003 0.0002 -0.0009 -0.0008 4005.1962 -0.0002
# 6 0.0000 0.0000 0.0000 0.0000 -0.0002 37.8603
#
#
#
# Elastic Compliance Matrix: (Units=1/GPa)
#
#
# Indices 1 2 3 4 5 6 
#
# 1 0.009686 -0.001533 -0.002204 0.000000 0.000000 0.000000
# 2 -0.001533 0.013823 -0.013401 0.000000 0.000000 0.000000
# 3 -0.002204 -0.013401 0.024237 0.000000 0.000000 0.000000
# 4 0.000000 0.000000 0.000000 -0.035424 0.000000 0.000000
# 5 0.000000 0.000000 0.000000 0.000000 0.000250 0.000000
# 6 0.000000 0.000000 0.000000 0.000000 0.000000 0.026413
#
#
# Mechanical properties :
#
#
# Convention : Reuss Voigt Hill
#
# Bulk Modulus (GPa) = 74.23774 87.67535 80.95655
# Shear Modulus (GPa) = 64.30787 816.70281 440.50534
#
# Velocity S-wave (km/s) = 5.86823 20.91254 15.35856
# Velocity P-wave (km/s) = 9.25571 25.10103 18.91732
#
# Compressibility (1/GPa) = 0.01347024
#
# Stress axis : x y z
#
# Youngs Moduli (GPa) = 103.24310 72.34381 41.25846
#
# Poissons Ratio (x) = 0.11089 0.09093
# Poissons Ratio (y) = 0.15825 0.55292
# Poissons Ratio (z) = 0.22753 0.96951
#
# Static dielectric constant tensor:
#      x y z
#    x 1.614010 0.000000 0.000000 
#    y 0.000000 1.604660 0.000000 
#    z 0.000000 0.000000 1.645110 
# 
# From -- ./inp_files/13907.got.cif
#   From: 2010.05.17/outbox.cif.g08.bks.cpg/sg46_7_cif.got.tgz:13907.got - 2010.06.03 19:58:25.
