data_PCOD9379314
_publ_section_title
;
Structure prediction by ZEFSAII (Michael W. Deem and Ramdas Pophale) SiO2 
 PCOD9379314
Probable space group: I M A 2
;
_chemical_formula_sum "Si O2"
_cell_formula_units_Z 56
_cell_length_a 8.473338
_cell_length_b 20.849319
_cell_length_c 15.698154
_cell_angle_alpha 90.000000
_cell_angle_beta 90.000000
_cell_angle_gamma 90.000000
_cell_volume 2773.288113
_symmetry_space_group_name_H-M "I M A 2"
_symmetry_group_IT_number 46
_symmetry_cell_setting 'orthorhombic'
loop_
_space_group_symop_operation_xyz
x,y,z
-x,-y,z
1/2-x,y,z
1/2+x,-y,z
1/2+x,1/2+y,1/2+z
1/2-x,1/2-y,1/2+z
-x,1/2+y,1/2+z
x,1/2-y,1/2+z
loop_
_atom_site_type_symbol
_atom_site_label
_atom_site_fract_x
_atom_site_fract_y
_atom_site_fract_z
Si Si1 0.436604 0.572607 0.160120
Si Si2 0.070144 0.118320 0.010043
Si Si3 0.066003 0.304956 0.078750
Si Si4 0.557800 0.285771 0.733599
Si Si5 0.435116 0.928457 0.183757
Si Si6 0.067296 0.566500 0.345477
Si Si7 0.064704 0.744672 0.423297
O O1 0.500000 0.500000 0.148745
O O2 0.250000 0.572903 0.139026
O O3 0.539459 0.622702 0.108689
O O4 0.443058 0.603466 0.256708
O O5 0.250000 0.118741 0.039168
O O6 0.045218 0.079898 0.923537
O O7 0.016332 0.187025 0.975207
O O8 0.967353 0.087245 0.084243
O O9 0.250000 0.291289 0.063962
O O10 0.005479 0.255789 0.153267
O O11 0.969275 0.300298 0.990504
O O12 0.750000 0.284250 0.728846
O O13 0.507215 0.361190 0.726751
O O14 0.509866 0.258317 0.826790
O O15 0.250000 0.931674 0.200150
O O16 0.500000 0.000000 0.203704
O O17 0.250000 0.566479 0.372681
O O18 0.000000 0.500000 0.313762
O O19 0.250000 0.729863 0.417684
#
# Coordination Sequence:
#
# PCOD9379314 Si02
#       7
#     8   8   8   8   8   8   8
#     4  10  21  38  60  86 120 161 206 254 312 374
#     4  12  23  36  56  88 122 158 203 256 318 380
#     4  12  24  39  63  94 127 163 206 259 318 380
#     4  10  23  43  67  92 124 170 217 266 324 385
#     4  11  23  41  64  90 125 169 215 268 327 389
#     4  10  20  34  53  80 115 156 196 242 299 364
#     4  11  23  41  64  90 121 161 212 263 317 380
#
# _framework density 20.192637000000001
#
# number of rings (size 3 to 8) (size 9 to 14) (size 15 to 20)
#    0.000    1.143    1.429    5.571    0.000    6.857 
#    0.000    0.714    0.000    1.714    0.000    0.000 
#    0.000    0.000    0.000    0.000    0.000    0.000 
#
# Total GULP energy -156005.341771 kJ/mol
# GULP energy per Si atom -5571.619349 kJ/mol
# Density = 2.014668 g / cm^3
# Si number density = 20.192637 Si / 1000 Ang^3
#
#
#
# Elastic Constant Matrix: (Units=GPa)
#
#
# Indices 1 2 3 4 5 6 
#
# 1 37.8190 9.5030 2.2754 0.0000 0.0000 0.0000
# 2 9.5030 101.1378 18.2234 0.0000 0.0000 0.0000
# 3 2.2754 18.2234 66.8429 0.0000 0.0000 0.0000
# 4 0.0000 0.0000 0.0000 32.1103 0.0000 0.0000
# 5 0.0000 0.0000 0.0000 0.0000 11.7252 0.0000
# 6 0.0000 0.0000 0.0000 0.0000 0.0000 32.7467
#
#
#
# Elastic Compliance Matrix: (Units=1/GPa)
#
#
# Indices 1 2 3 4 5 6 
#
# 1 0.027085 -0.002502 -0.000240 0.000000 0.000000 0.000000
# 2 -0.002502 0.010629 -0.002813 0.000000 0.000000 0.000000
# 3 -0.000240 -0.002813 0.015735 0.000000 0.000000 0.000000
# 4 0.000000 0.000000 0.000000 0.031143 0.000000 0.000000
# 5 0.000000 0.000000 0.000000 0.000000 0.085286 0.000000
# 6 0.000000 0.000000 0.000000 0.000000 0.000000 0.030537
#
#
# Mechanical properties :
#
#
# Convention : Reuss Voigt Hill
#
# Bulk Modulus (GPa) = 23.61784 29.53370 26.57577
# Shear Modulus (GPa) = 22.15933 27.03629 24.59781
#
# Velocity S-wave (km/s) = 3.31629 3.66309 3.49400
# Velocity P-wave (km/s) = 5.13667 5.70515 5.42836
#
# Compressibility (1/GPa) = 0.04234088
#
# Stress axis : x y z
#
# Youngs Moduli (GPa) = 36.92105 94.07900 63.55075
#
# Poissons Ratio (x) = 0.23536 0.01525
# Poissons Ratio (y) = 0.09236 0.17875
# Poissons Ratio (z) = 0.00886 0.26462
#
# Static dielectric constant tensor:
#      x y z
#    x 1.701170 0.000000 0.000000 
#    y 0.000000 1.686230 0.000000 
#    z 0.000000 0.000000 1.924990 
# 
# From -- ./inp_files/14168.got.cif
#   From: 2010.05.17/outbox.cif.g08.bks.cpg/sg46_8_cif.got.tgz:14168.got - 2010.06.03 19:58:25.
