data_PCOD9379134
_publ_section_title
;
Structure prediction by ZEFSAII (Michael W. Deem and Ramdas Pophale) SiO2 
 PCOD9379134
Probable space group: I M A 2
;
_chemical_formula_sum "Si O2"
_cell_formula_units_Z 44
_cell_length_a 13.693734
_cell_length_b 11.681900
_cell_length_c 14.603183
_cell_angle_alpha 90.000000
_cell_angle_beta 90.000000
_cell_angle_gamma 90.000000
_cell_volume 2336.054117
_symmetry_space_group_name_H-M "I M A 2"
_symmetry_group_IT_number 46
_symmetry_cell_setting 'orthorhombic'
loop_
_space_group_symop_operation_xyz
x,y,z
-x,-y,z
1/2-x,y,z
1/2+x,-y,z
1/2+x,1/2+y,1/2+z
1/2-x,1/2-y,1/2+z
-x,1/2+y,1/2+z
x,1/2-y,1/2+z
loop_
_atom_site_type_symbol
_atom_site_label
_atom_site_fract_x
_atom_site_fract_y
_atom_site_fract_z
Si Si1 0.444105 0.183955 0.400870
Si Si2 0.862588 0.905731 0.585156
Si Si3 0.363594 0.803050 0.190773
Si Si4 0.514333 0.868536 0.766001
Si Si5 0.500000 0.500000 0.764246
Si Si6 0.861057 0.160480 0.509206
O O1 0.383790 0.165179 0.493024
O O2 0.428798 0.299060 0.344191
O O3 0.556884 0.178716 0.433962
O O4 0.433451 0.078810 0.330436
O O5 0.750000 0.896684 0.611438
O O6 0.928466 0.866967 0.669536
O O7 0.881810 0.038370 0.558315
O O8 0.250000 0.821173 0.214727
O O9 0.413729 0.700200 0.248321
O O10 0.431246 0.913709 0.207825
O O11 0.367140 0.758469 0.086194
O O12 0.500000 0.000000 0.791152
O O13 0.750000 0.155393 0.473861
#
# Coordination Sequence:
#
# PCOD9379134 Si02
#       6
#     8   8   8   8   4   8
#     4  11  21  38  60  90 125 159 205 257 317 364
#     4  11  21  38  62  87 121 161 210 257 303 367
#     4  10  21  39  66  92 120 165 211 254 309 373
#     4  11  22  39  62  91 126 165 206 258 309 367
#     4  10  22  36  60  96 128 154 202 270 314 370
#     4  10  19  37  66  91 119 161 210 256 303 369
#
# _framework density 18.835180999999999
#
# number of rings (size 3 to 8) (size 9 to 14) (size 15 to 20)
#    0.000    1.455    5.455    0.000    0.000    4.364 
#    1.636    2.727    0.000    0.000    0.000    0.000 
#    0.000    0.000    0.000    0.000    0.000    0.000 
#
# Total GULP energy -122832.823154 kJ/mol
# GULP energy per Si atom -5583.310143 kJ/mol
# Density = 1.879231 g / cm^3
# Si number density = 18.835181 Si / 1000 Ang^3
#
#
#
# Elastic Constant Matrix: (Units=GPa)
#
#
# Indices 1 2 3 4 5 6 
#
# 1 83.9453 35.2823 23.3037 0.0000 0.0000 0.0000
# 2 35.2823 127.2991 45.8958 0.0000 0.0000 0.0000
# 3 23.3037 45.8958 75.3697 0.0000 0.0000 0.0000
# 4 0.0000 0.0000 0.0000 31.9791 0.0000 0.0000
# 5 0.0000 0.0000 0.0000 0.0000 9.2293 0.0000
# 6 0.0000 0.0000 0.0000 0.0000 0.0000 24.7178
#
#
#
# Elastic Compliance Matrix: (Units=1/GPa)
#
#
# Indices 1 2 3 4 5 6 
#
# 1 0.013838 -0.002938 -0.002490 0.000000 0.000000 0.000000
# 2 -0.002938 0.010689 -0.005601 0.000000 0.000000 0.000000
# 3 -0.002490 -0.005601 0.017448 0.000000 0.000000 0.000000
# 4 0.000000 0.000000 0.000000 0.031270 0.000000 0.000000
# 5 0.000000 0.000000 0.000000 0.000000 0.108351 0.000000
# 6 0.000000 0.000000 0.000000 0.000000 0.000000 0.040457
#
#
# Mechanical properties :
#
#
# Convention : Reuss Voigt Hill
#
# Bulk Modulus (GPa) = 50.20280 55.06420 52.63350
# Shear Modulus (GPa) = 19.94021 25.32739 22.63380
#
# Velocity S-wave (km/s) = 3.25725 3.67097 3.47028
# Velocity P-wave (km/s) = 6.39201 6.87505 6.63793
#
# Compressibility (1/GPa) = 0.01991921
#
# Stress axis : x y z
#
# Youngs Moduli (GPa) = 72.26229 93.55418 57.31243
#
# Poissons Ratio (x) = 0.27485 0.14270
# Poissons Ratio (y) = 0.21229 0.32099
# Poissons Ratio (z) = 0.17992 0.52396
#
# Static dielectric constant tensor:
#      x y z
#    x 1.661510 0.000000 0.000000 
#    y 0.000000 1.652860 0.000000 
#    z 0.000000 0.000000 1.668530 
# 
# From -- ./inp_files/15785.got.cif
#   From: 2010.05.17/outbox.cif.g08.bks.cpg/sg46_8_cif.got.tgz:15785.got - 2010.06.03 19:58:25.
