data_PCOD9379368
_publ_section_title
;
Structure prediction by ZEFSAII (Michael W. Deem and Ramdas Pophale) SiO2 
 PCOD9379368
Probable space group: I M A 2
;
_chemical_formula_sum "Si O2"
_cell_formula_units_Z 64
_cell_length_a 7.819268
_cell_length_b 19.687055
_cell_length_c 18.995024
_cell_angle_alpha 90.000000
_cell_angle_beta 90.000000
_cell_angle_gamma 90.000000
_cell_volume 2924.062827
_symmetry_space_group_name_H-M "I M A 2"
_symmetry_group_IT_number 46
_symmetry_cell_setting 'orthorhombic'
loop_
_space_group_symop_operation_xyz
x,y,z
-x,-y,z
1/2-x,y,z
1/2+x,-y,z
1/2+x,1/2+y,1/2+z
1/2-x,1/2-y,1/2+z
-x,1/2+y,1/2+z
x,1/2-y,1/2+z
loop_
_atom_site_type_symbol
_atom_site_label
_atom_site_fract_x
_atom_site_fract_y
_atom_site_fract_z
Si Si1 0.453710 0.922842 0.482200
Si Si2 0.460623 0.784912 0.914419
Si Si3 0.559619 0.072416 0.867689
Si Si4 0.541422 0.145172 0.339636
Si Si5 0.444395 0.822431 0.070094
Si Si6 0.543114 0.080115 0.191464
Si Si7 0.047092 0.069025 0.711378
Si Si8 0.950598 0.817999 0.603397
O O1 0.250000 0.916090 0.485281
O O2 0.509230 0.906465 0.402193
O O3 0.522857 0.864123 0.533799
O O4 0.500000 0.000000 0.500956
O O5 0.250000 0.779457 0.914915
O O6 0.525432 0.855609 0.881824
O O7 0.515443 0.719197 0.869392
O O8 0.518244 0.795916 0.995395
O O9 0.750000 0.080102 0.894628
O O10 0.553526 0.066264 0.783889
O O11 0.500000 0.000000 0.896709
O O12 0.750000 0.146629 0.336655
O O13 0.483146 0.118571 0.263077
O O14 0.250000 0.844164 0.054546
O O15 0.520402 0.880382 0.120887
O O16 0.447260 0.751298 0.110653
O O17 0.750000 0.085712 0.190671
O O18 0.500000 0.000000 0.192403
O O19 0.250000 0.070310 0.725195
O O20 0.998331 0.133173 0.666641
O O21 0.000000 0.000000 0.671146
O O22 0.750000 0.801882 0.608524
#
# Coordination Sequence:
#
# PCOD9379368 Si02
#       8
#     8   8   8   8   8   8   8   8
#     4  11  21  35  58  83 116 155 192 238 289 349
#     4   9  18  35  58  85 113 147 193 242 286 342
#     4  10  20  34  57  82 111 146 186 233 284 341
#     4   9  18  35  58  86 117 149 193 244 289 347
#     4  10  21  39  62  85 112 153 199 238 286 346
#     4  10  22  39  63  90 118 156 201 245 297 356
#     4  10  21  36  53  77 112 146 183 226 275 334
#     4  11  23  37  54  82 117 151 190 238 289 344
#
# _framework density 21.887353000000001
#
# number of rings (size 3 to 8) (size 9 to 14) (size 15 to 20)
#    0.000    2.000    1.250    3.000    1.750    4.000 
#    0.000    1.875    0.000    0.000    0.000    0.000 
#    0.000    0.000    0.000    0.000    0.000    0.000 
#
# Total GULP energy -178376.887653 kJ/mol
# GULP energy per Si atom -5574.277739 kJ/mol
# Density = 2.183754 g / cm^3
# Si number density = 21.887353 Si / 1000 Ang^3
#
#
#
# Elastic Constant Matrix: (Units=GPa)
#
#
# Indices 1 2 3 4 5 6 
#
# 1 23.4573 3.7472 1.3385 0.0000 0.0000 0.0000
# 2 3.7472 169.6887 71.8844 0.0000 0.0000 0.0000
# 3 1.3385 71.8844 76.3373 0.0000 0.0000 0.0000
# 4 0.0000 0.0000 0.0000 39.3498 0.0000 0.0000
# 5 0.0000 0.0000 0.0000 0.0000 -11.1581 0.0000
# 6 0.0000 0.0000 0.0000 0.0000 0.0000 19.7275
#
#
#
# Elastic Compliance Matrix: (Units=1/GPa)
#
#
# Indices 1 2 3 4 5 6 
#
# 1 0.042784 -0.001043 0.000232 0.000000 0.000000 0.000000
# 2 -0.001043 0.009830 -0.009238 0.000000 0.000000 0.000000
# 3 0.000232 -0.009238 0.021795 0.000000 0.000000 0.000000
# 4 0.000000 0.000000 0.000000 0.025413 0.000000 0.000000
# 5 0.000000 0.000000 0.000000 0.000000 -0.089621 0.000000
# 6 0.000000 0.000000 0.000000 0.000000 0.000000 0.050691
#
#
# Mechanical properties :
#
#
# Convention : Reuss Voigt Hill
#
# Bulk Modulus (GPa) = 18.41269 47.04708 32.72988
# Shear Modulus (GPa) = 50.45812 22.41807 36.43809
#
# Velocity S-wave (km/s) = 4.80662 3.20386 4.08462
# Velocity P-wave (km/s) = 6.26383 5.93532 6.10179
#
# Compressibility (1/GPa) = 0.05431038
#
# Stress axis : x y z
#
# Youngs Moduli (GPa) = 23.37324 101.73357 45.88264
#
# Poissons Ratio (x) = 0.10612 -0.01065
# Poissons Ratio (y) = 0.02438 0.42386
# Poissons Ratio (z) = -0.00542 0.93981
#
# Static dielectric constant tensor:
#      x y z
#    x 1.843770 0.000000 0.000000 
#    y 0.000000 1.820340 0.000000 
#    z 0.000000 0.000000 1.848660 
# 
# From -- ./inp_files/21281.got.cif
#   From: 2010.05.17/outbox.cif.g08.bks.cpg/sg46_11_cif.got.tgz:21281.got - 2010.06.03 19:58:25.
