data_PCOD9379544
_publ_section_title
;
Structure prediction by ZEFSAII (Michael W. Deem and Ramdas Pophale) SiO2 
 PCOD9379544
Probable space group: I M A 2
;
_chemical_formula_sum "Si O2"
_cell_formula_units_Z 48
_cell_length_a 14.902748
_cell_length_b 24.878872
_cell_length_c 5.078197
_cell_angle_alpha 90.000000
_cell_angle_beta 90.000000
_cell_angle_gamma 90.000000
_cell_volume 1882.810398
_symmetry_space_group_name_H-M "I M A 2"
_symmetry_group_IT_number 46
_symmetry_cell_setting 'orthorhombic'
loop_
_space_group_symop_operation_xyz
x,y,z
-x,-y,z
1/2-x,y,z
1/2+x,-y,z
1/2+x,1/2+y,1/2+z
1/2-x,1/2-y,1/2+z
-x,1/2+y,1/2+z
x,1/2-y,1/2+z
loop_
_atom_site_type_symbol
_atom_site_label
_atom_site_fract_x
_atom_site_fract_y
_atom_site_fract_z
Si Si1 0.250000 0.715101 0.563340
Si Si2 0.750000 0.475847 0.526925
Si Si3 0.404955 0.649838 0.839910
Si Si4 0.250000 0.916220 0.578125
Si Si5 0.750000 0.786696 0.476486
Si Si6 0.059974 0.214928 0.610593
Si Si7 0.960148 0.560807 0.646713
Si Si8 0.095387 0.468483 0.165285
O O1 0.250000 0.733015 0.260383
O O2 0.341425 0.684525 0.648354
O O3 0.750000 0.464456 0.842281
O O4 0.833284 0.499899 0.349401
O O5 0.750000 0.417939 0.396266
O O6 0.337822 0.616085 0.015921
O O7 0.472164 0.684461 0.016185
O O8 0.464846 0.603082 0.714276
O O9 0.750000 0.736043 0.680877
O O10 0.845412 0.813757 0.537776
O O11 0.060208 0.232848 0.914003
O O12 0.924884 0.579345 0.364657
O O13 0.000000 0.500000 0.613918
O O14 0.885907 0.553286 0.874875
O O15 0.000000 0.500000 0.122031
#
# Coordination Sequence:
#
# PCOD9379544 Si02
#       8
#     4   4   8   4   4   8   8   8
#     4  11  26  45  66 101 138 171 224 275 320 395
#     4  12  22  41  64  84 120 172 214 261 316 364
#     4  11  24  40  66  93 130 172 208 268 332 380
#     4  11  24  36  58  92 120 162 218 252 310 397
#     4   8  16  34  58  83 108 143 190 236 290 370
#     4  10  21  38  62  89 120 160 206 258 322 386
#     4  10  21  38  58  86 121 160 208 254 301 373
#     4  10  20  36  58  82 113 152 205 261 303 366
#
# _framework density 25.493804999999998
#
# number of rings (size 3 to 8) (size 9 to 14) (size 15 to 20)
#    0.000    1.667    0.000    6.000    0.000    6.667 
#    0.000    1.667    0.000    2.000    0.000    0.000 
#    0.000    0.000    0.000    0.000    0.000    0.000 
#
# Total GULP energy -133792.681284 kJ/mol
# GULP energy per Si atom -5574.695053 kJ/mol
# Density = 2.543578 g / cm^3
# Si number density = 25.493805 Si / 1000 Ang^3
#
#
#
# Elastic Constant Matrix: (Units=GPa)
#
#
# Indices 1 2 3 4 5 6 
#
# 1 120.5328 9.5970 -5.6721 -0.0001 -0.0005 -0.0011
# 2 9.5970 41.1417 -3.3601 0.0012 -0.0008 -0.0010
# 3 -5.6721 -3.3601 139.4445 -0.0136 0.0022 0.0022
# 4 -0.0001 0.0012 -0.0136 -0.8315 -0.0010 0.0015
# 5 -0.0005 -0.0008 0.0022 -0.0010 4.6052 0.0052
# 6 -0.0011 -0.0010 0.0022 0.0015 0.0052 71.6479
#
#
#
# Elastic Compliance Matrix: (Units=1/GPa)
#
#
# Indices 1 2 3 4 5 6 
#
# 1 0.008466 -0.001951 0.000297 -0.000009 0.000000 0.000000
# 2 -0.001951 0.024804 0.000518 0.000027 0.000004 0.000000
# 3 0.000297 0.000518 0.007196 -0.000117 -0.000003 0.000000
# 4 -0.000009 0.000027 -0.000117 -1.202662 -0.000267 0.000025
# 5 0.000000 0.000004 -0.000003 -0.000267 0.217144 -0.000016
# 6 0.000000 0.000000 0.000000 0.000025 -0.000016 0.013957
#
#
# Mechanical properties :
#
#
# Convention : Reuss Voigt Hill
#
# Bulk Modulus (GPa) = 26.18102 33.58318 29.88210
# Shear Modulus (GPa) = -5.45796 35.12128 14.83166
#
# Velocity S-wave (km/s) = -1.46477 3.71568 2.41462
# Velocity P-wave (km/s) = 2.72601 5.62228 4.41821
#
# Compressibility (1/GPa) = 0.03819561
#
# Stress axis : x y z
#
# Youngs Moduli (GPa) = 118.12241 40.31680 138.96825
#
# Poissons Ratio (x) = 0.07864 -0.04132
# Poissons Ratio (y) = 0.23040 -0.07203
# Poissons Ratio (z) = -0.03512 -0.02090
#
# Static dielectric constant tensor:
#      x y z
#    x 2.276960 0.000040 0.000000 
#    y 0.000040 2.356780 0.000040 
#    z 0.000000 0.000040 2.119430 
# 
# From -- ./inp_files/1362.got.cif
#   From: 2010.05.17/outbox.cif.g08.bks.cpg/sg46_1_cif.got.tgz:1362.got - 2010.06.03 19:58:25.
