data_PCOD9379032
_publ_section_title
;
Structure prediction by ZEFSAII (Michael W. Deem and Ramdas Pophale) SiO2 
 PCOD9379032
Probable space group: I M A 2
;
_chemical_formula_sum "Si O2"
_cell_formula_units_Z 64
_cell_length_a 7.734015
_cell_length_b 24.323784
_cell_length_c 15.973721
_cell_angle_alpha 90.000000
_cell_angle_beta 90.000000
_cell_angle_gamma 90.000000
_cell_volume 3004.984546
_symmetry_space_group_name_H-M "I M A 2"
_symmetry_group_IT_number 46
_symmetry_cell_setting 'orthorhombic'
loop_
_space_group_symop_operation_xyz
x,y,z
-x,-y,z
1/2-x,y,z
1/2+x,-y,z
1/2+x,1/2+y,1/2+z
1/2-x,1/2-y,1/2+z
-x,1/2+y,1/2+z
x,1/2-y,1/2+z
loop_
_atom_site_type_symbol
_atom_site_label
_atom_site_fract_x
_atom_site_fract_y
_atom_site_fract_z
Si Si1 0.041634 0.637916 0.272240
Si Si2 0.549756 0.380429 0.593774
Si Si3 0.453520 0.260761 0.539540
Si Si4 0.960223 0.253017 0.845031
Si Si5 0.455701 0.629914 0.776339
Si Si6 0.958443 0.063757 0.926342
Si Si7 0.456166 0.141599 0.586755
Si Si8 0.543991 0.936552 0.438762
O O1 0.250000 0.637773 0.274484
O O2 0.984300 0.700344 0.291119
O O3 0.977949 0.599032 0.347157
O O4 0.988255 0.620183 0.179784
O O5 0.750000 0.398300 0.598275
O O6 0.542751 0.315658 0.572586
O O7 0.471923 0.387712 0.686123
O O8 0.472383 0.412156 0.514192
O O9 0.250000 0.266220 0.558653
O O10 0.477275 0.255249 0.439792
O O11 0.523925 0.203916 0.578017
O O12 0.750000 0.253755 0.847681
O O13 0.022897 0.310796 0.807513
O O14 0.250000 0.637483 0.764651
O O15 0.481529 0.586376 0.849882
O O16 0.750000 0.070410 0.927299
O O17 0.000000 0.000000 0.917649
O O18 0.250000 0.145686 0.574297
O O19 0.525172 0.102168 0.513637
O O20 0.750000 0.931613 0.438571
O O21 0.500000 0.000000 0.451500
#
# Coordination Sequence:
#
# PCOD9379032 Si02
#       8
#     8   8   8   8   8   8   8   8
#     4  10  21  38  61  88 116 153 196 239 288 345
#     4  10  21  40  62  87 121 155 193 241 289 349
#     4  11  21  35  58  89 121 156 193 233 292 350
#     4  10  19  35  59  88 120 152 191 237 291 352
#     4  10  21  37  63  92 116 152 195 239 297 353
#     4  10  22  40  60  83 115 152 195 242 289 341
#     4  10  23  40  58  86 121 154 189 239 296 346
#     4  11  24  43  62  83 118 156 199 249 295 346
#
# _framework density 21.297946
#
# number of rings (size 3 to 8) (size 9 to 14) (size 15 to 20)
#    0.000    1.750    2.500    1.500    0.000    6.000 
#    0.000    3.750    0.000    0.000    0.000    0.000 
#    0.000    0.000    0.000    0.000    0.000    0.000 
#
# Total GULP energy -178831.360068 kJ/mol
# GULP energy per Si atom -5588.480002 kJ/mol
# Density = 2.124947 g / cm^3
# Si number density = 21.297946 Si / 1000 Ang^3
#
#
#
# Elastic Constant Matrix: (Units=GPa)
#
#
# Indices 1 2 3 4 5 6 
#
# 1 30.2578 -13.4569 -11.2987 0.0000 0.0000 0.0000
# 2 -13.4569 83.5107 21.8964 0.0001 0.0000 0.0000
# 3 -11.2987 21.8964 135.1962 0.0002 -0.0001 0.0001
# 4 0.0000 0.0001 0.0002 2.2030 0.0000 0.0000
# 5 0.0000 0.0000 -0.0001 0.0000 46.3977 0.0000
# 6 0.0000 0.0000 0.0001 0.0000 0.0000 8.5424
#
#
#
# Elastic Compliance Matrix: (Units=1/GPa)
#
#
# Indices 1 2 3 4 5 6 
#
# 1 0.036202 0.005264 0.002173 -0.000001 0.000000 0.000000
# 2 0.005264 0.013271 -0.001709 0.000000 0.000000 0.000000
# 3 0.002173 -0.001709 0.007855 -0.000001 0.000000 0.000000
# 4 -0.000001 0.000000 -0.000001 0.453931 0.000000 -0.000002
# 5 0.000000 0.000000 0.000000 0.000000 0.021553 0.000000
# 6 0.000000 0.000000 0.000000 -0.000002 0.000000 0.117063
#
#
# Mechanical properties :
#
#
# Convention : Reuss Voigt Hill
#
# Bulk Modulus (GPa) = 14.53859 27.02736 20.78297
# Shear Modulus (GPa) = 7.56033 28.21688 17.88860
#
# Velocity S-wave (km/s) = 1.88613 3.64382 2.90128
# Velocity P-wave (km/s) = 3.40359 5.51551 4.58287
#
# Compressibility (1/GPa) = 0.06878248
#
# Stress axis : x y z
#
# Youngs Moduli (GPa) = 27.62294 75.35262 127.30551
#
# Poissons Ratio (x) = -0.39664 -0.27663
# Poissons Ratio (y) = -0.14540 0.21762
# Poissons Ratio (z) = -0.06002 0.12881
#
# Static dielectric constant tensor:
#      x y z
#    x 1.797040 0.000000 0.000000 
#    y 0.000000 1.733400 0.000000 
#    z 0.000000 0.000000 1.771250 
# 
# From -- ./inp_files/14467.got.cif
#   From: 2010.05.17/outbox.cif.g08.bks.cpg/sg46_8_cif.got.tgz:14467.got - 2010.06.03 19:58:25.
