data_PCOD9379068
_publ_section_title
;
Structure prediction by ZEFSAII (Michael W. Deem and Ramdas Pophale) SiO2 
 PCOD9379068
Probable space group: I M A 2
;
_chemical_formula_sum "Si O2"
_cell_formula_units_Z 64
_cell_length_a 8.879516
_cell_length_b 32.867500
_cell_length_c 10.281283
_cell_angle_alpha 90.000000
_cell_angle_beta 90.000000
_cell_angle_gamma 90.000000
_cell_volume 3000.566659
_symmetry_space_group_name_H-M "I M A 2"
_symmetry_group_IT_number 46
_symmetry_cell_setting 'orthorhombic'
loop_
_space_group_symop_operation_xyz
x,y,z
-x,-y,z
1/2-x,y,z
1/2+x,-y,z
1/2+x,1/2+y,1/2+z
1/2-x,1/2-y,1/2+z
-x,1/2+y,1/2+z
x,1/2-y,1/2+z
loop_
_atom_site_type_symbol
_atom_site_label
_atom_site_fract_x
_atom_site_fract_y
_atom_site_fract_z
Si Si1 0.077807 0.766093 0.448110
Si Si2 0.913729 0.789992 0.109397
Si Si3 0.078050 0.310015 0.334098
Si Si4 0.929658 0.540836 0.046369
Si Si5 0.932968 0.928735 0.267873
Si Si6 0.566471 0.602931 0.266517
Si Si7 0.068224 0.955014 0.990744
Si Si8 0.580634 0.841266 0.370851
O O1 0.250000 0.768870 0.414150
O O2 0.045042 0.741609 0.580494
O O3 0.996932 0.734457 0.347660
O O4 0.010666 0.811003 0.461764
O O5 0.750000 0.769112 0.091445
O O6 0.914233 0.813736 0.241373
O O7 0.921748 0.821567 0.988797
O O8 0.250000 0.304078 0.291133
O O9 0.014383 0.349980 0.266022
O O10 0.750000 0.537897 0.052283
O O11 0.972160 0.579813 0.132685
O O12 0.000000 0.500000 0.103192
O O13 0.971067 0.544764 0.894860
O O14 0.750000 0.928943 0.248514
O O15 0.977984 0.883938 0.319188
O O16 0.012567 0.941795 0.135216
O O17 0.750000 0.603344 0.280887
O O18 0.495769 0.576834 0.384343
O O19 0.250000 0.956280 0.986007
O O20 0.000000 0.000000 0.965292
O O21 0.750000 0.847888 0.422381
#
# Coordination Sequence:
#
# PCOD9379068 Si02
#       8
#     8   8   8   8   8   8   8   8
#     4  10  20  33  51  79 117 150 184 234 294 351
#     4   8  16  32  53  75 102 147 195 239 290 341
#     4   8  16  34  55  78 110 149 194 236 287 344
#     4  10  22  40  63  89 120 158 198 244 303 366
#     4  10  22  41  64  91 123 159 205 256 304 361
#     4  10  20  38  63  91 123 159 204 256 304 356
#     4  12  25  40  62  93 124 158 203 253 310 371
#     4  10  19  36  59  82 110 150 202 246 289 351
#
# _framework density 21.329305000000002
#
# number of rings (size 3 to 8) (size 9 to 14) (size 15 to 20)
#    0.750    1.500    0.000    3.375    0.000    6.500 
#    2.250    0.000    0.000    0.000    0.000    0.000 
#    0.000    0.000    0.000    0.000    0.000    0.000 
#
# Total GULP energy -178334.665662 kJ/mol
# GULP energy per Si atom -5572.958302 kJ/mol
# Density = 2.128076 g / cm^3
# Si number density = 21.329305 Si / 1000 Ang^3
#
#
#
# Elastic Constant Matrix: (Units=GPa)
#
#
# Indices 1 2 3 4 5 6 
#
# 1 51.4143 27.7641 10.0111 0.0003 0.0000 0.0000
# 2 27.7641 111.1562 20.0419 0.0011 0.0002 0.0000
# 3 10.0111 20.0419 82.9544 0.0003 0.0001 0.0000
# 4 0.0003 0.0011 0.0003 27.2385 0.0000 -0.0001
# 5 0.0000 0.0002 0.0001 0.0000 7.7961 0.0000
# 6 0.0000 0.0000 0.0000 -0.0001 0.0000 18.8220
#
#
#
# Elastic Compliance Matrix: (Units=1/GPa)
#
#
# Indices 1 2 3 4 5 6 
#
# 1 0.022643 -0.005398 -0.001428 0.000000 0.000000 0.000000
# 2 -0.005398 0.010693 -0.001932 0.000000 0.000000 0.000000
# 3 -0.001428 -0.001932 0.012694 0.000000 0.000000 0.000000
# 4 0.000000 0.000000 0.000000 0.036713 0.000000 0.000000
# 5 0.000000 0.000000 0.000000 0.000000 0.128270 0.000000
# 6 0.000000 0.000000 0.000000 0.000000 0.000000 0.053129
#
#
# Mechanical properties :
#
#
# Convention : Reuss Voigt Hill
#
# Bulk Modulus (GPa) = 35.07177 40.12878 37.60028
# Shear Modulus (GPa) = 17.17250 23.28516 20.22883
#
# Velocity S-wave (km/s) = 2.84053 3.30767 3.08296
# Velocity P-wave (km/s) = 5.21889 5.78293 5.50814
#
# Compressibility (1/GPa) = 0.02851296
#
# Stress axis : x y z
#
# Youngs Moduli (GPa) = 44.16372 93.51900 78.77755
#
# Poissons Ratio (x) = 0.50483 0.11253
# Poissons Ratio (y) = 0.23840 0.15220
# Poissons Ratio (z) = 0.06308 0.18068
#
# Static dielectric constant tensor:
#      x y z
#    x 1.772260 0.000000 0.000000 
#    y 0.000000 1.792670 0.000000 
#    z 0.000000 0.000000 1.847030 
# 
# From -- ./inp_files/9704.got.cif
#   From: 2010.05.17/outbox.cif.g08.bks.cpg/sg46_5_cif.got.tgz:9704.got - 2010.06.03 19:58:25.
