data_PCOD9379901
_publ_section_title
;
Structure prediction by ZEFSAII (Michael W. Deem and Ramdas Pophale) SiO2 
 PCOD9379901
Probable space group: I M A 2
;
_chemical_formula_sum "Si O2"
_cell_formula_units_Z 36
_cell_length_a 21.212997
_cell_length_b 6.835707
_cell_length_c 10.437044
_cell_angle_alpha 90.000000
_cell_angle_beta 90.000000
_cell_angle_gamma 90.000000
_cell_volume 1513.432250
_symmetry_space_group_name_H-M "I M A 2"
_symmetry_group_IT_number 46
_symmetry_cell_setting 'orthorhombic'
loop_
_space_group_symop_operation_xyz
x,y,z
-x,-y,z
1/2-x,y,z
1/2+x,-y,z
1/2+x,1/2+y,1/2+z
1/2-x,1/2-y,1/2+z
-x,1/2+y,1/2+z
x,1/2-y,1/2+z
loop_
_atom_site_type_symbol
_atom_site_label
_atom_site_fract_x
_atom_site_fract_y
_atom_site_fract_z
Si Si1 0.641033 0.809587 0.041920
Si Si2 0.250000 0.341785 0.869735
Si Si3 0.250000 0.572364 0.279268
Si Si4 0.250000 0.919559 0.148606
Si Si5 0.071692 0.940469 0.616889
Si Si6 0.111607 0.851315 0.891419
O O1 0.687029 0.971174 0.105473
O O2 0.609112 0.646648 0.128874
O O3 0.687902 0.690782 0.950612
O O4 0.593345 0.941447 0.958540
O O5 0.250000 0.544712 0.800168
O O6 0.250000 0.162759 0.766602
O O7 0.314283 0.619583 0.355513
O O8 0.250000 0.686225 0.143899
O O9 0.079666 0.828128 0.752230
O O10 0.097013 0.815265 0.495831
O O11 0.000000 0.000000 0.593929
#
# Coordination Sequence:
#
# PCOD9379901 Si02
#       6
#     8   4   4   4   8   8
#     4  10  22  40  67 102 140 188 239 293 365 430
#     4   9  19  35  62  98 145 175 226 294 357 436
#     4  10  20  40  71 107 144 177 237 298 374 426
#     4  11  19  35  65 105 141 182 221 294 359 440
#     4  12  29  48  72 101 145 198 250 301 362 445
#     4  11  26  48  73 110 142 193 241 308 370 438
#
# _framework density 23.786991
#
# number of rings (size 3 to 8) (size 9 to 14) (size 15 to 20)
#    0.000    1.333    0.000    6.000    3.111    4.444 
#    0.000    2.222    0.000    0.000    0.000    0.000 
#    0.000    0.000    0.000    0.000    0.000    0.000 
#
# Total GULP energy -100600.743624 kJ/mol
# GULP energy per Si atom -5588.930201 kJ/mol
# Density = 2.373285 g / cm^3
# Si number density = 23.786991 Si / 1000 Ang^3
#
#
#
# Elastic Constant Matrix: (Units=GPa)
#
#
# Indices 1 2 3 4 5 6 
#
# 1 79.9570 28.4720 14.5209 0.0000 0.0000 0.0000
# 2 28.4720 89.1494 47.3296 0.0000 0.0000 0.0000
# 3 14.5209 47.3296 101.2881 0.0000 0.0000 0.0000
# 4 0.0000 0.0000 0.0000 55.5015 0.0000 0.0000
# 5 0.0000 0.0000 0.0000 0.0000 20.2566 0.0000
# 6 0.0000 0.0000 0.0000 0.0000 0.0000 26.8614
#
#
#
# Elastic Compliance Matrix: (Units=1/GPa)
#
#
# Indices 1 2 3 4 5 6 
#
# 1 0.014113 -0.004566 0.000110 0.000000 0.000000 0.000000
# 2 -0.004566 0.016395 -0.007006 0.000000 0.000000 0.000000
# 3 0.000110 -0.007006 0.013131 0.000000 0.000000 0.000000
# 4 0.000000 0.000000 0.000000 0.018018 0.000000 0.000000
# 5 0.000000 0.000000 0.000000 0.000000 0.049367 0.000000
# 6 0.000000 0.000000 0.000000 0.000000 0.000000 0.037228
#
#
# Mechanical properties :
#
#
# Convention : Reuss Voigt Hill
#
# Bulk Modulus (GPa) = 48.27496 50.11552 49.19524
# Shear Modulus (GPa) = 28.07733 32.52870 30.30302
#
# Velocity S-wave (km/s) = 3.43937 3.70198 3.57309
# Velocity P-wave (km/s) = 6.00925 6.27591 6.14403
#
# Compressibility (1/GPa) = 0.02071467
#
# Stress axis : x y z
#
# Youngs Moduli (GPa) = 70.85910 60.99399 76.15573
#
# Poissons Ratio (x) = 0.27848 -0.00840
# Poissons Ratio (y) = 0.32352 0.53358
# Poissons Ratio (z) = -0.00781 0.42735
#
# Static dielectric constant tensor:
#      x y z
#    x 1.884600 0.000000 0.000000 
#    y 0.000000 1.884860 0.000000 
#    z 0.000000 0.000000 2.016390 
# 
# From -- ./inp_files/12631.got.cif
#   From: 2010.05.17/outbox.cif.g08.bks.cpg/sg46_7_cif.got.tgz:12631.got - 2010.06.03 19:58:25.
