data_PCOD9379062
_publ_section_title
;
Structure prediction by ZEFSAII (Michael W. Deem and Ramdas Pophale) SiO2 
 PCOD9379062
Probable space group: I M A 2
;
_chemical_formula_sum "Si O2"
_cell_formula_units_Z 48
_cell_length_a 29.195954
_cell_length_b 8.229971
_cell_length_c 8.868445
_cell_angle_alpha 90.000000
_cell_angle_beta 90.000000
_cell_angle_gamma 90.000000
_cell_volume 2130.926413
_symmetry_space_group_name_H-M "I M A 2"
_symmetry_group_IT_number 46
_symmetry_cell_setting 'orthorhombic'
loop_
_space_group_symop_operation_xyz
x,y,z
-x,-y,z
1/2-x,y,z
1/2+x,-y,z
1/2+x,1/2+y,1/2+z
1/2-x,1/2-y,1/2+z
-x,1/2+y,1/2+z
x,1/2-y,1/2+z
loop_
_atom_site_type_symbol
_atom_site_label
_atom_site_fract_x
_atom_site_fract_y
_atom_site_fract_z
Si Si1 0.839438 0.489423 0.272150
Si Si2 0.342025 0.664018 0.938148
Si Si3 0.559758 0.181569 0.325178
Si Si4 0.250000 0.178511 0.675974
Si Si5 0.563828 0.574340 0.321817
Si Si6 0.250000 0.481176 0.854180
Si Si7 0.995375 0.758418 0.075459
O O1 0.837123 0.356422 0.405658
O O2 0.794182 0.593519 0.249038
O O3 0.882408 0.606334 0.303605
O O4 0.846073 0.389465 0.113446
O O5 0.389535 0.615419 0.854436
O O6 0.296282 0.584996 0.869685
O O7 0.562147 0.378834 0.318896
O O8 0.532042 0.139684 0.175372
O O9 0.527762 0.151071 0.467844
O O10 0.250000 0.368749 0.708504
O O11 0.250000 0.136762 0.499727
O O12 0.535450 0.654909 0.187973
O O13 0.539003 0.643483 0.468629
#
# Coordination Sequence:
#
# PCOD9379062 Si02
#       7
#     8   8   8   4   8   4   8
#     4  10  22  42  64  92 127 163 207 261 311 369
#     4  10  21  40  67  92 122 165 212 254 305 376
#     4  10  20  38  58  85 119 159 206 256 299 361
#     4  10  23  42  64  94 134 160 197 264 318 372
#     4  10  22  38  56  85 122 158 206 256 305 365
#     4  10  23  42  64  96 126 162 207 254 316 376
#     4  10  19  36  58  81 118 160 198 250 309 355
#
# _framework density 22.525414999999999
#
# number of rings (size 3 to 8) (size 9 to 14) (size 15 to 20)
#    0.000    2.000    0.000    4.500    0.000    4.000 
#    0.000   31.667    0.000    0.000    0.000    0.000 
#    0.000    0.000    0.000    0.000    0.000    0.000 
#
# Total GULP energy -134220.116855 kJ/mol
# GULP energy per Si atom -5592.504869 kJ/mol
# Density = 2.247415 g / cm^3
# Si number density = 22.525415 Si / 1000 Ang^3
#
#
#
# Elastic Constant Matrix: (Units=GPa)
#
#
# Indices 1 2 3 4 5 6 
#
# 1 208.3005 45.3072 67.4958 0.0000 0.0000 0.0000
# 2 45.3072 45.4973 30.6510 0.0000 0.0000 0.0000
# 3 67.4958 30.6510 106.9996 0.0000 0.0000 0.0000
# 4 0.0000 0.0000 0.0000 36.6347 0.0000 0.0000
# 5 0.0000 0.0000 0.0000 0.0000 28.9694 0.0000
# 6 0.0000 0.0000 0.0000 0.0000 0.0000 31.6311
#
#
#
# Elastic Compliance Matrix: (Units=1/GPa)
#
#
# Indices 1 2 3 4 5 6 
#
# 1 0.006786 -0.004801 -0.002906 0.000000 0.000000 0.000000
# 2 -0.004801 0.030631 -0.005746 0.000000 0.000000 0.000000
# 3 -0.002906 -0.005746 0.012825 0.000000 0.000000 0.000000
# 4 0.000000 0.000000 0.000000 0.027296 0.000000 0.000000
# 5 0.000000 0.000000 0.000000 0.000000 0.034519 0.000000
# 6 0.000000 0.000000 0.000000 0.000000 0.000000 0.031614
#
#
# Mechanical properties :
#
#
# Convention : Reuss Voigt Hill
#
# Bulk Modulus (GPa) = 42.85021 71.96727 57.40874
# Shear Modulus (GPa) = 28.03368 33.93662 30.98515
#
# Velocity S-wave (km/s) = 3.53162 3.88570 3.71288
# Velocity P-wave (km/s) = 5.97446 7.22151 6.62738
#
# Compressibility (1/GPa) = 0.02333711
#
# Stress axis : x y z
#
# Youngs Moduli (GPa) = 147.35187 32.64660 77.97322
#
# Poissons Ratio (x) = 0.15672 0.22657
# Poissons Ratio (y) = 0.70737 0.44806
# Poissons Ratio (z) = 0.42817 0.18760
#
# Static dielectric constant tensor:
#      x y z
#    x 1.836510 0.000000 0.000000 
#    y 0.000000 1.854500 0.000000 
#    z 0.000000 0.000000 1.835620 
# 
# From -- ./inp_files/8428.got.cif
#   From: 2010.05.17/outbox.cif.g08.bks.cpg/sg46_5_cif.got.tgz:8428.got - 2010.06.03 19:58:25.
