data_PCOD9379129
_publ_section_title
;
Structure prediction by ZEFSAII (Michael W. Deem and Ramdas Pophale) SiO2 
 PCOD9379129
Probable space group: I M A 2
;
_chemical_formula_sum "Si O2"
_cell_formula_units_Z 64
_cell_length_a 8.792040
_cell_length_b 15.760239
_cell_length_c 24.155892
_cell_angle_alpha 90.000000
_cell_angle_beta 90.000000
_cell_angle_gamma 90.000000
_cell_volume 3347.152761
_symmetry_space_group_name_H-M "I M A 2"
_symmetry_group_IT_number 46
_symmetry_cell_setting 'orthorhombic'
loop_
_space_group_symop_operation_xyz
x,y,z
-x,-y,z
1/2-x,y,z
1/2+x,-y,z
1/2+x,1/2+y,1/2+z
1/2-x,1/2-y,1/2+z
-x,1/2+y,1/2+z
x,1/2-y,1/2+z
loop_
_atom_site_type_symbol
_atom_site_label
_atom_site_fract_x
_atom_site_fract_y
_atom_site_fract_z
Si Si1 0.931259 0.088625 0.610250
Si Si2 0.569143 0.409434 0.380058
Si Si3 0.932098 0.647499 0.995606
Si Si4 0.433025 0.750465 0.184528
Si Si5 0.067655 0.408484 0.617881
Si Si6 0.068820 0.349439 0.493581
Si Si7 0.567058 0.910835 0.373928
Si Si8 0.433165 0.257746 0.306971
O O1 0.750000 0.082816 0.610602
O O2 0.977245 0.168703 0.647721
O O3 0.987895 0.106229 0.548064
O O4 0.000000 0.000000 0.630302
O O5 0.500000 0.500000 0.363679
O O6 0.750000 0.410349 0.374478
O O7 0.522350 0.391216 0.443614
O O8 0.498227 0.334729 0.343166
O O9 0.750000 0.636145 0.001103
O O10 0.961345 0.748511 0.994655
O O11 0.981707 0.608240 0.937141
O O12 0.250000 0.754654 0.186707
O O13 0.497569 0.834381 0.155218
O O14 0.500842 0.740833 0.245497
O O15 0.250000 0.408510 0.623716
O O16 0.031699 0.387627 0.553542
O O17 0.000000 0.500000 0.632220
O O18 0.250000 0.360862 0.483411
O O19 0.750000 0.915539 0.373753
O O20 0.523121 0.830863 0.336421
O O21 0.500000 0.000000 0.354946
O O22 0.250000 0.262813 0.306195
#
# Coordination Sequence:
#
# PCOD9379129 Si02
#       8
#     8   8   8   8   8   8   8   8
#     4  11  24  40  62  92 126 162 204 251 307 369
#     4  12  25  41  65  95 128 166 208 256 314 376
#     4  10  19  37  63  92 127 162 200 248 306 367
#     4  11  25  44  64  91 124 161 212 265 312 373
#     4  11  23  40  65  94 126 167 208 256 316 374
#     4  10  20  38  64  94 129 165 204 252 313 377
#     4  10  22  39  62  91 124 160 200 248 303 363
#     4  11  24  45  67  89 122 165 212 262 315 369
#
# _framework density 19.120728
#
# number of rings (size 3 to 8) (size 9 to 14) (size 15 to 20)
#    0.000    1.250    2.500    3.375    0.000    7.500 
#    0.000    2.500    0.000    0.000    0.000    0.000 
#    0.000    0.000    0.000    0.000    0.000    0.000 
#
# Total GULP energy -179002.659815 kJ/mol
# GULP energy per Si atom -5593.833119 kJ/mol
# Density = 1.907721 g / cm^3
# Si number density = 19.120728 Si / 1000 Ang^3
#
#
#
# Elastic Constant Matrix: (Units=GPa)
#
#
# Indices 1 2 3 4 5 6 
#
# 1 59.6546 52.3140 43.0484 0.0000 0.0000 0.0000
# 2 52.3140 154.1357 50.0814 0.0000 0.0000 0.0000
# 3 43.0484 50.0814 107.5892 0.0000 0.0000 0.0000
# 4 0.0000 0.0000 0.0000 -4.6495 0.0000 0.0000
# 5 0.0000 0.0000 0.0000 0.0000 20.0337 0.0000
# 6 0.0000 0.0000 0.0000 0.0000 0.0000 33.1629
#
#
#
# Elastic Compliance Matrix: (Units=1/GPa)
#
#
# Indices 1 2 3 4 5 6 
#
# 1 0.029013 -0.007158 -0.008277 0.000000 0.000000 0.000000
# 2 -0.007158 0.009410 -0.001516 0.000000 0.000000 0.000000
# 3 -0.008277 -0.001516 0.013312 0.000000 0.000000 0.000000
# 4 0.000000 0.000000 0.000000 -0.215077 0.000000 0.000000
# 5 0.000000 0.000000 0.000000 0.000000 0.049916 0.000000
# 6 0.000000 0.000000 0.000000 0.000000 0.000000 0.030154
#
#
# Mechanical properties :
#
#
# Convention : Reuss Voigt Hill
#
# Bulk Modulus (GPa) = 56.07474 68.02969 62.05222
# Shear Modulus (GPa) = -115.13758 21.43845 -46.84957
#
# Velocity S-wave (km/s) = -7.76832 3.35209 -4.95532
# Velocity P-wave (km/s) = 7.14647 7.11606 0.46575
#
# Compressibility (1/GPa) = 0.01783334
#
# Stress axis : x y z
#
# Youngs Moduli (GPa) = 34.46745 106.27226 75.11997
#
# Poissons Ratio (x) = 0.76067 0.62175
# Poissons Ratio (y) = 0.24671 0.11390
# Poissons Ratio (z) = 0.28528 0.16113
#
# Static dielectric constant tensor:
#      x y z
#    x 1.638150 0.000000 0.000000 
#    y 0.000000 1.652470 0.000000 
#    z 0.000000 0.000000 1.636460 
# 
# From -- ./inp_files/23163.got.cif
#   From: 2010.05.17/outbox.cif.g08.bks.cpg/sg46_12_cif.got.tgz:23163.got - 2010.06.03 19:58:25.
