data_PCOD9379267
_publ_section_title
;
Structure prediction by ZEFSAII (Michael W. Deem and Ramdas Pophale) SiO2 
 PCOD9379267
Probable space group: I M A 2
;
_chemical_formula_sum "Si O2"
_cell_formula_units_Z 64
_cell_length_a 7.863821
_cell_length_b 25.934893
_cell_length_c 15.431564
_cell_angle_alpha 90.000000
_cell_angle_beta 90.000000
_cell_angle_gamma 90.000000
_cell_volume 3147.226680
_symmetry_space_group_name_H-M "I M A 2"
_symmetry_group_IT_number 46
_symmetry_cell_setting 'orthorhombic'
loop_
_space_group_symop_operation_xyz
x,y,z
-x,-y,z
1/2-x,y,z
1/2+x,-y,z
1/2+x,1/2+y,1/2+z
1/2-x,1/2-y,1/2+z
-x,1/2+y,1/2+z
x,1/2-y,1/2+z
loop_
_atom_site_type_symbol
_atom_site_label
_atom_site_fract_x
_atom_site_fract_y
_atom_site_fract_z
Si Si1 0.541081 0.394851 0.426800
Si Si2 0.547260 0.440370 0.243242
Si Si3 0.448279 0.780910 0.908796
Si Si4 0.953453 0.766416 0.710911
Si Si5 0.550048 0.860790 0.596962
Si Si6 0.545533 0.057848 0.105383
Si Si7 0.044059 0.651396 0.724402
Si Si8 0.548043 0.331122 0.918157
O O1 0.750000 0.394195 0.425210
O O2 0.483253 0.416837 0.334371
O O3 0.480585 0.335835 0.437945
O O4 0.486284 0.429305 0.507816
O O5 0.500000 0.500000 0.237033
O O6 0.750000 0.435717 0.243820
O O7 0.482464 0.407259 0.162572
O O8 0.250000 0.781680 0.934337
O O9 0.463061 0.778184 0.804213
O O10 0.524171 0.726234 0.938510
O O11 0.750000 0.772204 0.721026
O O12 0.017739 0.808603 0.642637
O O13 0.992562 0.707306 0.687584
O O14 0.750000 0.854230 0.586798
O O15 0.478964 0.866733 0.500686
O O16 0.750000 0.061232 0.104497
O O17 0.482311 0.102862 0.169137
O O18 0.500000 0.000000 0.131209
O O19 0.250000 0.649914 0.723881
O O20 0.983373 0.650427 0.824624
O O21 0.750000 0.324541 0.906516
#
# Coordination Sequence:
#
# PCOD9379267 Si02
#       8
#     8   8   8   8   8   8   8   8
#     4   9  18  33  56  85 114 149 187 224 273 335
#     4  11  22  38  60  83 114 152 192 235 281 335
#     4   9  17  33  55  82 113 148 189 223 269 336
#     4  10  20  33  52  81 115 146 181 229 282 333
#     4  11  23  37  54  82 117 152 190 231 283 341
#     4  10  21  38  59  84 113 146 189 236 280 334
#     4   9  20  38  60  82 109 148 193 235 280 338
#     4   9  19  34  56  83 111 146 188 235 282 333
#
# _framework density 20.335363999999998
#
# number of rings (size 3 to 8) (size 9 to 14) (size 15 to 20)
#    0.000    2.250    1.250    2.250    1.750    4.000 
#    0.000    1.875    0.000    1.500    0.000    0.000 
#    0.000    0.000    0.000    0.000    0.000    0.000 
#
# Total GULP energy -178632.372242 kJ/mol
# GULP energy per Si atom -5582.261633 kJ/mol
# Density = 2.028908 g / cm^3
# Si number density = 20.335364 Si / 1000 Ang^3
#
#
#
# Elastic Constant Matrix: (Units=GPa)
#
#
# Indices 1 2 3 4 5 6 
#
# 1 17.4621 -7.0762 -4.0331 0.0000 0.0000 0.0000
# 2 -7.0762 121.1026 49.4944 0.0000 0.0000 0.0000
# 3 -4.0331 49.4944 80.3454 0.0001 -0.0001 0.0000
# 4 0.0000 0.0000 0.0001 29.4984 0.0000 0.0000
# 5 0.0000 0.0000 -0.0001 0.0000 -6.6178 0.0000
# 6 0.0000 0.0000 0.0000 0.0000 0.0000 19.6128
#
#
#
# Elastic Compliance Matrix: (Units=1/GPa)
#
#
# Indices 1 2 3 4 5 6 
#
# 1 0.058730 0.002976 0.001115 0.000000 0.000000 0.000000
# 2 0.002976 0.011187 -0.006742 0.000000 0.000000 0.000000
# 3 0.001115 -0.006742 0.016655 0.000000 0.000000 0.000000
# 4 0.000000 0.000000 0.000000 0.033900 0.000000 0.000000
# 5 0.000000 0.000000 0.000000 0.000000 -0.151107 0.000000
# 6 0.000000 0.000000 0.000000 0.000000 0.000000 0.050987
#
#
# Mechanical properties :
#
#
# Convention : Reuss Voigt Hill
#
# Bulk Modulus (GPa) = 12.30458 32.85334 22.57896
# Shear Modulus (GPa) = 94.79614 20.53369 57.66491
#
# Velocity S-wave (km/s) = 6.83503 3.18111 5.33090
# Velocity P-wave (km/s) = 8.26765 5.44825 7.00134
#
# Compressibility (1/GPa) = 0.08127058
#
# Stress axis : x y z
#
# Youngs Moduli (GPa) = 17.02694 89.39144 60.04073
#
# Poissons Ratio (x) = -0.26604 -0.06693
# Poissons Ratio (y) = -0.05067 0.40479
# Poissons Ratio (z) = -0.01898 0.60267
#
# Static dielectric constant tensor:
#      x y z
#    x 1.741920 0.000000 0.000000 
#    y 0.000000 1.708370 0.000000 
#    z 0.000000 0.000000 1.731470 
# 
# From -- ./inp_files/14498.got.cif
#   From: 2010.05.17/outbox.cif.g08.bks.cpg/sg46_8_cif.got.tgz:14498.got - 2010.06.03 19:58:25.
