data_PCOD9379296
_publ_section_title
;
Structure prediction by ZEFSAII (Michael W. Deem and Ramdas Pophale) SiO2 
 PCOD9379296
Probable space group: I M A 2
;
_chemical_formula_sum "Si O2"
_cell_formula_units_Z 64
_cell_length_a 27.837425
_cell_length_b 15.047414
_cell_length_c 8.553074
_cell_angle_alpha 90.000000
_cell_angle_beta 90.000000
_cell_angle_gamma 90.000000
_cell_volume 3582.722403
_symmetry_space_group_name_H-M "I M A 2"
_symmetry_group_IT_number 46
_symmetry_cell_setting 'orthorhombic'
loop_
_space_group_symop_operation_xyz
x,y,z
-x,-y,z
1/2-x,y,z
1/2+x,-y,z
1/2+x,1/2+y,1/2+z
1/2-x,1/2-y,1/2+z
-x,1/2+y,1/2+z
x,1/2-y,1/2+z
loop_
_atom_site_type_symbol
_atom_site_label
_atom_site_fract_x
_atom_site_fract_y
_atom_site_fract_z
Si Si1 0.566632 0.551503 0.318450
Si Si2 0.551903 0.852848 0.327135
Si Si3 0.549372 0.176928 0.491511
Si Si4 0.461405 0.865412 0.855260
Si Si5 0.696212 0.608597 0.020704
Si Si6 0.195853 0.272955 0.710165
Si Si7 0.101291 0.501984 0.977770
Si Si8 0.600008 0.802458 0.021680
O O1 0.569217 0.453420 0.390729
O O2 0.515940 0.598068 0.359408
O O3 0.573358 0.532831 0.134498
O O4 0.602529 0.621626 0.391388
O O5 0.498273 0.851486 0.394451
O O6 0.575255 0.949466 0.338862
O O7 0.558647 0.818709 0.151644
O O8 0.584298 0.787991 0.436199
O O9 0.542653 0.164723 0.675774
O O10 0.553676 0.280986 0.455403
O O11 0.591844 0.106453 0.455582
O O12 0.750000 0.570823 0.011076
O O13 0.692366 0.682815 0.881367
O O14 0.692718 0.666659 0.179994
O O15 0.655020 0.535456 0.998619
O O16 0.250000 0.296812 0.652856
O O17 0.149676 0.304993 0.614838
#
# Coordination Sequence:
#
# PCOD9379296 Si02
#       8
#     8   8   8   8   8   8   8   8
#     4  10  22  36  53  74 110 143 180 219 272 317
#     4  12  21  32  50  79 109 143 184 215 256 321
#     4  11  22  36  55  76 106 145 182 222 264 318
#     4  10  21  38  52  75 107 145 176 226 265 312
#     4  10  21  36  54  80 108 141 184 228 274 324
#     4  10  20  34  51  74 108 142 178 220 267 322
#     4  11  21  37  54  76 109 146 181 220 268 322
#     4  12  21  33  52  78 108 149 179 218 269 321
#
# _framework density 17.863510000000002
#
# number of rings (size 3 to 8) (size 9 to 14) (size 15 to 20)
#    0.000    1.250    5.000    1.875    1.750    1.000 
#    2.250    0.000    0.000    0.000    0.000    4.375 
#    0.000    0.000    0.000    0.000    0.000    0.000 
#
# Total GULP energy -178426.643009 kJ/mol
# GULP energy per Si atom -5575.832594 kJ/mol
# Density = 1.782285 g / cm^3
# Si number density = 17.863510 Si / 1000 Ang^3
#
#
#
# Elastic Constant Matrix: (Units=GPa)
#
#
# Indices 1 2 3 4 5 6 
#
# 1 78.1761 36.1934 0.9799 0.0000 0.0000 0.0000
# 2 36.1934 125.0627 20.7632 0.0000 0.0000 0.0000
# 3 0.9799 20.7632 39.6637 0.0000 0.0000 0.0000
# 4 0.0000 0.0000 0.0000 26.3211 0.0000 0.0000
# 5 0.0000 0.0000 0.0000 0.0000 16.1729 0.0000
# 6 0.0000 0.0000 0.0000 0.0000 0.0000 24.0097
#
#
#
# Elastic Compliance Matrix: (Units=1/GPa)
#
#
# Indices 1 2 3 4 5 6 
#
# 1 0.014925 -0.004663 0.002072 0.000000 0.000000 0.000000
# 2 -0.004663 0.010214 -0.005232 0.000000 0.000000 0.000000
# 3 0.002072 -0.005232 0.027899 0.000000 0.000000 0.000000
# 4 0.000000 0.000000 0.000000 0.037992 0.000000 0.000000
# 5 0.000000 0.000000 0.000000 0.000000 0.061832 0.000000
# 6 0.000000 0.000000 0.000000 0.000000 0.000000 0.041650
#
#
# Mechanical properties :
#
#
# Convention : Reuss Voigt Hill
#
# Bulk Modulus (GPa) = 26.74287 39.86393 33.30340
# Shear Modulus (GPa) = 22.45962 25.63181 24.04571
#
# Velocity S-wave (km/s) = 3.54968 3.79208 3.67288
# Velocity P-wave (km/s) = 5.63945 6.44495 6.05561
#
# Compressibility (1/GPa) = 0.03739314
#
# Stress axis : x y z
#
# Youngs Moduli (GPa) = 67.00329 97.90357 35.84297
#
# Poissons Ratio (x) = 0.45655 -0.07428
# Poissons Ratio (y) = 0.31246 0.18752
# Poissons Ratio (z) = -0.13886 0.51220
#
# Static dielectric constant tensor:
#      x y z
#    x 1.657540 0.000000 0.000000 
#    y 0.000000 1.637180 0.000000 
#    z 0.000000 0.000000 1.665760 
# 
# From -- ./inp_files/8539.got.cif
#   From: 2010.05.17/outbox.cif.g08.bks.cpg/sg46_5_cif.got.tgz:8539.got - 2010.06.03 19:58:25.
