data_PCOD9379751
_publ_section_title
;
Structure prediction by ZEFSAII (Michael W. Deem and Ramdas Pophale) SiO2 
 PCOD9379751
Probable space group: I M A 2
;
_chemical_formula_sum "Si O2"
_cell_formula_units_Z 60
_cell_length_a 17.481448
_cell_length_b 13.171435
_cell_length_c 12.238630
_cell_angle_alpha 90.000000
_cell_angle_beta 90.000000
_cell_angle_gamma 90.000000
_cell_volume 2818.015004
_symmetry_space_group_name_H-M "I M A 2"
_symmetry_group_IT_number 46
_symmetry_cell_setting 'orthorhombic'
loop_
_space_group_symop_operation_xyz
x,y,z
-x,-y,z
1/2-x,y,z
1/2+x,-y,z
1/2+x,1/2+y,1/2+z
1/2-x,1/2-y,1/2+z
-x,1/2+y,1/2+z
x,1/2-y,1/2+z
loop_
_atom_site_type_symbol
_atom_site_label
_atom_site_fract_x
_atom_site_fract_y
_atom_site_fract_z
Si Si1 0.009382 0.214769 0.583190
Si Si2 0.161951 0.029523 0.069617
Si Si3 0.608401 0.264037 0.895734
Si Si4 0.162845 0.247305 0.161213
Si Si5 0.250000 0.682105 0.053501
Si Si6 0.841822 0.596801 0.331101
Si Si7 0.446804 0.904576 0.213492
Si Si8 0.387772 0.597914 0.208746
O O1 0.967431 0.236687 0.469976
O O2 0.964263 0.123118 0.641049
O O3 0.100267 0.205372 0.580120
O O4 0.994144 0.311552 0.662493
O O5 0.250000 0.995402 0.058535
O O6 0.160691 0.126259 0.150189
O O7 0.110469 0.942208 0.119147
O O8 0.132512 0.071944 0.953650
O O9 0.600483 0.360552 0.814804
O O10 0.612131 0.166269 0.818280
O O11 0.682255 0.274219 0.971419
O O12 0.250000 0.277735 0.133204
O O13 0.144363 0.292275 0.280686
O O14 0.317311 0.635599 0.134926
O O15 0.750000 0.582998 0.332763
O O16 0.877306 0.516421 0.247863
O O17 0.500000 0.000000 0.242255
#
# Coordination Sequence:
#
# PCOD9379751 Si02
#       8
#     8   8   8   8   4   8   8   8
#     4  10  22  42  62  93 131 170 217 265 338 388
#     4  10  22  41  67  95 124 168 220 266 326 385
#     4  10  23  39  63  95 134 172 207 268 336 389
#     4  10  22  43  65  89 128 168 222 282 316 375
#     4  10  20  38  60  96 130 168 208 252 334 400
#     4  10  21  40  65  96 126 166 221 269 320 384
#     4  11  22  43  64  94 130 167 219 274 316 400
#     4  10  20  39  63  92 132 168 210 267 319 398
#
# _framework density 21.291582999999999
#
# number of rings (size 3 to 8) (size 9 to 14) (size 15 to 20)
#    0.000    1.867    2.000    1.200    0.933    2.667 
#   16.800    0.000    2.933    0.000    0.000    0.000 
#    0.000    0.000    0.000    0.000    0.000    0.000 
#
# Total GULP energy -167105.249499 kJ/mol
# GULP energy per Si atom -5570.174983 kJ/mol
# Density = 2.124312 g / cm^3
# Si number density = 21.291583 Si / 1000 Ang^3
#
#
#
# Elastic Constant Matrix: (Units=GPa)
#
#
# Indices 1 2 3 4 5 6 
#
# 1 110.9524 -1.2782 27.9138 0.0000 0.0000 0.0000
# 2 -1.2782 54.5121 21.2035 0.0000 0.0000 0.0000
# 3 27.9138 21.2035 42.0328 0.0000 0.0000 0.0000
# 4 0.0000 0.0000 0.0000 23.1900 0.0000 0.0000
# 5 0.0000 0.0000 0.0000 0.0000 15.8256 0.0000
# 6 0.0000 0.0000 0.0000 0.0000 0.0000 22.1063
#
#
#
# Elastic Compliance Matrix: (Units=1/GPa)
#
#
# Indices 1 2 3 4 5 6 
#
# 1 0.011490 0.004028 -0.009662 0.000000 0.000000 0.000000
# 2 0.004028 0.024235 -0.014900 0.000000 0.000000 0.000000
# 3 -0.009662 -0.014900 0.037724 0.000000 0.000000 0.000000
# 4 0.000000 0.000000 0.000000 0.043122 0.000000 0.000000
# 5 0.000000 0.000000 0.000000 0.000000 0.063189 0.000000
# 6 0.000000 0.000000 0.000000 0.000000 0.000000 0.045236
#
#
# Mechanical properties :
#
#
# Convention : Reuss Voigt Hill
#
# Bulk Modulus (GPa) = 30.88367 33.68615 32.28491
# Shear Modulus (GPa) = 18.05977 22.86825 20.46401
#
# Velocity S-wave (km/s) = 2.91557 3.28083 3.10358
# Velocity P-wave (km/s) = 5.08632 5.49613 5.29519
#
# Compressibility (1/GPa) = 0.03237958
#
# Stress axis : x y z
#
# Youngs Moduli (GPa) = 87.03084 41.26320 26.50823
#
# Poissons Ratio (x) = -0.16620 0.25613
# Poissons Ratio (y) = -0.35054 0.39498
# Poissons Ratio (z) = 0.84093 0.61483
#
# Static dielectric constant tensor:
#      x y z
#    x 1.791680 0.000000 0.000000 
#    y 0.000000 1.787230 0.000000 
#    z 0.000000 0.000000 1.764330 
# 
# From -- ./inp_files/11915.got.cif
#   From: 2010.05.17/outbox.cif.g08.bks.cpg/sg46_6_cif.got.tgz:11915.got - 2010.06.03 19:58:25.
