data_PCOD9379575
_publ_section_title
;
Structure prediction by ZEFSAII (Michael W. Deem and Ramdas Pophale) SiO2 
 PCOD9379575
Probable space group: I M A 2
;
_chemical_formula_sum "Si O2"
_cell_formula_units_Z 64
_cell_length_a 16.116331
_cell_length_b 9.229067
_cell_length_c 21.603142
_cell_angle_alpha 90.000000
_cell_angle_beta 90.000000
_cell_angle_gamma 90.000000
_cell_volume 3213.223227
_symmetry_space_group_name_H-M "I M A 2"
_symmetry_group_IT_number 46
_symmetry_cell_setting 'orthorhombic'
loop_
_space_group_symop_operation_xyz
x,y,z
-x,-y,z
1/2-x,y,z
1/2+x,-y,z
1/2+x,1/2+y,1/2+z
1/2-x,1/2-y,1/2+z
-x,1/2+y,1/2+z
x,1/2-y,1/2+z
loop_
_atom_site_type_symbol
_atom_site_label
_atom_site_fract_x
_atom_site_fract_y
_atom_site_fract_z
Si Si1 0.407299 0.066218 0.252880
Si Si2 0.407507 0.929599 0.130371
Si Si3 0.649272 0.890282 0.742269
Si Si4 0.151631 0.406041 0.889096
Si Si5 0.585187 0.425124 0.006708
Si Si6 0.151414 0.422153 0.378692
Si Si7 0.154059 0.614951 0.134783
Si Si8 0.086971 0.917646 0.995506
O O1 0.399009 0.238223 0.241073
O O2 0.366508 0.039499 0.319644
O O3 0.500000 0.000000 0.257010
O O4 0.366773 0.994948 0.191876
O O5 0.404182 0.756338 0.138637
O O6 0.500000 0.000000 0.128547
O O7 0.370564 0.956776 0.061729
O O8 0.750000 0.861285 0.741824
O O9 0.627124 0.962277 0.808580
O O10 0.631014 0.994517 0.685098
O O11 0.250000 0.404249 0.898148
O O12 0.113123 0.500936 0.943228
O O13 0.118508 0.240236 0.892497
O O14 0.500000 0.500000 0.026175
O O15 0.575230 0.254200 0.995946
O O16 0.646447 0.443370 0.064813
O O17 0.250000 0.408409 0.377275
O O18 0.130252 0.530935 0.433167
O O19 0.250000 0.658260 0.146175
O O20 0.000000 0.000000 0.995318
#
# Coordination Sequence:
#
# PCOD9379575 Si02
#       8
#     8   8   8   8   8   8   8   8
#     4  10  20  36  59  87 117 153 198 243 297 357
#     4   9  21  39  57  84 120 155 193 242 302 362
#     4   9  20  39  60  84 117 155 196 245 299 355
#     4  10  21  38  59  85 117 153 196 244 295 354
#     4  11  23  38  59  86 120 155 192 243 299 356
#     4   9  19  37  59  82 111 147 188 237 289 344
#     4  10  22  40  63  90 118 154 203 253 300 356
#     4  10  21  37  56  80 111 148 190 233 284 346
#
# _framework density 19.917695999999999
#
# number of rings (size 3 to 8) (size 9 to 14) (size 15 to 20)
#    0.000    2.250    0.000    2.625    0.000   11.500 
#    0.000    5.625    0.000    0.000    0.000    0.000 
#    0.000    0.000    0.000    0.000    0.000    0.000 
#
# Total GULP energy -178398.486140 kJ/mol
# GULP energy per Si atom -5574.952692 kJ/mol
# Density = 1.987236 g / cm^3
# Si number density = 19.917696 Si / 1000 Ang^3
#
#
#
# Elastic Constant Matrix: (Units=GPa)
#
#
# Indices 1 2 3 4 5 6 
#
# 1 36.1877 28.3987 9.7334 0.0000 0.0000 0.0000
# 2 28.3987 98.4883 83.2183 0.0000 0.0000 0.0000
# 3 9.7334 83.2183 157.0587 0.0000 0.0000 0.0000
# 4 0.0000 0.0000 0.0000 43.4476 0.0000 0.0000
# 5 0.0000 0.0000 0.0000 0.0000 27.5853 0.0000
# 6 0.0000 0.0000 0.0000 0.0000 0.0000 24.5747
#
#
#
# Elastic Compliance Matrix: (Units=1/GPa)
#
#
# Indices 1 2 3 4 5 6 
#
# 1 0.038980 -0.016655 0.006409 0.000000 0.000000 0.000000
# 2 -0.016655 0.025500 -0.012479 0.000000 0.000000 0.000000
# 3 0.006409 -0.012479 0.012582 0.000000 0.000000 0.000000
# 4 0.000000 0.000000 0.000000 0.023016 0.000000 0.000000
# 5 0.000000 0.000000 0.000000 0.000000 0.036251 0.000000
# 6 0.000000 0.000000 0.000000 0.000000 0.000000 0.040692
#
#
# Mechanical properties :
#
#
# Convention : Reuss Voigt Hill
#
# Bulk Modulus (GPa) = 31.63367 59.38171 45.50769
# Shear Modulus (GPa) = 21.45824 30.48047 25.96936
#
# Velocity S-wave (km/s) = 3.28586 3.91618 3.61478
# Velocity P-wave (km/s) = 5.50568 7.09414 6.34978
#
# Compressibility (1/GPa) = 0.03161188
#
# Stress axis : x y z
#
# Youngs Moduli (GPa) = 25.65402 39.21496 79.47799
#
# Poissons Ratio (x) = 0.65313 -0.50938
# Poissons Ratio (y) = 0.42727 0.99183
# Poissons Ratio (z) = -0.16442 0.48938
#
# Static dielectric constant tensor:
#      x y z
#    x 1.722070 0.000000 0.000000 
#    y 0.000000 1.684720 0.000000 
#    z 0.000000 0.000000 1.734510 
# 
# From -- ./inp_files/22213.got.cif
#   From: 2010.05.17/outbox.cif.g08.bks.cpg/sg46_12_cif.got.tgz:22213.got - 2010.06.03 19:58:25.
