data_PCOD9379237
_publ_section_title
;
Structure prediction by ZEFSAII (Michael W. Deem and Ramdas Pophale) SiO2 
 PCOD9379237
Probable space group: I M A 2
;
_chemical_formula_sum "Si O2"
_cell_formula_units_Z 64
_cell_length_a 7.757973
_cell_length_b 17.202281
_cell_length_c 22.935079
_cell_angle_alpha 90.000000
_cell_angle_beta 90.000000
_cell_angle_gamma 90.000000
_cell_volume 3060.797104
_symmetry_space_group_name_H-M "I M A 2"
_symmetry_group_IT_number 46
_symmetry_cell_setting 'orthorhombic'
loop_
_space_group_symop_operation_xyz
x,y,z
-x,-y,z
1/2-x,y,z
1/2+x,-y,z
1/2+x,1/2+y,1/2+z
1/2-x,1/2-y,1/2+z
-x,1/2+y,1/2+z
x,1/2-y,1/2+z
loop_
_atom_site_type_symbol
_atom_site_label
_atom_site_fract_x
_atom_site_fract_y
_atom_site_fract_z
Si Si1 0.955823 0.917130 0.786580
Si Si2 0.462259 0.237433 0.452386
Si Si3 0.050471 0.087201 0.380270
Si Si4 0.544266 0.083076 0.118332
Si Si5 0.957430 0.913262 0.919335
Si Si6 0.048759 0.250384 0.579824
Si Si7 0.038780 0.276681 0.208512
Si Si8 0.551751 0.109792 0.248074
O O1 0.750000 0.908776 0.791131
O O2 0.023661 0.914552 0.852430
O O3 0.018048 0.850052 0.744978
O O4 0.000000 0.000000 0.760770
O O5 0.250000 0.239409 0.449987
O O6 0.523074 0.167007 0.409766
O O7 0.516374 0.327736 0.441418
O O8 0.520486 0.220413 0.518633
O O9 0.250000 0.092716 0.393178
O O10 0.026774 0.088709 0.310146
O O11 0.000000 0.000000 0.400400
O O12 0.750000 0.093789 0.120738
O O13 0.467868 0.155969 0.084232
O O14 0.475662 0.082865 0.185543
O O15 0.500000 0.000000 0.092040
O O16 0.750000 0.910267 0.920566
O O17 0.000000 0.000000 0.944226
O O18 0.250000 0.230224 0.580032
O O19 0.977357 0.221888 0.641670
O O20 0.250000 0.270381 0.208733
O O21 0.964580 0.201814 0.240522
O O22 0.750000 0.083920 0.250146
#
# Coordination Sequence:
#
# PCOD9379237 Si02
#       8
#     8   8   8   8   8   8   8   8
#     4   9  17  29  46  70  98 127 160 200 249 303
#     4   9  19  36  56  75 101 139 177 214 258 308
#     4  11  22  37  56  78 106 140 180 224 269 317
#     4  10  20  33  50  75 106 136 165 204 255 310
#     4   9  17  31  50  73 101 131 163 200 246 300
#     4   9  18  34  54  73  95 129 173 213 251 303
#     4   9  17  31  52  75 100 132 168 208 258 314
#     4  10  20  33  52  79 107 134 168 211 262 319
#
# _framework density 20.909586000000001
#
# number of rings (size 3 to 8) (size 9 to 14) (size 15 to 20)
#    0.000    2.500    0.000    2.250    0.000    5.500 
#    0.000    7.500    0.000    0.000    0.000    0.000 
#    0.000    0.000    0.000    0.000    0.000    0.000 
#
# Total GULP energy -178307.248666 kJ/mol
# GULP energy per Si atom -5572.101521 kJ/mol
# Density = 2.086200 g / cm^3
# Si number density = 20.909586 Si / 1000 Ang^3
#
#
#
# Elastic Constant Matrix: (Units=GPa)
#
#
# Indices 1 2 3 4 5 6 
#
# 1 29.5122 0.4785 0.9744 0.0000 0.0000 0.0000
# 2 0.4785 120.7877 55.9997 0.0000 0.0000 0.0000
# 3 0.9744 55.9997 85.3316 0.0000 0.0000 0.0000
# 4 0.0000 0.0000 0.0000 -1.0889 0.0000 0.0000
# 5 0.0000 0.0000 0.0000 0.0000 7.1007 0.0000
# 6 0.0000 0.0000 0.0000 0.0000 0.0000 23.4853
#
#
#
# Elastic Compliance Matrix: (Units=1/GPa)
#
#
# Indices 1 2 3 4 5 6 
#
# 1 0.033897 0.000065 -0.000430 0.000000 0.000000 0.000000
# 2 0.000065 0.011900 -0.007810 0.000000 0.000000 0.000000
# 3 -0.000430 -0.007810 0.016849 0.000000 0.000000 0.000000
# 4 0.000000 0.000000 0.000000 -0.918323 0.000000 0.000000
# 5 0.000000 0.000000 0.000000 0.000000 0.140832 0.000000
# 6 0.000000 0.000000 0.000000 0.000000 0.000000 0.042580
#
#
# Mechanical properties :
#
#
# Convention : Reuss Voigt Hill
#
# Bulk Modulus (GPa) = 21.59976 38.94853 30.27415
# Shear Modulus (GPa) = -7.80660 17.77799 4.98569
#
# Velocity S-wave (km/s) = -1.93432 2.91904 1.54583
# Velocity P-wave (km/s) = 2.31596 5.47983 4.20668
#
# Compressibility (1/GPa) = 0.04629680
#
# Stress axis : x y z
#
# Youngs Moduli (GPa) = 29.50080 84.03639 59.34972
#
# Poissons Ratio (x) = -0.00545 0.02550
# Poissons Ratio (y) = -0.00191 0.46352
# Poissons Ratio (z) = 0.01268 0.65632
#
# Static dielectric constant tensor:
#      x y z
#    x 1.786530 0.000000 0.000000 
#    y 0.000000 1.778280 0.000000 
#    z 0.000000 0.000000 1.763790 
# 
# From -- ./inp_files/23283.got.cif
#   From: 2010.05.17/outbox.cif.g08.bks.cpg/sg46_12_cif.got.tgz:23283.got - 2010.06.03 19:58:25.
