data_PCOD9379550
_publ_section_title
;
Structure prediction by ZEFSAII (Michael W. Deem and Ramdas Pophale) SiO2 
 PCOD9379550
Probable space group: I M A 2
;
_chemical_formula_sum "Si O2"
_cell_formula_units_Z 56
_cell_length_a 18.638711
_cell_length_b 13.846358
_cell_length_c 10.400959
_cell_angle_alpha 90.000000
_cell_angle_beta 90.000000
_cell_angle_gamma 90.000000
_cell_volume 2684.261455
_symmetry_space_group_name_H-M "I M A 2"
_symmetry_group_IT_number 46
_symmetry_cell_setting 'orthorhombic'
loop_
_space_group_symop_operation_xyz
x,y,z
-x,-y,z
1/2-x,y,z
1/2+x,-y,z
1/2+x,1/2+y,1/2+z
1/2-x,1/2-y,1/2+z
-x,1/2+y,1/2+z
x,1/2-y,1/2+z
loop_
_atom_site_type_symbol
_atom_site_label
_atom_site_fract_x
_atom_site_fract_y
_atom_site_fract_z
Si Si1 0.835923 0.553349 0.535710
Si Si2 0.164009 0.071963 0.733103
Si Si3 0.838277 0.339643 0.597745
Si Si4 0.417275 0.267464 0.657953
Si Si5 0.468560 0.347144 0.918699
Si Si6 0.609947 0.470336 0.986519
Si Si7 0.168286 0.709954 0.869981
O O1 0.750000 0.561140 0.548921
O O2 0.851373 0.552338 0.382820
O O3 0.859893 0.450698 0.592225
O O4 0.872355 0.641257 0.608627
O O5 0.250000 0.068358 0.713656
O O6 0.133479 0.178307 0.701286
O O7 0.127506 0.995850 0.634587
O O8 0.750000 0.337648 0.598596
O O9 0.864095 0.291329 0.728864
O O10 0.864617 0.280807 0.474767
O O11 0.458434 0.228551 0.533091
O O12 0.465118 0.298536 0.779635
O O13 0.538495 0.408727 0.955900
O O14 0.402956 0.424984 0.923454
O O15 0.667992 0.399090 0.924836
O O16 0.250000 0.743267 0.854427
#
# Coordination Sequence:
#
# PCOD9379550 Si02
#       7
#     8   8   8   8   8   8   8
#     4  10  20  36  61  96 133 164 208 273 348 413
#     4  10  21  37  65 101 130 168 212 278 353 414
#     4   9  20  34  53  83 119 153 192 245 312 384
#     4  11  20  41  63  94 127 167 213 272 330 411
#     4  10  23  40  63  83 125 166 213 266 323 387
#     4  10  22  40  61  85 122 165 217 263 321 395
#     4  10  20  36  58  84 114 156 202 260 323 384
#
# _framework density 20.862349999999999
#
# number of rings (size 3 to 8) (size 9 to 14) (size 15 to 20)
#    0.000    2.000    1.429    1.714    2.000    1.143 
#    0.000    1.429    0.000    0.000    0.000    0.000 
#    0.000    0.000    0.000    0.000    0.000    0.000 
#
# Total GULP energy -156297.337131 kJ/mol
# GULP energy per Si atom -5582.047755 kJ/mol
# Density = 2.081487 g / cm^3
# Si number density = 20.862350 Si / 1000 Ang^3
#
#
#
# Elastic Constant Matrix: (Units=GPa)
#
#
# Indices 1 2 3 4 5 6 
#
# 1 39.1088 14.1695 30.0030 0.0000 0.0000 0.0000
# 2 14.1695 96.2216 67.7624 0.0000 0.0000 0.0000
# 3 30.0030 67.7624 169.4679 0.0000 0.0000 0.0000
# 4 0.0000 0.0000 0.0000 37.4636 0.0000 0.0000
# 5 0.0000 0.0000 0.0000 0.0000 16.8567 0.0000
# 6 0.0000 0.0000 0.0000 0.0000 0.0000 21.7566
#
#
#
# Elastic Compliance Matrix: (Units=1/GPa)
#
#
# Indices 1 2 3 4 5 6 
#
# 1 0.029648 -0.000932 -0.004876 0.000000 0.000000 0.000000
# 2 -0.000932 0.014496 -0.005631 0.000000 0.000000 0.000000
# 3 -0.004876 -0.005631 0.009016 0.000000 0.000000 0.000000
# 4 0.000000 0.000000 0.000000 0.026693 0.000000 0.000000
# 5 0.000000 0.000000 0.000000 0.000000 0.059324 0.000000
# 6 0.000000 0.000000 0.000000 0.000000 0.000000 0.045963
#
#
# Mechanical properties :
#
#
# Convention : Reuss Voigt Hill
#
# Bulk Modulus (GPa) = 33.02416 58.74092 45.88254
# Shear Modulus (GPa) = 22.92407 28.07292 25.49849
#
# Velocity S-wave (km/s) = 3.31845 3.67226 3.49983
# Velocity P-wave (km/s) = 5.52691 6.79692 6.19455
#
# Compressibility (1/GPa) = 0.03028087
#
# Stress axis : x y z
#
# Youngs Moduli (GPa) = 33.72870 68.98685 110.91671
#
# Poissons Ratio (x) = 0.06429 0.54088
# Poissons Ratio (y) = 0.03143 0.62458
# Poissons Ratio (z) = 0.16448 0.38847
#
# Static dielectric constant tensor:
#      x y z
#    x 1.804610 0.000000 0.000000 
#    y 0.000000 1.725180 0.000000 
#    z 0.000000 0.000000 1.741050 
# 
# From -- ./inp_files/7409.got.cif
#   From: 2010.05.17/outbox.cif.g08.bks.cpg/sg46_4_cif.got.tgz:7409.got - 2010.06.03 19:58:25.
