data_PCOD9379971
_publ_section_title
;
Structure prediction by ZEFSAII (Michael W. Deem and Ramdas Pophale) SiO2 
 PCOD9379971
Probable space group: I M A 2
;
_chemical_formula_sum "Si O2"
_cell_formula_units_Z 36
_cell_length_a 15.065447
_cell_length_b 7.003719
_cell_length_c 12.671206
_cell_angle_alpha 90.000000
_cell_angle_beta 90.000000
_cell_angle_gamma 90.000000
_cell_volume 1336.991624
_symmetry_space_group_name_H-M "I M A 2"
_symmetry_group_IT_number 46
_symmetry_cell_setting 'orthorhombic'
loop_
_space_group_symop_operation_xyz
x,y,z
-x,-y,z
1/2-x,y,z
1/2+x,-y,z
1/2+x,1/2+y,1/2+z
1/2-x,1/2-y,1/2+z
-x,1/2+y,1/2+z
x,1/2-y,1/2+z
loop_
_atom_site_type_symbol
_atom_site_label
_atom_site_fract_x
_atom_site_fract_y
_atom_site_fract_z
Si Si1 0.250000 0.651006 0.168041
Si Si2 0.104015 0.452483 0.771159
Si Si3 0.900147 0.991305 0.815345
Si Si4 0.607068 0.502293 0.007420
Si Si5 0.650688 0.553525 0.537296
O O1 0.328450 0.619406 0.258396
O O2 0.329120 0.626840 0.076921
O O3 0.124936 0.228970 0.791455
O O4 0.127409 0.536703 0.884644
O O5 0.147324 0.507734 0.659831
O O6 0.000000 0.500000 0.755867
O O7 0.905905 0.029476 0.941189
O O8 0.000000 0.000000 0.771691
O O9 0.500000 0.500000 0.019969
O O10 0.631590 0.720073 0.037905
O O11 0.750000 0.526623 0.500029
#
# Coordination Sequence:
#
# PCOD9379971 Si02
#       5
#     4   8   8   8   8
#     4  12  20  36  62  90 114 156 206 244 280 358
#     4  10  22  37  60  86 119 153 193 242 301 341
#     4  11  23  39  63  88 119 155 201 243 293 349
#     4  10  21  35  56  91 117 152 196 247 290 340
#     4  11  20  36  62  88 115 153 204 243 287 352
#
# _framework density 26.926124999999999
#
# number of rings (size 3 to 8) (size 9 to 14) (size 15 to 20)
#    0.000    1.333    4.444    1.333    1.556    0.000 
#    0.000    0.000    2.444    4.000    0.000    0.000 
#    0.000    0.000    0.000    0.000    0.000    0.000 
#
# Total GULP energy -100341.915947 kJ/mol
# GULP energy per Si atom -5574.550886 kJ/mol
# Density = 2.686484 g / cm^3
# Si number density = 26.926125 Si / 1000 Ang^3
#
#
#
# Elastic Constant Matrix: (Units=GPa)
#
#
# Indices 1 2 3 4 5 6 
#
# 1 174.3638 2.3855 65.1764 0.0000 0.0000 0.0000
# 2 2.3855 104.9871 28.9931 0.0000 0.0000 0.0000
# 3 65.1764 28.9931 239.9823 0.0000 0.0000 0.0000
# 4 0.0000 0.0000 0.0000 35.8922 0.0000 0.0000
# 5 0.0000 0.0000 0.0000 0.0000 59.6316 0.0000
# 6 0.0000 0.0000 0.0000 0.0000 0.0000 79.8431
#
#
#
# Elastic Compliance Matrix: (Units=1/GPa)
#
#
# Indices 1 2 3 4 5 6 
#
# 1 0.006395 0.000346 -0.001779 0.000000 0.000000 0.000000
# 2 0.000346 0.009872 -0.001287 0.000000 0.000000 0.000000
# 3 -0.001779 -0.001287 0.004805 0.000000 0.000000 0.000000
# 4 0.000000 0.000000 0.000000 0.027861 0.000000 0.000000
# 5 0.000000 0.000000 0.000000 0.000000 0.016770 0.000000
# 6 0.000000 0.000000 0.000000 0.000000 0.000000 0.012525
#
#
# Mechanical properties :
#
#
# Convention : Reuss Voigt Hill
#
# Bulk Modulus (GPa) = 63.96195 79.16037 71.56116
# Shear Modulus (GPa) = 56.25630 63.25858 59.75744
#
# Velocity S-wave (km/s) = 4.57583 4.85226 4.71607
# Velocity P-wave (km/s) = 7.19192 7.80099 7.50264
#
# Compressibility (1/GPa) = 0.01563430
#
# Stress axis : x y z
#
# Youngs Moduli (GPa) = 156.36582 101.29203 208.09558
#
# Poissons Ratio (x) = -0.03503 0.37013
# Poissons Ratio (y) = -0.05408 0.26775
# Poissons Ratio (z) = 0.27812 0.13033
#
# Static dielectric constant tensor:
#      x y z
#    x 2.023460 0.000000 0.000000 
#    y 0.000000 2.301930 0.000000 
#    z 0.000000 0.000000 2.060370 
# 
# From -- ./inp_files/10856.got.cif
#   From: 2010.05.17/outbox.cif.g08.bks.cpg/sg46_6_cif.got.tgz:10856.got - 2010.06.03 19:58:25.
