data_PCOD9379782
_publ_section_title
;
Structure prediction by ZEFSAII (Michael W. Deem and Ramdas Pophale) SiO2 
 PCOD9379782
Probable space group: I M A 2
;
_chemical_formula_sum "Si O2"
_cell_formula_units_Z 56
_cell_length_a 14.236037
_cell_length_b 20.255501
_cell_length_c 10.385633
_cell_angle_alpha 90.000000
_cell_angle_beta 90.000000
_cell_angle_gamma 90.000000
_cell_volume 2994.781001
_symmetry_space_group_name_H-M "I M A 2"
_symmetry_group_IT_number 46
_symmetry_cell_setting 'orthorhombic'
loop_
_space_group_symop_operation_xyz
x,y,z
-x,-y,z
1/2-x,y,z
1/2+x,-y,z
1/2+x,1/2+y,1/2+z
1/2-x,1/2-y,1/2+z
-x,1/2+y,1/2+z
x,1/2-y,1/2+z
loop_
_atom_site_type_symbol
_atom_site_label
_atom_site_fract_x
_atom_site_fract_y
_atom_site_fract_z
Si Si1 0.858684 0.153455 0.305220
Si Si2 0.959280 0.397001 0.058208
Si Si3 0.640035 0.968706 0.629598
Si Si4 0.358703 0.596753 0.526796
Si Si5 0.033012 0.320385 0.479567
Si Si6 0.508334 0.267369 0.217736
Si Si7 0.639203 0.547572 0.434000
O O1 0.750000 0.160828 0.342693
O O2 0.919530 0.125690 0.421792
O O3 0.863255 0.105844 0.180837
O O4 0.904553 0.222200 0.261456
O O5 0.894327 0.456432 0.109101
O O6 0.959047 0.335636 0.154818
O O7 0.066048 0.424052 0.051866
O O8 0.750000 0.960903 0.597553
O O9 0.625861 0.951569 0.779927
O O10 0.250000 0.604605 0.486638
O O11 0.425254 0.653683 0.471392
O O12 0.392065 0.524222 0.484487
O O13 0.090477 0.388073 0.491652
O O14 0.052018 0.283235 0.345315
O O15 0.042150 0.273776 0.603625
O O16 0.750000 0.551242 0.460726
#
# Coordination Sequence:
#
# PCOD9379782 Si02
#       7
#     8   8   8   8   8   8   8
#     4  10  22  39  58  90 125 159 197 245 303 370
#     4  11  21  39  63  85 126 160 200 247 311 358
#     4  10  22  38  63  92 117 155 205 254 305 363
#     4   9  20  37  61  90 117 149 196 246 305 359
#     4  11  21  38  60  85 121 157 196 243 294 359
#     4  11  22  38  60  84 121 162 201 236 299 360
#     4  10  20  38  63  87 112 150 202 256 299 349
#
# _framework density 18.699197000000002
#
# number of rings (size 3 to 8) (size 9 to 14) (size 15 to 20)
#    0.000    1.714    2.857    1.714    2.000    1.714 
#   10.286    1.429    0.000    0.857    0.000    0.000 
#    0.000    0.000    0.000    0.000    0.000    0.000 
#
# Total GULP energy -156295.128555 kJ/mol
# GULP energy per Si atom -5581.968877 kJ/mol
# Density = 1.865664 g / cm^3
# Si number density = 18.699197 Si / 1000 Ang^3
#
#
#
# Elastic Constant Matrix: (Units=GPa)
#
#
# Indices 1 2 3 4 5 6 
#
# 1 59.7147 27.9136 20.1387 0.0000 0.0000 0.0000
# 2 27.9136 98.6512 42.6558 0.0000 0.0000 0.0000
# 3 20.1387 42.6558 74.3572 0.0000 0.0000 0.0000
# 4 0.0000 0.0000 0.0000 29.5960 0.0000 0.0000
# 5 0.0000 0.0000 0.0000 0.0000 12.6029 0.0000
# 6 0.0000 0.0000 0.0000 0.0000 0.0000 13.6412
#
#
#
# Elastic Compliance Matrix: (Units=1/GPa)
#
#
# Indices 1 2 3 4 5 6 
#
# 1 0.019743 -0.004354 -0.002849 0.000000 0.000000 0.000000
# 2 -0.004354 0.014441 -0.007105 0.000000 0.000000 0.000000
# 3 -0.002849 -0.007105 0.018296 0.000000 0.000000 0.000000
# 4 0.000000 0.000000 0.000000 0.033788 0.000000 0.000000
# 5 0.000000 0.000000 0.000000 0.000000 0.079347 0.000000
# 6 0.000000 0.000000 0.000000 0.000000 0.000000 0.073307
#
#
# Mechanical properties :
#
#
# Convention : Reuss Voigt Hill
#
# Bulk Modulus (GPa) = 41.90607 46.01551 43.96079
# Shear Modulus (GPa) = 18.14928 20.63567 19.39248
#
# Velocity S-wave (km/s) = 3.11881 3.32559 3.22386
# Velocity P-wave (km/s) = 5.95219 6.27756 6.11704
#
# Compressibility (1/GPa) = 0.02386289
#
# Stress axis : x y z
#
# Youngs Moduli (GPa) = 50.65197 69.24805 54.65670
#
# Poissons Ratio (x) = 0.30152 0.15573
# Poissons Ratio (y) = 0.22055 0.38833
# Poissons Ratio (z) = 0.14432 0.49200
#
# Static dielectric constant tensor:
#      x y z
#    x 1.649910 0.000000 0.000000 
#    y 0.000000 1.638810 0.000000 
#    z 0.000000 0.000000 1.656740 
# 
# From -- ./inp_files/5916.got.cif
#   From: 2010.05.17/outbox.cif.g08.bks.cpg/sg46_3_cif.got.tgz:5916.got - 2010.06.03 19:58:25.
