data_PCOD9379617
_publ_section_title
;
Structure prediction by ZEFSAII (Michael W. Deem and Ramdas Pophale) SiO2 
 PCOD9379617
Probable space group: I M A 2
;
_chemical_formula_sum "Si O2"
_cell_formula_units_Z 44
_cell_length_a 15.182135
_cell_length_b 7.713690
_cell_length_c 17.212169
_cell_angle_alpha 90.000000
_cell_angle_beta 90.000000
_cell_angle_gamma 90.000000
_cell_volume 2015.721981
_symmetry_space_group_name_H-M "I M A 2"
_symmetry_group_IT_number 46
_symmetry_cell_setting 'orthorhombic'
loop_
_space_group_symop_operation_xyz
x,y,z
-x,-y,z
1/2-x,y,z
1/2+x,-y,z
1/2+x,1/2+y,1/2+z
1/2-x,1/2-y,1/2+z
-x,1/2+y,1/2+z
x,1/2-y,1/2+z
loop_
_atom_site_type_symbol
_atom_site_label
_atom_site_fract_x
_atom_site_fract_y
_atom_site_fract_z
Si Si1 0.093256 0.741694 0.205470
Si Si2 0.750000 0.420174 0.799001
Si Si3 0.250000 0.865912 0.932721
Si Si4 0.568109 0.166552 0.030616
Si Si5 0.000000 0.500000 0.792185
Si Si6 0.000000 0.000000 0.807170
Si Si7 0.250000 0.252716 0.399604
Si Si8 0.935217 0.690129 0.920147
O O1 0.168670 0.856744 0.245095
O O2 0.095307 0.756534 0.113903
O O3 0.079441 0.562202 0.250863
O O4 0.005645 0.840271 0.235156
O O5 0.750000 0.299770 0.876291
O O6 0.750000 0.621477 0.826220
O O7 0.250000 0.042780 0.882227
O O8 0.340995 0.867968 0.983193
O O9 0.500000 0.000000 0.037428
O O10 0.508881 0.307298 0.985424
O O11 0.926956 0.533200 0.858420
O O12 0.033626 0.149419 0.865443
O O13 0.337424 0.218516 0.449365
#
# Coordination Sequence:
#
# PCOD9379617 Si02
#       8
#     8   4   4   8   4   4   4   8
#     4  11  23  42  65  98 141 180 231 298 361 413
#     4  12  25  45  71 107 137 181 247 290 348 441
#     4  12  25  47  69 103 145 182 241 297 356 431
#     4  12  24  42  68  99 143 187 225 300 365 418
#     4  10  20  36  64  90 132 172 232 280 328 428
#     4  10  22  42  66  96 132 192 240 288 348 430
#     4  12  22  38  72 106 130 179 240 297 338 416
#     4  11  21  40  65  98 129 178 238 284 348 423
#
# _framework density 21.828408
#
# number of rings (size 3 to 8) (size 9 to 14) (size 15 to 20)
#    0.000    0.727    5.455    3.818    0.000    0.727 
#    0.000    0.000    0.000    3.273    0.000    0.000 
#    0.000    0.000    0.000    0.000    0.000    0.000 
#
# Total GULP energy -122474.551107 kJ/mol
# GULP energy per Si atom -5567.025050 kJ/mol
# Density = 2.177873 g / cm^3
# Si number density = 21.828408 Si / 1000 Ang^3
#
#
#
# Elastic Constant Matrix: (Units=GPa)
#
#
# Indices 1 2 3 4 5 6 
#
# 1 125.5516 10.9912 56.0276 0.0000 0.0000 0.0000
# 2 10.9912 78.7164 52.2907 0.0000 0.0000 0.0000
# 3 56.0276 52.2907 160.7465 0.0000 0.0000 0.0000
# 4 0.0000 0.0000 0.0000 19.6980 0.0000 0.0000
# 5 0.0000 0.0000 0.0000 0.0000 29.2866 0.0000
# 6 0.0000 0.0000 0.0000 0.0000 0.0000 23.5179
#
#
#
# Elastic Compliance Matrix: (Units=1/GPa)
#
#
# Indices 1 2 3 4 5 6 
#
# 1 0.009508 0.001115 -0.003677 0.000000 0.000000 0.000000
# 2 0.001115 0.016337 -0.005703 0.000000 0.000000 0.000000
# 3 -0.003677 -0.005703 0.009358 0.000000 0.000000 0.000000
# 4 0.000000 0.000000 0.000000 0.050767 0.000000 0.000000
# 5 0.000000 0.000000 0.000000 0.000000 0.034145 0.000000
# 6 0.000000 0.000000 0.000000 0.000000 0.000000 0.042521
#
#
# Mechanical properties :
#
#
# Convention : Reuss Voigt Hill
#
# Bulk Modulus (GPa) = 53.55406 67.07039 60.31222
# Shear Modulus (GPa) = 26.97044 30.88083 28.92563
#
# Velocity S-wave (km/s) = 3.51888 3.76534 3.64419
# Velocity P-wave (km/s) = 6.41072 7.04958 6.73773
#
# Compressibility (1/GPa) = 0.01867272
#
# Stress axis : x y z
#
# Youngs Moduli (GPa) = 105.17514 61.21262 106.86568
#
# Poissons Ratio (x) = -0.06824 0.39290
# Poissons Ratio (y) = -0.11724 0.60943
# Poissons Ratio (z) = 0.38669 0.34908
#
# Static dielectric constant tensor:
#      x y z
#    x 2.044700 0.000000 0.000000 
#    y 0.000000 2.019940 0.000000 
#    z 0.000000 0.000000 1.743200 
# 
# From -- ./inp_files/19366.got.cif
#   From: 2010.05.17/outbox.cif.g08.bks.cpg/sg46_10_cif.got.tgz:19366.got - 2010.06.03 19:58:25.
