data_PCOD9379951
_publ_section_title
;
Structure prediction by ZEFSAII (Michael W. Deem and Ramdas Pophale) SiO2 
 PCOD9379951
Probable space group: I M A 2
;
_chemical_formula_sum "Si O2"
_cell_formula_units_Z 40
_cell_length_a 19.735152
_cell_length_b 9.506000
_cell_length_c 8.269018
_cell_angle_alpha 90.000000
_cell_angle_beta 90.000000
_cell_angle_gamma 90.000000
_cell_volume 1551.287250
_symmetry_space_group_name_H-M "I M A 2"
_symmetry_group_IT_number 46
_symmetry_cell_setting 'orthorhombic'
loop_
_space_group_symop_operation_xyz
x,y,z
-x,-y,z
1/2-x,y,z
1/2+x,-y,z
1/2+x,1/2+y,1/2+z
1/2-x,1/2-y,1/2+z
-x,1/2+y,1/2+z
x,1/2-y,1/2+z
loop_
_atom_site_type_symbol
_atom_site_label
_atom_site_fract_x
_atom_site_fract_y
_atom_site_fract_z
Si Si1 0.325124 0.076795 0.650810
Si Si2 0.910579 0.094254 0.442333
Si Si3 0.824307 0.352204 0.405459
Si Si4 0.497516 0.254221 0.702337
Si Si5 0.407414 0.391595 0.447756
O O1 0.250000 0.121817 0.599539
O O2 0.347312 0.152502 0.820106
O O3 0.380633 0.053522 0.508640
O O4 0.321384 0.918106 0.725483
O O5 0.846880 0.193117 0.401951
O O6 0.954653 0.164111 0.585727
O O7 0.960276 0.124402 0.292373
O O8 0.750000 0.372577 0.479003
O O9 0.882402 0.450285 0.483576
O O10 0.432567 0.319907 0.611075
O O11 0.471014 0.143357 0.834535
#
# Coordination Sequence:
#
# PCOD9379951 Si02
#       5
#     8   8   8   8   8
#     4   9  19  37  62  87 120 163 200 254 312 364
#     4  11  19  36  60  92 119 155 198 250 317 374
#     4   9  19  37  62  86 117 156 196 253 312 361
#     4  10  21  33  59  88 120 161 201 246 300 373
#     4   9  20  40  57  84 122 161 205 247 307 363
#
# _framework density 25.785038
#
# number of rings (size 3 to 8) (size 9 to 14) (size 15 to 20)
#    1.200    1.200    2.000    0.600    0.000    7.200 
#    0.000   12.000    0.000    0.000    0.000    0.000 
#    0.000    0.000    0.000    0.000    0.000    0.000 
#
# Total GULP energy -111409.854456 kJ/mol
# GULP energy per Si atom -5570.492723 kJ/mol
# Density = 2.572635 g / cm^3
# Si number density = 25.785038 Si / 1000 Ang^3
#
#
#
# Elastic Constant Matrix: (Units=GPa)
#
#
# Indices 1 2 3 4 5 6 
#
# 1 141.1710 55.5049 41.6177 0.0000 0.0000 0.0000
# 2 55.5049 76.8740 43.7184 0.0000 0.0000 0.0000
# 3 41.6177 43.7184 90.4447 0.0000 0.0000 0.0000
# 4 0.0000 0.0000 0.0000 29.0603 0.0000 0.0000
# 5 0.0000 0.0000 0.0000 0.0000 32.8990 0.0000
# 6 0.0000 0.0000 0.0000 0.0000 0.0000 31.8717
#
#
#
# Elastic Compliance Matrix: (Units=1/GPa)
#
#
# Indices 1 2 3 4 5 6 
#
# 1 0.010045 -0.006377 -0.001540 0.000000 0.000000 0.000000
# 2 -0.006377 0.021988 -0.007694 0.000000 0.000000 0.000000
# 3 -0.001540 -0.007694 0.015484 0.000000 0.000000 0.000000
# 4 0.000000 0.000000 0.000000 0.034411 0.000000 0.000000
# 5 0.000000 0.000000 0.000000 0.000000 0.030396 0.000000
# 6 0.000000 0.000000 0.000000 0.000000 0.000000 0.031376
#
#
# Mechanical properties :
#
#
# Convention : Reuss Voigt Hill
#
# Bulk Modulus (GPa) = 61.36620 65.57462 63.47041
# Shear Modulus (GPa) = 27.72332 29.94280 28.83306
#
# Velocity S-wave (km/s) = 3.28254 3.41140 3.34759
# Velocity P-wave (km/s) = 6.18203 6.40339 6.29368
#
# Compressibility (1/GPa) = 0.01629562
#
# Stress axis : x y z
#
# Youngs Moduli (GPa) = 99.55438 45.47863 64.58254
#
# Poissons Ratio (x) = 0.29002 0.09943
# Poissons Ratio (y) = 0.63486 0.49691
# Poissons Ratio (z) = 0.15327 0.34992
#
# Static dielectric constant tensor:
#      x y z
#    x 2.047600 0.000000 0.000000 
#    y 0.000000 2.082790 0.000000 
#    z 0.000000 0.000000 2.073730 
# 
# From -- ./inp_files/6482.got.cif
#   From: 2010.05.17/outbox.cif.g08.bks.cpg/sg46_4_cif.got.tgz:6482.got - 2010.06.03 19:58:25.
