data_PCOD9379946
_publ_section_title
;
Structure prediction by ZEFSAII (Michael W. Deem and Ramdas Pophale) SiO2 
 PCOD9379946
Probable space group: I M A 2
;
_chemical_formula_sum "Si O2"
_cell_formula_units_Z 48
_cell_length_a 20.476957
_cell_length_b 15.314371
_cell_length_c 8.448312
_cell_angle_alpha 90.000000
_cell_angle_beta 90.000000
_cell_angle_gamma 90.000000
_cell_volume 2649.320661
_symmetry_space_group_name_H-M "I M A 2"
_symmetry_group_IT_number 46
_symmetry_cell_setting 'orthorhombic'
loop_
_space_group_symop_operation_xyz
x,y,z
-x,-y,z
1/2-x,y,z
1/2+x,-y,z
1/2+x,1/2+y,1/2+z
1/2-x,1/2-y,1/2+z
-x,1/2+y,1/2+z
x,1/2-y,1/2+z
loop_
_atom_site_type_symbol
_atom_site_label
_atom_site_fract_x
_atom_site_fract_y
_atom_site_fract_z
Si Si1 0.908332 0.039083 0.629720
Si Si2 0.543460 0.870795 0.741898
Si Si3 0.923702 0.977731 0.267357
Si Si4 0.825894 0.187441 0.524264
Si Si5 0.460390 0.309139 0.602960
Si Si6 0.889794 0.157179 0.190613
O O1 0.850870 0.109858 0.639097
O O2 0.974806 0.091859 0.672393
O O3 0.908647 0.953909 0.739317
O O4 0.910298 0.997027 0.452440
O O5 0.563204 0.789059 0.633465
O O6 0.537348 0.836193 0.919969
O O7 0.918687 0.879901 0.202837
O O8 0.886068 0.052810 0.169678
O O9 0.000000 0.000000 0.244289
O O10 0.750000 0.177843 0.487971
O O11 0.870601 0.175500 0.370873
O O12 0.842130 0.282523 0.590623
O O13 0.535706 0.313439 0.661894
#
# Coordination Sequence:
#
# PCOD9379946 Si02
#       6
#     8   8   8   8   8   8
#     4  10  21  34  50  78 110 144 183 228 265 331
#     4  11  21  31  52  80 113 138 183 213 291 333
#     4   9  18  32  50  70 108 143 174 216 275 320
#     4  11  22  37  54  76 109 155 192 225 264 310
#     4  11  21  33  54  81 109 149 169 224 284 337
#     4  10  21  33  51  76 107 144 186 222 263 324
#
# _framework density 18.117853
#
# number of rings (size 3 to 8) (size 9 to 14) (size 15 to 20)
#    0.000    1.667    3.333    2.500    9.333    0.000 
#    0.000    0.000    0.000    0.000    0.000   11.667 
#    0.000    0.000    0.000    0.000    0.000    0.000 
#
# Total GULP energy -133803.129427 kJ/mol
# GULP energy per Si atom -5575.130393 kJ/mol
# Density = 1.807662 g / cm^3
# Si number density = 18.117853 Si / 1000 Ang^3
#
#
#
# Elastic Constant Matrix: (Units=GPa)
#
#
# Indices 1 2 3 4 5 6 
#
# 1 27.9221 13.2818 19.6837 0.0000 0.0000 0.0000
# 2 13.2818 130.5495 38.5761 0.0000 0.0000 0.0000
# 3 19.6837 38.5761 66.0460 0.0000 0.0000 0.0000
# 4 0.0000 0.0000 0.0000 31.8969 0.0000 0.0000
# 5 0.0000 0.0000 0.0000 0.0000 -12.6266 0.0000
# 6 0.0000 0.0000 0.0000 0.0000 0.0000 13.0240
#
#
#
# Elastic Compliance Matrix: (Units=1/GPa)
#
#
# Indices 1 2 3 4 5 6 
#
# 1 0.045400 -0.000750 -0.013092 0.000000 0.000000 0.000000
# 2 -0.000750 0.009270 -0.005191 0.000000 0.000000 0.000000
# 3 -0.013092 -0.005191 0.022075 0.000000 0.000000 0.000000
# 4 0.000000 0.000000 0.000000 0.031351 0.000000 0.000000
# 5 0.000000 0.000000 0.000000 0.000000 -0.079198 0.000000
# 6 0.000000 0.000000 0.000000 0.000000 0.000000 0.076781
#
#
# Mechanical properties :
#
#
# Convention : Reuss Voigt Hill
#
# Bulk Modulus (GPa) = 25.85442 40.84453 33.34947
# Shear Modulus (GPa) = 31.92045 16.65726 24.28886
#
# Velocity S-wave (km/s) = 4.20196 3.03542 3.66540
# Velocity P-wave (km/s) = 6.15167 5.90574 6.02996
#
# Compressibility (1/GPa) = 0.03867811
#
# Stress axis : x y z
#
# Youngs Moduli (GPa) = 22.02624 107.87356 45.30054
#
# Poissons Ratio (x) = 0.08093 0.59310
# Poissons Ratio (y) = 0.01653 0.23515
# Poissons Ratio (z) = 0.28838 0.55996
#
# Static dielectric constant tensor:
#      x y z
#    x 1.610960 0.000000 0.000000 
#    y 0.000000 1.688670 0.000000 
#    z 0.000000 0.000000 1.693990 
# 
# From -- ./inp_files/7304.got.cif
#   From: 2010.05.17/outbox.cif.g08.bks.cpg/sg46_4_cif.got.tgz:7304.got - 2010.06.03 19:58:25.
