data_PCOD9379195
_publ_section_title
;
Structure prediction by ZEFSAII (Michael W. Deem and Ramdas Pophale) SiO2 
 PCOD9379195
Probable space group: I M A 2
;
_chemical_formula_sum "Si O2"
_cell_formula_units_Z 32
_cell_length_a 11.413257
_cell_length_b 11.204261
_cell_length_c 9.021284
_cell_angle_alpha 90.000000
_cell_angle_beta 90.000000
_cell_angle_gamma 90.000000
_cell_volume 1153.615729
_symmetry_space_group_name_H-M "I M A 2"
_symmetry_group_IT_number 46
_symmetry_cell_setting 'orthorhombic'
loop_
_space_group_symop_operation_xyz
x,y,z
-x,-y,z
1/2-x,y,z
1/2+x,-y,z
1/2+x,1/2+y,1/2+z
1/2-x,1/2-y,1/2+z
-x,1/2+y,1/2+z
x,1/2-y,1/2+z
loop_
_atom_site_type_symbol
_atom_site_label
_atom_site_fract_x
_atom_site_fract_y
_atom_site_fract_z
Si Si1 0.374511 0.494453 0.986630
Si Si2 0.377439 0.762026 0.670676
Si Si3 0.878910 0.670426 0.262801
Si Si4 0.123279 0.980733 0.027968
O O1 0.500000 0.500000 0.910303
O O2 0.250000 0.498139 0.905908
O O3 0.375331 0.608241 0.096490
O O4 0.373878 0.380669 0.095841
O O5 0.250000 0.748349 0.749021
O O6 0.499311 0.756764 0.762847
O O7 0.374976 0.662395 0.541538
O O8 0.750000 0.726340 0.292849
O O9 0.112869 0.442278 0.375999
O O10 0.250000 0.020830 0.085807
O O11 0.000000 0.000000 0.105264
#
# Coordination Sequence:
#
# PCOD9379195 Si02
#       4
#     8   8   8   8
#     4   8  13  23  41  64  91 126 168 210 257 315
#     4   9  17  29  46  71 104 141 180 224 276 333
#     4   9  17  30  49  74 104 139 180 227 279 333
#     4  10  20  32  48  75 109 142 183 233 280 335
#
# _framework density 27.738869999999999
#
# number of rings (size 3 to 8) (size 9 to 14) (size 15 to 20)
#    0.000    3.000    0.000    2.250    0.000    4.000 
#    0.000    0.000    0.000    0.000    0.000   21.000 
#    0.000   52.000    0.000    0.000    0.000    0.000 
#
# Total GULP energy -89177.931785 kJ/mol
# GULP energy per Si atom -5573.620737 kJ/mol
# Density = 2.767574 g / cm^3
# Si number density = 27.738870 Si / 1000 Ang^3
#
#
#
# Elastic Constant Matrix: (Units=GPa)
#
#
# Indices 1 2 3 4 5 6 
#
# 1 424.4508 34.5197 56.4196 0.0000 0.0000 0.0000
# 2 34.5197 84.9759 19.5387 0.0000 0.0000 0.0000
# 3 56.4196 19.5387 117.3401 0.0000 0.0000 0.0000
# 4 0.0000 0.0000 0.0000 35.1958 0.0000 0.0000
# 5 0.0000 0.0000 0.0000 0.0000 -113.1113 0.0000
# 6 0.0000 0.0000 0.0000 0.0000 0.0000 18.0914
#
#
#
# Elastic Compliance Matrix: (Units=1/GPa)
#
#
# Indices 1 2 3 4 5 6 
#
# 1 0.002567 -0.000789 -0.001103 0.000000 0.000000 0.000000
# 2 -0.000789 0.012479 -0.001699 0.000000 0.000000 0.000000
# 3 -0.001103 -0.001699 0.009335 0.000000 0.000000 0.000000
# 4 0.000000 0.000000 0.000000 0.028412 0.000000 0.000000
# 5 0.000000 0.000000 0.000000 0.000000 -0.008841 0.000000
# 6 0.000000 0.000000 0.000000 0.000000 0.000000 0.055275
#
#
# Mechanical properties :
#
#
# Convention : Reuss Voigt Hill
#
# Bulk Modulus (GPa) = 58.13814 94.19141 76.16477
# Shear Modulus (GPa) = 44.58641 22.45444 33.52042
#
# Velocity S-wave (km/s) = 4.01354 2.84825 3.48002
# Velocity P-wave (km/s) = 6.51787 6.69678 6.60793
#
# Compressibility (1/GPa) = 0.01720041
#
# Stress axis : x y z
#
# Youngs Moduli (GPa) = 389.59844 80.13360 107.12045
#
# Poissons Ratio (x) = 0.06324 0.11813
# Poissons Ratio (y) = 0.30744 0.18195
# Poissons Ratio (z) = 0.42963 0.13611
#
# Static dielectric constant tensor:
#      x y z
#    x 2.283260 0.000000 0.000000 
#    y 0.000000 2.137090 0.000000 
#    z 0.000000 0.000000 2.055140 
# 
# From -- ./inp_files/4274.got.cif
#   From: 2010.05.17/outbox.cif.g08.bks.cpg/sg46_3_cif.got.tgz:4274.got - 2010.06.03 19:58:25.
