data_PCOD9379770
_publ_section_title
;
Structure prediction by ZEFSAII (Michael W. Deem and Ramdas Pophale) SiO2 
 PCOD9379770
Probable space group: I M A 2
;
_chemical_formula_sum "Si O2"
_cell_formula_units_Z 52
_cell_length_a 15.211257
_cell_length_b 5.235847
_cell_length_c 29.466998
_cell_angle_alpha 90.000000
_cell_angle_beta 90.000000
_cell_angle_gamma 90.000000
_cell_volume 2346.864118
_symmetry_space_group_name_H-M "I M A 2"
_symmetry_group_IT_number 46
_symmetry_cell_setting 'orthorhombic'
loop_
_space_group_symop_operation_xyz
x,y,z
-x,-y,z
1/2-x,y,z
1/2+x,-y,z
1/2+x,1/2+y,1/2+z
1/2-x,1/2-y,1/2+z
-x,1/2+y,1/2+z
x,1/2-y,1/2+z
loop_
_atom_site_type_symbol
_atom_site_label
_atom_site_fract_x
_atom_site_fract_y
_atom_site_fract_z
Si Si1 0.500000 0.500000 0.544101
Si Si2 0.652354 0.204245 0.595634
Si Si3 0.645960 0.040741 0.420039
Si Si4 0.846084 0.815469 0.516022
Si Si5 0.060043 0.751618 0.788473
Si Si6 0.561117 0.248379 0.187376
Si Si7 0.144776 0.477674 0.373555
O O1 0.567395 0.343764 0.575333
O O2 0.567310 0.652720 0.513815
O O3 0.750000 0.318681 0.588212
O O4 0.633526 0.199930 0.648981
O O5 0.653683 0.945845 0.565685
O O6 0.750000 0.055483 0.408772
O O7 0.643481 0.003698 0.473854
O O8 0.611302 0.803011 0.389371
O O9 0.608259 0.316197 0.408912
O O10 0.750000 0.690075 0.508936
O O11 0.098798 0.703449 0.738185
O O12 0.123392 0.867189 0.827060
O O13 0.000000 0.500000 0.799666
O O14 0.000000 0.000000 0.782072
O O15 0.500000 0.500000 0.186290
O O16 0.500000 0.000000 0.177587
O O17 0.250000 0.450381 0.375618
#
# Coordination Sequence:
#
# PCOD9379770 Si02
#       7
#     4   8   8   8   8   8   8
#     4  12  22  40  62  90 124 162 212 268 324 388
#     4  11  24  41  64  92 127 170 216 269 327 396
#     4   9  20  38  61  87 121 164 209 259 317 376
#     4  10  23  41  62  90 126 171 219 268 327 392
#     4  10  21  38  60  91 127 163 203 261 321 375
#     4  10  21  41  65  90 127 169 211 266 328 386
#     4  10  20  38  62  87 121 164 208 258 315 376
#
# _framework density 22.157225
#
# number of rings (size 3 to 8) (size 9 to 14) (size 15 to 20)
#    0.000    1.846    0.769    2.769    2.154    0.615 
#    4.154    0.000    0.000    5.538    0.000    0.000 
#    0.000    0.000    0.000    0.000    0.000    0.000 
#
# Total GULP energy -144785.975044 kJ/mol
# GULP energy per Si atom -5568.691348 kJ/mol
# Density = 2.210679 g / cm^3
# Si number density = 22.157225 Si / 1000 Ang^3
#
#
#
# Elastic Constant Matrix: (Units=GPa)
#
#
# Indices 1 2 3 4 5 6 
#
# 1 102.2950 13.9404 2.3548 0.0000 0.0000 0.0000
# 2 13.9404 83.2136 1.3143 0.0000 0.0000 0.0000
# 3 2.3548 1.3143 76.8550 0.0000 0.0000 0.0000
# 4 0.0000 0.0000 0.0000 25.8090 0.0000 0.0000
# 5 0.0000 0.0000 0.0000 0.0000 42.9003 0.0000
# 6 0.0000 0.0000 0.0000 0.0000 0.0000 26.2657
#
#
#
# Elastic Compliance Matrix: (Units=1/GPa)
#
#
# Indices 1 2 3 4 5 6 
#
# 1 0.010010 -0.001673 -0.000278 0.000000 0.000000 0.000000
# 2 -0.001673 0.012300 -0.000159 0.000000 0.000000 0.000000
# 3 -0.000278 -0.000159 0.013023 0.000000 0.000000 0.000000
# 4 0.000000 0.000000 0.000000 0.038746 0.000000 0.000000
# 5 0.000000 0.000000 0.000000 0.000000 0.023310 0.000000
# 6 0.000000 0.000000 0.000000 0.000000 0.000000 0.038072
#
#
# Mechanical properties :
#
#
# Convention : Reuss Voigt Hill
#
# Bulk Modulus (GPa) = 32.14065 33.06473 32.60269
# Shear Modulus (GPa) = 33.32184 35.31194 34.31689
#
# Velocity S-wave (km/s) = 3.88220 3.99645 3.93974
# Velocity P-wave (km/s) = 5.88494 6.02085 5.95328
#
# Compressibility (1/GPa) = 0.03111325
#
# Stress axis : x y z
#
# Youngs Moduli (GPa) = 99.90030 81.30096 76.78868
#
# Poissons Ratio (x) = 0.13598 0.02136
# Poissons Ratio (y) = 0.16709 0.01222
# Poissons Ratio (z) = 0.02778 0.01293
#
# Static dielectric constant tensor:
#      x y z
#    x 1.792750 0.000000 0.000000 
#    y 0.000000 1.897430 0.000000 
#    z 0.000000 0.000000 1.930360 
# 
# From -- ./inp_files/25390.got.cif
#   From: 2010.05.17/outbox.cif.g08.bks.cpg/sg46_13_cif.got.tgz:25390.got - 2010.06.03 19:58:25.
