data_PCOD9379490
_publ_section_title
;
Structure prediction by ZEFSAII (Michael W. Deem and Ramdas Pophale) SiO2 
 PCOD9379490
Probable space group: I M A 2
;
_chemical_formula_sum "Si O2"
_cell_formula_units_Z 56
_cell_length_a 15.010121
_cell_length_b 20.992689
_cell_length_c 8.459729
_cell_angle_alpha 90.000000
_cell_angle_beta 90.000000
_cell_angle_gamma 90.000000
_cell_volume 2665.684312
_symmetry_space_group_name_H-M "I M A 2"
_symmetry_group_IT_number 46
_symmetry_cell_setting 'orthorhombic'
loop_
_space_group_symop_operation_xyz
x,y,z
-x,-y,z
1/2-x,y,z
1/2+x,-y,z
1/2+x,1/2+y,1/2+z
1/2-x,1/2-y,1/2+z
-x,1/2+y,1/2+z
x,1/2-y,1/2+z
loop_
_atom_site_type_symbol
_atom_site_label
_atom_site_fract_x
_atom_site_fract_y
_atom_site_fract_z
Si Si1 0.150919 0.217426 0.487830
Si Si2 0.098953 0.524324 0.731899
Si Si3 0.143186 0.531210 0.075911
Si Si4 0.854013 0.398289 0.412063
Si Si5 0.855587 0.602850 0.211155
Si Si6 0.968794 0.660647 0.466032
Si Si7 0.654942 0.884753 0.212047
O O1 0.250000 0.246410 0.504597
O O2 0.132270 0.173193 0.638213
O O3 0.078109 0.270734 0.454981
O O4 0.158523 0.163902 0.355471
O O5 0.132588 0.560686 0.574416
O O6 0.152807 0.458616 0.752162
O O7 0.000000 0.500000 0.701136
O O8 0.104009 0.555797 0.908129
O O9 0.250000 0.534212 0.057840
O O10 0.124399 0.565769 0.245023
O O11 0.116768 0.457157 0.104672
O O12 0.750000 0.379857 0.404624
O O13 0.927464 0.342783 0.429473
O O14 0.750000 0.594536 0.242736
O O15 0.917749 0.607430 0.361806
O O16 0.938231 0.635658 0.635537
O O17 0.750000 0.875819 0.122370
#
# Coordination Sequence:
#
# PCOD9379490 Si02
#       7
#     8   8   8   8   8   8   8
#     4  10  21  38  62  95 132 167 204 257 328 399
#     4  12  23  39  65  98 134 168 209 265 329 391
#     4  10  22  40  63  91 129 169 208 263 322 385
#     4  11  26  44  63  93 132 175 223 265 315 379
#     4  10  20  35  59  93 126 160 201 254 325 394
#     4  12  23  37  58  89 127 170 212 257 313 373
#     4  11  21  37  61  92 127 163 205 256 327 398
#
# _framework density 21.007739000000001
#
# number of rings (size 3 to 8) (size 9 to 14) (size 15 to 20)
#    0.000    1.143    2.857    4.286    2.000    3.429 
#    0.000    0.000    0.000    3.429    0.000    0.000 
#    0.000    0.000    0.000    0.000    0.000    0.000 
#
# Total GULP energy -156068.345318 kJ/mol
# GULP energy per Si atom -5573.869476 kJ/mol
# Density = 2.095992 g / cm^3
# Si number density = 21.007739 Si / 1000 Ang^3
#
#
#
# Elastic Constant Matrix: (Units=GPa)
#
#
# Indices 1 2 3 4 5 6 
#
# 1 70.5830 30.1167 -3.9065 0.0000 0.0000 0.0000
# 2 30.1167 68.1742 12.2590 0.0000 0.0000 0.0000
# 3 -3.9065 12.2590 89.5245 0.0000 0.0000 0.0000
# 4 0.0000 0.0000 0.0000 12.0095 0.0000 0.0000
# 5 0.0000 0.0000 0.0000 0.0000 38.9456 0.0000
# 6 0.0000 0.0000 0.0000 0.0000 0.0000 24.4901
#
#
#
# Elastic Compliance Matrix: (Units=1/GPa)
#
#
# Indices 1 2 3 4 5 6 
#
# 1 0.017767 -0.008190 0.001897 0.000000 0.000000 0.000000
# 2 -0.008190 0.018814 -0.002934 0.000000 0.000000 0.000000
# 3 0.001897 -0.002934 0.011655 0.000000 0.000000 0.000000
# 4 0.000000 0.000000 0.000000 0.083267 0.000000 0.000000
# 5 0.000000 0.000000 0.000000 0.000000 0.025677 0.000000
# 6 0.000000 0.000000 0.000000 0.000000 0.000000 0.040833
#
#
# Mechanical properties :
#
#
# Convention : Reuss Voigt Hill
#
# Bulk Modulus (GPa) = 33.57728 33.91335 33.74531
# Shear Modulus (GPa) = 22.08545 27.74321 24.91433
#
# Velocity S-wave (km/s) = 3.24589 3.63797 3.44751
# Velocity P-wave (km/s) = 5.48323 5.81591 5.65201
#
# Compressibility (1/GPa) = 0.02978204
#
# Stress axis : x y z
#
# Youngs Moduli (GPa) = 56.28343 53.15238 85.80291
#
# Poissons Ratio (x) = 0.43532 -0.16275
# Poissons Ratio (y) = 0.46096 0.25171
# Poissons Ratio (z) = -0.10676 0.15593
#
# Static dielectric constant tensor:
#      x y z
#    x 1.718370 0.000000 0.000000 
#    y 0.000000 1.819360 0.000000 
#    z 0.000000 0.000000 1.939990 
# 
# From -- ./inp_files/5931.got.cif
#   From: 2010.05.17/outbox.cif.g08.bks.cpg/sg46_3_cif.got.tgz:5931.got - 2010.06.03 19:58:25.
