data_PCOD9379042
_publ_section_title
;
Structure prediction by ZEFSAII (Michael W. Deem and Ramdas Pophale) SiO2 
 PCOD9379042
Probable space group: I M A 2
;
_chemical_formula_sum "Si O2"
_cell_formula_units_Z 64
_cell_length_a 27.172201
_cell_length_b 6.003234
_cell_length_c 18.299591
_cell_angle_alpha 90.000000
_cell_angle_beta 90.000000
_cell_angle_gamma 90.000000
_cell_volume 2985.049064
_symmetry_space_group_name_H-M "I M A 2"
_symmetry_group_IT_number 46
_symmetry_cell_setting 'orthorhombic'
loop_
_space_group_symop_operation_xyz
x,y,z
-x,-y,z
1/2-x,y,z
1/2+x,-y,z
1/2+x,1/2+y,1/2+z
1/2-x,1/2-y,1/2+z
-x,1/2+y,1/2+z
x,1/2-y,1/2+z
loop_
_atom_site_type_symbol
_atom_site_label
_atom_site_fract_x
_atom_site_fract_y
_atom_site_fract_z
Si Si1 0.693099 0.193926 0.981870
Si Si2 0.564541 0.192300 0.784699
Si Si3 0.859644 0.921255 0.250856
Si Si4 0.305135 0.725270 0.647631
Si Si5 0.900180 0.540258 0.152745
Si Si6 0.896162 0.496489 0.985304
Si Si7 0.018303 0.747867 0.426075
Si Si8 0.868036 0.631443 0.380435
O O1 0.750000 0.232076 0.964237
O O2 0.668593 0.017404 0.927699
O O3 0.689850 0.118610 0.066838
O O4 0.660642 0.418614 0.981355
O O5 0.599664 0.406118 0.780022
O O6 0.560808 0.093695 0.703143
O O7 0.518817 0.242729 0.837222
O O8 0.595353 0.011067 0.830414
O O9 0.887991 0.772178 0.191039
O O10 0.841190 0.782160 0.319869
O O11 0.816061 0.047147 0.209994
O O12 0.250000 0.818803 0.652702
O O13 0.348768 0.903026 0.656395
O O14 0.912135 0.553147 0.067499
O O15 0.926427 0.283104 0.956867
O O16 0.899866 0.708415 0.932859
O O17 0.000000 0.500000 0.449814
O O18 0.000000 0.000000 0.447519
#
# Coordination Sequence:
#
# PCOD9379042 Si02
#       8
#     8   8   8   8   8   8   8   8
#     4  10  21  36  59  90 128 175 222 272 336 402
#     4  10  21  42  62  93 124 168 212 273 335 410
#     4  10  19  35  60  87 116 170 216 262 336 398
#     4   9  19  35  52  84 126 164 216 271 325 397
#     4   9  21  37  64  88 121 177 217 263 344 388
#     4  11  22  42  65  95 135 176 218 290 333 406
#     4  12  26  44  73 106 133 180 232 282 354 420
#     4  11  19  35  63  88 128 169 221 270 339 393
#
# _framework density 21.440183000000001
#
# number of rings (size 3 to 8) (size 9 to 14) (size 15 to 20)
#    0.000    1.750    2.500    1.500    1.750    1.500 
#    0.000   12.500    0.000    0.000    0.000    0.000 
#    0.000    0.000    0.000    0.000    0.000    0.000 
#
# Total GULP energy -178503.642359 kJ/mol
# GULP energy per Si atom -5578.238824 kJ/mol
# Density = 2.139138 g / cm^3
# Si number density = 21.440183 Si / 1000 Ang^3
#
#
#
# Elastic Constant Matrix: (Units=GPa)
#
#
# Indices 1 2 3 4 5 6 
#
# 1 46.3234 25.5546 5.4944 0.0000 0.0000 0.0000
# 2 25.5546 99.4030 53.0268 0.0000 0.0000 0.0000
# 3 5.4944 53.0268 119.9936 0.0000 0.0000 0.0000
# 4 0.0000 0.0000 0.0000 38.9084 0.0000 0.0000
# 5 0.0000 0.0000 0.0000 0.0000 26.3327 0.0000
# 6 0.0000 0.0000 0.0000 0.0000 0.0000 20.3987
#
#
#
# Elastic Compliance Matrix: (Units=1/GPa)
#
#
# Indices 1 2 3 4 5 6 
#
# 1 0.025620 -0.007799 0.002273 0.000000 0.000000 0.000000
# 2 -0.007799 0.015537 -0.006509 0.000000 0.000000 0.000000
# 3 0.002273 -0.006509 0.011106 0.000000 0.000000 0.000000
# 4 0.000000 0.000000 0.000000 0.025701 0.000000 0.000000
# 5 0.000000 0.000000 0.000000 0.000000 0.037976 0.000000
# 6 0.000000 0.000000 0.000000 0.000000 0.000000 0.049023
#
#
# Mechanical properties :
#
#
# Convention : Reuss Voigt Hill
#
# Bulk Modulus (GPa) = 35.46849 48.20796 41.83823
# Shear Modulus (GPa) = 25.19766 29.23758 27.21762
#
# Velocity S-wave (km/s) = 3.43192 3.69681 3.56682
# Velocity P-wave (km/s) = 5.68181 6.38401 6.04312
#
# Compressibility (1/GPa) = 0.02819404
#
# Stress axis : x y z
#
# Youngs Moduli (GPa) = 39.03164 64.36090 90.04046
#
# Poissons Ratio (x) = 0.50197 -0.20470
# Poissons Ratio (y) = 0.30442 0.58608
# Poissons Ratio (z) = -0.08874 0.41893
#
# Static dielectric constant tensor:
#      x y z
#    x 1.845910 0.000000 0.000000 
#    y 0.000000 1.810440 0.000000 
#    z 0.000000 0.000000 1.788280 
# 
# From -- ./inp_files/20545.got.cif
#   From: 2010.05.17/outbox.cif.g08.bks.cpg/sg46_11_cif.got.tgz:20545.got - 2010.06.03 19:58:25.
