data_PCOD9379591
_publ_section_title
;
Structure prediction by ZEFSAII (Michael W. Deem and Ramdas Pophale) SiO2 
 PCOD9379591
Probable space group: I M A 2
;
_chemical_formula_sum "Si O2"
_cell_formula_units_Z 40
_cell_length_a 9.105422
_cell_length_b 17.457598
_cell_length_c 12.883939
_cell_angle_alpha 90.000000
_cell_angle_beta 90.000000
_cell_angle_gamma 90.000000
_cell_volume 2048.015443
_symmetry_space_group_name_H-M "I M A 2"
_symmetry_group_IT_number 46
_symmetry_cell_setting 'orthorhombic'
loop_
_space_group_symop_operation_xyz
x,y,z
-x,-y,z
1/2-x,y,z
1/2+x,-y,z
1/2+x,1/2+y,1/2+z
1/2-x,1/2-y,1/2+z
-x,1/2+y,1/2+z
x,1/2-y,1/2+z
loop_
_atom_site_type_symbol
_atom_site_label
_atom_site_fract_x
_atom_site_fract_y
_atom_site_fract_z
Si Si1 0.580623 0.419038 0.250000
Si Si2 0.071852 0.085965 0.351263
Si Si3 0.919001 0.819848 0.142294
Si Si4 0.079467 0.825140 0.541515
Si Si5 0.081606 0.419511 0.437963
O O1 0.500000 0.500000 0.243647
O O2 0.750000 0.426115 0.278730
O O3 0.573559 0.383403 0.137435
O O4 0.499174 0.375282 0.343991
O O5 0.250000 0.078213 0.357094
O O6 0.035726 0.134630 0.246492
O O7 0.011195 0.136959 0.447227
O O8 0.000000 0.000000 0.350796
O O9 0.750000 0.793179 0.158302
O O10 0.014595 0.750850 0.095749
O O11 0.921161 0.879235 0.047780
O O12 0.250000 0.813730 0.510366
O O13 0.250000 0.429594 0.407603
O O14 0.000000 0.500000 0.449983
#
# Coordination Sequence:
#
# PCOD9379591 Si02
#       5
#     8   8   8   8   8
#     4  10  21  37  58  87 118 155 199 247 302 362
#     4  11  24  44  69  96 130 172 219 267 321 387
#     4  10  24  42  62  91 126 165 208 259 318 376
#     4  11  25  41  62  92 127 165 210 263 318 375
#     4  10  20  36  60  88 118 155 198 246 302 365
#
# _framework density 19.531102000000001
#
# number of rings (size 3 to 8) (size 9 to 14) (size 15 to 20)
#    0.000    1.600    0.000    4.800    2.800    8.000 
#    0.000    0.000    0.000    0.000    0.000    0.000 
#    0.000    0.000    0.000    0.000    0.000    0.000 
#
# Total GULP energy -111522.878437 kJ/mol
# GULP energy per Si atom -5576.143922 kJ/mol
# Density = 1.948665 g / cm^3
# Si number density = 19.531102 Si / 1000 Ang^3
#
#
#
# Elastic Constant Matrix: (Units=GPa)
#
#
# Indices 1 2 3 4 5 6 
#
# 1 147.0735 62.4823 76.2800 0.0000 0.0000 0.0000
# 2 62.4823 91.2169 50.9375 0.0000 0.0000 0.0000
# 3 76.2800 50.9375 158.5339 0.0000 0.0000 0.0000
# 4 0.0000 0.0000 0.0000 30.3112 0.0000 0.0000
# 5 0.0000 0.0000 0.0000 0.0000 33.0894 0.0000
# 6 0.0000 0.0000 0.0000 0.0000 0.0000 20.8667
#
#
#
# Elastic Compliance Matrix: (Units=1/GPa)
#
#
# Indices 1 2 3 4 5 6 
#
# 1 0.010976 -0.005568 -0.003492 0.000000 0.000000 0.000000
# 2 -0.005568 0.016185 -0.002521 0.000000 0.000000 0.000000
# 3 -0.003492 -0.002521 0.008798 0.000000 0.000000 0.000000
# 4 0.000000 0.000000 0.000000 0.032991 0.000000 0.000000
# 5 0.000000 0.000000 0.000000 0.000000 0.030221 0.000000
# 6 0.000000 0.000000 0.000000 0.000000 0.000000 0.047923
#
#
# Mechanical properties :
#
#
# Convention : Reuss Voigt Hill
#
# Bulk Modulus (GPa) = 78.14877 86.24709 82.19793
# Shear Modulus (GPa) = 28.64948 30.66176 29.65562
#
# Velocity S-wave (km/s) = 3.83412 3.96649 3.90087
# Velocity P-wave (km/s) = 7.72658 8.07664 7.90355
#
# Compressibility (1/GPa) = 0.01279611
#
# Stress axis : x y z
#
# Youngs Moduli (GPa) = 91.10607 61.78569 113.66127
#
# Poissons Ratio (x) = 0.34405 0.39692
# Poissons Ratio (y) = 0.50732 0.28654
# Poissons Ratio (z) = 0.31815 0.15576
#
# Static dielectric constant tensor:
#      x y z
#    x 1.702930 0.000000 0.000000 
#    y 0.000000 1.358430 0.000000 
#    z 0.000000 0.000000 1.738600 
# 
# From -- ./inp_files/9034.got.cif
#   From: 2010.05.17/outbox.cif.g08.bks.cpg/sg46_5_cif.got.tgz:9034.got - 2010.06.03 19:58:25.
