data_PCOD9379325
_publ_section_title
;
Structure prediction by ZEFSAII (Michael W. Deem and Ramdas Pophale) SiO2 
 PCOD9379325
Probable space group: I M A 2
;
_chemical_formula_sum "Si O2"
_cell_formula_units_Z 40
_cell_length_a 8.684119
_cell_length_b 9.264543
_cell_length_c 26.911583
_cell_angle_alpha 90.000000
_cell_angle_beta 90.000000
_cell_angle_gamma 90.000000
_cell_volume 2165.155099
_symmetry_space_group_name_H-M "I M A 2"
_symmetry_group_IT_number 46
_symmetry_cell_setting 'orthorhombic'
loop_
_space_group_symop_operation_xyz
x,y,z
-x,-y,z
1/2-x,y,z
1/2+x,-y,z
1/2+x,1/2+y,1/2+z
1/2-x,1/2-y,1/2+z
-x,1/2+y,1/2+z
x,1/2-y,1/2+z
loop_
_atom_site_type_symbol
_atom_site_label
_atom_site_fract_x
_atom_site_fract_y
_atom_site_fract_z
Si Si1 0.564481 0.162053 0.738340
Si Si2 0.064982 0.338903 0.428142
Si Si3 0.564672 0.160975 0.335274
Si Si4 0.934601 0.163143 0.629031
Si Si5 0.934169 0.662253 0.026782
O O1 0.750000 0.151845 0.739381
O O2 0.515182 0.261183 0.784059
O O3 0.521981 0.222191 0.683526
O O4 0.500000 0.000000 0.743715
O O5 0.250000 0.342066 0.424535
O O6 0.022725 0.256733 0.479110
O O7 0.000000 0.500000 0.428282
O O8 0.997425 0.252098 0.381607
O O9 0.750000 0.157720 0.336822
O O10 0.500000 0.000000 0.337574
O O11 0.750000 0.159940 0.625060
O O12 0.003210 0.227496 0.578576
O O13 0.000000 0.000000 0.629776
O O14 0.750000 0.652386 0.029705
O O15 0.000000 0.500000 0.021179
#
# Coordination Sequence:
#
# PCOD9379325 Si02
#       5
#     8   8   8   8   8
#     4   9  19  34  54  81 110 141 178 221 266 316
#     4  11  24  40  58  81 109 142 181 225 274 326
#     4  11  23  39  58  81 110 143 182 225 272 325
#     4   9  16  29  51  78 108 141 178 218 262 313
#     4  10  20  34  54  81 110 141 179 221 266 316
#
# _framework density 18.474428
#
# number of rings (size 3 to 8) (size 9 to 14) (size 15 to 20)
#    0.000    2.000    0.000    4.800    0.000    8.800 
#    0.000    1.000    0.000    4.800    0.000    0.000 
#    0.000    0.000    0.000    0.000    0.000    0.000 
#
# Total GULP energy -111628.374190 kJ/mol
# GULP energy per Si atom -5581.418710 kJ/mol
# Density = 1.843238 g / cm^3
# Si number density = 18.474428 Si / 1000 Ang^3
#
#
#
# Elastic Constant Matrix: (Units=GPa)
#
#
# Indices 1 2 3 4 5 6 
#
# 1 49.6584 34.3196 62.6377 0.0000 0.0000 0.0000
# 2 34.3196 110.9586 98.3190 0.0000 0.0000 0.0000
# 3 62.6377 98.3190 233.8809 0.0000 0.0000 0.0000
# 4 0.0000 0.0000 0.0000 29.8855 0.0000 0.0000
# 5 0.0000 0.0000 0.0000 0.0000 38.8415 0.0000
# 6 0.0000 0.0000 0.0000 0.0000 0.0000 27.5324
#
#
#
# Elastic Compliance Matrix: (Units=1/GPa)
#
#
# Indices 1 2 3 4 5 6 
#
# 1 0.031283 -0.003589 -0.006869 0.000000 0.000000 0.000000
# 2 -0.003589 0.014774 -0.005249 0.000000 0.000000 0.000000
# 3 -0.006869 -0.005249 0.008322 0.000000 0.000000 0.000000
# 4 0.000000 0.000000 0.000000 0.033461 0.000000 0.000000
# 5 0.000000 0.000000 0.000000 0.000000 0.025746 0.000000
# 6 0.000000 0.000000 0.000000 0.000000 0.000000 0.036321
#
#
# Mechanical properties :
#
#
# Convention : Reuss Voigt Hill
#
# Bulk Modulus (GPa) = 43.54773 87.22784 65.38779
# Shear Modulus (GPa) = 26.45831 32.53332 29.49582
#
# Velocity S-wave (km/s) = 3.78849 4.20097 4.00005
# Velocity P-wave (km/s) = 6.53911 8.41717 7.53687
#
# Compressibility (1/GPa) = 0.02296331
#
# Stress axis : x y z
#
# Youngs Moduli (GPa) = 31.96646 67.68679 120.16024
#
# Poissons Ratio (x) = 0.24292 0.82543
# Poissons Ratio (y) = 0.11472 0.63078
# Poissons Ratio (z) = 0.21959 0.35532
#
# Static dielectric constant tensor:
#      x y z
#    x 1.622350 0.000000 0.000000 
#    y 0.000000 1.608640 0.000000 
#    z 0.000000 0.000000 1.678080 
# 
# From -- ./inp_files/22740.got.cif
#   From: 2010.05.17/outbox.cif.g08.bks.cpg/sg46_12_cif.got.tgz:22740.got - 2010.06.03 19:58:25.
