data_PCOD9379555
_publ_section_title
;
Structure prediction by ZEFSAII (Michael W. Deem and Ramdas Pophale) SiO2 
 PCOD9379555
Probable space group: I M A 2
;
_chemical_formula_sum "Si O2"
_cell_formula_units_Z 56
_cell_length_a 20.324887
_cell_length_b 5.299318
_cell_length_c 27.364324
_cell_angle_alpha 90.000000
_cell_angle_beta 90.000000
_cell_angle_gamma 90.000000
_cell_volume 2947.357691
_symmetry_space_group_name_H-M "I M A 2"
_symmetry_group_IT_number 46
_symmetry_cell_setting 'orthorhombic'
loop_
_space_group_symop_operation_xyz
x,y,z
-x,-y,z
1/2-x,y,z
1/2+x,-y,z
1/2+x,1/2+y,1/2+z
1/2-x,1/2-y,1/2+z
-x,1/2+y,1/2+z
x,1/2-y,1/2+z
loop_
_atom_site_type_symbol
_atom_site_label
_atom_site_fract_x
_atom_site_fract_y
_atom_site_fract_z
Si Si1 0.826103 0.744591 0.783080
Si Si2 0.330033 0.805574 0.114127
Si Si3 0.670103 0.696455 0.169929
Si Si4 0.865262 0.712337 0.943043
Si Si5 0.828724 0.224822 0.000176
Si Si6 0.680023 0.372418 0.862762
Si Si7 0.926046 0.971445 0.861328
O O1 0.750000 0.837730 0.787539
O O2 0.845728 0.768356 0.726892
O O3 0.823702 0.464460 0.806812
O O4 0.880004 0.873705 0.817401
O O5 0.250000 0.805766 0.115899
O O6 0.352500 0.562478 0.144870
O O7 0.353002 0.062842 0.139217
O O8 0.347040 0.796427 0.057081
O O9 0.750000 0.694806 0.167698
O O10 0.865706 0.467152 0.977421
O O11 0.819449 0.615880 0.898199
O O12 0.842020 0.959319 0.972681
O O13 0.927177 0.798435 0.910118
O O14 0.750000 0.276513 0.996665
O O15 0.750000 0.238277 0.871193
O O16 0.614988 0.220085 0.875886
O O17 0.000000 0.000000 0.844243
#
# Coordination Sequence:
#
# PCOD9379555 Si02
#       7
#     8   8   8   8   8   8   8
#     4   9  20  34  57  87 118 156 198 240 295 355
#     4   9  18  30  49  79 119 152 182 231 294 348
#     4   9  17  31  50  79 116 152 185 231 291 351
#     4  11  22  35  55  83 116 157 196 237 290 345
#     4  11  20  33  54  85 120 156 193 239 295 353
#     4  10  20  36  58  86 118 153 195 243 292 350
#     4  11  24  40  58  85 123 157 201 245 289 352
#
# _framework density 19.000067999999999
#
# number of rings (size 3 to 8) (size 9 to 14) (size 15 to 20)
#    0.000    2.000    1.429    2.571    2.000    6.857 
#    0.000    0.000    0.000    0.000    0.000    4.000 
#    0.000    0.000    0.000    0.000    0.000    0.000 
#
# Total GULP energy -155902.601977 kJ/mol
# GULP energy per Si atom -5567.950071 kJ/mol
# Density = 1.895682 g / cm^3
# Si number density = 19.000068 Si / 1000 Ang^3
#
#
#
# Elastic Constant Matrix: (Units=GPa)
#
#
# Indices 1 2 3 4 5 6 
#
# 1 77.6265 24.8792 25.7334 0.0000 0.0000 0.0000
# 2 24.8792 111.3446 44.1453 0.0000 0.0000 0.0000
# 3 25.7334 44.1453 126.5152 0.0000 0.0000 0.0000
# 4 0.0000 0.0000 0.0000 31.7891 0.0000 0.0000
# 5 0.0000 0.0000 0.0000 0.0000 12.9191 0.0000
# 6 0.0000 0.0000 0.0000 0.0000 0.0000 -6.1157
#
#
#
# Elastic Compliance Matrix: (Units=1/GPa)
#
#
# Indices 1 2 3 4 5 6 
#
# 1 0.014335 -0.002376 -0.002087 0.000000 0.000000 0.000000
# 2 -0.002376 0.010817 -0.003291 0.000000 0.000000 0.000000
# 3 -0.002087 -0.003291 0.009477 0.000000 0.000000 0.000000
# 4 0.000000 0.000000 0.000000 0.031457 0.000000 0.000000
# 5 0.000000 0.000000 0.000000 0.000000 0.077405 0.000000
# 6 0.000000 0.000000 0.000000 0.000000 0.000000 -0.163514
#
#
# Mechanical properties :
#
#
# Convention : Reuss Voigt Hill
#
# Bulk Modulus (GPa) = 52.29631 56.11134 54.20382
# Shear Modulus (GPa) = 2690.24360 22.43373 1356.33866
#
# Velocity S-wave (km/s) = 37.66944 3.43989 26.74714
# Velocity P-wave (km/s) = 43.81285 6.73598 31.34437
#
# Compressibility (1/GPa) = 0.01912181
#
# Stress axis : x y z
#
# Youngs Moduli (GPa) = 69.75719 92.44869 105.51822
#
# Poissons Ratio (x) = 0.21964 0.22020
# Poissons Ratio (y) = 0.16573 0.34727
# Poissons Ratio (z) = 0.14557 0.30426
#
# Static dielectric constant tensor:
#      x y z
#    x 1.643800 0.000000 0.000000 
#    y 0.000000 1.756570 0.000000 
#    z 0.000000 0.000000 1.674030 
# 
# From -- ./inp_files/23826.got.cif
#   From: 2010.05.17/outbox.cif.g08.bks.cpg/sg46_12_cif.got.tgz:23826.got - 2010.06.03 19:58:25.
