data_PCOD9379717
_publ_section_title
;
Structure prediction by ZEFSAII (Michael W. Deem and Ramdas Pophale) SiO2 
 PCOD9379717
Probable space group: I M A 2
;
_chemical_formula_sum "Si O2"
_cell_formula_units_Z 64
_cell_length_a 8.807529
_cell_length_b 15.713396
_cell_length_c 24.032983
_cell_angle_alpha 90.000000
_cell_angle_beta 90.000000
_cell_angle_gamma 90.000000
_cell_volume 3326.073305
_symmetry_space_group_name_H-M "I M A 2"
_symmetry_group_IT_number 46
_symmetry_cell_setting 'orthorhombic'
loop_
_space_group_symop_operation_xyz
x,y,z
-x,-y,z
1/2-x,y,z
1/2+x,-y,z
1/2+x,1/2+y,1/2+z
1/2-x,1/2-y,1/2+z
-x,1/2+y,1/2+z
x,1/2-y,1/2+z
loop_
_atom_site_type_symbol
_atom_site_label
_atom_site_fract_x
_atom_site_fract_y
_atom_site_fract_z
Si Si1 0.930792 0.909586 0.073670
Si Si2 0.070161 0.646449 0.953620
Si Si3 0.432454 0.910228 0.577378
Si Si4 0.929941 0.350999 0.456608
Si Si5 0.931226 0.590146 0.340432
Si Si6 0.930257 0.590253 0.839215
Si Si7 0.930819 0.242000 0.143760
Si Si8 0.569961 0.249016 0.775868
O O1 0.750000 0.914919 0.070503
O O2 0.982028 0.835828 0.115733
O O3 0.000000 0.000000 0.091020
O O4 0.998281 0.886060 0.013168
O O5 0.250000 0.629125 0.944711
O O6 0.051575 0.748624 0.954799
O O7 0.976062 0.607350 0.903290
O O8 0.024342 0.609630 0.013467
O O9 0.250000 0.914915 0.579316
O O10 0.479297 0.830380 0.615038
O O11 0.500000 0.000000 0.595301
O O12 0.750000 0.369587 0.455541
O O13 0.008985 0.390425 0.402651
O O14 0.750000 0.587052 0.340153
O O15 0.000000 0.500000 0.322215
O O16 0.990855 0.666554 0.302040
O O17 0.750000 0.589424 0.833195
O O18 0.000000 0.500000 0.821936
O O19 0.001838 0.667268 0.804393
O O20 0.750000 0.231026 0.132324
O O21 0.951985 0.246667 0.209720
O O22 0.750000 0.244659 0.787912
#
# Coordination Sequence:
#
# PCOD9379717 Si02
#       8
#     8   8   8   8   8   8   8   8
#     4  12  25  41  65  95 129 166 210 258 315 378
#     4  10  20  37  64  92 127 165 203 251 312 373
#     4  10  21  39  62  92 125 161 200 247 303 362
#     4  11  21  39  66  94 130 167 206 255 316 380
#     4  12  25  42  65  95 130 167 211 260 315 380
#     4  12  25  41  64  93 129 165 209 258 312 380
#     4  10  23  45  67  89 123 166 212 261 315 370
#     4  11  24  44  68  92 123 165 213 266 320 375
#
# _framework density 19.241909
#
# number of rings (size 3 to 8) (size 9 to 14) (size 15 to 20)
#    0.000    1.000    2.500    4.875    0.000    4.500 
#    0.000    1.250    0.000    0.000    0.000    0.000 
#    0.000    0.000    0.000    0.000    0.000    0.000 
#
# Total GULP energy -179091.646369 kJ/mol
# GULP energy per Si atom -5596.613949 kJ/mol
# Density = 1.919811 g / cm^3
# Si number density = 19.241909 Si / 1000 Ang^3
#
#
#
# Elastic Constant Matrix: (Units=GPa)
#
#
# Indices 1 2 3 4 5 6 
#
# 1 143.4595 91.4778 70.3447 0.0000 0.0000 0.0000
# 2 91.4778 184.0352 66.1071 0.0000 0.0000 0.0000
# 3 70.3447 66.1071 83.5208 0.0000 0.0000 0.0000
# 4 0.0000 0.0000 0.0000 -9.9329 0.0000 0.0000
# 5 0.0000 0.0000 0.0000 0.0000 0.2377 0.0000
# 6 0.0000 0.0000 0.0000 0.0000 0.0000 37.0097
#
#
#
# Elastic Compliance Matrix: (Units=1/GPa)
#
#
# Indices 1 2 3 4 5 6 
#
# 1 0.013426 -0.003649 -0.008420 0.000000 0.000000 0.000000
# 2 -0.003649 0.008584 -0.003721 0.000000 0.000000 0.000000
# 3 -0.008420 -0.003721 0.022009 0.000000 0.000000 0.000000
# 4 0.000000 0.000000 0.000000 -0.100675 0.000000 0.000000
# 5 0.000000 0.000000 0.000000 0.000000 4.206181 0.000000
# 6 0.000000 0.000000 0.000000 0.000000 0.000000 0.027020
#
#
# Mechanical properties :
#
#
# Convention : Reuss Voigt Hill
#
# Bulk Modulus (GPa) = 80.38387 96.31940 88.35164
# Shear Modulus (GPa) = 1.18701 17.66864 9.42782
#
# Velocity S-wave (km/s) = 0.78627 3.03353 2.21591
# Velocity P-wave (km/s) = 6.53379 7.90161 7.25003
#
# Compressibility (1/GPa) = 0.01244031
#
# Stress axis : x y z
#
# Youngs Moduli (GPa) = 74.48185 116.49231 45.43493
#
# Poissons Ratio (x) = 0.42511 0.38254
# Poissons Ratio (y) = 0.27180 0.16906
# Poissons Ratio (z) = 0.62711 0.43346
#
# Static dielectric constant tensor:
#      x y z
#    x 1.644610 0.000000 0.000000 
#    y 0.000000 1.656830 0.000000 
#    z 0.000000 0.000000 1.643580 
# 
# From -- ./inp_files/23224.got.cif
#   From: 2010.05.17/outbox.cif.g08.bks.cpg/sg46_12_cif.got.tgz:23224.got - 2010.06.03 19:58:25.
