data_PCOD9379791
_publ_section_title
;
Structure prediction by ZEFSAII (Michael W. Deem and Ramdas Pophale) SiO2 
 PCOD9379791
Probable space group: I M A 2
;
_chemical_formula_sum "Si O2"
_cell_formula_units_Z 48
_cell_length_a 9.814692
_cell_length_b 8.541912
_cell_length_c 28.791595
_cell_angle_alpha 90.000000
_cell_angle_beta 90.000000
_cell_angle_gamma 90.000000
_cell_volume 2413.778935
_symmetry_space_group_name_H-M "I M A 2"
_symmetry_group_IT_number 46
_symmetry_cell_setting 'orthorhombic'
loop_
_space_group_symop_operation_xyz
x,y,z
-x,-y,z
1/2-x,y,z
1/2+x,-y,z
1/2+x,1/2+y,1/2+z
1/2-x,1/2-y,1/2+z
-x,1/2+y,1/2+z
x,1/2-y,1/2+z
loop_
_atom_site_type_symbol
_atom_site_label
_atom_site_fract_x
_atom_site_fract_y
_atom_site_fract_z
Si Si1 0.250000 0.783673 0.579780
Si Si2 0.413674 0.838469 0.417412
Si Si3 0.981245 0.687379 0.235519
Si Si4 0.013483 0.685014 0.514276
Si Si5 0.750000 0.842858 0.558220
Si Si6 0.086329 0.161495 0.332755
Si Si7 0.750000 0.670713 0.165786
Si Si8 0.750000 0.207115 0.686191
O O1 0.381424 0.715928 0.555271
O O2 0.250000 0.735769 0.633542
O O3 0.250000 0.969607 0.566662
O O4 0.250000 0.857551 0.407935
O O5 0.429965 0.749798 0.465747
O O6 0.499881 0.760446 0.375070
O O7 0.500000 0.000000 0.423406
O O8 0.929430 0.747575 0.284628
O O9 0.879538 0.727847 0.193947
O O10 0.000000 0.500000 0.238668
O O11 0.123364 0.752433 0.217681
O O12 0.878737 0.778797 0.529780
O O13 0.000000 0.500000 0.509429
O O14 0.750000 0.785853 0.611896
O O15 0.250000 0.143004 0.342439
O O16 0.000000 0.000000 0.326555
O O17 0.750000 0.481568 0.175033
#
# Coordination Sequence:
#
# PCOD9379791 Si02
#       8
#     4   8   8   8   4   8   4   4
#     4  11  21  45  64  97 120 175 232 255 308 381
#     4  11  24  44  69  93 121 164 220 261 312 391
#     4  10  20  38  63  93 125 163 210 265 314 364
#     4  12  26  42  62  98 137 164 203 272 334 375
#     4  11  23  39  74  89 126 177 222 263 302 385
#     4  11  24  42  64  94 129 164 210 259 314 379
#     4   9  18  39  58  95 120 165 218 265 300 359
#     4   9  20  33  66  89 126 159 218 265 300 365
#
# _framework density 19.885829999999999
#
# number of rings (size 3 to 8) (size 9 to 14) (size 15 to 20)
#    0.000    1.333    1.667    5.000    4.667    3.333 
#    0.000    6.667    0.000    0.000    0.000    0.000 
#    0.000    0.000    0.000    0.000    0.000    0.000 
#
# Total GULP energy -133830.920742 kJ/mol
# GULP energy per Si atom -5576.288364 kJ/mol
# Density = 1.984057 g / cm^3
# Si number density = 19.885830 Si / 1000 Ang^3
#
#
#
# Elastic Constant Matrix: (Units=GPa)
#
#
# Indices 1 2 3 4 5 6 
#
# 1 185.4441 12.6828 56.1235 0.0000 0.0000 0.0000
# 2 12.6828 38.4972 16.6828 0.0000 0.0000 0.0000
# 3 56.1235 16.6828 142.1793 0.0000 0.0000 0.0000
# 4 0.0000 0.0000 0.0000 29.1642 0.0000 0.0000
# 5 0.0000 0.0000 0.0000 0.0000 44.2888 0.0000
# 6 0.0000 0.0000 0.0000 0.0000 0.0000 95.4726
#
#
#
# Elastic Compliance Matrix: (Units=1/GPa)
#
#
# Indices 1 2 3 4 5 6 
#
# 1 0.006162 -0.001028 -0.002312 0.000000 0.000000 0.000000
# 2 -0.001028 0.027539 -0.002825 0.000000 0.000000 0.000000
# 3 -0.002312 -0.002825 0.008277 0.000000 0.000000 0.000000
# 4 0.000000 0.000000 0.000000 0.034289 0.000000 0.000000
# 5 0.000000 0.000000 0.000000 0.000000 0.022579 0.000000
# 6 0.000000 0.000000 0.000000 0.000000 0.000000 0.010474
#
#
# Mechanical properties :
#
#
# Convention : Reuss Voigt Hill
#
# Bulk Modulus (GPa) = 33.72934 59.67764 46.70349
# Shear Modulus (GPa) = 38.01274 52.49388 45.25331
#
# Velocity S-wave (km/s) = 4.37687 5.14344 4.77556
# Velocity P-wave (km/s) = 6.52234 8.08384 7.34471
#
# Compressibility (1/GPa) = 0.02964777
#
# Stress axis : x y z
#
# Youngs Moduli (GPa) = 162.27255 36.31199 120.80959
#
# Poissons Ratio (x) = 0.03734 0.27930
# Poissons Ratio (y) = 0.16687 0.34134
# Poissons Ratio (z) = 0.37516 0.10260
#
# Static dielectric constant tensor:
#      x y z
#    x 1.580300 0.000000 0.000000 
#    y 0.000000 1.724620 0.000000 
#    z 0.000000 0.000000 1.693810 
# 
# From -- ./inp_files/25068.got.cif
#   From: 2010.05.17/outbox.cif.g08.bks.cpg/sg46_13_cif.got.tgz:25068.got - 2010.06.03 19:58:25.
