data_PCOD9379188
_publ_section_title
;
Structure prediction by ZEFSAII (Michael W. Deem and Ramdas Pophale) SiO2 
 PCOD9379188
Probable space group: I M A 2
;
_chemical_formula_sum "Si O2"
_cell_formula_units_Z 48
_cell_length_a 22.275806
_cell_length_b 16.251862
_cell_length_c 8.270942
_cell_angle_alpha 90.000000
_cell_angle_beta 90.000000
_cell_angle_gamma 90.000000
_cell_volume 2994.273924
_symmetry_space_group_name_H-M "I M A 2"
_symmetry_group_IT_number 46
_symmetry_cell_setting 'orthorhombic'
loop_
_space_group_symop_operation_xyz
x,y,z
-x,-y,z
1/2-x,y,z
1/2+x,-y,z
1/2+x,1/2+y,1/2+z
1/2-x,1/2-y,1/2+z
-x,1/2+y,1/2+z
x,1/2-y,1/2+z
loop_
_atom_site_type_symbol
_atom_site_label
_atom_site_fract_x
_atom_site_fract_y
_atom_site_fract_z
Si Si1 0.463977 0.422288 0.809220
Si Si2 0.381281 0.316836 0.610482
Si Si3 0.679176 0.838085 0.775368
Si Si4 0.538827 0.126166 0.791864
Si Si5 0.578914 0.545978 0.172945
Si Si6 0.984750 0.213173 0.112679
O O1 0.500000 0.500000 0.739876
O O2 0.404413 0.394742 0.713328
O O3 0.506667 0.343825 0.772809
O O4 0.446817 0.443214 0.992082
O O5 0.345718 0.249348 0.712508
O O6 0.341185 0.342801 0.461000
O O7 0.445182 0.274968 0.558219
O O8 0.750000 0.843583 0.754471
O O9 0.642376 0.909579 0.685478
O O10 0.469740 0.094043 0.783587
O O11 0.543317 0.201446 0.666668
O O12 0.577168 0.047869 0.734493
O O13 0.547606 0.162773 0.970911
#
# Coordination Sequence:
#
# PCOD9379188 Si02
#       6
#     8   8   8   8   8   8
#     4  10  20  31  55  75 113 138 174 218 278 321
#     4  10  21  33  51  73 107 145 184 216 259 323
#     4  12  23  37  52  74 109 153 193 224 258 310
#     4  11  20  31  54  75 113 135 175 213 286 324
#     4  11  20  34  51  80 102 146 176 226 265 329
#     4  10  20  32  50  77 110 141 167 217 264 338
#
# _framework density 16.030597
#
# number of rings (size 3 to 8) (size 9 to 14) (size 15 to 20)
#    1.000    0.333    5.000    2.500    4.667    0.000 
#    0.000    0.833    0.000    0.000    0.000    1.167 
#    0.000    0.000    0.000    0.000    0.000    0.000 
#
# Total GULP energy -133718.377071 kJ/mol
# GULP energy per Si atom -5571.599045 kJ/mol
# Density = 1.599411 g / cm^3
# Si number density = 16.030597 Si / 1000 Ang^3
#
#
#
# Elastic Constant Matrix: (Units=GPa)
#
#
# Indices 1 2 3 4 5 6 
#
# 1 80.2834 47.3431 25.8199 0.0000 0.0000 0.0000
# 2 47.3431 124.5424 50.6999 0.0000 0.0000 0.0000
# 3 25.8199 50.6999 89.8210 0.0000 0.0000 0.0000
# 4 0.0000 0.0000 0.0000 23.5306 0.0000 0.0000
# 5 0.0000 0.0000 0.0000 0.0000 12.7882 0.0000
# 6 0.0000 0.0000 0.0000 0.0000 0.0000 15.4122
#
#
#
# Elastic Compliance Matrix: (Units=1/GPa)
#
#
# Indices 1 2 3 4 5 6 
#
# 1 0.016216 -0.005540 -0.001535 0.000000 0.000000 0.000000
# 2 -0.005540 0.012317 -0.005360 0.000000 0.000000 0.000000
# 3 -0.001535 -0.005360 0.014600 0.000000 0.000000 0.000000
# 4 0.000000 0.000000 0.000000 0.042498 0.000000 0.000000
# 5 0.000000 0.000000 0.000000 0.000000 0.078197 0.000000
# 6 0.000000 0.000000 0.000000 0.000000 0.000000 0.064884
#
#
# Mechanical properties :
#
#
# Convention : Reuss Voigt Hill
#
# Bulk Modulus (GPa) = 54.75065 60.26363 57.50714
# Shear Modulus (GPa) = 19.25530 21.73179 20.49354
#
# Velocity S-wave (km/s) = 3.46953 3.68590 3.57935
# Velocity P-wave (km/s) = 7.09071 7.46920 7.28242
#
# Compressibility (1/GPa) = 0.01826462
#
# Stress axis : x y z
#
# Youngs Moduli (GPa) = 61.66697 81.18684 68.49340
#
# Poissons Ratio (x) = 0.44974 0.10511
# Poissons Ratio (y) = 0.34161 0.36713
# Poissons Ratio (z) = 0.09463 0.43517
#
# Static dielectric constant tensor:
#      x y z
#    x 1.508240 0.000000 0.000000 
#    y 0.000000 1.575350 0.000000 
#    z 0.000000 0.000000 1.598820 
# 
# From -- ./inp_files/7312.got.cif
#   From: 2010.05.17/outbox.cif.g08.bks.cpg/sg46_4_cif.got.tgz:7312.got - 2010.06.03 19:58:25.
