data_PCOD9379974
_publ_section_title
;
Structure prediction by ZEFSAII (Michael W. Deem and Ramdas Pophale) SiO2 
 PCOD9379974
Probable space group: I M A 2
;
_chemical_formula_sum "Si O2"
_cell_formula_units_Z 48
_cell_length_a 23.421456
_cell_length_b 11.077311
_cell_length_c 7.547698
_cell_angle_alpha 90.000000
_cell_angle_beta 90.000000
_cell_angle_gamma 90.000000
_cell_volume 1958.225733
_symmetry_space_group_name_H-M "I M A 2"
_symmetry_group_IT_number 46
_symmetry_cell_setting 'orthorhombic'
loop_
_space_group_symop_operation_xyz
x,y,z
-x,-y,z
1/2-x,y,z
1/2+x,-y,z
1/2+x,1/2+y,1/2+z
1/2-x,1/2-y,1/2+z
-x,1/2+y,1/2+z
x,1/2-y,1/2+z
loop_
_atom_site_type_symbol
_atom_site_label
_atom_site_fract_x
_atom_site_fract_y
_atom_site_fract_z
Si Si1 0.546096 0.085719 0.283600
Si Si2 0.686560 0.892807 0.499329
Si Si3 0.909511 0.592412 0.286306
Si Si4 0.849510 0.936820 0.142702
Si Si5 0.250000 0.615264 0.074134
Si Si6 0.750000 0.102909 0.993808
Si Si7 0.532886 0.155051 0.882713
O O1 0.523012 0.120295 0.087361
O O2 0.558424 0.211651 0.376883
O O3 0.500000 0.000000 0.377793
O O4 0.600445 0.005923 0.243926
O O5 0.750000 0.847977 0.558895
O O6 0.632643 0.878314 0.626278
O O7 0.677327 0.644761 0.796203
O O8 0.697348 0.039242 0.495591
O O9 0.876682 0.622606 0.469152
O O10 0.926715 0.449391 0.301551
O O11 0.971231 0.655777 0.287597
O O12 0.804214 0.033374 0.071383
O O13 0.250000 0.755920 0.038373
O O14 0.250000 0.592430 0.283050
#
# Coordination Sequence:
#
# PCOD9379974 Si02
#       7
#     8   8   8   8   4   4   8
#     4  11  24  42  64  97 131 173 223 279 335 397
#     4  10  21  35  57  94 127 172 223 265 330 408
#     4  10  21  43  61  94 135 179 216 277 334 397
#     4  11  21  37  61  86 138 170 213 276 330 399
#     4  10  22  32  48  85 132 164 226 261 326 412
#     4  12  20  34  54  85 128 182 210 275 340 392
#     4  10  23  43  65  92 136 171 226 276 332 403
#
# _framework density 24.511986
#
# number of rings (size 3 to 8) (size 9 to 14) (size 15 to 20)
#    0.500    1.000    5.833    1.000    4.667    2.667 
#    0.000    0.000    0.000    0.000    2.167    0.000 
#    0.000    0.000    0.000    0.000    0.000    0.000 
#
# Total GULP energy -134296.712591 kJ/mol
# GULP energy per Si atom -5595.696358 kJ/mol
# Density = 2.445620 g / cm^3
# Si number density = 24.511986 Si / 1000 Ang^3
#
#
#
# Elastic Constant Matrix: (Units=GPa)
#
#
# Indices 1 2 3 4 5 6 
#
# 1 114.7922 8.5650 43.7874 0.0000 0.0000 0.0000
# 2 8.5650 107.4584 15.6627 0.0000 0.0000 0.0000
# 3 43.7874 15.6627 127.1181 0.0000 0.0000 0.0000
# 4 0.0000 0.0000 0.0000 27.4697 0.0000 0.0000
# 5 0.0000 0.0000 0.0000 0.0000 87.1299 0.0000
# 6 0.0000 0.0000 0.0000 0.0000 0.0000 7.6444
#
#
#
# Elastic Compliance Matrix: (Units=1/GPa)
#
#
# Indices 1 2 3 4 5 6 
#
# 1 0.010039 -0.000302 -0.003421 0.000000 0.000000 0.000000
# 2 -0.000302 0.009485 -0.001065 0.000000 0.000000 0.000000
# 3 -0.003421 -0.001065 0.009176 0.000000 0.000000 0.000000
# 4 0.000000 0.000000 0.000000 0.036404 0.000000 0.000000
# 5 0.000000 0.000000 0.000000 0.000000 0.011477 0.000000
# 6 0.000000 0.000000 0.000000 0.000000 0.000000 0.130814
#
#
# Mechanical properties :
#
#
# Convention : Reuss Voigt Hill
#
# Bulk Modulus (GPa) = 52.28544 53.93322 53.10933
# Shear Modulus (GPa) = 22.38690 43.20570 32.79630
#
# Velocity S-wave (km/s) = 3.02537 4.20293 3.66180
# Velocity P-wave (km/s) = 5.79488 6.75303 6.29222
#
# Compressibility (1/GPa) = 0.01912578
#
# Stress axis : x y z
#
# Youngs Moduli (GPa) = 99.61384 105.42779 108.97703
#
# Poissons Ratio (x) = 0.03179 0.37279
# Poissons Ratio (y) = 0.03004 0.11604
# Poissons Ratio (z) = 0.34076 0.11226
#
# Static dielectric constant tensor:
#      x y z
#    x 1.861380 0.000000 0.000000 
#    y 0.000000 1.955750 0.000000 
#    z 0.000000 0.000000 1.952810 
# 
# From -- ./inp_files/12740.got.cif
#   From: 2010.05.17/outbox.cif.g08.bks.cpg/sg46_7_cif.got.tgz:12740.got - 2010.06.03 19:58:25.
