data_PCOD9379985
_publ_section_title
;
Structure prediction by ZEFSAII (Michael W. Deem and Ramdas Pophale) SiO2 
 PCOD9379985
Probable space group: I M A 2
;
_chemical_formula_sum "Si O2"
_cell_formula_units_Z 64
_cell_length_a 9.106816
_cell_length_b 29.269127
_cell_length_c 13.094365
_cell_angle_alpha 90.000000
_cell_angle_beta 90.000000
_cell_angle_gamma 90.000000
_cell_volume 3490.284057
_symmetry_space_group_name_H-M "I M A 2"
_symmetry_group_IT_number 46
_symmetry_cell_setting 'orthorhombic'
loop_
_space_group_symop_operation_xyz
x,y,z
-x,-y,z
1/2-x,y,z
1/2+x,-y,z
1/2+x,1/2+y,1/2+z
1/2-x,1/2-y,1/2+z
-x,1/2+y,1/2+z
x,1/2-y,1/2+z
loop_
_atom_site_type_symbol
_atom_site_label
_atom_site_fract_x
_atom_site_fract_y
_atom_site_fract_z
Si Si1 0.574519 0.450744 0.323120
Si Si2 0.926898 0.141651 0.224053
Si Si3 0.914009 0.800405 0.856798
Si Si4 0.575580 0.374851 0.492201
Si Si5 0.574439 0.881835 0.430361
Si Si6 0.584807 0.781340 0.508264
Si Si7 0.072351 0.449935 0.114854
Si Si8 0.922978 0.246777 0.196417
O O1 0.500000 0.500000 0.338467
O O2 0.750000 0.455156 0.305891
O O3 0.552184 0.419545 0.422711
O O4 0.497505 0.430957 0.220593
O O5 0.750000 0.140011 0.232924
O O6 0.966894 0.122453 0.111557
O O7 0.973231 0.195315 0.224962
O O8 0.996675 0.115998 0.320526
O O9 0.750000 0.816111 0.831276
O O10 0.008746 0.788800 0.758589
O O11 0.905498 0.751179 0.910953
O O12 0.988352 0.835098 0.934730
O O13 0.750000 0.364243 0.490252
O O14 0.750000 0.883574 0.414564
O O15 0.540117 0.832093 0.477618
O O16 0.536582 0.919414 0.515793
O O17 0.750000 0.782753 0.554711
O O18 0.471129 0.756915 0.581931
O O19 0.250000 0.452768 0.124340
O O20 0.000000 0.500000 0.103003
O O21 0.750000 0.247102 0.209910
#
# Coordination Sequence:
#
# PCOD9379985 Si02
#       8
#     8   8   8   8   8   8   8   8
#     4  10  21  39  64  88 115 146 180 231 286 341
#     4  10  21  37  57  80 114 155 192 234 279 332
#     4  11  22  35  55  80 112 152 192 235 279 330
#     4  10  22  40  58  84 117 150 192 237 283 337
#     4  10  22  39  58  83 115 149 190 238 282 335
#     4  10  21  36  53  78 111 149 191 234 279 329
#     4  10  21  39  63  88 116 146 181 232 286 341
#     4  11  22  35  53  77 111 153 193 236 281 331
#
# _framework density 18.336617
#
# number of rings (size 3 to 8) (size 9 to 14) (size 15 to 20)
#    0.000    1.750    2.500    2.250    1.750    4.000 
#    0.000    0.625    0.000    3.000    0.000    0.000 
#    0.000    0.000    0.000    0.000    0.000    0.000 
#
# Total GULP energy -178496.805426 kJ/mol
# GULP energy per Si atom -5578.025170 kJ/mol
# Density = 1.829488 g / cm^3
# Si number density = 18.336617 Si / 1000 Ang^3
#
#
#
# Elastic Constant Matrix: (Units=GPa)
#
#
# Indices 1 2 3 4 5 6 
#
# 1 59.5212 33.9921 50.7941 0.0000 0.0000 0.0000
# 2 33.9921 63.0481 41.3228 0.0000 0.0000 0.0000
# 3 50.7941 41.3228 109.9898 0.0002 -0.0001 0.0002
# 4 0.0000 0.0000 0.0002 28.0886 0.0000 0.0001
# 5 0.0000 0.0000 -0.0001 0.0000 32.8641 0.0000
# 6 0.0000 0.0000 0.0002 0.0001 0.0000 18.7544
#
#
#
# Elastic Compliance Matrix: (Units=1/GPa)
#
#
# Indices 1 2 3 4 5 6 
#
# 1 0.031860 -0.009995 -0.010958 0.000000 0.000000 0.000000
# 2 -0.009995 0.024178 -0.004468 0.000000 0.000000 0.000000
# 3 -0.010958 -0.004468 0.015831 0.000000 0.000000 0.000000
# 4 0.000000 0.000000 0.000000 0.035602 0.000000 0.000000
# 5 0.000000 0.000000 0.000000 0.000000 0.030428 0.000000
# 6 0.000000 0.000000 0.000000 0.000000 0.000000 0.053321
#
#
# Mechanical properties :
#
#
# Convention : Reuss Voigt Hill
#
# Bulk Modulus (GPa) = 47.55794 53.86411 50.71103
# Shear Modulus (GPa) = 20.07457 23.03808 21.55633
#
# Velocity S-wave (km/s) = 3.31234 3.54842 3.43241
# Velocity P-wave (km/s) = 6.37347 6.79906 6.58970
#
# Compressibility (1/GPa) = 0.02102698
#
# Stress axis : x y z
#
# Youngs Moduli (GPa) = 31.38691 41.35995 63.16772
#
# Poissons Ratio (x) = 0.41340 0.69221
# Poissons Ratio (y) = 0.31372 0.28222
# Poissons Ratio (z) = 0.34394 0.18479
#
# Static dielectric constant tensor:
#      x y z
#    x 1.643470 0.000000 0.000000 
#    y 0.000000 1.622950 0.000000 
#    z 0.000000 0.000000 1.638990 
# 
# From -- ./inp_files/9690.got.cif
#   From: 2010.05.17/outbox.cif.g08.bks.cpg/sg46_5_cif.got.tgz:9690.got - 2010.06.03 19:58:25.
