data_PCOD9379089
_publ_section_title
;
Structure prediction by ZEFSAII (Michael W. Deem and Ramdas Pophale) SiO2 
 PCOD9379089
Probable space group: I M A 2
;
_chemical_formula_sum "Si O2"
_cell_formula_units_Z 56
_cell_length_a 27.124118
_cell_length_b 15.054515
_cell_length_c 5.318225
_cell_angle_alpha 90.000000
_cell_angle_beta 90.000000
_cell_angle_gamma 90.000000
_cell_volume 2171.646343
_symmetry_space_group_name_H-M "I M A 2"
_symmetry_group_IT_number 46
_symmetry_cell_setting 'orthorhombic'
loop_
_space_group_symop_operation_xyz
x,y,z
-x,-y,z
1/2-x,y,z
1/2+x,-y,z
1/2+x,1/2+y,1/2+z
1/2-x,1/2-y,1/2+z
-x,1/2+y,1/2+z
x,1/2-y,1/2+z
loop_
_atom_site_type_symbol
_atom_site_label
_atom_site_fract_x
_atom_site_fract_y
_atom_site_fract_z
Si Si1 0.690168 0.697468 0.399840
Si Si2 0.441987 0.296646 0.081509
Si Si3 0.601155 0.516974 0.897749
Si Si4 0.052760 0.765397 0.075765
Si Si5 0.052534 0.542803 0.390275
Si Si6 0.309077 0.497596 0.207609
Si Si7 0.690499 0.303807 0.354638
O O1 0.750000 0.701144 0.403039
O O2 0.673828 0.743995 0.658529
O O3 0.678321 0.593462 0.357748
O O4 0.427529 0.225801 0.866364
O O5 0.420688 0.389032 0.989890
O O6 0.502093 0.291188 0.077207
O O7 0.584017 0.503700 0.612001
O O8 0.659437 0.510654 0.950450
O O9 0.578382 0.452480 0.117227
O O10 0.081458 0.740323 0.829879
O O11 0.039406 0.865871 0.026690
O O12 0.000000 0.500000 0.343084
O O13 0.250000 0.497661 0.163256
O O14 0.323679 0.591709 0.334923
O O15 0.750000 0.306995 0.354962
O O16 0.676990 0.247402 0.108187
#
# Coordination Sequence:
#
# PCOD9379089 Si02
#       7
#     8   8   8   8   8   8   8
#     4   9  19  36  60  92 131 178 229 280 338 400
#     4  10  20  38  62  92 129 173 223 270 330 408
#     4  12  26  43  68 104 137 179 233 280 341 419
#     4  10  19  36  61  90 124 168 210 259 333 403
#     4  12  24  43  67  95 133 171 219 283 343 402
#     4  10  24  46  71 102 145 191 237 293 350 409
#     4   9  19  38  65  93 123 170 230 287 346 407
#
# _framework density 25.786887
#
# number of rings (size 3 to 8) (size 9 to 14) (size 15 to 20)
#    0.000    1.714    0.000    5.571    0.000    4.571 
#    0.000   13.571    0.000    0.000    0.000    0.000 
#    0.000    0.000    0.000    0.000    0.000    0.000 
#
# Total GULP energy -156715.496121 kJ/mol
# GULP energy per Si atom -5596.982004 kJ/mol
# Density = 2.572819 g / cm^3
# Si number density = 25.786887 Si / 1000 Ang^3
#
#
#
# Elastic Constant Matrix: (Units=GPa)
#
#
# Indices 1 2 3 4 5 6 
#
# 1 124.6449 33.6932 34.0358 0.0000 0.0000 0.0000
# 2 33.6932 144.7925 39.0906 0.0000 0.0000 0.0000
# 3 34.0358 39.0906 163.9995 0.0000 0.0000 0.0000
# 4 0.0000 0.0000 0.0000 41.8160 0.0000 0.0000
# 5 0.0000 0.0000 0.0000 0.0000 40.3329 0.0000
# 6 0.0000 0.0000 0.0000 0.0000 0.0000 -2.3530
#
#
#
# Elastic Compliance Matrix: (Units=1/GPa)
#
#
# Indices 1 2 3 4 5 6 
#
# 1 0.008869 -0.001675 -0.001441 0.000000 0.000000 0.000000
# 2 -0.001675 0.007698 -0.001487 0.000000 0.000000 0.000000
# 3 -0.001441 -0.001487 0.006751 0.000000 0.000000 0.000000
# 4 0.000000 0.000000 0.000000 0.023914 0.000000 0.000000
# 5 0.000000 0.000000 0.000000 0.000000 0.024794 0.000000
# 6 0.000000 0.000000 0.000000 0.000000 0.000000 -0.424991
#
#
# Mechanical properties :
#
#
# Convention : Reuss Voigt Hill
#
# Bulk Modulus (GPa) = 70.86576 71.89733 71.38154
# Shear Modulus (GPa) = -14.74690 37.73369 11.49339
#
# Velocity S-wave (km/s) = -2.39399 3.82945 2.11347
# Velocity P-wave (km/s) = 4.46088 6.89164 5.80492
#
# Compressibility (1/GPa) = 0.01411119
#
# Stress axis : x y z
#
# Youngs Moduli (GPa) = 112.75109 129.90978 148.12103
#
# Poissons Ratio (x) = 0.21756 0.21351
# Poissons Ratio (y) = 0.18882 0.22029
# Poissons Ratio (z) = 0.16253 0.19321
#
# Static dielectric constant tensor:
#      x y z
#    x 2.025570 0.000000 0.000000 
#    y 0.000000 2.039300 0.000000 
#    z 0.000000 0.000000 2.064690 
# 
# From -- ./inp_files/2723.got.cif
#   From: 2010.05.17/outbox.cif.g08.bks.cpg/sg46_2_cif.got.tgz:2723.got - 2010.06.03 19:58:25.
