data_PCOD9379730
_publ_section_title
;
Structure prediction by ZEFSAII (Michael W. Deem and Ramdas Pophale) SiO2 
 PCOD9379730
Probable space group: I M A 2
;
_chemical_formula_sum "Si O2"
_cell_formula_units_Z 56
_cell_length_a 14.970441
_cell_length_b 12.711569
_cell_length_c 13.172817
_cell_angle_alpha 90.000000
_cell_angle_beta 90.000000
_cell_angle_gamma 90.000000
_cell_volume 2506.758012
_symmetry_space_group_name_H-M "I M A 2"
_symmetry_group_IT_number 46
_symmetry_cell_setting 'orthorhombic'
loop_
_space_group_symop_operation_xyz
x,y,z
-x,-y,z
1/2-x,y,z
1/2+x,-y,z
1/2+x,1/2+y,1/2+z
1/2-x,1/2-y,1/2+z
-x,1/2+y,1/2+z
x,1/2-y,1/2+z
loop_
_atom_site_type_symbol
_atom_site_label
_atom_site_fract_x
_atom_site_fract_y
_atom_site_fract_z
Si Si1 0.394258 0.979890 0.577250
Si Si2 0.844300 0.902291 0.376528
Si Si3 0.578134 0.584605 0.281220
Si Si4 0.855076 0.277486 0.970133
Si Si5 0.845970 0.827181 0.977280
Si Si6 0.027357 0.619296 0.569560
Si Si7 0.512898 0.316297 0.784815
O O1 0.352016 0.025347 0.475040
O O2 0.370441 0.042234 0.680698
O O3 0.500000 0.000000 0.568882
O O4 0.373310 0.856253 0.565857
O O5 0.750000 0.923743 0.322980
O O6 0.841694 0.785922 0.424211
O O7 0.932102 0.896997 0.309002
O O8 0.500000 0.500000 0.297548
O O9 0.636039 0.594778 0.382933
O O10 0.530657 0.699473 0.268848
O O11 0.750000 0.275769 0.948260
O O12 0.917120 0.315306 0.876872
O O13 0.896910 0.164441 0.996747
O O14 0.750000 0.848937 0.026950
O O15 0.932856 0.822846 0.047598
O O16 0.057333 0.644717 0.682519
O O17 0.000000 0.500000 0.554910
#
# Coordination Sequence:
#
# PCOD9379730 Si02
#       7
#     8   8   8   8   8   8   8
#     4  11  20  39  71 103 136 184 232 296 362 416
#     4  10  20  37  65  98 133 170 224 288 351 414
#     4  10  20  38  68 100 135 177 232 289 356 417
#     4  12  27  48  73 106 147 188 241 302 358 430
#     4  10  21  39  63  97 135 174 225 286 350 418
#     4  12  26  47  69  97 139 191 234 287 360 429
#     4  11  24  44  69 102 138 188 239 293 352 426
#
# _framework density 22.339611000000001
#
# number of rings (size 3 to 8) (size 9 to 14) (size 15 to 20)
#    0.000    1.143    4.286    3.429    2.000    2.857 
#    0.000    2.857    0.000    0.000    0.000    0.000 
#    0.000    0.000    0.000    0.000    0.000    0.000 
#
# Total GULP energy -156392.199204 kJ/mol
# GULP energy per Si atom -5585.435686 kJ/mol
# Density = 2.228877 g / cm^3
# Si number density = 22.339611 Si / 1000 Ang^3
#
#
#
# Elastic Constant Matrix: (Units=GPa)
#
#
# Indices 1 2 3 4 5 6 
#
# 1 118.1174 13.4340 16.5423 0.0000 0.0000 0.0000
# 2 13.4340 88.2186 18.0579 0.0000 0.0000 0.0000
# 3 16.5423 18.0579 78.2418 0.0000 0.0000 0.0000
# 4 0.0000 0.0000 0.0000 23.2464 0.0000 0.0000
# 5 0.0000 0.0000 0.0000 0.0000 2.3698 0.0000
# 6 0.0000 0.0000 0.0000 0.0000 0.0000 0.0658
#
#
#
# Elastic Compliance Matrix: (Units=1/GPa)
#
#
# Indices 1 2 3 4 5 6 
#
# 1 0.008809 -0.001008 -0.001630 0.000000 0.000000 0.000000
# 2 -0.001008 0.012013 -0.002559 0.000000 0.000000 0.000000
# 3 -0.001630 -0.002559 0.013716 0.000000 0.000000 0.000000
# 4 0.000000 0.000000 0.000000 0.043017 0.000000 0.000000
# 5 0.000000 0.000000 0.000000 0.000000 0.421974 0.000000
# 6 0.000000 0.000000 0.000000 0.000000 0.000000 15.207421
#
#
# Mechanical properties :
#
#
# Convention : Reuss Voigt Hill
#
# Bulk Modulus (GPa) = 41.41842 42.29403 41.85623
# Shear Modulus (GPa) = 0.31796 20.90595 10.61195
#
# Velocity S-wave (km/s) = 0.37767 3.06244 2.18188
# Velocity P-wave (km/s) = 4.33253 5.61054 5.01243
#
# Compressibility (1/GPa) = 0.02414385
#
# Stress axis : x y z
#
# Youngs Moduli (GPa) = 113.51973 83.24411 72.90656
#
# Poissons Ratio (x) = 0.08390 0.11883
# Poissons Ratio (y) = 0.11441 0.18660
# Poissons Ratio (z) = 0.18502 0.21306
#
# Static dielectric constant tensor:
#      x y z
#    x 1.927760 0.000000 0.000000 
#    y 0.000000 1.895920 0.000000 
#    z 0.000000 0.000000 1.823980 
# 
# From -- ./inp_files/15931.got.cif
#   From: 2010.05.17/outbox.cif.g08.bks.cpg/sg46_8_cif.got.tgz:15931.got - 2010.06.03 19:58:25.
