data_PCOD9379677
_publ_section_title
;
Structure prediction by ZEFSAII (Michael W. Deem and Ramdas Pophale) SiO2 
 PCOD9379677
Probable space group: I M A 2
;
_chemical_formula_sum "Si O2"
_cell_formula_units_Z 48
_cell_length_a 15.823971
_cell_length_b 8.823896
_cell_length_c 19.064107
_cell_angle_alpha 90.000000
_cell_angle_beta 90.000000
_cell_angle_gamma 90.000000
_cell_volume 2661.903615
_symmetry_space_group_name_H-M "I M A 2"
_symmetry_group_IT_number 46
_symmetry_cell_setting 'orthorhombic'
loop_
_space_group_symop_operation_xyz
x,y,z
-x,-y,z
1/2-x,y,z
1/2+x,-y,z
1/2+x,1/2+y,1/2+z
1/2-x,1/2-y,1/2+z
-x,1/2+y,1/2+z
x,1/2-y,1/2+z
loop_
_atom_site_type_symbol
_atom_site_label
_atom_site_fract_x
_atom_site_fract_y
_atom_site_fract_z
Si Si1 0.005520 0.320135 0.623090
Si Si2 0.156667 0.300148 0.031402
Si Si3 0.083756 0.892259 0.518203
Si Si4 0.652824 0.809663 0.365546
Si Si5 0.150816 0.827383 0.367732
Si Si6 0.502622 0.319435 0.277620
O O1 0.935931 0.232322 0.576386
O O2 0.002507 0.254716 0.701056
O O3 0.000000 0.500000 0.624134
O O4 0.090987 0.276255 0.582630
O O5 0.250000 0.243770 0.045543
O O6 0.150976 0.481710 0.041313
O O7 0.138602 0.278029 0.948449
O O8 0.114137 0.815187 0.446636
O O9 0.000000 0.000000 0.506729
O O10 0.750000 0.764606 0.348978
O O11 0.579431 0.732245 0.321620
O O12 0.646793 0.991172 0.353955
O O13 0.250000 0.782845 0.363846
O O14 0.087517 0.738808 0.316602
O O15 0.500000 0.500000 0.271624
#
# Coordination Sequence:
#
# PCOD9379677 Si02
#       6
#     8   8   8   8   8   8
#     4  11  23  38  56  79 111 151 188 227 278 330
#     4   9  18  36  60  86 112 142 181 226 274 331
#     4   9  17  34  60  86 112 145 182 221 273 332
#     4   9  19  37  63  88 113 146 184 225 276 333
#     4  10  20  37  61  87 112 145 185 228 277 333
#     4  12  24  38  56  80 115 153 188 231 279 329
#
# _framework density 18.032209000000002
#
# number of rings (size 3 to 8) (size 9 to 14) (size 15 to 20)
#    0.000    2.000    0.000    7.500    0.000    4.000 
#    0.000    7.500    0.000    0.000    0.000    0.000 
#    0.000    0.000    0.000    0.000    0.000    0.000 
#
# Total GULP energy -133898.834111 kJ/mol
# GULP energy per Si atom -5579.118088 kJ/mol
# Density = 1.799117 g / cm^3
# Si number density = 18.032209 Si / 1000 Ang^3
#
#
#
# Elastic Constant Matrix: (Units=GPa)
#
#
# Indices 1 2 3 4 5 6 
#
# 1 120.7202 59.9700 92.2754 0.0000 0.0000 0.0000
# 2 59.9700 102.1757 96.5480 0.0000 0.0000 0.0000
# 3 92.2754 96.5480 136.8639 0.0000 0.0000 0.0000
# 4 0.0000 0.0000 0.0000 33.4321 0.0000 0.0000
# 5 0.0000 0.0000 0.0000 0.0000 19.4484 0.0000
# 6 0.0000 0.0000 0.0000 0.0000 0.0000 20.2053
#
#
#
# Elastic Compliance Matrix: (Units=1/GPa)
#
#
# Indices 1 2 3 4 5 6 
#
# 1 0.017320 0.002605 -0.013515 0.000000 0.000000 0.000000
# 2 0.002605 0.029745 -0.022739 0.000000 0.000000 0.000000
# 3 -0.013515 -0.022739 0.032460 0.000000 0.000000 0.000000
# 4 0.000000 0.000000 0.000000 0.029911 0.000000 0.000000
# 5 0.000000 0.000000 0.000000 0.000000 0.051418 0.000000
# 6 0.000000 0.000000 0.000000 0.000000 0.000000 0.049492
#
#
# Mechanical properties :
#
#
# Convention : Reuss Voigt Hill
#
# Bulk Modulus (GPa) = 81.79399 95.26073 88.52736
# Shear Modulus (GPa) = 17.74808 22.01492 19.88150
#
# Velocity S-wave (km/s) = 3.14067 3.49788 3.32408
# Velocity P-wave (km/s) = 7.65573 8.32204 7.99583
#
# Compressibility (1/GPa) = 0.01222584
#
# Stress axis : x y z
#
# Youngs Moduli (GPa) = 57.73626 33.61904 30.80748
#
# Poissons Ratio (x) = -0.08758 0.41637
# Poissons Ratio (y) = -0.15040 0.70054
# Poissons Ratio (z) = 0.78031 0.76448
#
# Static dielectric constant tensor:
#      x y z
#    x 1.523700 0.000000 0.000000 
#    y 0.000000 1.608820 0.000000 
#    z 0.000000 0.000000 1.596840 
# 
# From -- ./inp_files/19432.got.cif
#   From: 2010.05.17/outbox.cif.g08.bks.cpg/sg46_10_cif.got.tgz:19432.got - 2010.06.03 19:58:25.
