data_PCOD9379393
_publ_section_title
;
Structure prediction by ZEFSAII (Michael W. Deem and Ramdas Pophale) SiO2 
 PCOD9379393
Probable space group: I M A 2
;
_chemical_formula_sum "Si O2"
_cell_formula_units_Z 52
_cell_length_a 26.334712
_cell_length_b 11.204698
_cell_length_c 8.361962
_cell_angle_alpha 90.000000
_cell_angle_beta 90.000000
_cell_angle_gamma 90.000000
_cell_volume 2467.384989
_symmetry_space_group_name_H-M "I M A 2"
_symmetry_group_IT_number 46
_symmetry_cell_setting 'orthorhombic'
loop_
_space_group_symop_operation_xyz
x,y,z
-x,-y,z
1/2-x,y,z
1/2+x,-y,z
1/2+x,1/2+y,1/2+z
1/2-x,1/2-y,1/2+z
-x,1/2+y,1/2+z
x,1/2-y,1/2+z
loop_
_atom_site_type_symbol
_atom_site_label
_atom_site_fract_x
_atom_site_fract_y
_atom_site_fract_z
Si Si1 0.750000 0.016408 0.483380
Si Si2 0.360967 0.856127 0.850287
Si Si3 0.642497 0.887579 0.998195
Si Si4 0.133668 0.603083 0.987813
Si Si5 0.750000 0.415870 0.334947
Si Si6 0.417788 0.231499 0.738152
Si Si7 0.750000 0.588471 0.631549
Si Si8 0.548806 0.920617 0.464183
O O1 0.694222 0.078716 0.467279
O O2 0.750000 0.992771 0.680203
O O3 0.750000 0.932636 0.323045
O O4 0.380277 0.889327 0.675232
O O5 0.300543 0.840176 0.822470
O O6 0.380520 0.730740 0.913680
O O7 0.364644 0.970868 0.967166
O O8 0.601888 0.830223 0.115184
O O9 0.697375 0.855414 0.070835
O O10 0.630646 0.823690 0.830266
O O11 0.099942 0.494619 0.921430
O O12 0.750000 0.471988 0.512928
O O13 0.445129 0.126392 0.644215
O O14 0.453341 0.301892 0.858751
O O15 0.500000 0.000000 0.441634
#
# Coordination Sequence:
#
# PCOD9379393 Si02
#       8
#     4   8   8   8   4   8   4   8
#     4  10  21  37  60  97 137 185 220 278 344 396
#     4  10  21  36  59  94 132 173 221 277 329 400
#     4  10  21  42  63  97 134 178 225 273 335 396
#     4  11  23  38  64  98 136 175 223 283 334 402
#     4   8  19  35  52  88 139 175 225 275 334 386
#     4  10  23  46  69  89 133 172 214 287 333 394
#     4  10  20  34  64  93 132 182 233 261 330 412
#     4  11  25  47  70  97 130 172 225 273 342 402
#
# _framework density 21.074943000000001
#
# number of rings (size 3 to 8) (size 9 to 14) (size 15 to 20)
#    0.000    1.846    1.538    1.385    6.462    1.846 
#    0.000    4.615    0.000    0.000    0.000    0.000 
#    0.000    0.000    0.000    0.000    0.000    0.000 
#
# Total GULP energy -144835.697406 kJ/mol
# GULP energy per Si atom -5570.603746 kJ/mol
# Density = 2.102698 g / cm^3
# Si number density = 21.074943 Si / 1000 Ang^3
#
#
#
# Elastic Constant Matrix: (Units=GPa)
#
#
# Indices 1 2 3 4 5 6 
#
# 1 56.9872 31.7931 8.5107 0.0000 0.0000 0.0000
# 2 31.7931 86.1731 19.2176 0.0000 0.0000 0.0000
# 3 8.5107 19.2176 56.7681 0.0000 0.0000 0.0000
# 4 0.0000 0.0000 0.0000 39.4155 0.0000 0.0000
# 5 0.0000 0.0000 0.0000 0.0000 8.0912 0.0000
# 6 0.0000 0.0000 0.0000 0.0000 0.0000 22.9242
#
#
#
# Elastic Compliance Matrix: (Units=1/GPa)
#
#
# Indices 1 2 3 4 5 6 
#
# 1 0.022115 -0.008026 -0.000599 0.000000 0.000000 0.000000
# 2 -0.008026 0.015465 -0.004032 0.000000 0.000000 0.000000
# 3 -0.000599 -0.004032 0.019070 0.000000 0.000000 0.000000
# 4 0.000000 0.000000 0.000000 0.025371 0.000000 0.000000
# 5 0.000000 0.000000 0.000000 0.000000 0.123592 0.000000
# 6 0.000000 0.000000 0.000000 0.000000 0.000000 0.043622
#
#
# Mechanical properties :
#
#
# Convention : Reuss Voigt Hill
#
# Bulk Modulus (GPa) = 31.91094 35.44126 33.67610
# Shear Modulus (GPa) = 17.54433 23.44662 20.49548
#
# Velocity S-wave (km/s) = 2.88839 3.33909 3.12188
# Velocity P-wave (km/s) = 5.12818 5.63199 5.38598
#
# Compressibility (1/GPa) = 0.03133722
#
# Stress axis : x y z
#
# Youngs Moduli (GPa) = 45.21886 64.66319 52.43777
#
# Poissons Ratio (x) = 0.51896 0.03139
# Poissons Ratio (y) = 0.36291 0.21143
# Poissons Ratio (z) = 0.02707 0.26073
#
# Static dielectric constant tensor:
#      x y z
#    x 1.742560 0.000000 0.000000 
#    y 0.000000 1.768650 0.000000 
#    z 0.000000 0.000000 1.817100 
# 
# From -- ./inp_files/8197.got.cif
#   From: 2010.05.17/outbox.cif.g08.bks.cpg/sg46_5_cif.got.tgz:8197.got - 2010.06.03 19:58:25.
