data_PCOD9379340
_publ_section_title
;
Structure prediction by ZEFSAII (Michael W. Deem and Ramdas Pophale) SiO2 
 PCOD9379340
Probable space group: I M A 2
;
_chemical_formula_sum "Si O2"
_cell_formula_units_Z 48
_cell_length_a 7.520903
_cell_length_b 27.560372
_cell_length_c 10.040055
_cell_angle_alpha 90.000000
_cell_angle_beta 90.000000
_cell_angle_gamma 90.000000
_cell_volume 2081.091400
_symmetry_space_group_name_H-M "I M A 2"
_symmetry_group_IT_number 46
_symmetry_cell_setting 'orthorhombic'
loop_
_space_group_symop_operation_xyz
x,y,z
-x,-y,z
1/2-x,y,z
1/2+x,-y,z
1/2+x,1/2+y,1/2+z
1/2-x,1/2-y,1/2+z
-x,1/2+y,1/2+z
x,1/2-y,1/2+z
loop_
_atom_site_type_symbol
_atom_site_label
_atom_site_fract_x
_atom_site_fract_y
_atom_site_fract_z
Si Si1 0.962209 0.448321 0.643670
Si Si2 0.036578 0.555542 0.078163
Si Si3 0.456481 0.228458 0.222945
Si Si4 0.465982 0.870797 0.352865
Si Si5 0.460309 0.918578 0.868037
Si Si6 0.533990 0.693395 0.431155
O O1 0.750000 0.443046 0.637552
O O2 0.027543 0.403458 0.728800
O O3 0.037372 0.446285 0.495237
O O4 0.000000 0.500000 0.707870
O O5 0.250000 0.560137 0.078910
O O6 0.965211 0.565423 0.226334
O O7 0.000000 0.500000 0.037574
O O8 0.973716 0.598364 0.980431
O O9 0.250000 0.239958 0.198470
O O10 0.468510 0.182931 0.323781
O O11 0.531247 0.273328 0.308093
O O12 0.529214 0.212568 0.077254
O O13 0.250000 0.868563 0.354774
O O14 0.250000 0.929046 0.861587
O O15 0.481296 0.861821 0.901580
O O16 0.750000 0.695062 0.433774
#
# Coordination Sequence:
#
# PCOD9379340 Si02
#       6
#     8   8   8   8   8   8
#     4  10  20  34  55  80 109 143 182 227 273 326
#     4  10  22  38  57  84 117 151 190 233 277 330
#     4  10  22  39  59  85 114 145 185 232 282 337
#     4  10  21  38  57  82 115 148 186 231 277 331
#     4  10  21  38  57  82 115 148 186 231 277 331
#     4  10  22  39  59  85 114 145 185 232 282 337
#
# _framework density 23.064823000000001
#
# number of rings (size 3 to 8) (size 9 to 14) (size 15 to 20)
#    0.000    2.000    1.667    1.000    2.333    3.333 
#    0.000    0.000    0.000    0.000    0.000    0.000 
#    0.000    0.000    0.000    0.000    0.000    0.000 
#
# Total GULP energy -134065.065412 kJ/mol
# GULP energy per Si atom -5586.044392 kJ/mol
# Density = 2.301233 g / cm^3
# Si number density = 23.064823 Si / 1000 Ang^3
#
#
#
# Elastic Constant Matrix: (Units=GPa)
#
#
# Indices 1 2 3 4 5 6 
#
# 1 61.6966 -25.3153 3.1382 -0.0002 0.0000 0.0000
# 2 -25.3153 81.8111 -2.3495 0.0000 -0.0001 0.0000
# 3 3.1382 -2.3495 93.4490 -0.0007 -0.0002 0.0000
# 4 -0.0002 0.0000 -0.0007 51.0232 0.0011 0.0000
# 5 0.0000 -0.0001 -0.0002 0.0011 43.0558 0.0000
# 6 0.0000 0.0000 0.0000 0.0000 0.0000 26.4039
#
#
#
# Elastic Compliance Matrix: (Units=1/GPa)
#
#
# Indices 1 2 3 4 5 6 
#
# 1 0.018587 0.005738 -0.000480 0.000000 0.000000 0.000000
# 2 0.005738 0.014003 0.000159 0.000000 0.000000 0.000000
# 3 -0.000480 0.000159 0.010721 0.000000 0.000000 0.000000
# 4 0.000000 0.000000 0.000000 0.019599 -0.000001 0.000000
# 5 0.000000 0.000000 0.000000 -0.000001 0.023226 0.000000
# 6 0.000000 0.000000 0.000000 0.000000 0.000000 0.037873
#
#
# Mechanical properties :
#
#
# Convention : Reuss Voigt Hill
#
# Bulk Modulus (GPa) = 18.46864 20.87818 19.67341
# Shear Modulus (GPa) = 38.10292 41.52881 39.81587
#
# Velocity S-wave (km/s) = 4.06888 4.24786 4.15934
# Velocity P-wave (km/s) = 5.48626 5.75593 5.62271
#
# Compressibility (1/GPa) = 0.05414584
#
# Stress axis : x y z
#
# Youngs Moduli (GPa) = 53.80092 71.41164 93.27359
#
# Poissons Ratio (x) = -0.40974 0.04477
# Poissons Ratio (y) = -0.30869 -0.01487
# Poissons Ratio (z) = 0.02582 -0.01138
#
# Static dielectric constant tensor:
#      x y z
#    x 1.825720 0.000010 0.000000 
#    y 0.000010 1.684560 0.000000 
#    z 0.000000 0.000000 1.899080 
# 
# From -- ./inp_files/3885.got.cif
#   From: 2010.05.17/outbox.cif.g08.bks.cpg/sg46_2_cif.got.tgz:3885.got - 2010.06.03 19:58:25.
