data_PCOD9379489
_publ_section_title
;
Structure prediction by ZEFSAII (Michael W. Deem and Ramdas Pophale) SiO2 
 PCOD9379489
Probable space group: I M A 2
;
_chemical_formula_sum "Si O2"
_cell_formula_units_Z 48
_cell_length_a 15.203568
_cell_length_b 16.960997
_cell_length_c 7.880443
_cell_angle_alpha 90.000000
_cell_angle_beta 90.000000
_cell_angle_gamma 90.000000
_cell_volume 2032.111485
_symmetry_space_group_name_H-M "I M A 2"
_symmetry_group_IT_number 46
_symmetry_cell_setting 'orthorhombic'
loop_
_space_group_symop_operation_xyz
x,y,z
-x,-y,z
1/2-x,y,z
1/2+x,-y,z
1/2+x,1/2+y,1/2+z
1/2-x,1/2-y,1/2+z
-x,1/2+y,1/2+z
x,1/2-y,1/2+z
loop_
_atom_site_type_symbol
_atom_site_label
_atom_site_fract_x
_atom_site_fract_y
_atom_site_fract_z
Si Si1 0.350808 0.652660 0.172150
Si Si2 0.356541 0.117009 0.745256
Si Si3 0.357272 0.503002 0.952922
Si Si4 0.940942 0.283400 0.492665
Si Si5 0.648890 0.939850 0.114267
Si Si6 0.571252 0.705371 0.765472
O O1 0.250000 0.638371 0.221765
O O2 0.380342 0.582820 0.049884
O O3 0.410773 0.663797 0.337210
O O4 0.360769 0.734434 0.070022
O O5 0.250000 0.118310 0.746921
O O6 0.384613 0.067440 0.580155
O O7 0.388620 0.207114 0.742393
O O8 0.385467 0.075875 0.923561
O O9 0.250000 0.500718 0.944227
O O10 0.390250 0.496977 0.759197
O O11 0.993780 0.324645 0.640564
O O12 0.014006 0.219506 0.432929
O O13 0.750000 0.964362 0.086901
O O14 0.645586 0.857510 0.221387
#
# Coordination Sequence:
#
# PCOD9379489 Si02
#       6
#     8   8   8   8   8   8
#     4  10  21  43  65  87 113 150 209 274 328 381
#     4  10  20  35  59  92 126 170 209 238 293 366
#     4   9  20  38  61  89 120 154 206 265 310 361
#     4  10  22  36  62  86 115 157 201 256 325 377
#     4  10  20  35  59  91 125 169 209 239 293 365
#     4  11  19  37  56  87 131 160 199 252 293 368
#
# _framework density 23.620752
#
# number of rings (size 3 to 8) (size 9 to 14) (size 15 to 20)
#    0.000    2.000    1.667    2.000    0.000    0.000 
#    6.000    7.500    0.000    0.000    0.000    0.000 
#    0.000    0.000    0.000    0.000    0.000    0.000 
#
# Total GULP energy -133810.378851 kJ/mol
# GULP energy per Si atom -5575.432452 kJ/mol
# Density = 2.356699 g / cm^3
# Si number density = 23.620752 Si / 1000 Ang^3
#
#
#
# Elastic Constant Matrix: (Units=GPa)
#
#
# Indices 1 2 3 4 5 6 
#
# 1 54.8786 16.6408 12.9782 0.0000 0.0000 0.0000
# 2 16.6408 49.7220 12.4712 0.0000 0.0000 0.0000
# 3 12.9782 12.4712 128.1023 0.0000 0.0000 0.0000
# 4 0.0000 0.0000 0.0000 23.3186 0.0000 0.0000
# 5 0.0000 0.0000 0.0000 0.0000 32.6166 0.0000
# 6 0.0000 0.0000 0.0000 0.0000 0.0000 14.0751
#
#
#
# Elastic Compliance Matrix: (Units=1/GPa)
#
#
# Indices 1 2 3 4 5 6 
#
# 1 0.020539 -0.006511 -0.001447 0.000000 0.000000 0.000000
# 2 -0.006511 0.022679 -0.001548 0.000000 0.000000 0.000000
# 3 -0.001447 -0.001548 0.008104 0.000000 0.000000 0.000000
# 4 0.000000 0.000000 0.000000 0.042884 0.000000 0.000000
# 5 0.000000 0.000000 0.000000 0.000000 0.030659 0.000000
# 6 0.000000 0.000000 0.000000 0.000000 0.000000 0.071047
#
#
# Mechanical properties :
#
#
# Convention : Reuss Voigt Hill
#
# Bulk Modulus (GPa) = 30.95096 35.20926 33.08011
# Shear Modulus (GPa) = 22.15390 26.70957 24.43174
#
# Velocity S-wave (km/s) = 3.06584 3.36634 3.21959
# Velocity P-wave (km/s) = 5.06599 5.48161 5.27789
#
# Compressibility (1/GPa) = 0.03230917
#
# Stress axis : x y z
#
# Youngs Moduli (GPa) = 48.68904 44.09324 123.40227
#
# Poissons Ratio (x) = 0.28708 0.17855
# Poissons Ratio (y) = 0.31701 0.19106
# Poissons Ratio (z) = 0.07045 0.06827
#
# Static dielectric constant tensor:
#      x y z
#    x 1.892420 0.000000 0.000000 
#    y 0.000000 1.931780 0.000000 
#    z 0.000000 0.000000 1.932710 
# 
# From -- ./inp_files/5726.got.cif
#   From: 2010.05.17/outbox.cif.g08.bks.cpg/sg46_3_cif.got.tgz:5726.got - 2010.06.03 19:58:25.
