data_PCOD9379102
_publ_section_title
;
Structure prediction by ZEFSAII (Michael W. Deem and Ramdas Pophale) SiO2 
 PCOD9379102
Probable space group: I M A 2
;
_chemical_formula_sum "Si O2"
_cell_formula_units_Z 64
_cell_length_a 18.519767
_cell_length_b 8.752635
_cell_length_c 19.968867
_cell_angle_alpha 90.000000
_cell_angle_beta 90.000000
_cell_angle_gamma 90.000000
_cell_volume 3236.888658
_symmetry_space_group_name_H-M "I M A 2"
_symmetry_group_IT_number 46
_symmetry_cell_setting 'orthorhombic'
loop_
_space_group_symop_operation_xyz
x,y,z
-x,-y,z
1/2-x,y,z
1/2+x,-y,z
1/2+x,1/2+y,1/2+z
1/2-x,1/2-y,1/2+z
-x,1/2+y,1/2+z
x,1/2-y,1/2+z
loop_
_atom_site_type_symbol
_atom_site_label
_atom_site_fract_x
_atom_site_fract_y
_atom_site_fract_z
Si Si1 0.430437 0.696384 0.247890
Si Si2 0.066496 0.703527 0.487766
Si Si3 0.420208 0.923722 0.604501
Si Si4 0.599031 0.856919 0.780825
Si Si5 0.075655 0.908695 0.361846
Si Si6 0.164949 0.224347 0.644756
Si Si7 0.334788 0.307848 0.905423
Si Si8 0.900755 0.870239 0.023353
O O1 0.421729 0.690733 0.168016
O O2 0.393858 0.539380 0.273343
O O3 0.515431 0.680492 0.265501
O O4 0.404279 0.841970 0.289299
O O5 0.096034 0.833637 0.537087
O O6 0.066620 0.766934 0.412666
O O7 0.106625 0.543404 0.497888
O O8 0.983919 0.676023 0.511261
O O9 0.500000 0.000000 0.600564
O O10 0.365078 0.060163 0.619557
O O11 0.644595 0.773680 0.722949
O O12 0.623410 0.799797 0.852679
O O13 0.133758 0.024530 0.391882
O O14 0.000000 0.000000 0.358627
O O15 0.250000 0.238821 0.635222
O O16 0.122471 0.347471 0.599922
O O17 0.250000 0.301735 0.893715
O O18 0.353798 0.244842 0.978618
#
# Coordination Sequence:
#
# PCOD9379102 Si02
#       8
#     8   8   8   8   8   8   8   8
#     4  10  19  36  63  95 114 151 202 254 297 337
#     4  11  22  38  63  92 114 151 202 258 299 334
#     4  11  19  39  63  91 124 151 200 251 293 355
#     4  10  19  38  62  87 119 152 201 248 290 359
#     4  12  22  38  62  90 122 153 201 253 298 353
#     4  11  22  38  61  89 122 164 196 236 301 366
#     4  12  25  40  58  86 122 163 197 241 304 366
#     4  11  22  39  60  90 118 150 202 252 294 356
#
# _framework density 19.772074
#
# number of rings (size 3 to 8) (size 9 to 14) (size 15 to 20)
#    0.000    1.000    6.250    2.625    0.000    3.000 
#    2.250    6.875    0.000    0.000    0.000    0.000 
#    0.000    0.000    0.000    0.000    0.000    0.000 
#
# Total GULP energy -178864.105746 kJ/mol
# GULP energy per Si atom -5589.503305 kJ/mol
# Density = 1.972707 g / cm^3
# Si number density = 19.772074 Si / 1000 Ang^3
#
#
#
# Elastic Constant Matrix: (Units=GPa)
#
#
# Indices 1 2 3 4 5 6 
#
# 1 50.8372 -0.5804 -8.6052 0.0000 0.0000 0.0000
# 2 -0.5804 61.6000 16.0350 0.0000 0.0000 0.0000
# 3 -8.6052 16.0350 69.0062 0.0000 0.0000 0.0000
# 4 0.0000 0.0000 0.0000 42.2529 0.0000 0.0000
# 5 0.0000 0.0000 0.0000 0.0000 6.9384 0.0000
# 6 0.0000 0.0000 0.0000 0.0000 0.0000 10.8460
#
#
#
# Elastic Compliance Matrix: (Units=1/GPa)
#
#
# Indices 1 2 3 4 5 6 
#
# 1 0.020109 -0.000493 0.002622 0.000000 0.000000 0.000000
# 2 -0.000493 0.017291 -0.004079 0.000000 0.000000 0.000000
# 3 0.002622 -0.004079 0.015766 0.000000 0.000000 0.000000
# 4 0.000000 0.000000 0.000000 0.023667 0.000000 0.000000
# 5 0.000000 0.000000 0.000000 0.000000 0.144125 0.000000
# 6 0.000000 0.000000 0.000000 0.000000 0.000000 0.092200
#
#
# Mechanical properties :
#
#
# Convention : Reuss Voigt Hill
#
# Bulk Modulus (GPa) = 20.29812 21.68246 20.99029
# Shear Modulus (GPa) = 14.99338 23.64706 19.32022
#
# Velocity S-wave (km/s) = 2.75673 3.46205 3.12933
# Velocity P-wave (km/s) = 4.51897 5.19337 4.86786
#
# Compressibility (1/GPa) = 0.04926564
#
# Stress axis : x y z
#
# Youngs Moduli (GPa) = 49.72929 57.83350 63.42609
#
# Poissons Ratio (x) = 0.02852 -0.16632
# Poissons Ratio (y) = 0.02452 0.25874
# Poissons Ratio (z) = -0.13040 0.23593
#
# Static dielectric constant tensor:
#      x y z
#    x 1.666870 0.000000 0.000000 
#    y 0.000000 1.708890 0.000000 
#    z 0.000000 0.000000 1.695280 
# 
# From -- ./inp_files/22240.got.cif
#   From: 2010.05.17/outbox.cif.g08.bks.cpg/sg46_12_cif.got.tgz:22240.got - 2010.06.03 19:58:25.
