data_PCOD9379864
_publ_section_title
;
Structure prediction by ZEFSAII (Michael W. Deem and Ramdas Pophale) SiO2 
 PCOD9379864
Probable space group: I M A 2
;
_chemical_formula_sum "Si O2"
_cell_formula_units_Z 48
_cell_length_a 16.229689
_cell_length_b 7.508295
_cell_length_c 16.650975
_cell_angle_alpha 90.000000
_cell_angle_beta 90.000000
_cell_angle_gamma 90.000000
_cell_volume 2029.042735
_symmetry_space_group_name_H-M "I M A 2"
_symmetry_group_IT_number 46
_symmetry_cell_setting 'orthorhombic'
loop_
_space_group_symop_operation_xyz
x,y,z
-x,-y,z
1/2-x,y,z
1/2+x,-y,z
1/2+x,1/2+y,1/2+z
1/2-x,1/2-y,1/2+z
-x,1/2+y,1/2+z
x,1/2-y,1/2+z
loop_
_atom_site_type_symbol
_atom_site_label
_atom_site_fract_x
_atom_site_fract_y
_atom_site_fract_z
Si Si1 0.155867 0.317628 0.773660
Si Si2 0.415946 0.633473 0.532150
Si Si3 0.837937 0.436289 0.097603
Si Si4 0.424925 0.229787 0.102248
Si Si5 0.499749 0.283726 0.876414
Si Si6 0.658516 0.250777 0.771533
O O1 0.250000 0.256394 0.785098
O O2 0.117771 0.262636 0.688491
O O3 0.157951 0.533276 0.767039
O O4 0.091137 0.249804 0.840420
O O5 0.342762 0.770723 0.537360
O O6 0.478401 0.685729 0.605561
O O7 0.473631 0.685416 0.457744
O O8 0.389407 0.433261 0.549761
O O9 0.750000 0.530064 0.091379
O O10 0.906669 0.574956 0.070124
O O11 0.843651 0.351724 0.186502
O O12 0.500000 0.500000 0.884543
O O13 0.573203 0.217589 0.817726
O O14 0.750000 0.205755 0.807191
#
# Coordination Sequence:
#
# PCOD9379864 Si02
#       6
#     8   8   8   8   8   8
#     4  10  20  39  68  98 134 183 237 296 355 427
#     4  11  24  42  65  97 136 185 233 293 367 432
#     4  11  22  39  67  98 132 176 234 296 354 433
#     4  11  23  41  67  95 134 181 240 291 348 431
#     4  10  21  39  66 100 144 187 236 295 372 445
#     4   9  19  37  64  97 134 183 236 289 356 428
#
# _framework density 23.656473999999999
#
# number of rings (size 3 to 8) (size 9 to 14) (size 15 to 20)
#    0.000    1.667    1.667    3.000    4.667    1.333 
#    6.000    5.000    0.000    1.000    0.000    0.000 
#    0.000    0.000    0.000    0.000    0.000    0.000 
#
# Total GULP energy -133913.353832 kJ/mol
# GULP energy per Si atom -5579.723076 kJ/mol
# Density = 2.360263 g / cm^3
# Si number density = 23.656474 Si / 1000 Ang^3
#
#
#
# Elastic Constant Matrix: (Units=GPa)
#
#
# Indices 1 2 3 4 5 6 
#
# 1 159.6804 26.2360 53.1194 0.0000 0.0000 0.0000
# 2 26.2360 105.2845 23.5212 0.0000 0.0000 0.0000
# 3 53.1194 23.5212 81.6213 0.0000 0.0000 0.0000
# 4 0.0000 0.0000 0.0000 24.3066 0.0000 0.0000
# 5 0.0000 0.0000 0.0000 0.0000 11.5687 0.0000
# 6 0.0000 0.0000 0.0000 0.0000 0.0000 23.9431
#
#
#
# Elastic Compliance Matrix: (Units=1/GPa)
#
#
# Indices 1 2 3 4 5 6 
#
# 1 0.008071 -0.000895 -0.004995 0.000000 0.000000 0.000000
# 2 -0.000895 0.010251 -0.002371 0.000000 0.000000 0.000000
# 3 -0.004995 -0.002371 0.016186 0.000000 0.000000 0.000000
# 4 0.000000 0.000000 0.000000 0.041141 0.000000 0.000000
# 5 0.000000 0.000000 0.000000 0.000000 0.086440 0.000000
# 6 0.000000 0.000000 0.000000 0.000000 0.000000 0.041766
#
#
# Mechanical properties :
#
#
# Convention : Reuss Voigt Hill
#
# Bulk Modulus (GPa) = 55.60229 61.37103 58.48666
# Shear Modulus (GPa) = 22.08749 28.21100 25.14925
#
# Velocity S-wave (km/s) = 3.05893 3.45705 3.26406
# Velocity P-wave (km/s) = 6.00259 6.47563 6.24359
#
# Compressibility (1/GPa) = 0.01798487
#
# Stress axis : x y z
#
# Youngs Moduli (GPa) = 123.89775 97.55174 61.78324
#
# Poissons Ratio (x) = 0.08735 0.30859
# Poissons Ratio (y) = 0.11094 0.14651
# Poissons Ratio (z) = 0.61883 0.23133
#
# Static dielectric constant tensor:
#      x y z
#    x 1.959480 0.000000 0.000000 
#    y 0.000000 2.008160 0.000000 
#    z 0.000000 0.000000 1.953750 
# 
# From -- ./inp_files/19434.got.cif
#   From: 2010.05.17/outbox.cif.g08.bks.cpg/sg46_10_cif.got.tgz:19434.got - 2010.06.03 19:58:25.
