data_PCOD9379685
_publ_section_title
;
Structure prediction by ZEFSAII (Michael W. Deem and Ramdas Pophale) SiO2 
 PCOD9379685
Probable space group: I M A 2
;
_chemical_formula_sum "Si O2"
_cell_formula_units_Z 40
_cell_length_a 8.217109
_cell_length_b 17.893124
_cell_length_c 13.203099
_cell_angle_alpha 90.000000
_cell_angle_beta 90.000000
_cell_angle_gamma 90.000000
_cell_volume 1941.248349
_symmetry_space_group_name_H-M "I M A 2"
_symmetry_group_IT_number 46
_symmetry_cell_setting 'orthorhombic'
loop_
_space_group_symop_operation_xyz
x,y,z
-x,-y,z
1/2-x,y,z
1/2+x,-y,z
1/2+x,1/2+y,1/2+z
1/2-x,1/2-y,1/2+z
-x,1/2+y,1/2+z
x,1/2-y,1/2+z
loop_
_atom_site_type_symbol
_atom_site_label
_atom_site_fract_x
_atom_site_fract_y
_atom_site_fract_z
Si Si1 0.063383 0.324521 0.168970
Si Si2 0.554370 0.415060 0.351019
Si Si3 0.055154 0.587904 0.969248
Si Si4 0.445777 0.669648 0.762892
Si Si5 0.945834 0.414946 0.567666
O O1 0.250000 0.305838 0.148595
O O2 0.042650 0.385668 0.256056
O O3 0.982509 0.253437 0.225118
O O4 0.991876 0.362083 0.067254
O O5 0.500000 0.500000 0.362372
O O6 0.750000 0.408548 0.335779
O O7 0.509844 0.378215 0.459577
O O8 0.250000 0.585050 0.965567
O O9 0.995096 0.633137 0.868616
O O10 0.000000 0.500000 0.973395
O O11 0.250000 0.663934 0.767756
O O12 0.511280 0.622212 0.668406
O O13 0.750000 0.412407 0.570596
O O14 0.000000 0.500000 0.568789
#
# Coordination Sequence:
#
# PCOD9379685 Si02
#       5
#     8   8   8   8   8
#     4  12  26  41  61  91 128 166 212 265 317 375
#     4  10  20  37  61  89 121 159 202 250 306 371
#     4  11  24  44  70  96 130 172 219 268 321 389
#     4  10  23  42  64  92 126 166 208 258 319 379
#     4   9  19  36  61  90 120 155 197 245 303 368
#
# _framework density 20.605297
#
# number of rings (size 3 to 8) (size 9 to 14) (size 15 to 20)
#    0.000    1.600    0.000    4.200    2.800    3.200 
#    0.000    0.000    0.000    0.000    0.000    0.000 
#    0.000    0.000    0.000    0.000    0.000    0.000 
#
# Total GULP energy -111453.081454 kJ/mol
# GULP energy per Si atom -5572.654073 kJ/mol
# Density = 2.055840 g / cm^3
# Si number density = 20.605297 Si / 1000 Ang^3
#
#
#
# Elastic Constant Matrix: (Units=GPa)
#
#
# Indices 1 2 3 4 5 6 
#
# 1 33.8791 -2.7613 20.1618 0.0000 0.0000 0.0000
# 2 -2.7613 86.1949 63.9462 0.0000 0.0000 0.0000
# 3 20.1618 63.9462 191.7093 0.0000 0.0000 0.0000
# 4 0.0000 0.0000 0.0000 38.4580 0.0000 0.0000
# 5 0.0000 0.0000 0.0000 0.0000 30.8851 0.0000
# 6 0.0000 0.0000 0.0000 0.0000 0.0000 32.8861
#
#
#
# Elastic Compliance Matrix: (Units=1/GPa)
#
#
# Indices 1 2 3 4 5 6 
#
# 1 0.032926 0.004815 -0.005069 0.000000 0.000000 0.000000
# 2 0.004815 0.016121 -0.005884 0.000000 0.000000 0.000000
# 3 -0.005069 -0.005884 0.007712 0.000000 0.000000 0.000000
# 4 0.000000 0.000000 0.000000 0.026002 0.000000 0.000000
# 5 0.000000 0.000000 0.000000 0.000000 0.032378 0.000000
# 6 0.000000 0.000000 0.000000 0.000000 0.000000 0.030408
#
#
# Mechanical properties :
#
#
# Convention : Reuss Voigt Hill
#
# Bulk Modulus (GPa) = 22.48002 52.71963 37.59982
# Shear Modulus (GPa) = 28.96042 35.80828 32.38435
#
# Velocity S-wave (km/s) = 3.75305 4.17324 3.96871
# Velocity P-wave (km/s) = 5.45105 6.99015 6.26802
#
# Compressibility (1/GPa) = 0.04448394
#
# Stress axis : x y z
#
# Youngs Moduli (GPa) = 30.37138 62.03145 129.67026
#
# Poissons Ratio (x) = -0.29870 0.65729
# Poissons Ratio (y) = -0.14625 0.76294
# Poissons Ratio (z) = 0.15395 0.36497
#
# Static dielectric constant tensor:
#      x y z
#    x 1.723400 0.000000 0.000000 
#    y 0.000000 1.907130 0.000000 
#    z 0.000000 0.000000 1.800110 
# 
# From -- ./inp_files/9035.got.cif
#   From: 2010.05.17/outbox.cif.g08.bks.cpg/sg46_5_cif.got.tgz:9035.got - 2010.06.03 19:58:25.
