data_PCOD9379204
_publ_section_title
;
Structure prediction by ZEFSAII (Michael W. Deem and Ramdas Pophale) SiO2 
 PCOD9379204
Probable space group: I M A 2
;
_chemical_formula_sum "Si O2"
_cell_formula_units_Z 64
_cell_length_a 18.062198
_cell_length_b 21.856154
_cell_length_c 9.745580
_cell_angle_alpha 90.000000
_cell_angle_beta 90.000000
_cell_angle_gamma 90.000000
_cell_volume 3847.264381
_symmetry_space_group_name_H-M "I M A 2"
_symmetry_group_IT_number 46
_symmetry_cell_setting 'orthorhombic'
loop_
_space_group_symop_operation_xyz
x,y,z
-x,-y,z
1/2-x,y,z
1/2+x,-y,z
1/2+x,1/2+y,1/2+z
1/2-x,1/2-y,1/2+z
-x,1/2+y,1/2+z
x,1/2-y,1/2+z
loop_
_atom_site_type_symbol
_atom_site_label
_atom_site_fract_x
_atom_site_fract_y
_atom_site_fract_z
Si Si1 0.167015 0.156811 0.757830
Si Si2 0.662426 0.699563 0.795688
Si Si3 0.837108 0.494828 0.935831
Si Si4 0.918708 0.618189 0.002301
Si Si5 0.120386 0.389653 0.548205
Si Si6 0.163931 0.528484 0.624786
Si Si7 0.532959 0.069202 0.941752
Si Si8 0.549475 0.062378 0.626414
O O1 0.250000 0.149043 0.703260
O O2 0.151304 0.228969 0.766418
O O3 0.112229 0.122841 0.656234
O O4 0.160644 0.128942 0.908247
O O5 0.750000 0.690565 0.827728
O O6 0.641090 0.658811 0.664673
O O7 0.611076 0.676117 0.919294
O O8 0.750000 0.505965 0.954828
O O9 0.847964 0.463526 0.787784
O O10 0.880879 0.559146 0.933023
O O11 0.872884 0.456281 0.059324
O O12 0.005491 0.607309 0.023435
O O13 0.146862 0.456906 0.593807
O O14 0.033076 0.392009 0.510474
O O15 0.250000 0.540616 0.593192
O O16 0.106286 0.566662 0.534192
O O17 0.551017 0.084932 0.783385
O O18 0.500000 0.000000 0.939346
O O19 0.500000 0.000000 0.626720
#
# Coordination Sequence:
#
# PCOD9379204 Si02
#       8
#     8   8   8   8   8   8   8   8
#     4  11  22  34  49  70  99 135 172 211 242 274
#     4  11  22  34  49  72  99 131 176 211 240 280
#     4  10  20  32  50  75 101 129 164 201 244 298
#     4  11  20  34  51  69 100 136 167 203 243 290
#     4  11  20  34  51  69 100 136 167 203 243 290
#     4  10  20  32  50  75 101 129 164 201 244 298
#     4   9  19  33  48  71  97 128 165 200 242 297
#     4   9  19  33  48  71  97 128 165 200 242 297
#
# _framework density 16.635196000000001
#
# number of rings (size 3 to 8) (size 9 to 14) (size 15 to 20)
#    0.000    1.750    2.500    3.000    3.500    4.000 
#    0.000    0.000    0.000    0.000    0.000    0.000 
#    0.000    6.000    0.000    0.000    0.000    0.000 
#
# Total GULP energy -178534.887484 kJ/mol
# GULP energy per Si atom -5579.215234 kJ/mol
# Density = 1.659733 g / cm^3
# Si number density = 16.635196 Si / 1000 Ang^3
#
#
#
# Elastic Constant Matrix: (Units=GPa)
#
#
# Indices 1 2 3 4 5 6 
#
# 1 74.9129 6.2374 15.6867 0.0000 0.0000 0.0000
# 2 6.2374 18.4943 -5.4135 0.0000 0.0000 0.0000
# 3 15.6867 -5.4135 56.6624 0.0000 0.0000 0.0000
# 4 0.0000 0.0000 0.0000 8.5146 0.0000 0.0000
# 5 0.0000 0.0000 0.0000 0.0000 28.0652 0.0000
# 6 0.0000 0.0000 0.0000 0.0000 0.0000 7.6559
#
#
#
# Elastic Compliance Matrix: (Units=1/GPa)
#
#
# Indices 1 2 3 4 5 6 
#
# 1 0.014872 -0.006400 -0.004729 0.000000 0.000000 0.000000
# 2 -0.006400 0.058380 0.007349 0.000000 0.000000 0.000000
# 3 -0.004729 0.007349 0.019660 0.000000 0.000000 0.000000
# 4 0.000000 0.000000 0.000000 0.117446 0.000000 0.000000
# 5 0.000000 0.000000 0.000000 0.000000 0.035631 0.000000
# 6 0.000000 0.000000 0.000000 0.000000 0.000000 0.130618
#
#
# Mechanical properties :
#
#
# Convention : Reuss Voigt Hill
#
# Bulk Modulus (GPa) = 11.71594 20.34341 16.02968
# Shear Modulus (GPa) = 12.11779 17.75106 14.93442
#
# Velocity S-wave (km/s) = 2.70190 3.27016 2.99952
# Velocity P-wave (km/s) = 4.09778 5.14920 4.65328
#
# Compressibility (1/GPa) = 0.08535377
#
# Stress axis : x y z
#
# Youngs Moduli (GPa) = 67.24102 17.12905 50.86557
#
# Poissons Ratio (x) = 0.10962 0.24052
# Poissons Ratio (y) = 0.43033 -0.37383
# Poissons Ratio (z) = 0.31796 -0.12589
#
# Static dielectric constant tensor:
#      x y z
#    x 1.581450 0.000000 0.000000 
#    y 0.000000 1.536980 0.000000 
#    z 0.000000 0.000000 1.579290 
# 
# From -- ./inp_files/6940.got.cif
#   From: 2010.05.17/outbox.cif.g08.bks.cpg/sg46_4_cif.got.tgz:6940.got - 2010.06.03 19:58:25.
