data_PCOD9379238
_publ_section_title
;
Structure prediction by ZEFSAII (Michael W. Deem and Ramdas Pophale) SiO2 
 PCOD9379238
Probable space group: I M A 2
;
_chemical_formula_sum "Si O2"
_cell_formula_units_Z 64
_cell_length_a 8.780183
_cell_length_b 14.955680
_cell_length_c 27.789286
_cell_angle_alpha 90.000000
_cell_angle_beta 90.000000
_cell_angle_gamma 90.000000
_cell_volume 3649.111389
_symmetry_space_group_name_H-M "I M A 2"
_symmetry_group_IT_number 46
_symmetry_cell_setting 'orthorhombic'
loop_
_space_group_symop_operation_xyz
x,y,z
-x,-y,z
1/2-x,y,z
1/2+x,-y,z
1/2+x,1/2+y,1/2+z
1/2-x,1/2-y,1/2+z
-x,1/2+y,1/2+z
x,1/2-y,1/2+z
loop_
_atom_site_type_symbol
_atom_site_label
_atom_site_fract_x
_atom_site_fract_y
_atom_site_fract_z
Si Si1 0.069057 0.596433 0.389650
Si Si2 0.430943 0.903567 0.775502
Si Si3 0.932385 0.596049 0.112358
Si Si4 0.567615 0.596049 0.552795
Si Si5 0.431690 0.269972 0.465560
Si Si6 0.068353 0.903282 0.507085
Si Si7 0.068310 0.230028 0.699592
Si Si8 0.068353 0.903282 0.158067
O O1 0.250000 0.595435 0.398186
O O2 0.042352 0.608556 0.332576
O O3 0.000000 0.500000 0.403369
O O4 0.991813 0.673922 0.420458
O O5 0.250000 0.904565 0.766966
O O6 0.508187 0.826078 0.744694
O O7 0.500000 0.000000 0.761783
O O8 0.750000 0.588847 0.106943
O O9 0.966003 0.670019 0.152318
O O10 0.000000 0.500000 0.127334
O O11 0.004575 0.617681 0.060620
O O12 0.500000 0.500000 0.537818
O O13 0.750000 0.588845 0.558210
O O14 0.534000 0.670019 0.512834
O O15 0.495424 0.617681 0.604532
O O16 0.250000 0.258588 0.462953
O O17 0.511768 0.174969 0.472352
O O18 0.250000 0.908101 0.508636
O O19 0.000000 0.000000 0.494050
O O20 0.250000 0.241410 0.702198
O O21 0.988234 0.325031 0.692800
O O22 0.250000 0.908101 0.156516
O O23 0.000000 0.000000 0.171102
#
# Coordination Sequence:
#
# PCOD9379238 Si02
#       8
#     8   8   8   8   8   8   8   8
#     4  10  21  37  57  82 111 141 174 214 262 315
#     4  10  21  37  57  82 111 141 174 214 262 315
#     4  10  20  33  50  75 108 142 177 217 260 310
#     4  10  20  33  50  75 108 142 177 217 260 310
#     4  11  22  35  54  79 107 140 179 220 263 314
#     4  11  22  36  54  75 104 141 180 221 264 311
#     4  11  22  35  54  79 107 140 179 220 263 314
#     4  11  22  36  54  75 104 141 180 221 264 311
#
# _framework density 17.538516000000001
#
# number of rings (size 3 to 8) (size 9 to 14) (size 15 to 20)
#    0.000    1.500    0.000    7.500    0.000   10.500 
#    0.000    0.000    0.000    0.750    0.000    0.000 
#    0.000    0.000    0.000    0.000    0.000    0.000 
#
# Total GULP energy -178911.566388 kJ/mol
# GULP energy per Si atom -5590.986450 kJ/mol
# Density = 1.749860 g / cm^3
# Si number density = 17.538516 Si / 1000 Ang^3
#
#
#
# Elastic Constant Matrix: (Units=GPa)
#
#
# Indices 1 2 3 4 5 6 
#
# 1 93.6142 63.7516 43.7040 0.0000 0.0000 0.0000
# 2 63.7516 109.7335 58.9804 0.0000 0.0000 0.0000
# 3 43.7040 58.9804 49.7469 0.0000 0.0000 0.0000
# 4 0.0000 0.0000 0.0000 27.3372 0.0000 0.0000
# 5 0.0000 0.0000 0.0000 0.0000 -5.9733 0.0000
# 6 0.0000 0.0000 0.0000 0.0000 0.0000 31.8373
#
#
#
# Elastic Compliance Matrix: (Units=1/GPa)
#
#
# Indices 1 2 3 4 5 6 
#
# 1 0.019365 -0.005807 -0.010128 0.000000 0.000000 0.000000
# 2 -0.005807 0.026863 -0.026748 0.000000 0.000000 0.000000
# 3 -0.010128 -0.026748 0.060712 0.000000 0.000000 0.000000
# 4 0.000000 0.000000 0.000000 0.036580 0.000000 0.000000
# 5 0.000000 0.000000 0.000000 0.000000 -0.167412 0.000000
# 6 0.000000 0.000000 0.000000 0.000000 0.000000 0.031410
#
#
# Mechanical properties :
#
#
# Convention : Reuss Voigt Hill
#
# Bulk Modulus (GPa) = 46.35041 65.10738 55.72889
# Shear Modulus (GPa) = 49.96266 16.41749 33.19008
#
# Velocity S-wave (km/s) = 5.34315 3.06287 4.35490
# Velocity P-wave (km/s) = 8.03435 7.05062 7.55851
#
# Compressibility (1/GPa) = 0.02157478
#
# Stress axis : x y z
#
# Youngs Moduli (GPa) = 51.64017 37.22586 16.47116
#
# Poissons Ratio (x) = 0.21615 0.16682
# Poissons Ratio (y) = 0.29985 0.44057
# Poissons Ratio (z) = 0.52302 0.99571
#
# Static dielectric constant tensor:
#      x y z
#    x 1.582700 0.000000 0.000000 
#    y 0.000000 1.589610 0.000000 
#    z 0.000000 0.000000 1.584670 
# 
# From -- ./inp_files/23201.got.cif
#   From: 2010.05.17/outbox.cif.g08.bks.cpg/sg46_12_cif.got.tgz:23201.got - 2010.06.03 19:58:25.
