data_PCOD9379426
_publ_section_title
;
Structure prediction by ZEFSAII (Michael W. Deem and Ramdas Pophale) SiO2 
 PCOD9379426
Probable space group: I M A 2
;
_chemical_formula_sum "Si O2"
_cell_formula_units_Z 40
_cell_length_a 8.668107
_cell_length_b 9.774390
_cell_length_c 26.133452
_cell_angle_alpha 90.000000
_cell_angle_beta 90.000000
_cell_angle_gamma 90.000000
_cell_volume 2214.168700
_symmetry_space_group_name_H-M "I M A 2"
_symmetry_group_IT_number 46
_symmetry_cell_setting 'orthorhombic'
loop_
_space_group_symop_operation_xyz
x,y,z
-x,-y,z
1/2-x,y,z
1/2+x,-y,z
1/2+x,1/2+y,1/2+z
1/2-x,1/2-y,1/2+z
-x,1/2+y,1/2+z
x,1/2-y,1/2+z
loop_
_atom_site_type_symbol
_atom_site_label
_atom_site_fract_x
_atom_site_fract_y
_atom_site_fract_z
Si Si1 0.935623 0.848139 0.637020
Si Si2 0.564889 0.153245 0.341697
Si Si3 0.564363 0.850168 0.046045
Si Si4 0.935472 0.651975 0.428992
Si Si5 0.564820 0.152607 0.746958
O O1 0.750000 0.851462 0.639082
O O2 0.986147 0.754086 0.589837
O O3 0.999243 0.801487 0.692058
O O4 0.000000 0.000000 0.629302
O O5 0.750000 0.147897 0.344391
O O6 0.501082 0.236993 0.390108
O O7 0.521777 0.241833 0.291516
O O8 0.500000 0.000000 0.339684
O O9 0.750000 0.854946 0.046938
O O10 0.500000 0.000000 0.057038
O O11 0.519141 0.814354 0.987747
O O12 0.750000 0.648234 0.425607
O O13 0.000000 0.500000 0.417347
O O14 0.750000 0.143455 0.744138
O O15 0.500000 0.000000 0.757398
#
# Coordination Sequence:
#
# PCOD9379426 Si02
#       5
#     8   8   8   8   8
#     4  10  20  35  55  80 109 141 179 220 265 316
#     4  11  24  39  56  81 111 143 180 225 276 324
#     4   9  20  36  55  81 110 142 179 220 265 315
#     4  10  20  37  59  82 110 144 184 224 267 323
#     4  10  21  37  57  80 106 140 181 221 266 320
#
# _framework density 18.065470000000001
#
# number of rings (size 3 to 8) (size 9 to 14) (size 15 to 20)
#    0.000    2.000    0.000    4.200    0.000    8.800 
#    0.000    6.000    0.000    0.000    0.000    0.000 
#    0.000    0.000    0.000    0.000    0.000    0.000 
#
# Total GULP energy -111688.447545 kJ/mol
# GULP energy per Si atom -5584.422377 kJ/mol
# Density = 1.802435 g / cm^3
# Si number density = 18.065470 Si / 1000 Ang^3
#
#
#
# Elastic Constant Matrix: (Units=GPa)
#
#
# Indices 1 2 3 4 5 6 
#
# 1 49.3129 45.0926 52.9160 0.0000 0.0000 0.0000
# 2 45.0926 130.2599 128.8983 0.0000 0.0000 0.0000
# 3 52.9160 128.8983 173.9470 0.0000 0.0000 0.0000
# 4 0.0000 0.0000 0.0000 37.4919 0.0000 0.0000
# 5 0.0000 0.0000 0.0000 0.0000 24.8717 0.0000
# 6 0.0000 0.0000 0.0000 0.0000 0.0000 32.8037
#
#
#
# Elastic Compliance Matrix: (Units=1/GPa)
#
#
# Indices 1 2 3 4 5 6 
#
# 1 0.031037 -0.005253 -0.005549 0.000000 0.000000 0.000000
# 2 -0.005253 0.029671 -0.020389 0.000000 0.000000 0.000000
# 3 -0.005549 -0.020389 0.022546 0.000000 0.000000 0.000000
# 4 0.000000 0.000000 0.000000 0.026672 0.000000 0.000000
# 5 0.000000 0.000000 0.000000 0.000000 0.040206 0.000000
# 6 0.000000 0.000000 0.000000 0.000000 0.000000 0.030484
#
#
# Mechanical properties :
#
#
# Convention : Reuss Voigt Hill
#
# Bulk Modulus (GPa) = 47.91256 89.70373 68.80815
# Shear Modulus (GPa) = 20.00353 27.47433 23.73893
#
# Velocity S-wave (km/s) = 3.33119 3.90400 3.62892
# Velocity P-wave (km/s) = 6.43234 8.37163 7.46523
#
# Compressibility (1/GPa) = 0.02087135
#
# Stress axis : x y z
#
# Youngs Moduli (GPa) = 32.22007 33.70246 44.35460
#
# Poissons Ratio (x) = 0.17705 0.24611
# Poissons Ratio (y) = 0.16926 0.90435
# Poissons Ratio (z) = 0.17878 0.68716
#
# Static dielectric constant tensor:
#      x y z
#    x 1.609010 0.000000 0.000000 
#    y 0.000000 1.577900 0.000000 
#    z 0.000000 0.000000 1.626200 
# 
# From -- ./inp_files/22733.got.cif
#   From: 2010.05.17/outbox.cif.g08.bks.cpg/sg46_12_cif.got.tgz:22733.got - 2010.06.03 19:58:25.
