data_PCOD9379155
_publ_section_title
;
Structure prediction by ZEFSAII (Michael W. Deem and Ramdas Pophale) SiO2 
 PCOD9379155
Probable space group: I M A 2
;
_chemical_formula_sum "Si O2"
_cell_formula_units_Z 64
_cell_length_a 17.727600
_cell_length_b 9.233723
_cell_length_c 19.505134
_cell_angle_alpha 90.000000
_cell_angle_beta 90.000000
_cell_angle_gamma 90.000000
_cell_volume 3192.829477
_symmetry_space_group_name_H-M "I M A 2"
_symmetry_group_IT_number 46
_symmetry_cell_setting 'orthorhombic'
loop_
_space_group_symop_operation_xyz
x,y,z
-x,-y,z
1/2-x,y,z
1/2+x,-y,z
1/2+x,1/2+y,1/2+z
1/2-x,1/2-y,1/2+z
-x,1/2+y,1/2+z
x,1/2-y,1/2+z
loop_
_atom_site_type_symbol
_atom_site_label
_atom_site_fract_x
_atom_site_fract_y
_atom_site_fract_z
Si Si1 0.084881 0.956150 0.260610
Si Si2 0.938110 0.373327 0.909775
Si Si3 0.158609 0.233065 0.769978
Si Si4 0.158690 0.447626 0.140124
Si Si5 0.932532 0.394272 0.503298
Si Si6 0.840159 0.884655 0.912674
Si Si7 0.839808 0.914477 0.487668
Si Si8 0.340693 0.713884 0.635890
O O1 0.125786 0.106978 0.279567
O O2 0.079199 0.857210 0.329104
O O3 0.129799 0.880333 0.199536
O O4 0.000000 0.000000 0.239700
O O5 0.867156 0.443776 0.948434
O O6 0.000000 0.500000 0.913613
O O7 0.961016 0.234083 0.953439
O O8 0.250000 0.243494 0.769759
O O9 0.136682 0.131302 0.833625
O O10 0.131784 0.159049 0.699660
O O11 0.250000 0.432902 0.139666
O O12 0.143412 0.617052 0.151327
O O13 0.128945 0.408061 0.064821
O O14 0.878738 0.489991 0.455113
O O15 0.885712 0.333176 0.567674
O O16 0.000000 0.500000 0.526282
O O17 0.750000 0.903433 0.915235
O O18 0.858574 0.730259 0.946839
O O19 0.750000 0.921076 0.492733
O O20 0.250000 0.696782 0.626637
#
# Coordination Sequence:
#
# PCOD9379155 Si02
#       8
#     8   8   8   8   8   8   8   8
#     4  11  25  43  65  93 132 173 220 267 325 392
#     4  11  24  44  66  91 128 176 219 267 322 388
#     4  10  21  41  65  93 128 171 221 272 326 390
#     4   9  20  38  62  92 126 164 210 266 324 386
#     4  12  26  42  67  96 137 175 219 271 336 388
#     4  10  22  39  64  98 129 167 221 275 326 390
#     4  10  19  38  65  92 123 163 218 270 321 381
#     4  11  24  45  66  97 133 169 216 272 330 395
#
# _framework density 20.044917000000002
#
# number of rings (size 3 to 8) (size 9 to 14) (size 15 to 20)
#    0.000    1.500    2.500    1.875    5.250    1.000 
#    2.250    0.625    0.000    0.000    0.000    0.000 
#    0.000    0.000    0.000    0.000    0.000    0.000 
#
# Total GULP energy -178779.690644 kJ/mol
# GULP energy per Si atom -5586.865333 kJ/mol
# Density = 1.999929 g / cm^3
# Si number density = 20.044917 Si / 1000 Ang^3
#
#
#
# Elastic Constant Matrix: (Units=GPa)
#
#
# Indices 1 2 3 4 5 6 
#
# 1 52.6318 19.3663 31.2533 0.0000 0.0000 0.0000
# 2 19.3663 37.9848 16.4284 0.0000 0.0000 0.0000
# 3 31.2533 16.4284 100.3224 0.0000 0.0000 0.0000
# 4 0.0000 0.0000 0.0000 33.2772 0.0000 0.0000
# 5 0.0000 0.0000 0.0000 0.0000 4.7282 0.0000
# 6 0.0000 0.0000 0.0000 0.0000 0.0000 16.5355
#
#
#
# Elastic Compliance Matrix: (Units=1/GPa)
#
#
# Indices 1 2 3 4 5 6 
#
# 1 0.026923 -0.010869 -0.006607 0.000000 0.000000 0.000000
# 2 -0.010869 0.032721 -0.001972 0.000000 0.000000 0.000000
# 3 -0.006607 -0.001972 0.012349 0.000000 0.000000 0.000000
# 4 0.000000 0.000000 0.000000 0.030051 0.000000 0.000000
# 5 0.000000 0.000000 0.000000 0.000000 0.211496 0.000000
# 6 0.000000 0.000000 0.000000 0.000000 0.000000 0.060476
#
#
# Mechanical properties :
#
#
# Convention : Reuss Voigt Hill
#
# Bulk Modulus (GPa) = 30.21526 36.11501 33.16513
# Shear Modulus (GPa) = 11.79402 19.16759 15.48080
#
# Velocity S-wave (km/s) = 2.42828 3.09565 2.78205
# Velocity P-wave (km/s) = 4.79256 5.55280 5.18663
#
# Compressibility (1/GPa) = 0.03309586
#
# Stress axis : x y z
#
# Youngs Moduli (GPa) = 37.14348 30.56180 80.97668
#
# Poissons Ratio (x) = 0.33216 0.53504
# Poissons Ratio (y) = 0.40370 0.15971
# Poissons Ratio (z) = 0.24542 0.06028
#
# Static dielectric constant tensor:
#      x y z
#    x 1.723950 0.000000 0.000000 
#    y 0.000000 1.680850 0.000000 
#    z 0.000000 0.000000 1.712690 
# 
# From -- ./inp_files/20227.got.cif
#   From: 2010.05.17/outbox.cif.g08.bks.cpg/sg46_11_cif.got.tgz:20227.got - 2010.06.03 19:58:25.
