data_PCOD9379552
_publ_section_title
;
Structure prediction by ZEFSAII (Michael W. Deem and Ramdas Pophale) SiO2 
 PCOD9379552
Probable space group: I M A 2
;
_chemical_formula_sum "Si O2"
_cell_formula_units_Z 60
_cell_length_a 9.799348
_cell_length_b 16.645901
_cell_length_c 19.289392
_cell_angle_alpha 90.000000
_cell_angle_beta 90.000000
_cell_angle_gamma 90.000000
_cell_volume 3146.465884
_symmetry_space_group_name_H-M "I M A 2"
_symmetry_group_IT_number 46
_symmetry_cell_setting 'orthorhombic'
loop_
_space_group_symop_operation_xyz
x,y,z
-x,-y,z
1/2-x,y,z
1/2+x,-y,z
1/2+x,1/2+y,1/2+z
1/2-x,1/2-y,1/2+z
-x,1/2+y,1/2+z
x,1/2-y,1/2+z
loop_
_atom_site_type_symbol
_atom_site_label
_atom_site_fract_x
_atom_site_fract_y
_atom_site_fract_z
Si Si1 0.591713 0.782542 0.663990
Si Si2 0.092083 0.615843 0.935254
Si Si3 0.000000 0.000000 0.185334
Si Si4 0.907907 0.352968 0.597345
Si Si5 0.406165 0.299720 0.313637
Si Si6 0.098483 0.104748 0.311424
Si Si7 0.908467 0.932209 0.563663
Si Si8 0.907242 0.189645 0.941910
O O1 0.750000 0.756271 0.672394
O O2 0.498360 0.709272 0.640749
O O3 0.548027 0.822635 0.736519
O O4 0.587725 0.849827 0.605536
O O5 0.250000 0.591512 0.942558
O O6 0.088912 0.712789 0.944146
O O7 0.028932 0.588623 0.862014
O O8 0.988244 0.583658 0.992449
O O9 0.079303 0.939231 0.134387
O O10 0.919216 0.941719 0.238910
O O11 0.750000 0.327194 0.598784
O O12 0.950849 0.346804 0.516278
O O13 0.250000 0.324450 0.325511
O O14 0.407055 0.201980 0.307521
O O15 0.498385 0.329852 0.376404
O O16 0.250000 0.085107 0.339832
O O17 0.750000 0.955275 0.555249
O O18 0.000000 0.000000 0.600169
O O19 0.750000 0.166013 0.929843
#
# Coordination Sequence:
#
# PCOD9379552 Si02
#       8
#     8   8   4   8   8   8   8   8
#     4  10  21  39  62  88 117 151 195 247 305 368
#     4  10  20  36  58  84 119 156 195 241 293 353
#     4  12  24  38  58  88 124 168 208 250 304 362
#     4  11  23  39  61  88 122 162 205 252 302 360
#     4   9  18  36  60  85 110 146 195 245 295 356
#     4  10  21  36  53  79 118 158 197 239 287 348
#     4  11  23  38  59  86 117 152 193 243 303 366
#     4   9  19  36  58  87 115 148 195 246 293 352
#
# _framework density 19.069013000000002
#
# number of rings (size 3 to 8) (size 9 to 14) (size 15 to 20)
#    0.000    1.867    2.667    1.200    0.933    3.733 
#    0.000    0.000    1.467    0.000    0.000    0.000 
#    0.000    0.000    0.000    0.000    0.000    0.000 
#
# Total GULP energy -167271.985770 kJ/mol
# GULP energy per Si atom -5575.732859 kJ/mol
# Density = 1.902561 g / cm^3
# Si number density = 19.069013 Si / 1000 Ang^3
#
#
#
# Elastic Constant Matrix: (Units=GPa)
#
#
# Indices 1 2 3 4 5 6 
#
# 1 114.6192 20.9788 64.7275 0.0000 0.0000 0.0000
# 2 20.9788 39.2165 23.3135 0.0000 0.0000 0.0000
# 3 64.7275 23.3135 146.5802 0.0000 0.0000 0.0000
# 4 0.0000 0.0000 0.0000 31.7625 0.0000 0.0000
# 5 0.0000 0.0000 0.0000 0.0000 56.1758 0.0000
# 6 0.0000 0.0000 0.0000 0.0000 0.0000 17.6727
#
#
#
# Elastic Compliance Matrix: (Units=1/GPa)
#
#
# Indices 1 2 3 4 5 6 
#
# 1 0.012074 -0.003633 -0.004754 0.000000 0.000000 0.000000
# 2 -0.003633 0.029255 -0.003049 0.000000 0.000000 0.000000
# 3 -0.004754 -0.003049 0.009406 0.000000 0.000000 0.000000
# 4 0.000000 0.000000 0.000000 0.031484 0.000000 0.000000
# 5 0.000000 0.000000 0.000000 0.000000 0.017801 0.000000
# 6 0.000000 0.000000 0.000000 0.000000 0.000000 0.056584
#
#
# Mechanical properties :
#
#
# Convention : Reuss Voigt Hill
#
# Bulk Modulus (GPa) = 35.88791 57.60618 46.74705
# Shear Modulus (GPa) = 26.48803 33.88195 30.18499
#
# Velocity S-wave (km/s) = 3.73105 4.21979 3.98293
# Velocity P-wave (km/s) = 6.11734 7.34963 6.76162
#
# Compressibility (1/GPa) = 0.02786454
#
# Stress axis : x y z
#
# Youngs Moduli (GPa) = 82.82194 34.18182 106.31093
#
# Poissons Ratio (x) = 0.12418 0.50539
# Poissons Ratio (y) = 0.30088 0.32412
# Poissons Ratio (z) = 0.39373 0.10421
#
# Static dielectric constant tensor:
#      x y z
#    x 1.643510 0.000000 0.000000 
#    y 0.000000 1.694500 0.000000 
#    z 0.000000 0.000000 1.687030 
# 
# From -- ./inp_files/18369.got.cif
#   From: 2010.05.17/outbox.cif.g08.bks.cpg/sg46_10_cif.got.tgz:18369.got - 2010.06.03 19:58:25.
