data_PCOD9379240
_publ_section_title
;
Structure prediction by ZEFSAII (Michael W. Deem and Ramdas Pophale) SiO2 
 PCOD9379240
Probable space group: I M A 2
;
_chemical_formula_sum "Si O2"
_cell_formula_units_Z 32
_cell_length_a 9.250972
_cell_length_b 15.445850
_cell_length_c 10.128833
_cell_angle_alpha 90.000000
_cell_angle_beta 90.000000
_cell_angle_gamma 90.000000
_cell_volume 1447.300093
_symmetry_space_group_name_H-M "I M A 2"
_symmetry_group_IT_number 46
_symmetry_cell_setting 'orthorhombic'
loop_
_space_group_symop_operation_xyz
x,y,z
-x,-y,z
1/2-x,y,z
1/2+x,-y,z
1/2+x,1/2+y,1/2+z
1/2-x,1/2-y,1/2+z
-x,1/2+y,1/2+z
x,1/2-y,1/2+z
loop_
_atom_site_type_symbol
_atom_site_label
_atom_site_fract_x
_atom_site_fract_y
_atom_site_fract_z
Si Si1 0.093909 0.372099 0.766560
Si Si2 0.419989 0.763858 0.091784
Si Si3 0.913337 0.917793 0.979120
Si Si4 0.916966 0.915649 0.565537
O O1 0.250000 0.323438 0.765864
O O2 0.101956 0.432639 0.637964
O O3 0.083379 0.417366 0.905540
O O4 0.960582 0.310864 0.730044
O O5 0.250000 0.758446 0.070467
O O6 0.497570 0.827566 0.983896
O O7 0.497412 0.671787 0.096754
O O8 0.750000 0.908787 0.927274
O O9 0.000000 0.000000 0.924775
O O10 0.750000 0.912511 0.607944
O O11 0.000000 0.000000 0.614657
#
# Coordination Sequence:
#
# PCOD9379240 Si02
#       4
#     8   8   8   8
#     4   8  18  33  51  75 106 139 173 218 266 312
#     4  10  20  33  50  76 110 144 178 220 269 321
#     4   9  16  29  48  73 101 134 171 211 261 309
#     4  11  21  35  55  81 111 142 182 225 269 320
#
# _framework density 22.110133999999999
#
# number of rings (size 3 to 8) (size 9 to 14) (size 15 to 20)
#    1.500    1.000    0.000    3.750    0.000    2.000 
#    0.000    0.000    0.000    1.500    0.000    0.000 
#    0.000    0.000    0.000    0.000    0.000    0.000 
#
# Total GULP energy -89087.535714 kJ/mol
# GULP energy per Si atom -5567.970982 kJ/mol
# Density = 2.205981 g / cm^3
# Si number density = 22.110134 Si / 1000 Ang^3
#
#
#
# Elastic Constant Matrix: (Units=GPa)
#
#
# Indices 1 2 3 4 5 6 
#
# 1 249.1834 123.9990 2.0948 -0.0001 0.0001 0.0000
# 2 123.9990 166.9906 -7.3443 -0.0004 0.0012 -0.0002
# 3 2.0948 -7.3443 67.8245 -0.0008 0.0025 -0.0004
# 4 -0.0001 -0.0004 -0.0008 6.5549 0.0013 -0.0002
# 5 0.0001 0.0012 0.0025 0.0013 -13.3862 0.0003
# 6 0.0000 -0.0002 -0.0004 -0.0002 0.0003 33.1272
#
#
#
# Elastic Compliance Matrix: (Units=1/GPa)
#
#
# Indices 1 2 3 4 5 6 
#
# 1 0.006399 -0.004783 -0.000716 0.000000 -0.000001 0.000000
# 2 -0.004783 0.009592 0.001186 0.000001 0.000001 0.000000
# 3 -0.000716 0.001186 0.014895 0.000002 0.000003 0.000000
# 4 0.000000 0.000001 0.000002 0.152558 0.000015 0.000001
# 5 -0.000001 0.000001 0.000003 0.000015 -0.074704 0.000001
# 6 0.000000 0.000000 0.000000 0.000001 0.000001 0.030187
#
#
# Mechanical properties :
#
#
# Convention : Reuss Voigt Hill
#
# Bulk Modulus (GPa) = 44.92100 80.16639 62.54370
# Shear Modulus (GPa) = 32.26376 29.60911 30.93644
#
# Velocity S-wave (km/s) = 3.82413 3.66343 3.74464
# Velocity P-wave (km/s) = 6.31345 7.36415 6.85895
#
# Compressibility (1/GPa) = 0.02226130
#
# Stress axis : x y z
#
# Youngs Moduli (GPa) = 156.26369 104.24866 67.13880
#
# Poissons Ratio (x) = 0.49866 0.04805
# Poissons Ratio (y) = 0.74747 -0.07966
# Poissons Ratio (z) = 0.11183 -0.12369
#
# Static dielectric constant tensor:
#      x y z
#    x 1.836910 0.000000 0.000000 
#    y 0.000000 1.830400 0.000000 
#    z 0.000000 0.000000 1.875890 
# 
# From -- ./inp_files/8895.got.cif
#   From: 2010.05.17/outbox.cif.g08.bks.cpg/sg46_5_cif.got.tgz:8895.got - 2010.06.03 19:58:25.
