data_PCOD9379350
_publ_section_title
;
Structure prediction by ZEFSAII (Michael W. Deem and Ramdas Pophale) SiO2 
 PCOD9379350
Probable space group: I M A 2
;
_chemical_formula_sum "Si O2"
_cell_formula_units_Z 56
_cell_length_a 8.718650
_cell_length_b 14.938139
_cell_length_c 21.922311
_cell_angle_alpha 90.000000
_cell_angle_beta 90.000000
_cell_angle_gamma 90.000000
_cell_volume 2855.170676
_symmetry_space_group_name_H-M "I M A 2"
_symmetry_group_IT_number 46
_symmetry_cell_setting 'orthorhombic'
loop_
_space_group_symop_operation_xyz
x,y,z
-x,-y,z
1/2-x,y,z
1/2+x,-y,z
1/2+x,1/2+y,1/2+z
1/2-x,1/2-y,1/2+z
-x,1/2+y,1/2+z
x,1/2-y,1/2+z
loop_
_atom_site_type_symbol
_atom_site_label
_atom_site_fract_x
_atom_site_fract_y
_atom_site_fract_z
Si Si1 0.565970 0.289735 0.895360
Si Si2 0.565375 0.094809 0.725506
Si Si3 0.067594 0.404398 0.645260
Si Si4 0.567200 0.599617 0.007151
Si Si5 0.934530 0.094262 0.866763
Si Si6 0.933992 0.218822 0.615819
Si Si7 0.566606 0.596745 0.789834
O O1 0.750000 0.296000 0.900482
O O2 0.520838 0.185356 0.900762
O O3 0.514073 0.327575 0.829861
O O4 0.487320 0.350691 0.945970
O O5 0.750000 0.090336 0.725138
O O6 0.515417 0.105269 0.795769
O O7 0.518947 0.174373 0.680561
O O8 0.500000 0.000000 0.702875
O O9 0.250000 0.404497 0.637638
O O10 0.033897 0.393890 0.717821
O O11 0.000000 0.500000 0.625998
O O12 0.994142 0.319637 0.612290
O O13 0.500000 0.500000 0.008977
O O14 0.750000 0.595546 0.009513
O O15 0.502812 0.657103 0.063277
O O16 0.750000 0.089026 0.867259
O O17 0.000000 0.000000 0.889531
O O18 0.750000 0.218019 0.612022
O O19 0.500000 0.500000 0.809068
O O20 0.750000 0.598577 0.798776
#
# Coordination Sequence:
#
# PCOD9379350 Si02
#       7
#     8   8   8   8   8   8   8
#     4  11  22  38  59  83 113 151 194 239 290 343
#     4   9  18  32  53  83 116 149 183 224 276 333
#     4  10  21  37  58  86 119 154 192 236 287 343
#     4  12  26  44  63  85 114 148 190 237 287 343
#     4   9  19  35  56  83 115 148 183 226 276 331
#     4  11  22  38  60  85 115 152 194 238 286 340
#     4  10  20  34  55  85 119 154 191 234 286 343
#
# _framework density 19.613537999999998
#
# number of rings (size 3 to 8) (size 9 to 14) (size 15 to 20)
#    0.000    1.714    0.000    4.714    0.000    6.286 
#    0.000    3.571    0.000    1.714    0.000    0.000 
#    0.000    0.000    0.000    0.000    0.000    0.000 
#
# Total GULP energy -156503.786485 kJ/mol
# GULP energy per Si atom -5589.420946 kJ/mol
# Density = 1.956890 g / cm^3
# Si number density = 19.613538 Si / 1000 Ang^3
#
#
#
# Elastic Constant Matrix: (Units=GPa)
#
#
# Indices 1 2 3 4 5 6 
#
# 1 65.3251 62.8246 32.1537 0.0000 0.0000 0.0000
# 2 62.8246 201.0753 50.5465 0.0000 0.0000 0.0000
# 3 32.1537 50.5465 38.4110 0.0000 0.0000 0.0000
# 4 0.0000 0.0000 0.0000 22.8197 0.0000 0.0000
# 5 0.0000 0.0000 0.0000 0.0000 26.0836 0.0000
# 6 0.0000 0.0000 0.0000 0.0000 0.0000 35.7392
#
#
#
# Elastic Compliance Matrix: (Units=1/GPa)
#
#
# Indices 1 2 3 4 5 6 
#
# 1 0.028343 -0.004321 -0.018040 0.000000 0.000000 0.000000
# 2 -0.004321 0.008090 -0.007030 0.000000 0.000000 0.000000
# 3 -0.018040 -0.007030 0.050386 0.000000 0.000000 0.000000
# 4 0.000000 0.000000 0.000000 0.043822 0.000000 0.000000
# 5 0.000000 0.000000 0.000000 0.000000 0.038338 0.000000
# 6 0.000000 0.000000 0.000000 0.000000 0.000000 0.027980
#
#
# Mechanical properties :
#
#
# Convention : Reuss Voigt Hill
#
# Bulk Modulus (GPa) = 35.66510 66.20677 50.93594
# Shear Modulus (GPa) = 18.86182 27.54759 23.20471
#
# Velocity S-wave (km/s) = 3.10445 3.75176 3.44335
# Velocity P-wave (km/s) = 5.57436 7.25235 6.46800
#
# Compressibility (1/GPa) = 0.02803862
#
# Stress axis : x y z
#
# Youngs Moduli (GPa) = 35.28247 123.60486 19.84687
#
# Poissons Ratio (x) = 0.53405 0.35804
# Poissons Ratio (y) = 0.15244 0.13951
# Poissons Ratio (z) = 0.63649 0.86889
#
# Static dielectric constant tensor:
#      x y z
#    x 1.653590 0.000000 0.000000 
#    y 0.000000 1.682340 0.000000 
#    z 0.000000 0.000000 1.694340 
# 
# From -- ./inp_files/21073.got.cif
#   From: 2010.05.17/outbox.cif.g08.bks.cpg/sg46_11_cif.got.tgz:21073.got - 2010.06.03 19:58:25.
