data_PCOD9379332
_publ_section_title
;
Structure prediction by ZEFSAII (Michael W. Deem and Ramdas Pophale) SiO2 
 PCOD9379332
Probable space group: I M A 2
;
_chemical_formula_sum "Si O2"
_cell_formula_units_Z 48
_cell_length_a 11.262228
_cell_length_b 24.057618
_cell_length_c 8.879960
_cell_angle_alpha 90.000000
_cell_angle_beta 90.000000
_cell_angle_gamma 90.000000
_cell_volume 2405.957488
_symmetry_space_group_name_H-M "I M A 2"
_symmetry_group_IT_number 46
_symmetry_cell_setting 'orthorhombic'
loop_
_space_group_symop_operation_xyz
x,y,z
-x,-y,z
1/2-x,y,z
1/2+x,-y,z
1/2+x,1/2+y,1/2+z
1/2-x,1/2-y,1/2+z
-x,1/2+y,1/2+z
x,1/2-y,1/2+z
loop_
_atom_site_type_symbol
_atom_site_label
_atom_site_fract_x
_atom_site_fract_y
_atom_site_fract_z
Si Si1 0.250000 0.284161 0.883890
Si Si2 0.388429 0.958063 0.043447
Si Si3 0.020793 0.362822 0.398170
Si Si4 0.114551 0.874017 0.319225
Si Si5 0.890625 0.224198 0.086491
Si Si6 0.750000 0.831089 0.044101
Si Si7 0.965989 0.664412 0.068779
O O1 0.250000 0.301714 0.708222
O O2 0.250000 0.218425 0.919157
O O3 0.138660 0.309678 0.970984
O O4 0.250000 0.977162 0.023269
O O5 0.392399 0.923732 0.200105
O O6 0.500000 0.000000 0.041957
O O7 0.425470 0.911515 0.920842
O O8 0.131826 0.366537 0.513248
O O9 0.068374 0.360019 0.229434
O O10 0.954640 0.306372 0.447736
O O11 0.250000 0.868821 0.370288
O O12 0.030314 0.879319 0.460992
O O13 0.085619 0.816932 0.227969
O O14 0.750000 0.225781 0.063808
O O15 0.944052 0.284887 0.102256
#
# Coordination Sequence:
#
# PCOD9379332 Si02
#       7
#     4   8   8   8   8   4   8
#     4  12  24  36  54  86 130 172 212 250 296 361
#     4  10  23  45  69  93 118 158 214 263 320 382
#     4  11  23  38  61  88 122 162 207 256 309 369
#     4   9  20  38  59  87 122 158 206 255 301 371
#     4  10  20  34  54  83 121 166 206 240 294 369
#     4  12  24  40  58  86 128 174 214 252 300 365
#     4  12  22  35  56  90 125 166 202 250 307 362
#
# _framework density 19.950476999999999
#
# number of rings (size 3 to 8) (size 9 to 14) (size 15 to 20)
#    0.000    1.333    1.667    6.500    1.167    4.000 
#    1.500    0.833    0.000    0.000    0.000    0.000 
#    0.000    0.000    0.000    0.000    0.000    0.000 
#
# Total GULP energy -134028.545519 kJ/mol
# GULP energy per Si atom -5584.522730 kJ/mol
# Density = 1.990507 g / cm^3
# Si number density = 19.950477 Si / 1000 Ang^3
#
#
#
# Elastic Constant Matrix: (Units=GPa)
#
#
# Indices 1 2 3 4 5 6 
#
# 1 120.7227 15.1023 30.4670 -0.0001 0.0000 0.0000
# 2 15.1023 35.9159 -0.7729 -0.0003 0.0000 0.0000
# 3 30.4670 -0.7729 86.3609 -0.0006 0.0001 -0.0001
# 4 -0.0001 -0.0003 -0.0006 5.6217 0.0000 0.0000
# 5 0.0000 0.0000 0.0001 0.0000 19.4436 0.0000
# 6 0.0000 0.0000 -0.0001 0.0000 0.0000 30.3074
#
#
#
# Elastic Compliance Matrix: (Units=1/GPa)
#
#
# Indices 1 2 3 4 5 6 
#
# 1 0.009672 -0.004141 -0.003449 0.000000 0.000000 0.000000
# 2 -0.004141 0.029621 0.001726 0.000002 0.000000 0.000000
# 3 -0.003449 0.001726 0.012812 0.000001 0.000000 0.000000
# 4 0.000000 0.000002 0.000001 0.177883 0.000000 0.000000
# 5 0.000000 0.000000 0.000000 0.000000 0.051431 0.000000
# 6 0.000000 0.000000 0.000000 0.000000 0.000000 0.032995
#
#
# Mechanical properties :
#
#
# Convention : Reuss Voigt Hill
#
# Bulk Modulus (GPa) = 24.76707 36.95472 30.86089
# Shear Modulus (GPa) = 14.72314 24.28806 19.50560
#
# Velocity S-wave (km/s) = 2.71953 3.49294 3.13021
# Velocity P-wave (km/s) = 4.72254 5.90177 5.34478
#
# Compressibility (1/GPa) = 0.04037619
#
# Stress axis : x y z
#
# Youngs Moduli (GPa) = 103.39121 33.75945 78.05427
#
# Poissons Ratio (x) = 0.13981 0.26923
# Poissons Ratio (y) = 0.42817 -0.13473
# Poissons Ratio (z) = 0.35662 -0.05827
#
# Static dielectric constant tensor:
#      x y z
#    x 1.736460 0.000000 0.000000 
#    y 0.000000 1.703520 0.000000 
#    z 0.000000 0.000000 1.729670 
# 
# From -- ./inp_files/4820.got.cif
#   From: 2010.05.17/outbox.cif.g08.bks.cpg/sg46_3_cif.got.tgz:4820.got - 2010.06.03 19:58:25.
