data_PCOD9379100
_publ_section_title
;
Structure prediction by ZEFSAII (Michael W. Deem and Ramdas Pophale) SiO2 
 PCOD9379100
Probable space group: I M A 2
;
_chemical_formula_sum "Si O2"
_cell_formula_units_Z 64
_cell_length_a 14.437899
_cell_length_b 12.640696
_cell_length_c 16.130930
_cell_angle_alpha 90.000000
_cell_angle_beta 90.000000
_cell_angle_gamma 90.000000
_cell_volume 2943.976866
_symmetry_space_group_name_H-M "I M A 2"
_symmetry_group_IT_number 46
_symmetry_cell_setting 'orthorhombic'
loop_
_space_group_symop_operation_xyz
x,y,z
-x,-y,z
1/2-x,y,z
1/2+x,-y,z
1/2+x,1/2+y,1/2+z
1/2-x,1/2-y,1/2+z
-x,1/2+y,1/2+z
x,1/2-y,1/2+z
loop_
_atom_site_type_symbol
_atom_site_label
_atom_site_fract_x
_atom_site_fract_y
_atom_site_fract_z
Si Si1 0.860655 0.435044 0.419250
Si Si2 0.645934 0.046615 0.562155
Si Si3 0.863331 0.214007 0.070952
Si Si4 0.142565 0.251089 0.293898
Si Si5 0.361619 0.384869 0.541000
Si Si6 0.894666 0.991371 0.745305
Si Si7 0.861623 0.663219 0.978521
Si Si8 0.509768 0.609012 0.688175
O O1 0.750000 0.433363 0.418757
O O2 0.889104 0.347310 0.486014
O O3 0.887891 0.547581 0.459963
O O4 0.887498 0.429026 0.323480
O O5 0.750000 0.060719 0.527508
O O6 0.605872 0.164395 0.561300
O O7 0.654203 0.014541 0.658739
O O8 0.602364 0.949299 0.510868
O O9 0.750000 0.207910 0.082172
O O10 0.918573 0.160007 0.146757
O O11 0.250000 0.223328 0.273297
O O12 0.134299 0.377326 0.281441
O O13 0.123023 0.204635 0.385415
O O14 0.066910 0.197368 0.236181
O O15 0.250000 0.393361 0.551248
O O16 0.389239 0.262595 0.534758
O O17 0.419585 0.429495 0.616245
O O18 0.000000 0.000000 0.719475
O O19 0.750000 0.657203 0.987353
O O20 0.500000 0.500000 0.739763
#
# Coordination Sequence:
#
# PCOD9379100 Si02
#       8
#     8   8   8   8   8   8   8   8
#     4  10  20  37  63  92 124 169 216 269 328 389
#     4  10  21  41  64  89 125 174 220 265 324 401
#     4  10  23  42  63  89 129 176 221 267 334 409
#     4  11  23  42  66  98 134 172 222 283 337 400
#     4  10  19  36  63  93 123 162 209 266 330 388
#     4  12  24  38  64 100 134 167 220 279 332 391
#     4   9  19  38  66  94 125 167 217 272 334 391
#     4  12  24  38  62  93 130 167 221 271 334 400
#
# _framework density 21.739301000000001
#
# number of rings (size 3 to 8) (size 9 to 14) (size 15 to 20)
#    0.000    1.500    2.500    3.000    1.750    1.500 
#    0.000    4.375    0.000    3.000    0.000    0.000 
#    0.000    0.000    0.000    0.000    0.000    0.000 
#
# Total GULP energy -178573.255231 kJ/mol
# GULP energy per Si atom -5580.414226 kJ/mol
# Density = 2.168982 g / cm^3
# Si number density = 21.739301 Si / 1000 Ang^3
#
#
#
# Elastic Constant Matrix: (Units=GPa)
#
#
# Indices 1 2 3 4 5 6 
#
# 1 81.4201 29.5372 16.1771 0.0000 0.0000 0.0000
# 2 29.5372 157.3368 41.3809 0.0000 0.0000 0.0000
# 3 16.1771 41.3809 57.0164 0.0000 0.0000 0.0000
# 4 0.0000 0.0000 0.0000 26.0671 0.0000 0.0000
# 5 0.0000 0.0000 0.0000 0.0000 68.4096 0.0000
# 6 0.0000 0.0000 0.0000 0.0000 0.0000 29.7958
#
#
#
# Elastic Compliance Matrix: (Units=1/GPa)
#
#
# Indices 1 2 3 4 5 6 
#
# 1 0.013451 -0.001880 -0.002452 0.000000 0.000000 0.000000
# 2 -0.001880 0.008118 -0.005358 0.000000 0.000000 0.000000
# 3 -0.002452 -0.005358 0.022123 0.000000 0.000000 0.000000
# 4 0.000000 0.000000 0.000000 0.038363 0.000000 0.000000
# 5 0.000000 0.000000 0.000000 0.000000 0.014618 0.000000
# 6 0.000000 0.000000 0.000000 0.000000 0.000000 0.033562
#
#
# Mechanical properties :
#
#
# Convention : Reuss Voigt Hill
#
# Bulk Modulus (GPa) = 41.13242 52.21820 46.67531
# Shear Modulus (GPa) = 31.70175 38.76635 35.23405
#
# Velocity S-wave (km/s) = 3.82287 4.22742 4.03023
# Velocity P-wave (km/s) = 6.20062 6.92102 6.57070
#
# Compressibility (1/GPa) = 0.02431172
#
# Stress axis : x y z
#
# Youngs Moduli (GPa) = 74.34237 123.18147 45.20098
#
# Poissons Ratio (x) = 0.23163 0.11082
# Poissons Ratio (y) = 0.13979 0.24220
# Poissons Ratio (z) = 0.18227 0.66005
#
# Static dielectric constant tensor:
#      x y z
#    x 1.797980 0.000000 0.000000 
#    y 0.000000 1.827930 0.000000 
#    z 0.000000 0.000000 1.825960 
# 
# From -- ./inp_files/19656.got.cif
#   From: 2010.05.17/outbox.cif.g08.bks.cpg/sg46_10_cif.got.tgz:19656.got - 2010.06.03 19:58:25.
