data_PCOD9379193
_publ_section_title
;
Structure prediction by ZEFSAII (Michael W. Deem and Ramdas Pophale) SiO2 
 PCOD9379193
Probable space group: I M A 2
;
_chemical_formula_sum "Si O2"
_cell_formula_units_Z 44
_cell_length_a 24.483080
_cell_length_b 9.845800
_cell_length_c 8.845019
_cell_angle_alpha 90.000000
_cell_angle_beta 90.000000
_cell_angle_gamma 90.000000
_cell_volume 2132.140558
_symmetry_space_group_name_H-M "I M A 2"
_symmetry_group_IT_number 46
_symmetry_cell_setting 'orthorhombic'
loop_
_space_group_symop_operation_xyz
x,y,z
-x,-y,z
1/2-x,y,z
1/2+x,-y,z
1/2+x,1/2+y,1/2+z
1/2-x,1/2-y,1/2+z
-x,1/2+y,1/2+z
x,1/2-y,1/2+z
loop_
_atom_site_type_symbol
_atom_site_label
_atom_site_fract_x
_atom_site_fract_y
_atom_site_fract_z
Si Si1 0.979817 0.689668 0.038390
Si Si2 0.079944 0.558672 0.886494
Si Si3 0.687512 0.670772 0.617249
Si Si4 0.081156 0.475426 0.549632
Si Si5 0.687492 0.943339 0.456383
Si Si6 0.500000 0.500000 0.309802
O O1 0.955584 0.838127 0.056567
O O2 0.981936 0.622356 0.202990
O O3 0.941373 0.591454 0.937378
O O4 0.039170 0.662898 0.965636
O O5 0.076458 0.559101 0.704997
O O6 0.141995 0.559666 0.945403
O O7 0.750000 0.646416 0.567686
O O8 0.643008 0.576394 0.536071
O O9 0.675591 0.828336 0.581717
O O10 0.683791 0.635220 0.794680
O O11 0.052715 0.542710 0.406705
O O12 0.750000 0.990366 0.474381
#
# Coordination Sequence:
#
# PCOD9379193 Si02
#       6
#     8   8   8   8   8   4
#     4  10  20  32  47  68 100 128 167 202 237 287
#     4   9  18  30  45  68  96 130 161 193 241 288
#     4   9  18  28  46  71  96 129 159 189 248 305
#     4  11  19  33  51  69 104 133 157 204 242 285
#     4   9  16  27  43  67  96 126 160 196 239 295
#     4  10  22  30  48  74  90 134 174 188 244 296
#
# _framework density 20.636538000000002
#
# number of rings (size 3 to 8) (size 9 to 14) (size 15 to 20)
#    0.000    2.545    1.818    2.182    2.545    0.000 
#    0.000    0.000    0.000    0.000    0.000    1.273 
#    0.000   21.818    0.000    0.182    0.000    0.000 
#
# Total GULP energy -122809.418586 kJ/mol
# GULP energy per Si atom -5582.246299 kJ/mol
# Density = 2.058957 g / cm^3
# Si number density = 20.636538 Si / 1000 Ang^3
#
#
#
# Elastic Constant Matrix: (Units=GPa)
#
#
# Indices 1 2 3 4 5 6 
#
# 1 121.9597 10.9292 21.7395 0.0000 0.0000 0.0000
# 2 10.9292 31.2847 -4.1110 0.0000 0.0000 0.0000
# 3 21.7395 -4.1110 54.6247 0.0000 0.0000 0.0000
# 4 0.0000 0.0000 0.0000 9.3342 0.0000 0.0000
# 5 0.0000 0.0000 0.0000 0.0000 24.8849 0.0000
# 6 0.0000 0.0000 0.0000 0.0000 0.0000 30.8119
#
#
#
# Elastic Compliance Matrix: (Units=1/GPa)
#
#
# Indices 1 2 3 4 5 6 
#
# 1 0.009241 -0.003749 -0.003960 0.000000 0.000000 0.000000
# 2 -0.003749 0.033805 0.004036 0.000000 0.000000 0.000000
# 3 -0.003960 0.004036 0.020186 0.000000 0.000000 0.000000
# 4 0.000000 0.000000 0.000000 0.107133 0.000000 0.000000
# 5 0.000000 0.000000 0.000000 0.000000 0.040185 0.000000
# 6 0.000000 0.000000 0.000000 0.000000 0.000000 0.032455
#
#
# Mechanical properties :
#
#
# Convention : Reuss Voigt Hill
#
# Bulk Modulus (GPa) = 17.89329 29.44271 23.66800
# Shear Modulus (GPa) = 18.58880 24.96030 21.77455
#
# Velocity S-wave (km/s) = 3.00454 3.48159 3.25182
# Velocity P-wave (km/s) = 4.55257 5.51907 5.05896
#
# Compressibility (1/GPa) = 0.05588686
#
# Stress axis : x y z
#
# Youngs Moduli (GPa) = 108.21074 29.58184 49.53813
#
# Poissons Ratio (x) = 0.11089 0.19617
# Poissons Ratio (y) = 0.40565 -0.19994
# Poissons Ratio (z) = 0.42851 -0.11939
#
# Static dielectric constant tensor:
#      x y z
#    x 1.786710 0.000000 0.000000 
#    y 0.000000 1.757860 0.000000 
#    z 0.000000 0.000000 1.770110 
# 
# From -- ./inp_files/7801.got.cif
#   From: 2010.05.17/outbox.cif.g08.bks.cpg/sg46_4_cif.got.tgz:7801.got - 2010.06.03 19:58:25.
