data_PCOD9379447
_publ_section_title
;
Structure prediction by ZEFSAII (Michael W. Deem and Ramdas Pophale) SiO2 
 PCOD9379447
Probable space group: I M A 2
;
_chemical_formula_sum "Si O2"
_cell_formula_units_Z 56
_cell_length_a 9.918213
_cell_length_b 14.362371
_cell_length_c 20.560384
_cell_angle_alpha 90.000000
_cell_angle_beta 90.000000
_cell_angle_gamma 90.000000
_cell_volume 2928.807266
_symmetry_space_group_name_H-M "I M A 2"
_symmetry_group_IT_number 46
_symmetry_cell_setting 'orthorhombic'
loop_
_space_group_symop_operation_xyz
x,y,z
-x,-y,z
1/2-x,y,z
1/2+x,-y,z
1/2+x,1/2+y,1/2+z
1/2-x,1/2-y,1/2+z
-x,1/2+y,1/2+z
x,1/2-y,1/2+z
loop_
_atom_site_type_symbol
_atom_site_label
_atom_site_fract_x
_atom_site_fract_y
_atom_site_fract_z
Si Si1 0.906747 0.585587 0.106250
Si Si2 0.904229 0.411913 0.699143
Si Si3 0.899739 0.917830 0.398907
Si Si4 0.092143 0.732697 0.588151
Si Si5 0.898673 0.287340 0.951711
Si Si6 0.511199 0.274892 0.810870
Si Si7 0.598904 0.579992 0.262391
O O1 0.750000 0.587707 0.082079
O O2 0.895824 0.572004 0.184316
O O3 0.000000 0.500000 0.081136
O O4 0.991460 0.681145 0.099185
O O5 0.750000 0.443928 0.693549
O O6 0.941861 0.353718 0.634262
O O7 0.000000 0.500000 0.709387
O O8 0.913125 0.337355 0.757880
O O9 0.750000 0.948103 0.415042
O O10 0.898253 0.844092 0.340025
O O11 0.980239 0.862163 0.454918
O O12 0.000000 0.000000 0.379702
O O13 0.250000 0.757641 0.603321
O O14 0.085815 0.715342 0.510478
O O15 0.750000 0.330501 0.960133
O O16 0.908076 0.252275 0.877496
O O17 0.455917 0.181509 0.780135
O O18 0.500000 0.500000 0.287309
O O19 0.750000 0.568502 0.288119
#
# Coordination Sequence:
#
# PCOD9379447 Si02
#       7
#     8   8   8   8   8   8   8
#     4  10  20  35  56  84 114 149 188 231 286 345
#     4  11  24  40  64  93 123 160 206 252 307 366
#     4  10  21  35  57  86 122 156 196 244 297 361
#     4  10  21  41  61  84 118 158 199 244 295 356
#     4   9  21  38  59  82 115 156 198 243 295 352
#     4  10  21  38  64  85 122 154 205 245 309 352
#     4  10  21  37  58  88 119 152 193 244 296 353
#
# _framework density 19.120411000000001
#
# number of rings (size 3 to 8) (size 9 to 14) (size 15 to 20)
#    0.857    1.143    1.429    2.143    0.000    5.714 
#    0.000    0.714    0.000    1.714    0.000    0.000 
#    0.000    0.000    0.000    0.000    0.000    0.000 
#
# Total GULP energy -155891.523694 kJ/mol
# GULP energy per Si atom -5567.554418 kJ/mol
# Density = 1.907689 g / cm^3
# Si number density = 19.120411 Si / 1000 Ang^3
#
#
#
# Elastic Constant Matrix: (Units=GPa)
#
#
# Indices 1 2 3 4 5 6 
#
# 1 131.3060 52.2581 20.0852 0.0000 0.0000 0.0000
# 2 52.2581 89.1159 27.5946 0.0000 0.0000 0.0000
# 3 20.0852 27.5946 87.7356 0.0000 0.0000 0.0000
# 4 0.0000 0.0000 0.0000 15.3828 0.0000 0.0000
# 5 0.0000 0.0000 0.0000 0.0000 -20.8953 0.0000
# 6 0.0000 0.0000 0.0000 0.0000 0.0000 15.9394
#
#
#
# Elastic Compliance Matrix: (Units=1/GPa)
#
#
# Indices 1 2 3 4 5 6 
#
# 1 0.009953 -0.005685 -0.000491 0.000000 0.000000 0.000000
# 2 -0.005685 0.015679 -0.003630 0.000000 0.000000 0.000000
# 3 -0.000491 -0.003630 0.012652 0.000000 0.000000 0.000000
# 4 0.000000 0.000000 0.000000 0.065008 0.000000 0.000000
# 5 0.000000 0.000000 0.000000 0.000000 -0.047858 0.000000
# 6 0.000000 0.000000 0.000000 0.000000 0.000000 0.062737
#
#
# Mechanical properties :
#
#
# Convention : Reuss Voigt Hill
#
# Bulk Modulus (GPa) = 53.55187 56.44815 55.00001
# Shear Modulus (GPa) = 34.72057 15.96668 25.34363
#
# Velocity S-wave (km/s) = 4.26595 2.89287 3.64466
# Velocity P-wave (km/s) = 7.23415 6.38317 6.82194
#
# Compressibility (1/GPa) = 0.01867348
#
# Stress axis : x y z
#
# Youngs Moduli (GPa) = 100.46917 63.77990 79.03959
#
# Poissons Ratio (x) = 0.36257 0.03878
# Poissons Ratio (y) = 0.57114 0.28691
# Poissons Ratio (z) = 0.04929 0.23152
#
# Static dielectric constant tensor:
#      x y z
#    x 1.689180 0.000000 0.000000 
#    y 0.000000 1.627000 0.000000 
#    z 0.000000 0.000000 1.719110 
# 
# From -- ./inp_files/21055.got.cif
#   From: 2010.05.17/outbox.cif.g08.bks.cpg/sg46_11_cif.got.tgz:21055.got - 2010.06.03 19:58:25.
