data_PCOD9379149
_publ_section_title
;
Structure prediction by ZEFSAII (Michael W. Deem and Ramdas Pophale) SiO2 
 PCOD9379149
Probable space group: I M A 2
;
_chemical_formula_sum "Si O2"
_cell_formula_units_Z 60
_cell_length_a 8.400198
_cell_length_b 30.972476
_cell_length_c 11.186672
_cell_angle_alpha 90.000000
_cell_angle_beta 90.000000
_cell_angle_gamma 90.000000
_cell_volume 2910.491615
_symmetry_space_group_name_H-M "I M A 2"
_symmetry_group_IT_number 46
_symmetry_cell_setting 'orthorhombic'
loop_
_space_group_symop_operation_xyz
x,y,z
-x,-y,z
1/2-x,y,z
1/2+x,-y,z
1/2+x,1/2+y,1/2+z
1/2-x,1/2-y,1/2+z
-x,1/2+y,1/2+z
x,1/2-y,1/2+z
loop_
_atom_site_type_symbol
_atom_site_label
_atom_site_fract_x
_atom_site_fract_y
_atom_site_fract_z
Si Si1 0.935585 0.886206 0.074280
Si Si2 0.421296 0.080484 0.330535
Si Si3 0.000000 0.500000 0.970175
Si Si4 0.564053 0.565963 0.149229
Si Si5 0.935203 0.455290 0.403912
Si Si6 0.932511 0.359287 0.010454
Si Si7 0.056145 0.212231 0.132778
Si Si8 0.059217 0.270233 0.906438
O O1 0.750000 0.883561 0.034380
O O2 0.942172 0.915943 0.191261
O O3 0.985704 0.838237 0.114448
O O4 0.037777 0.911928 0.979027
O O5 0.250000 0.101922 0.359054
O O6 0.414919 0.032244 0.379369
O O7 0.552845 0.107621 0.399471
O O8 0.051005 0.536283 0.066836
O O9 0.750000 0.557671 0.118028
O O10 0.532849 0.552523 0.283054
O O11 0.521941 0.615196 0.116772
O O12 0.750000 0.460902 0.377247
O O13 0.000000 0.500000 0.460427
O O14 0.750000 0.351320 0.042416
O O15 0.014600 0.316100 0.964316
O O16 0.250000 0.214657 0.135754
O O17 0.002781 0.229522 0.265578
O O18 0.003146 0.236744 0.010625
O O19 0.250000 0.265397 0.899664
#
# Coordination Sequence:
#
# PCOD9379149 Si02
#       8
#     8   8   4   8   8   8   8   8
#     4  10  21  41  63  89 122 163 208 256 310 368
#     4  10  21  38  61  86 120 160 203 254 302 358
#     4  10  20  32  58  92 116 154 200 254 308 352
#     4  11  23  41  64  88 122 166 207 259 310 365
#     4  12  26  43  63  90 124 166 208 255 307 370
#     4  11  22  36  59  92 125 161 201 252 310 370
#     4   9  19  36  65  93 122 159 209 263 315 378
#     4  10  19  38  63  93 123 161 210 261 314 382
#
# _framework density 20.615072999999999
#
# number of rings (size 3 to 8) (size 9 to 14) (size 15 to 20)
#    0.000    1.600    2.000    4.000    0.933    6.400 
#    0.000    4.000    0.000    0.000    0.000    0.000 
#    0.000    0.000    0.000    0.000    0.000    0.000 
#
# Total GULP energy -167002.237062 kJ/mol
# GULP energy per Si atom -5566.741235 kJ/mol
# Density = 2.056815 g / cm^3
# Si number density = 20.615073 Si / 1000 Ang^3
#
#
#
# Elastic Constant Matrix: (Units=GPa)
#
#
# Indices 1 2 3 4 5 6 
#
# 1 37.1500 9.3436 18.3442 0.0000 0.0000 0.0000
# 2 9.3436 80.8982 71.0645 0.0005 0.0000 0.0000
# 3 18.3442 71.0645 105.9777 -0.0003 0.0001 0.0000
# 4 0.0000 0.0005 -0.0003 32.3622 0.0001 0.0000
# 5 0.0000 0.0000 0.0001 0.0001 14.8167 0.0000
# 6 0.0000 0.0000 0.0000 0.0000 0.0000 23.9711
#
#
#
# Elastic Compliance Matrix: (Units=1/GPa)
#
#
# Indices 1 2 3 4 5 6 
#
# 1 0.029663 0.002639 -0.006904 0.000000 0.000000 0.000000
# 2 0.002639 0.030314 -0.020784 -0.000001 0.000000 0.000000
# 3 -0.006904 -0.020784 0.024568 0.000001 0.000000 0.000000
# 4 0.000000 -0.000001 0.000001 0.030900 0.000000 0.000000
# 5 0.000000 0.000000 0.000000 0.000000 0.067491 0.000000
# 6 0.000000 0.000000 0.000000 0.000000 0.000000 0.041717
#
#
# Mechanical properties :
#
#
# Convention : Reuss Voigt Hill
#
# Bulk Modulus (GPa) = 29.03048 46.83673 37.93361
# Shear Modulus (GPa) = 17.46811 22.58158 20.02485
#
# Velocity S-wave (km/s) = 2.91408 3.31326 3.12006
# Velocity P-wave (km/s) = 5.04333 6.11604 5.60540
#
# Compressibility (1/GPa) = 0.03444655
#
# Stress axis : x y z
#
# Youngs Moduli (GPa) = 33.71167 32.98772 40.70307
#
# Poissons Ratio (x) = -0.08705 0.28101
# Poissons Ratio (y) = -0.08896 0.84599
# Poissons Ratio (z) = 0.23275 0.68563
#
# Static dielectric constant tensor:
#      x y z
#    x 1.872810 0.000000 0.000000 
#    y 0.000000 1.746850 0.000000 
#    z 0.000000 0.000000 1.756210 
# 
# From -- ./inp_files/9530.got.cif
#   From: 2010.05.17/outbox.cif.g08.bks.cpg/sg46_5_cif.got.tgz:9530.got - 2010.06.03 19:58:25.
