data_PCOD9379762
_publ_section_title
;
Structure prediction by ZEFSAII (Michael W. Deem and Ramdas Pophale) SiO2 
 PCOD9379762
Probable space group: I M A 2
;
_chemical_formula_sum "Si O2"
_cell_formula_units_Z 40
_cell_length_a 13.979417
_cell_length_b 8.291907
_cell_length_c 15.282406
_cell_angle_alpha 90.000000
_cell_angle_beta 90.000000
_cell_angle_gamma 90.000000
_cell_volume 1771.475766
_symmetry_space_group_name_H-M "I M A 2"
_symmetry_group_IT_number 46
_symmetry_cell_setting 'orthorhombic'
loop_
_space_group_symop_operation_xyz
x,y,z
-x,-y,z
1/2-x,y,z
1/2+x,-y,z
1/2+x,1/2+y,1/2+z
1/2-x,1/2-y,1/2+z
-x,1/2+y,1/2+z
x,1/2-y,1/2+z
loop_
_atom_site_type_symbol
_atom_site_label
_atom_site_fract_x
_atom_site_fract_y
_atom_site_fract_z
Si Si1 0.849442 0.724409 0.307800
Si Si2 0.637330 0.635226 0.998863
Si Si3 0.536689 0.317603 0.740236
Si Si4 0.074905 0.723998 0.052301
Si Si5 0.100148 0.905183 0.888678
O O1 0.750000 0.778696 0.266823
O O2 0.868887 0.835394 0.393456
O O3 0.840821 0.544875 0.344473
O O4 0.936491 0.721329 0.241568
O O5 0.750000 0.676146 0.020963
O O6 0.541346 0.726639 0.034410
O O7 0.615305 0.452680 0.029117
O O8 0.500000 0.500000 0.745897
O O9 0.590602 0.276397 0.651597
O O10 0.590501 0.249235 0.825277
O O11 0.124136 0.845377 0.984563
O O12 0.000000 0.000000 0.895871
#
# Coordination Sequence:
#
# PCOD9379762 Si02
#       5
#     8   8   8   8   8
#     4  10  22  41  66  94 128 169 215 273 332 390
#     4  10  22  39  63  92 125 166 212 261 322 388
#     4  11  23  39  63  92 123 171 217 258 324 391
#     4  11  22  39  66  90 124 171 210 264 325 382
#     4  10  20  38  61  88 121 160 210 256 317 385
#
# _framework density 22.580044999999998
#
# number of rings (size 3 to 8) (size 9 to 14) (size 15 to 20)
#    0.000    1.600    4.000    1.800    8.400    1.600 
#    0.000    2.000    0.000    0.000    0.000    0.000 
#    0.000    0.000    0.000    0.000    0.000    0.000 
#
# Total GULP energy -111491.278726 kJ/mol
# GULP energy per Si atom -5574.563936 kJ/mol
# Density = 2.252865 g / cm^3
# Si number density = 22.580045 Si / 1000 Ang^3
#
#
#
# Elastic Constant Matrix: (Units=GPa)
#
#
# Indices 1 2 3 4 5 6 
#
# 1 66.1463 -16.8313 -9.6081 0.0000 0.0000 0.0000
# 2 -16.8313 117.1430 41.9659 0.0000 0.0000 0.0000
# 3 -9.6081 41.9659 121.0212 0.0000 0.0000 0.0000
# 4 0.0000 0.0000 0.0000 13.7017 0.0000 0.0000
# 5 0.0000 0.0000 0.0000 0.0000 -33.4373 0.0000
# 6 0.0000 0.0000 0.0000 0.0000 0.0000 -80.4461
#
#
#
# Elastic Compliance Matrix: (Units=1/GPa)
#
#
# Indices 1 2 3 4 5 6 
#
# 1 0.015721 0.002069 0.000531 0.000000 0.000000 0.000000
# 2 0.002069 0.010020 -0.003310 0.000000 0.000000 0.000000
# 3 0.000531 -0.003310 0.009453 0.000000 0.000000 0.000000
# 4 0.000000 0.000000 0.000000 0.072983 0.000000 0.000000
# 5 0.000000 0.000000 0.000000 0.000000 -0.029907 0.000000
# 6 0.000000 0.000000 0.000000 0.000000 0.000000 -0.012431
#
#
# Mechanical properties :
#
#
# Convention : Reuss Voigt Hill
#
# Bulk Modulus (GPa) = 29.60962 37.26261 33.43612
# Shear Modulus (GPa) = 63.67860 -0.78408 31.44726
#
# Velocity S-wave (km/s) = 5.31625 -0.58991 3.73594
# Velocity P-wave (km/s) = 7.12916 4.00927 5.78357
#
# Compressibility (1/GPa) = 0.03377280
#
# Stress axis : x y z
#
# Youngs Moduli (GPa) = 63.60718 99.80349 105.78615
#
# Poissons Ratio (x) = -0.20647 -0.05615
# Poissons Ratio (y) = -0.13159 0.35018
# Poissons Ratio (z) = -0.03376 0.33037
#
# Static dielectric constant tensor:
#      x y z
#    x 2.172040 0.000000 0.000000 
#    y 0.000000 1.868690 0.000000 
#    z 0.000000 0.000000 1.814240 
# 
# From -- ./inp_files/15667.got.cif
#   From: 2010.05.17/outbox.cif.g08.bks.cpg/sg46_8_cif.got.tgz:15667.got - 2010.06.03 19:58:25.
