data_PCOD9379404
_publ_section_title
;
Structure prediction by ZEFSAII (Michael W. Deem and Ramdas Pophale) SiO2 
 PCOD9379404
Probable space group: I M A 2
;
_chemical_formula_sum "Si O2"
_cell_formula_units_Z 60
_cell_length_a 24.143810
_cell_length_b 13.241527
_cell_length_c 9.526505
_cell_angle_alpha 90.000000
_cell_angle_beta 90.000000
_cell_angle_gamma 90.000000
_cell_volume 3045.632337
_symmetry_space_group_name_H-M "I M A 2"
_symmetry_group_IT_number 46
_symmetry_cell_setting 'orthorhombic'
loop_
_space_group_symop_operation_xyz
x,y,z
-x,-y,z
1/2-x,y,z
1/2+x,-y,z
1/2+x,1/2+y,1/2+z
1/2-x,1/2-y,1/2+z
-x,1/2+y,1/2+z
x,1/2-y,1/2+z
loop_
_atom_site_type_symbol
_atom_site_label
_atom_site_fract_x
_atom_site_fract_y
_atom_site_fract_z
Si Si1 0.966455 0.156403 0.654240
Si Si2 0.616794 0.040482 0.313511
Si Si3 0.478952 0.651085 0.480853
Si Si4 0.410239 0.445111 0.541997
Si Si5 0.186129 0.818697 0.121468
Si Si6 0.000000 0.500000 0.954668
Si Si7 0.689481 0.006584 0.890585
Si Si8 0.154532 0.912806 0.603459
O O1 0.954300 0.257403 0.568263
O O2 0.981846 0.172193 0.815191
O O3 0.909303 0.094349 0.653854
O O4 0.010320 0.092993 0.561611
O O5 0.642495 0.139225 0.236449
O O6 0.652071 0.030928 0.454944
O O7 0.618265 0.956238 0.193345
O O8 0.552066 0.037192 0.361498
O O9 0.442776 0.550696 0.508541
O O10 0.541083 0.634909 0.536141
O O11 0.361374 0.435352 0.430785
O O12 0.250000 0.828743 0.172195
O O13 0.175226 0.702286 0.086148
O O14 0.181215 0.891196 0.984729
O O15 0.750000 0.966341 0.927872
O O16 0.687012 0.035724 0.728620
#
# Coordination Sequence:
#
# PCOD9379404 Si02
#       8
#     8   8   8   8   8   4   8   8
#     4  11  24  35  56  87 114 157 194 243 294 365
#     4  10  22  34  56  77 111 158 201 241 295 341
#     4  11  23  36  61  84 120 152 200 233 309 358
#     4  10  21  40  56  81 118 161 189 250 289 357
#     4  10  21  35  52  80 118 160 200 241 290 355
#     4  10  22  38  56  82 122 148 200 256 302 344
#     4  10  20  35  53  76 108 155 198 233 290 348
#     4  11  21  31  51  79 117 150 196 241 284 343
#
# _framework density 19.700341999999999
#
# number of rings (size 3 to 8) (size 9 to 14) (size 15 to 20)
#    0.000    1.600    1.333    4.400   11.200    2.133 
#    0.000    0.000    0.000    0.000    0.000    1.867 
#    0.000    0.000    0.000    0.000    0.000    0.000 
#
# Total GULP energy -167377.791511 kJ/mol
# GULP energy per Si atom -5579.259717 kJ/mol
# Density = 1.965550 g / cm^3
# Si number density = 19.700342 Si / 1000 Ang^3
#
#
#
# Elastic Constant Matrix: (Units=GPa)
#
#
# Indices 1 2 3 4 5 6 
#
# 1 105.7216 9.0927 20.9321 0.0000 0.0000 0.0000
# 2 9.0927 12.3617 10.7679 0.0000 0.0000 0.0000
# 3 20.9321 10.7679 129.0650 0.0000 0.0000 0.0000
# 4 0.0000 0.0000 0.0000 11.5625 0.0000 0.0000
# 5 0.0000 0.0000 0.0000 0.0000 21.6026 0.0000
# 6 0.0000 0.0000 0.0000 0.0000 0.0000 21.8827
#
#
#
# Elastic Compliance Matrix: (Units=1/GPa)
#
#
# Indices 1 2 3 4 5 6 
#
# 1 0.010244 -0.006565 -0.001114 0.000000 0.000000 0.000000
# 2 -0.006565 0.091442 -0.006564 0.000000 0.000000 0.000000
# 3 -0.001114 -0.006564 0.008476 0.000000 0.000000 0.000000
# 4 0.000000 0.000000 0.000000 0.086487 0.000000 0.000000
# 5 0.000000 0.000000 0.000000 0.000000 0.046291 0.000000
# 6 0.000000 0.000000 0.000000 0.000000 0.000000 0.045698
#
#
# Mechanical properties :
#
#
# Convention : Reuss Voigt Hill
#
# Bulk Modulus (GPa) = 12.24347 36.52596 24.38472
# Shear Modulus (GPa) = 14.52017 24.76660 19.64338
#
# Velocity S-wave (km/s) = 2.71782 3.54950 3.16113
# Velocity P-wave (km/s) = 4.00962 5.94808 5.07231
#
# Compressibility (1/GPa) = 0.08167620
#
# Stress axis : x y z
#
# Youngs Moduli (GPa) = 97.61885 10.93594 117.97584
#
# Poissons Ratio (x) = 0.07179 0.13139
# Poissons Ratio (y) = 0.64085 0.77443
# Poissons Ratio (z) = 0.10872 0.07179
#
# Static dielectric constant tensor:
#      x y z
#    x 1.724160 0.000000 0.000000 
#    y 0.000000 1.691710 0.000000 
#    z 0.000000 0.000000 1.734420 
# 
# From -- ./inp_files/7925.got.cif
#   From: 2010.05.17/outbox.cif.g08.bks.cpg/sg46_4_cif.got.tgz:7925.got - 2010.06.03 19:58:25.
