data_PCOD9379136
_publ_section_title
;
Structure prediction by ZEFSAII (Michael W. Deem and Ramdas Pophale) SiO2 
 PCOD9379136
Probable space group: I M A 2
;
_chemical_formula_sum "Si O2"
_cell_formula_units_Z 48
_cell_length_a 13.663681
_cell_length_b 13.062754
_cell_length_c 11.884978
_cell_angle_alpha 90.000000
_cell_angle_beta 90.000000
_cell_angle_gamma 90.000000
_cell_volume 2121.293907
_symmetry_space_group_name_H-M "I M A 2"
_symmetry_group_IT_number 46
_symmetry_cell_setting 'orthorhombic'
loop_
_space_group_symop_operation_xyz
x,y,z
-x,-y,z
1/2-x,y,z
1/2+x,-y,z
1/2+x,1/2+y,1/2+z
1/2-x,1/2-y,1/2+z
-x,1/2+y,1/2+z
x,1/2-y,1/2+z
loop_
_atom_site_type_symbol
_atom_site_label
_atom_site_fract_x
_atom_site_fract_y
_atom_site_fract_z
Si Si1 0.637274 0.724950 0.716080
Si Si2 0.356298 0.714602 0.456342
Si Si3 0.136764 0.014283 0.351829
Si Si4 0.861921 0.068660 0.575810
Si Si5 0.543321 0.395640 0.645573
Si Si6 0.001780 0.888667 0.789138
O O1 0.750000 0.728980 0.673488
O O2 0.633900 0.629716 0.803898
O O3 0.544524 0.687577 0.641149
O O4 0.601385 0.834730 0.761813
O O5 0.250000 0.694627 0.404791
O O6 0.361001 0.829251 0.500559
O O7 0.371340 0.646020 0.567660
O O8 0.439426 0.688855 0.367671
O O9 0.250000 0.982483 0.348484
O O10 0.107878 0.015107 0.482782
O O11 0.081258 0.934337 0.268682
O O12 0.750000 0.048790 0.614479
O O13 0.934053 0.089114 0.677884
O O14 0.500000 0.500000 0.597223
O O15 0.000000 0.000000 0.844942
#
# Coordination Sequence:
#
# PCOD9379136 Si02
#       6
#     8   8   8   8   8   8
#     4  10  22  42  64  92 131 176 223 272 326 394
#     4  11  23  40  65  96 130 168 216 271 336 397
#     4   9  19  38  69 102 129 165 222 281 333 389
#     4  10  22  40  68  99 127 164 214 277 338 392
#     4  10  19  37  66  97 131 170 219 275 330 389
#     4  12  26  43  64  92 133 177 218 272 336 401
#
# _framework density 22.627697999999999
#
# number of rings (size 3 to 8) (size 9 to 14) (size 15 to 20)
#    0.000    1.667    1.667    2.500    0.000    5.333 
#    0.000    0.833    0.000    0.000    0.000    0.000 
#    0.000    0.000    0.000    0.000    0.000    0.000 
#
# Total GULP energy -133933.125295 kJ/mol
# GULP energy per Si atom -5580.546887 kJ/mol
# Density = 2.257620 g / cm^3
# Si number density = 22.627698 Si / 1000 Ang^3
#
#
#
# Elastic Constant Matrix: (Units=GPa)
#
#
# Indices 1 2 3 4 5 6 
#
# 1 130.2139 5.7591 15.6248 0.0000 0.0000 0.0000
# 2 5.7591 62.5808 -15.0491 0.0000 0.0000 0.0000
# 3 15.6248 -15.0491 84.6623 0.0000 0.0000 0.0000
# 4 0.0000 0.0000 0.0000 12.8318 0.0000 0.0000
# 5 0.0000 0.0000 0.0000 0.0000 19.8826 0.0000
# 6 0.0000 0.0000 0.0000 0.0000 0.0000 35.2091
#
#
#
# Elastic Compliance Matrix: (Units=1/GPa)
#
#
# Indices 1 2 3 4 5 6 
#
# 1 0.007929 -0.001130 -0.001664 0.000000 0.000000 0.000000
# 2 -0.001130 0.016854 0.003204 0.000000 0.000000 0.000000
# 3 -0.001664 0.003204 0.012688 0.000000 0.000000 0.000000
# 4 0.000000 0.000000 0.000000 0.077931 0.000000 0.000000
# 5 0.000000 0.000000 0.000000 0.000000 0.050295 0.000000
# 6 0.000000 0.000000 0.000000 0.000000 0.000000 0.028402
#
#
# Mechanical properties :
#
#
# Convention : Reuss Voigt Hill
#
# Bulk Modulus (GPa) = 26.11509 32.23631 29.17570
# Shear Modulus (GPa) = 24.26672 31.65951 27.96312
#
# Velocity S-wave (km/s) = 3.27836 3.74458 3.51920
# Velocity P-wave (km/s) = 5.08885 5.74222 5.42538
#
# Compressibility (1/GPa) = 0.03829203
#
# Stress axis : x y z
#
# Youngs Moduli (GPa) = 126.11386 59.33348 78.81238
#
# Poissons Ratio (x) = 0.06704 0.13116
# Poissons Ratio (y) = 0.14250 -0.25254
# Poissons Ratio (z) = 0.20988 -0.19013
#
# Static dielectric constant tensor:
#      x y z
#    x 1.870480 0.000000 0.000000 
#    y 0.000000 1.871690 0.000000 
#    z 0.000000 0.000000 1.867950 
# 
# From -- ./inp_files/11089.got.cif
#   From: 2010.05.17/outbox.cif.g08.bks.cpg/sg46_6_cif.got.tgz:11089.got - 2010.06.03 19:58:25.
