data_PCOD9379955
_publ_section_title
;
Structure prediction by ZEFSAII (Michael W. Deem and Ramdas Pophale) SiO2 
 PCOD9379955
Probable space group: I M A 2
;
_chemical_formula_sum "Si O2"
_cell_formula_units_Z 48
_cell_length_a 14.138532
_cell_length_b 21.823200
_cell_length_c 5.714816
_cell_angle_alpha 90.000000
_cell_angle_beta 90.000000
_cell_angle_gamma 90.000000
_cell_volume 1763.295113
_symmetry_space_group_name_H-M "I M A 2"
_symmetry_group_IT_number 46
_symmetry_cell_setting 'orthorhombic'
loop_
_space_group_symop_operation_xyz
x,y,z
-x,-y,z
1/2-x,y,z
1/2+x,-y,z
1/2+x,1/2+y,1/2+z
1/2-x,1/2-y,1/2+z
-x,1/2+y,1/2+z
x,1/2-y,1/2+z
loop_
_atom_site_type_symbol
_atom_site_label
_atom_site_fract_x
_atom_site_fract_y
_atom_site_fract_z
Si Si1 0.364947 0.278383 0.218540
Si Si2 0.517199 0.559433 0.579125
Si Si3 0.356750 0.511961 0.192575
Si Si4 0.645610 0.889398 0.425761
Si Si5 0.135216 0.843724 0.049855
Si Si6 0.863873 0.349136 0.056568
O O1 0.250000 0.275203 0.229943
O O2 0.395803 0.257457 0.478657
O O3 0.389178 0.348126 0.141827
O O4 0.500000 0.500000 0.739357
O O5 0.579127 0.526785 0.376061
O O6 0.416153 0.590217 0.530900
O O7 0.577839 0.610922 0.705795
O O8 0.250000 0.521519 0.289940
O O9 0.346386 0.459769 0.996254
O O10 0.386443 0.577787 0.079813
O O11 0.750000 0.866618 0.358934
O O12 0.250000 0.846503 0.051736
O O13 0.105383 0.822632 0.307848
O O14 0.106955 0.816421 0.797813
O O15 0.750000 0.345417 0.052573
#
# Coordination Sequence:
#
# PCOD9379955 Si02
#       6
#     8   8   8   8   8   8
#     4   9  19  37  62  87 113 148 187 235 300 362
#     4  12  23  32  53  76 113 158 204 239 284 342
#     4  10  21  34  49  72 108 150 192 241 285 333
#     4  10  23  38  56  83 118 155 200 246 291 353
#     4  10  21  36  52  69  97 141 191 242 278 319
#     4   9  18  34  51  66  92 136 189 234 282 318
#
# _framework density 27.221762999999999
#
# number of rings (size 3 to 8) (size 9 to 14) (size 15 to 20)
#    0.000    2.000    1.667    1.500    4.667    2.667 
#    0.000    0.000    0.000    0.000    0.000    0.000 
#    0.000    1.333    0.000    0.000    0.000    0.000 
#
# Total GULP energy -133842.690759 kJ/mol
# GULP energy per Si atom -5576.778782 kJ/mol
# Density = 2.715980 g / cm^3
# Si number density = 27.221763 Si / 1000 Ang^3
#
#
#
# Elastic Constant Matrix: (Units=GPa)
#
#
# Indices 1 2 3 4 5 6 
#
# 1 95.1795 10.0428 26.6371 0.0000 0.0000 0.0000
# 2 10.0428 140.9333 39.3110 0.0000 0.0000 0.0000
# 3 26.6371 39.3110 211.9573 0.0000 -0.0001 0.0000
# 4 0.0000 0.0000 0.0000 -23.6212 -0.0001 0.0000
# 5 0.0000 0.0000 -0.0001 -0.0001 26.4667 0.0000
# 6 0.0000 0.0000 0.0000 0.0000 0.0000 -7.8095
#
#
#
# Elastic Compliance Matrix: (Units=1/GPa)
#
#
# Indices 1 2 3 4 5 6 
#
# 1 0.010913 -0.000417 -0.001294 0.000000 0.000000 0.000000
# 2 -0.000417 0.007499 -0.001338 0.000000 0.000000 0.000000
# 3 -0.001294 -0.001338 0.005129 0.000000 0.000000 0.000000
# 4 0.000000 0.000000 0.000000 -0.042335 0.000000 0.000000
# 5 0.000000 0.000000 0.000000 0.000000 0.037783 0.000000
# 6 0.000000 0.000000 0.000000 0.000000 0.000000 -0.128050
#
#
# Mechanical properties :
#
#
# Convention : Reuss Voigt Hill
#
# Bulk Modulus (GPa) = 57.33402 66.67244 62.00323
# Shear Modulus (GPa) = -51.46729 23.81249 -13.82740
#
# Velocity S-wave (km/s) = -4.35290 2.96084 -2.25623
# Velocity P-wave (km/s) = 2.03864 6.01949 4.00489
#
# Compressibility (1/GPa) = 0.01744165
#
# Stress axis : x y z
#
# Youngs Moduli (GPa) = 91.63717 133.35888 194.97775
#
# Poissons Ratio (x) = 0.05556 0.25233
# Poissons Ratio (y) = 0.03818 0.26095
# Poissons Ratio (z) = 0.11859 0.17848
#
# Static dielectric constant tensor:
#      x y z
#    x 2.267330 0.000000 0.000000 
#    y 0.000000 2.128060 0.000000 
#    z 0.000000 0.000000 2.248000 
# 
# From -- ./inp_files/1339.got.cif
#   From: 2010.05.17/outbox.cif.g08.bks.cpg/sg46_1_cif.got.tgz:1339.got - 2010.06.03 19:58:25.
