data_PCOD9379602
_publ_section_title
;
Structure prediction by ZEFSAII (Michael W. Deem and Ramdas Pophale) SiO2 
 PCOD9379602
Probable space group: I M A 2
;
_chemical_formula_sum "Si O2"
_cell_formula_units_Z 56
_cell_length_a 18.764915
_cell_length_b 8.578137
_cell_length_c 17.480805
_cell_angle_alpha 90.000000
_cell_angle_beta 90.000000
_cell_angle_gamma 90.000000
_cell_volume 2813.850423
_symmetry_space_group_name_H-M "I M A 2"
_symmetry_group_IT_number 46
_symmetry_cell_setting 'orthorhombic'
loop_
_space_group_symop_operation_xyz
x,y,z
-x,-y,z
1/2-x,y,z
1/2+x,-y,z
1/2+x,1/2+y,1/2+z
1/2-x,1/2-y,1/2+z
-x,1/2+y,1/2+z
x,1/2-y,1/2+z
loop_
_atom_site_type_symbol
_atom_site_label
_atom_site_fract_x
_atom_site_fract_y
_atom_site_fract_z
Si Si1 0.828088 0.158862 0.539580
Si Si2 0.831180 0.002974 0.958829
Si Si3 0.457603 0.659308 0.156320
Si Si4 0.094605 0.818577 0.827408
Si Si5 0.168670 0.001748 0.380311
Si Si6 0.034959 0.167286 0.398790
Si Si7 0.545427 0.653816 0.546226
O O1 0.750000 0.139235 0.576625
O O2 0.829003 0.327354 0.498909
O O3 0.894430 0.154263 0.594877
O O4 0.834253 0.034730 0.471140
O O5 0.750000 0.948401 0.947667
O O6 0.869293 0.043138 0.877427
O O7 0.875457 0.895686 0.018212
O O8 0.500000 0.500000 0.157075
O O9 0.418163 0.672956 0.237430
O O10 0.515564 0.790102 0.128563
O O11 0.139510 0.659258 0.843436
O O12 0.014871 0.793470 0.859582
O O13 0.250000 0.029559 0.357688
O O14 0.114965 0.145318 0.368609
O O15 0.029311 0.206129 0.488082
O O16 0.000000 0.000000 0.384503
O O17 0.500000 0.500000 0.527027
#
# Coordination Sequence:
#
# PCOD9379602 Si02
#       7
#     8   8   8   8   8   8   8
#     4   9  18  36  59  86 116 155 210 258 306 378
#     4  10  21  39  65  92 119 166 221 265 314 386
#     4  12  25  38  61  94 129 166 211 269 336 387
#     4  10  21  37  61  88 126 166 215 262 314 388
#     4   9  18  36  62  88 119 161 211 258 311 383
#     4  10  20  36  61  88 121 159 212 260 309 378
#     4  12  21  37  65  91 127 163 214 264 321 394
#
# _framework density 19.901555999999999
#
# number of rings (size 3 to 8) (size 9 to 14) (size 15 to 20)
#    0.000    1.714    2.857    4.286    2.000    3.429 
#    0.000    0.714    0.000    0.000    0.000    0.000 
#    0.000    0.000    0.000    0.000    0.000    0.000 
#
# Total GULP energy -156072.452129 kJ/mol
# GULP energy per Si atom -5574.016147 kJ/mol
# Density = 1.985626 g / cm^3
# Si number density = 19.901556 Si / 1000 Ang^3
#
#
#
# Elastic Constant Matrix: (Units=GPa)
#
#
# Indices 1 2 3 4 5 6 
#
# 1 166.0883 43.6744 63.1473 0.0000 0.0000 0.0000
# 2 43.6744 37.7607 16.0497 0.0000 0.0000 0.0000
# 3 63.1473 16.0497 80.3425 0.0000 0.0000 0.0000
# 4 0.0000 0.0000 0.0000 11.0196 0.0000 0.0000
# 5 0.0000 0.0000 0.0000 0.0000 12.3175 0.0000
# 6 0.0000 0.0000 0.0000 0.0000 0.0000 21.3011
#
#
#
# Elastic Compliance Matrix: (Units=1/GPa)
#
#
# Indices 1 2 3 4 5 6 
#
# 1 0.011295 -0.010152 -0.006849 0.000000 0.000000 0.000000
# 2 -0.010152 0.038065 0.000375 0.000000 0.000000 0.000000
# 3 -0.006849 0.000375 0.017755 0.000000 0.000000 0.000000
# 4 0.000000 0.000000 0.000000 0.090748 0.000000 0.000000
# 5 0.000000 0.000000 0.000000 0.000000 0.081185 0.000000
# 6 0.000000 0.000000 0.000000 0.000000 0.000000 0.046946
#
#
# Mechanical properties :
#
#
# Convention : Reuss Voigt Hill
#
# Bulk Modulus (GPa) = 29.53117 58.88161 44.20639
# Shear Modulus (GPa) = 15.12703 19.68230 17.40466
#
# Velocity S-wave (km/s) = 2.75997 3.14822 2.96047
# Velocity P-wave (km/s) = 5.00274 6.54719 5.82637
#
# Compressibility (1/GPa) = 0.03386253
#
# Stress axis : x y z
#
# Youngs Moduli (GPa) = 88.53770 26.27068 56.32190
#
# Poissons Ratio (x) = 0.26671 0.38576
# Poissons Ratio (y) = 0.89886 -0.02114
# Poissons Ratio (z) = 0.60641 -0.00986
#
# Static dielectric constant tensor:
#      x y z
#    x 1.773270 0.000000 0.000000 
#    y 0.000000 1.721060 0.000000 
#    z 0.000000 0.000000 1.712590 
# 
# From -- ./inp_files/20154.got.cif
#   From: 2010.05.17/outbox.cif.g08.bks.cpg/sg46_11_cif.got.tgz:20154.got - 2010.06.03 19:58:25.
