data_PCOD9379443
_publ_section_title
;
Structure prediction by ZEFSAII (Michael W. Deem and Ramdas Pophale) SiO2 
 PCOD9379443
Probable space group: I M A 2
;
_chemical_formula_sum "Si O2"
_cell_formula_units_Z 48
_cell_length_a 9.193773
_cell_length_b 22.376673
_cell_length_c 12.432500
_cell_angle_alpha 90.000000
_cell_angle_beta 90.000000
_cell_angle_gamma 90.000000
_cell_volume 2557.689142
_symmetry_space_group_name_H-M "I M A 2"
_symmetry_group_IT_number 46
_symmetry_cell_setting 'orthorhombic'
loop_
_space_group_symop_operation_xyz
x,y,z
-x,-y,z
1/2-x,y,z
1/2+x,-y,z
1/2+x,1/2+y,1/2+z
1/2-x,1/2-y,1/2+z
-x,1/2+y,1/2+z
x,1/2-y,1/2+z
loop_
_atom_site_type_symbol
_atom_site_label
_atom_site_fract_x
_atom_site_fract_y
_atom_site_fract_z
Si Si1 0.923908 0.060461 0.318720
Si Si2 0.922630 0.733538 0.584354
Si Si3 0.422805 0.606753 0.584354
Si Si4 0.582672 0.170477 0.705775
Si Si5 0.917328 0.170477 0.462933
Si Si6 0.576092 0.439539 0.349989
O O1 0.750000 0.055535 0.333486
O O2 0.954423 0.070767 0.192807
O O3 0.970890 0.120348 0.381519
O O4 0.000000 0.000000 0.356354
O O5 0.750000 0.733845 0.584354
O O6 0.988105 0.667891 0.584354
O O7 0.986490 0.770651 0.686617
O O8 0.986490 0.770651 0.482092
O O9 0.250000 0.621230 0.584354
O O10 0.454423 0.570767 0.475902
O O11 0.750000 0.186846 0.732761
O O12 0.584909 0.143520 0.584354
O O13 0.529110 0.120348 0.787189
O O14 0.750000 0.186846 0.435948
O O15 0.500000 0.500000 0.312354
O O16 0.750000 0.444465 0.335223
#
# Coordination Sequence:
#
# PCOD9379443 Si02
#       6
#     8   8   8   8   8   8
#     4  10  21  36  56  80 107 143 179 216 260 311
#     4  10  20  35  56  83 107 134 176 226 271 306
#     4  10  21  37  55  77 109 146 179 210 260 322
#     4   8  17  36  56  77 107 140 175 212 264 324
#     4   8  17  36  56  77 107 140 175 212 264 324
#     4  10  21  36  56  80 107 143 179 216 260 311
#
# _framework density 18.766940000000002
#
# number of rings (size 3 to 8) (size 9 to 14) (size 15 to 20)
#    1.000    1.667    0.000    1.500    0.000    4.667 
#    0.000    6.667    0.000    0.000    0.000    0.000 
#    0.000    0.000    0.000    0.000    0.000    0.000 
#
# Total GULP energy -133698.826887 kJ/mol
# GULP energy per Si atom -5570.784454 kJ/mol
# Density = 1.872423 g / cm^3
# Si number density = 18.766940 Si / 1000 Ang^3
#
#
#
# Elastic Constant Matrix: (Units=GPa)
#
#
# Indices 1 2 3 4 5 6 
#
# 1 46.2793 51.5227 8.6109 0.0000 0.0000 0.0000
# 2 51.5227 96.9653 -4.2908 0.0000 0.0000 0.0000
# 3 8.6109 -4.2908 24.1581 -0.0002 0.0000 0.0000
# 4 0.0000 0.0000 -0.0002 25.8723 0.0000 0.0000
# 5 0.0000 0.0000 0.0000 0.0000 13.0387 0.0000
# 6 0.0000 0.0000 0.0000 0.0000 0.0000 36.1658
#
#
#
# Elastic Compliance Matrix: (Units=1/GPa)
#
#
# Indices 1 2 3 4 5 6 
#
# 1 0.071664 -0.039520 -0.032563 0.000000 0.000000 0.000000
# 2 -0.039520 0.032188 0.019803 0.000000 0.000000 0.000000
# 3 -0.032563 0.019803 0.056518 0.000000 0.000000 0.000000
# 4 0.000000 0.000000 0.000000 0.038651 0.000000 0.000000
# 5 0.000000 0.000000 0.000000 0.000000 0.076695 0.000000
# 6 0.000000 0.000000 0.000000 0.000000 0.000000 0.027650
#
#
# Mechanical properties :
#
#
# Convention : Reuss Voigt Hill
#
# Bulk Modulus (GPa) = 17.91747 31.00980 24.46364
# Shear Modulus (GPa) = 11.72251 22.45268 17.08759
#
# Velocity S-wave (km/s) = 2.50198 3.46265 3.02075
# Velocity P-wave (km/s) = 4.23257 5.70492 5.02298
#
# Compressibility (1/GPa) = 0.05581146
#
# Stress axis : x y z
#
# Youngs Moduli (GPa) = 13.95397 31.06724 17.69346
#
# Poissons Ratio (x) = 1.22777 0.57615
# Poissons Ratio (y) = 0.55146 -0.35039
# Poissons Ratio (z) = 0.45438 -0.61524
#
# Static dielectric constant tensor:
#      x y z
#    x 1.631910 0.000000 0.000000 
#    y 0.000000 1.616640 0.000000 
#    z 0.000000 0.000000 1.679170 
# 
# From -- ./inp_files/9319.got.cif
#   From: 2010.05.17/outbox.cif.g08.bks.cpg/sg46_5_cif.got.tgz:9319.got - 2010.06.03 19:58:25.
