data_PCOD9379711
_publ_section_title
;
Structure prediction by ZEFSAII (Michael W. Deem and Ramdas Pophale) SiO2 
 PCOD9379711
Probable space group: I M A 2
;
_chemical_formula_sum "Si O2"
_cell_formula_units_Z 64
_cell_length_a 18.303255
_cell_length_b 8.568143
_cell_length_c 19.869301
_cell_angle_alpha 90.000000
_cell_angle_beta 90.000000
_cell_angle_gamma 90.000000
_cell_volume 3116.001266
_symmetry_space_group_name_H-M "I M A 2"
_symmetry_group_IT_number 46
_symmetry_cell_setting 'orthorhombic'
loop_
_space_group_symop_operation_xyz
x,y,z
-x,-y,z
1/2-x,y,z
1/2+x,-y,z
1/2+x,1/2+y,1/2+z
1/2-x,1/2-y,1/2+z
-x,1/2+y,1/2+z
x,1/2-y,1/2+z
loop_
_atom_site_type_symbol
_atom_site_label
_atom_site_fract_x
_atom_site_fract_y
_atom_site_fract_z
Si Si1 0.670041 0.387742 0.690110
Si Si2 0.606354 0.140172 0.603434
Si Si3 0.973441 0.817761 0.772010
Si Si4 0.837332 0.633626 0.806361
Si Si5 0.445442 0.299021 0.115433
Si Si6 0.331966 0.781372 0.972420
Si Si7 0.670864 0.582255 0.552642
Si Si8 0.435104 0.892190 0.376579
O O1 0.750000 0.334964 0.713245
O O2 0.624978 0.234733 0.671449
O O3 0.648280 0.524462 0.740598
O O4 0.675086 0.473003 0.618514
O O5 0.524564 0.186697 0.582070
O O6 0.658978 0.185166 0.542347
O O7 0.600119 0.958769 0.617869
O O8 0.891973 0.781614 0.802091
O O9 0.964140 0.766501 0.693789
O O10 0.028295 0.701968 0.813363
O O11 0.000000 0.000000 0.774935
O O12 0.750000 0.664855 0.811139
O O13 0.870206 0.515809 0.861412
O O14 0.397408 0.186582 0.070264
O O15 0.250000 0.754188 0.945453
O O16 0.397236 0.731246 0.924664
O O17 0.338360 0.963427 0.991548
O O18 0.750000 0.663879 0.546383
O O19 0.500000 0.000000 0.405343
#
# Coordination Sequence:
#
# PCOD9379711 Si02
#       8
#     8   8   8   8   8   8   8   8
#     4   9  17  32  54  83 118 154 201 254 310 376
#     4  10  21  34  56  89 121 159 204 255 321 379
#     4  11  22  41  61  94 133 173 213 274 333 397
#     4  10  20  37  63  92 123 170 223 271 328 390
#     4  11  21  35  59  89 132 161 203 261 327 391
#     4  10  22  43  64  87 123 166 217 269 316 380
#     4   9  19  36  59  88 122 162 207 257 320 383
#     4  10  23  41  68  90 124 172 225 272 326 391
#
# _framework density 20.539145000000001
#
# number of rings (size 3 to 8) (size 9 to 14) (size 15 to 20)
#    0.000    2.000    2.500    2.250    1.750    3.000 
#    2.250    1.250    0.000    1.500    0.000    0.000 
#    0.000    0.000    0.000    0.000    0.000    0.000 
#
# Total GULP energy -178179.148280 kJ/mol
# GULP energy per Si atom -5568.098384 kJ/mol
# Density = 2.049240 g / cm^3
# Si number density = 20.539145 Si / 1000 Ang^3
#
#
#
# Elastic Constant Matrix: (Units=GPa)
#
#
# Indices 1 2 3 4 5 6 
#
# 1 61.9738 61.4957 13.0455 0.0000 0.0000 0.0000
# 2 61.4957 61.2347 9.9224 0.0000 0.0000 0.0000
# 3 13.0455 9.9224 21.4933 0.0000 0.0000 0.0000
# 4 0.0000 0.0000 0.0000 18.5089 0.0000 0.0000
# 5 0.0000 0.0000 0.0000 0.0000 21.6084 0.0000
# 6 0.0000 0.0000 0.0000 0.0000 0.0000 46.6369
#
#
#
# Elastic Compliance Matrix: (Units=1/GPa)
#
#
# Indices 1 2 3 4 5 6 
#
# 1 -3.827148 3.747377 0.592947 0.000000 0.000000 0.000000
# 2 3.747377 -3.651617 -0.588736 0.000000 0.000000 0.000000
# 3 0.592947 -0.588736 -0.041578 0.000000 0.000000 0.000000
# 4 0.000000 0.000000 0.000000 0.054028 0.000000 0.000000
# 5 0.000000 0.000000 0.000000 0.000000 0.046278 0.000000
# 6 0.000000 0.000000 0.000000 0.000000 0.000000 0.021442
#
#
# Mechanical properties :
#
#
# Convention : Reuss Voigt Hill
#
# Bulk Modulus (GPa) = -58.24434 34.84765 -11.69834
# Shear Modulus (GPa) = -0.33540 21.36674 10.51567
#
# Velocity S-wave (km/s) = -0.40454 3.22886 2.26516
# Velocity P-wave (km/s) = 5.35140 5.55914 1.06454
#
# Compressibility (1/GPa) = -0.01716905
#
# Stress axis : x y z
#
# Youngs Moduli (GPa) = -0.26129 -0.27385 -24.05094
#
# Poissons Ratio (x) = 1.02622 14.26093
# Poissons Ratio (y) = 0.97916 -14.15967
# Poissons Ratio (z) = 0.15493 -0.16123
#
# Static dielectric constant tensor:
#      x y z
#    x 1.814360 0.000000 0.000000 
#    y 0.000000 1.761390 0.000000 
#    z 0.000000 0.000000 1.817130 
# 
# From -- ./inp_files/22237.got.cif
#   From: 2010.05.17/outbox.cif.g08.bks.cpg/sg46_12_cif.got.tgz:22237.got - 2010.06.03 19:58:25.
