data_PCOD9379888
_publ_section_title
;
Structure prediction by ZEFSAII (Michael W. Deem and Ramdas Pophale) SiO2 
 PCOD9379888
Probable space group: I M A 2
;
_chemical_formula_sum "Si O2"
_cell_formula_units_Z 60
_cell_length_a 17.694154
_cell_length_b 19.273977
_cell_length_c 7.956010
_cell_angle_alpha 90.000000
_cell_angle_beta 90.000000
_cell_angle_gamma 90.000000
_cell_volume 2713.291533
_symmetry_space_group_name_H-M "I M A 2"
_symmetry_group_IT_number 46
_symmetry_cell_setting 'orthorhombic'
loop_
_space_group_symop_operation_xyz
x,y,z
-x,-y,z
1/2-x,y,z
1/2+x,-y,z
1/2+x,1/2+y,1/2+z
1/2-x,1/2-y,1/2+z
-x,1/2+y,1/2+z
x,1/2-y,1/2+z
loop_
_atom_site_type_symbol
_atom_site_label
_atom_site_fract_x
_atom_site_fract_y
_atom_site_fract_z
Si Si1 0.162428 0.536978 0.825750
Si Si2 0.157406 0.527676 0.466643
Si Si3 0.338343 0.821550 0.838389
Si Si4 0.750000 0.700162 0.349299
Si Si5 0.613719 0.174229 0.457946
Si Si6 0.841599 0.555128 0.141494
Si Si7 0.940165 0.667265 0.959725
Si Si8 0.368900 0.292382 0.625946
O O1 0.250000 0.517973 0.815450
O O2 0.127742 0.510768 0.652026
O O3 0.154400 0.619651 0.836339
O O4 0.140052 0.503115 0.001643
O O5 0.250000 0.527785 0.464466
O O6 0.135269 0.606404 0.419938
O O7 0.135383 0.475286 0.320103
O O8 0.250000 0.811271 0.881001
O O9 0.347244 0.829489 0.638810
O O10 0.381865 0.752781 0.894122
O O11 0.683756 0.673892 0.483303
O O12 0.814354 0.740483 0.232542
O O13 0.527504 0.149459 0.469150
O O14 0.750000 0.572821 0.148230
O O15 0.887931 0.620152 0.077283
O O16 0.929603 0.745246 0.028882
O O17 0.908006 0.662321 0.770226
#
# Coordination Sequence:
#
# PCOD9379888 Si02
#       8
#     8   8   8   4   8   8   8   8
#     4  10  20  40  65  93 127 168 224 281 324 393
#     4   9  19  39  64  97 128 157 218 285 329 388
#     4  11  21  37  65  98 127 168 222 274 331 399
#     4   8  16  32  62  80 110 156 212 278 314 374
#     4  12  23  37  63  93 139 177 212 273 347 409
#     4  10  22  41  66  92 125 172 222 279 335 404
#     4  11  24  40  60  92 137 174 215 271 352 403
#     4   9  19  37  56  87 122 161 213 277 331 392
#
# _framework density 22.113364000000001
#
# number of rings (size 3 to 8) (size 9 to 14) (size 15 to 20)
#    0.000    1.867    1.333    2.800    5.600    1.600 
#    4.800    0.000    2.933    0.000    0.000    0.000 
#    0.000    0.000    0.000    0.000    0.000    0.000 
#
# Total GULP energy -167042.415901 kJ/mol
# GULP energy per Si atom -5568.080530 kJ/mol
# Density = 2.206303 g / cm^3
# Si number density = 22.113364 Si / 1000 Ang^3
#
#
#
# Elastic Constant Matrix: (Units=GPa)
#
#
# Indices 1 2 3 4 5 6 
#
# 1 30.9272 0.7881 4.2000 0.0000 0.0000 0.0000
# 2 0.7881 39.8945 -5.7498 0.0000 0.0000 0.0000
# 3 4.2000 -5.7498 80.1294 0.0000 0.0000 0.0000
# 4 0.0000 0.0000 0.0000 23.8802 0.0000 0.0000
# 5 0.0000 0.0000 0.0000 0.0000 16.1620 0.0000
# 6 0.0000 0.0000 0.0000 0.0000 0.0000 16.8780
#
#
#
# Elastic Compliance Matrix: (Units=1/GPa)
#
#
# Indices 1 2 3 4 5 6 
#
# 1 0.032598 -0.000899 -0.001773 0.000000 0.000000 0.000000
# 2 -0.000899 0.025353 0.001866 0.000000 0.000000 0.000000
# 3 -0.001773 0.001866 0.012707 0.000000 0.000000 0.000000
# 4 0.000000 0.000000 0.000000 0.041876 0.000000 0.000000
# 5 0.000000 0.000000 0.000000 0.000000 0.061874 0.000000
# 6 0.000000 0.000000 0.000000 0.000000 0.000000 0.059249
#
#
# Mechanical properties :
#
#
# Convention : Reuss Voigt Hill
#
# Bulk Modulus (GPa) = 14.48336 16.60307 15.54321
# Shear Modulus (GPa) = 19.35864 21.49823 20.42844
#
# Velocity S-wave (km/s) = 2.96197 3.12137 3.04271
# Velocity P-wave (km/s) = 4.27335 4.52935 4.40321
#
# Compressibility (1/GPa) = 0.06904475
#
# Stress axis : x y z
#
# Youngs Moduli (GPa) = 30.67701 39.44330 78.69880
#
# Poissons Ratio (x) = 0.03548 0.13954
# Poissons Ratio (y) = 0.02759 -0.14688
# Poissons Ratio (z) = 0.05439 -0.07362
#
# Static dielectric constant tensor:
#      x y z
#    x 1.767700 0.000000 0.000000 
#    y 0.000000 1.870010 0.000000 
#    z 0.000000 0.000000 1.852260 
# 
# From -- ./inp_files/6810.got.cif
#   From: 2010.05.17/outbox.cif.g08.bks.cpg/sg46_4_cif.got.tgz:6810.got - 2010.06.03 19:58:25.
