data_PCOD9379449
_publ_section_title
;
Structure prediction by ZEFSAII (Michael W. Deem and Ramdas Pophale) SiO2 
 PCOD9379449
Probable space group: I M A 2
;
_chemical_formula_sum "Si O2"
_cell_formula_units_Z 64
_cell_length_a 8.795392
_cell_length_b 25.681171
_cell_length_c 15.306840
_cell_angle_alpha 90.000000
_cell_angle_beta 90.000000
_cell_angle_gamma 90.000000
_cell_volume 3457.447271
_symmetry_space_group_name_H-M "I M A 2"
_symmetry_group_IT_number 46
_symmetry_cell_setting 'orthorhombic'
loop_
_space_group_symop_operation_xyz
x,y,z
-x,-y,z
1/2-x,y,z
1/2+x,-y,z
1/2+x,1/2+y,1/2+z
1/2-x,1/2-y,1/2+z
-x,1/2+y,1/2+z
x,1/2-y,1/2+z
loop_
_atom_site_type_symbol
_atom_site_label
_atom_site_fract_x
_atom_site_fract_y
_atom_site_fract_z
Si Si1 0.571912 0.716360 0.516700
Si Si2 0.568266 0.360478 0.211791
Si Si3 0.432761 0.606779 0.544420
Si Si4 0.428865 0.263143 0.309544
Si Si5 0.566230 0.057390 0.860625
Si Si6 0.933195 0.444149 0.724042
Si Si7 0.932567 0.346870 0.845146
Si Si8 0.432583 0.166355 0.535588
O O1 0.750000 0.709901 0.536552
O O2 0.484157 0.666476 0.551133
O O3 0.555382 0.720357 0.411486
O O4 0.522338 0.772937 0.550821
O O5 0.750000 0.361018 0.202883
O O6 0.514760 0.305769 0.252685
O O7 0.522572 0.405145 0.280574
O O8 0.490984 0.366004 0.117677
O O9 0.250000 0.605874 0.544050
O O10 0.485930 0.582819 0.452344
O O11 0.485454 0.573363 0.627273
O O12 0.250000 0.262766 0.287702
O O13 0.496725 0.205313 0.303149
O O14 0.750000 0.054905 0.862600
O O15 0.500000 0.000000 0.851396
O O16 0.750000 0.447615 0.723111
O O17 0.974780 0.397987 0.790445
O O18 0.000000 0.500000 0.747440
O O19 0.750000 0.341910 0.846252
O O20 0.995087 0.350078 0.943733
O O21 0.250000 0.165033 0.528210
#
# Coordination Sequence:
#
# PCOD9379449 Si02
#       8
#     8   8   8   8   8   8   8   8
#     4   9  19  34  53  82 116 152 191 229 281 342
#     4  11  22  37  58  87 119 157 199 243 295 351
#     4  10  20  36  56  84 119 154 191 235 284 346
#     4  10  20  35  56  85 120 156 194 238 288 348
#     4  10  22  38  58  84 116 155 199 240 290 349
#     4  10  23  40  60  86 115 151 199 246 295 350
#     4  10  21  39  60  86 117 153 198 247 299 355
#     4  10  22  39  58  86 119 154 197 244 299 356
#
# _framework density 18.510767999999999
#
# number of rings (size 3 to 8) (size 9 to 14) (size 15 to 20)
#    0.000    2.000    1.250    2.625    1.750    5.500 
#    0.000    0.625    0.000    0.000    0.000    0.000 
#    0.000    0.000    0.000    0.000    0.000    0.000 
#
# Total GULP energy -178748.151543 kJ/mol
# GULP energy per Si atom -5585.879736 kJ/mol
# Density = 1.846864 g / cm^3
# Si number density = 18.510768 Si / 1000 Ang^3
#
#
#
# Elastic Constant Matrix: (Units=GPa)
#
#
# Indices 1 2 3 4 5 6 
#
# 1 26.5593 27.9720 18.8328 0.0000 0.0000 0.0000
# 2 27.9720 127.8537 60.6474 0.0001 0.0000 0.0000
# 3 18.8328 60.6474 83.5778 0.0002 0.0001 0.0000
# 4 0.0000 0.0001 0.0002 24.6761 0.0000 0.0000
# 5 0.0000 0.0000 0.0001 0.0000 12.8266 0.0000
# 6 0.0000 0.0000 0.0000 0.0000 0.0000 35.7145
#
#
#
# Elastic Compliance Matrix: (Units=1/GPa)
#
#
# Indices 1 2 3 4 5 6 
#
# 1 0.050315 -0.008585 -0.005108 0.000000 0.000000 0.000000
# 2 -0.008585 0.013392 -0.007783 0.000000 0.000000 0.000000
# 3 -0.005108 -0.007783 0.018763 0.000000 0.000000 0.000000
# 4 0.000000 0.000000 0.000000 0.040525 0.000000 0.000000
# 5 0.000000 0.000000 0.000000 0.000000 0.077963 0.000000
# 6 0.000000 0.000000 0.000000 0.000000 0.000000 0.028000
#
#
# Mechanical properties :
#
#
# Convention : Reuss Voigt Hill
#
# Bulk Modulus (GPa) = 25.30475 50.32169 37.81322
# Shear Modulus (GPa) = 17.53876 23.34601 20.44239
#
# Velocity S-wave (km/s) = 3.08147 3.55521 3.32678
# Velocity P-wave (km/s) = 5.13426 6.64054 5.93538
#
# Compressibility (1/GPa) = 0.03951827
#
# Stress axis : x y z
#
# Youngs Moduli (GPa) = 19.87470 74.67422 53.29498
#
# Poissons Ratio (x) = 0.64108 0.27223
# Poissons Ratio (y) = 0.17062 0.41479
# Poissons Ratio (z) = 0.10152 0.58118
#
# Static dielectric constant tensor:
#      x y z
#    x 1.620030 0.000000 0.000000 
#    y 0.000000 1.603490 0.000000 
#    z 0.000000 0.000000 1.654510 
# 
# From -- ./inp_files/14429.got.cif
#   From: 2010.05.17/outbox.cif.g08.bks.cpg/sg46_8_cif.got.tgz:14429.got - 2010.06.03 19:58:25.
