data_PCOD9379764
_publ_section_title
;
Structure prediction by ZEFSAII (Michael W. Deem and Ramdas Pophale) SiO2 
 PCOD9379764
Probable space group: I M A 2
;
_chemical_formula_sum "Si O2"
_cell_formula_units_Z 48
_cell_length_a 8.586649
_cell_length_b 9.298973
_cell_length_c 31.236359
_cell_angle_alpha 90.000000
_cell_angle_beta 90.000000
_cell_angle_gamma 90.000000
_cell_volume 2494.130095
_symmetry_space_group_name_H-M "I M A 2"
_symmetry_group_IT_number 46
_symmetry_cell_setting 'orthorhombic'
loop_
_space_group_symop_operation_xyz
x,y,z
-x,-y,z
1/2-x,y,z
1/2+x,-y,z
1/2+x,1/2+y,1/2+z
1/2-x,1/2-y,1/2+z
-x,1/2+y,1/2+z
x,1/2-y,1/2+z
loop_
_atom_site_type_symbol
_atom_site_label
_atom_site_fract_x
_atom_site_fract_y
_atom_site_fract_z
Si Si1 0.563567 0.838109 0.958050
Si Si2 0.437255 0.658777 0.295980
Si Si3 0.063560 0.661945 0.039128
Si Si4 0.062329 0.660633 0.198062
Si Si5 0.937600 0.339119 0.877637
Si Si6 0.436118 0.161114 0.119628
O O1 0.750000 0.839657 0.958860
O O2 0.503930 0.760125 0.915269
O O3 0.500000 0.000000 0.959655
O O4 0.500148 0.749521 0.998520
O O5 0.500000 0.500000 0.306229
O O6 0.250000 0.652107 0.296591
O O7 0.483675 0.694712 0.247221
O O8 0.486597 0.771617 0.331982
O O9 0.250000 0.660177 0.038263
O O10 0.000000 0.500000 0.037939
O O11 0.004898 0.740875 0.081835
O O12 0.250000 0.661497 0.194843
O O13 0.000000 0.500000 0.188761
O O14 0.990902 0.770749 0.164423
O O15 0.750000 0.339419 0.879991
O O16 0.000000 0.500000 0.882407
O O17 0.250000 0.160572 0.116997
O O18 0.500000 0.000000 0.115181
#
# Coordination Sequence:
#
# PCOD9379764 Si02
#       6
#     8   8   8   8   8   8
#     4  12  25  43  65  92 123 159 199 246 298 356
#     4   9  20  37  60  87 119 156 201 249 300 356
#     4  12  25  44  67  93 123 159 199 245 296 354
#     4  10  20  38  61  89 121 159 202 249 300 357
#     4  11  23  40  60  88 122 161 203 249 300 356
#     4  12  25  42  62  89 122 160 201 248 300 357
#
# _framework density 19.245187999999999
#
# number of rings (size 3 to 8) (size 9 to 14) (size 15 to 20)
#    0.000    1.000    0.000    7.500    0.000    4.000 
#    0.000    1.667    0.000    0.000    0.000    0.000 
#    0.000    0.000    0.000    0.000    0.000    0.000 
#
# Total GULP energy -134313.220466 kJ/mol
# GULP energy per Si atom -5596.384186 kJ/mol
# Density = 1.920139 g / cm^3
# Si number density = 19.245188 Si / 1000 Ang^3
#
#
#
# Elastic Constant Matrix: (Units=GPa)
#
#
# Indices 1 2 3 4 5 6 
#
# 1 152.1104 74.2242 61.6234 0.0000 0.0000 0.0000
# 2 74.2242 195.2149 109.7586 0.0000 0.0000 0.0000
# 3 61.6234 109.7586 131.8452 0.0000 0.0000 0.0000
# 4 0.0000 0.0000 0.0000 44.3208 0.0000 0.0000
# 5 0.0000 0.0000 0.0000 0.0000 34.5787 0.0000
# 6 0.0000 0.0000 0.0000 0.0000 0.0000 39.7108
#
#
#
# Elastic Compliance Matrix: (Units=1/GPa)
#
#
# Indices 1 2 3 4 5 6 
#
# 1 0.008457 -0.001867 -0.002399 0.000000 0.000000 0.000000
# 2 -0.001867 0.010042 -0.007487 0.000000 0.000000 0.000000
# 3 -0.002399 -0.007487 0.014939 0.000000 0.000000 0.000000
# 4 0.000000 0.000000 0.000000 0.022563 0.000000 0.000000
# 5 0.000000 0.000000 0.000000 0.000000 0.028920 0.000000
# 6 0.000000 0.000000 0.000000 0.000000 0.000000 0.025182
#
#
# Mechanical properties :
#
#
# Convention : Reuss Voigt Hill
#
# Bulk Modulus (GPa) = 100.68179 107.82032 104.25105
# Shear Modulus (GPa) = 36.51822 39.29302 37.90562
#
# Velocity S-wave (km/s) = 4.36078 4.52343 4.44285
# Velocity P-wave (km/s) = 8.81953 9.13389 8.97809
#
# Compressibility (1/GPa) = 0.00993228
#
# Stress axis : x y z
#
# Youngs Moduli (GPa) = 118.24756 99.58133 66.94029
#
# Poissons Ratio (x) = 0.18591 0.16056
# Poissons Ratio (y) = 0.22075 0.50120
# Poissons Ratio (z) = 0.28362 0.74559
#
# Static dielectric constant tensor:
#      x y z
#    x 1.643610 0.000000 0.000000 
#    y 0.000000 1.621950 0.000000 
#    z 0.000000 0.000000 1.662640 
# 
# From -- ./inp_files/25006.got.cif
#   From: 2010.05.17/outbox.cif.g08.bks.cpg/sg46_13_cif.got.tgz:25006.got - 2010.06.03 19:58:25.
