data_PCOD9379811
_publ_section_title
;
Structure prediction by ZEFSAII (Michael W. Deem and Ramdas Pophale) SiO2 
 PCOD9379811
Probable space group: I M A 2
;
_chemical_formula_sum "Si O2"
_cell_formula_units_Z 56
_cell_length_a 14.900853
_cell_length_b 5.149954
_cell_length_c 30.602286
_cell_angle_alpha 90.000000
_cell_angle_beta 90.000000
_cell_angle_gamma 90.000000
_cell_volume 2348.379875
_symmetry_space_group_name_H-M "I M A 2"
_symmetry_group_IT_number 46
_symmetry_cell_setting 'orthorhombic'
loop_
_space_group_symop_operation_xyz
x,y,z
-x,-y,z
1/2-x,y,z
1/2+x,-y,z
1/2+x,1/2+y,1/2+z
1/2-x,1/2-y,1/2+z
-x,1/2+y,1/2+z
x,1/2-y,1/2+z
loop_
_atom_site_type_symbol
_atom_site_label
_atom_site_fract_x
_atom_site_fract_y
_atom_site_fract_z
Si Si1 0.853378 0.392037 0.996600
Si Si2 0.390735 0.495237 0.699439
Si Si3 0.000000 0.500000 0.399207
Si Si4 0.409591 0.635232 0.828436
Si Si5 0.905842 0.611138 0.547193
Si Si6 0.750000 0.888054 0.121255
Si Si7 0.847483 0.852140 0.409324
Si Si8 0.892033 0.490806 0.251517
O O1 0.750000 0.441915 0.009179
O O2 0.856339 0.416686 0.944223
O O3 0.879038 0.110567 0.012830
O O4 0.908398 0.615337 0.021836
O O5 0.500000 0.500000 0.692519
O O6 0.329502 0.415974 0.659070
O O7 0.367743 0.789775 0.713183
O O8 0.367762 0.283989 0.737957
O O9 0.947236 0.313306 0.366728
O O10 0.928296 0.670359 0.423264
O O11 0.500000 0.500000 0.808755
O O12 0.356341 0.427556 0.858006
O O13 0.362820 0.830444 0.794602
O O14 0.829217 0.628132 0.583618
O O15 0.000000 0.500000 0.565782
O O16 0.750000 0.731095 0.415947
O O17 0.000000 0.500000 0.255606
#
# Coordination Sequence:
#
# PCOD9379811 Si02
#       8
#     8   8   4   8   8   4   8   8
#     4  11  24  49  71 107 150 195 241 306 367 431
#     4  10  24  42  71 101 138 186 234 298 368 438
#     4  10  22  38  68 100 134 206 238 302 354 430
#     4  10  20  38  65  98 140 198 242 299 354 420
#     4  12  27  46  79 108 145 192 239 305 372 452
#     4  12  26  52  72 108 146 180 242 306 376 458
#     4  10  25  42  66 104 151 195 251 306 363 425
#     4  10  20  41  68 100 138 189 241 292 355 426
#
# _framework density 23.846226999999999
#
# number of rings (size 3 to 8) (size 9 to 14) (size 15 to 20)
#    0.000    1.429    2.143    2.143    5.000    5.714 
#    2.571    2.857    0.000    0.000    0.000    0.000 
#    0.000    0.000    0.000    0.000    0.000    0.000 
#
# Total GULP energy -155872.577298 kJ/mol
# GULP energy per Si atom -5566.877761 kJ/mol
# Density = 2.379195 g / cm^3
# Si number density = 23.846227 Si / 1000 Ang^3
#
#
#
# Elastic Constant Matrix: (Units=GPa)
#
#
# Indices 1 2 3 4 5 6 
#
# 1 124.6220 12.9479 49.0772 0.0000 0.0000 0.0000
# 2 12.9479 103.2852 26.3281 0.0000 0.0000 0.0000
# 3 49.0772 26.3281 116.9400 0.0000 0.0000 0.0000
# 4 0.0000 0.0000 0.0000 -37.1930 0.0000 0.0000
# 5 0.0000 0.0000 0.0000 0.0000 22.3900 0.0000
# 6 0.0000 0.0000 0.0000 0.0000 0.0000 2.1655
#
#
#
# Elastic Compliance Matrix: (Units=1/GPa)
#
#
# Indices 1 2 3 4 5 6 
#
# 1 0.009616 -0.000188 -0.003994 0.000000 0.000000 0.000000
# 2 -0.000188 0.010275 -0.002235 0.000000 0.000000 0.000000
# 3 -0.003994 -0.002235 0.010731 0.000000 0.000000 0.000000
# 4 0.000000 0.000000 0.000000 -0.026887 0.000000 0.000000
# 5 0.000000 0.000000 0.000000 0.000000 0.044663 0.000000
# 6 0.000000 0.000000 0.000000 0.000000 0.000000 0.461795
#
#
# Mechanical properties :
#
#
# Convention : Reuss Voigt Hill
#
# Bulk Modulus (GPa) = 56.20975 57.95040 57.08007
# Shear Modulus (GPa) = 9.45261 14.57210 12.01235
#
# Velocity S-wave (km/s) = 1.99314 2.47470 2.24686
# Velocity P-wave (km/s) = 5.37771 5.70263 5.54255
#
# Compressibility (1/GPa) = 0.01779051
#
# Stress axis : x y z
#
# Youngs Moduli (GPa) = 103.98827 97.32305 93.19194
#
# Poissons Ratio (x) = 0.01825 0.37217
# Poissons Ratio (y) = 0.01950 0.20825
# Poissons Ratio (z) = 0.41529 0.21748
#
# Static dielectric constant tensor:
#      x y z
#    x 1.868560 0.000000 0.000000 
#    y 0.000000 1.991550 0.000000 
#    z 0.000000 0.000000 1.879580 
# 
# From -- ./inp_files/25430.got.cif
#   From: 2010.05.17/outbox.cif.g08.bks.cpg/sg46_13_cif.got.tgz:25430.got - 2010.06.03 19:58:25.
