data_PCOD9379845
_publ_section_title
;
Structure prediction by ZEFSAII (Michael W. Deem and Ramdas Pophale) SiO2 
 PCOD9379845
Probable space group: I M A 2
;
_chemical_formula_sum "Si O2"
_cell_formula_units_Z 56
_cell_length_a 14.292609
_cell_length_b 21.432741
_cell_length_c 7.504075
_cell_angle_alpha 90.000000
_cell_angle_beta 90.000000
_cell_angle_gamma 90.000000
_cell_volume 2298.721696
_symmetry_space_group_name_H-M "I M A 2"
_symmetry_group_IT_number 46
_symmetry_cell_setting 'orthorhombic'
loop_
_space_group_symop_operation_xyz
x,y,z
-x,-y,z
1/2-x,y,z
1/2+x,-y,z
1/2+x,1/2+y,1/2+z
1/2-x,1/2-y,1/2+z
-x,1/2+y,1/2+z
x,1/2-y,1/2+z
loop_
_atom_site_type_symbol
_atom_site_label
_atom_site_fract_x
_atom_site_fract_y
_atom_site_fract_z
Si Si1 0.551449 0.170140 0.631860
Si Si2 0.357341 0.214109 0.609317
Si Si3 0.860244 0.218461 0.973940
Si Si4 0.355988 0.345471 0.716804
Si Si5 0.638274 0.977346 0.334165
Si Si6 0.358097 0.586528 0.585799
Si Si7 0.408181 0.966072 0.704025
O O1 0.444770 0.178674 0.697698
O O2 0.626676 0.192879 0.775824
O O3 0.575593 0.220167 0.481118
O O4 0.569726 0.098107 0.600111
O O5 0.250000 0.210219 0.682929
O O6 0.387678 0.286615 0.601258
O O7 0.352963 0.184458 0.414078
O O8 0.750000 0.230384 0.007761
O O9 0.896085 0.157459 0.083577
O O10 0.250000 0.356723 0.651778
O O11 0.400251 0.412950 0.750150
O O12 0.750000 0.974492 0.306857
O O13 0.627802 0.988299 0.546833
O O14 0.602046 0.036349 0.223014
O O15 0.250000 0.595769 0.636593
O O16 0.358581 0.556194 0.386238
O O17 0.500000 0.000000 0.773322
#
# Coordination Sequence:
#
# PCOD9379845 Si02
#       7
#     8   8   8   8   8   8   8
#     4  11  23  39  62  95 128 167 219 266 328 401
#     4  10  20  39  63  89 128 165 209 268 320 383
#     4  10  22  40  63  94 130 166 213 273 338 403
#     4   9  19  37  60  92 123 161 214 266 327 391
#     4  10  21  41  67  92 124 170 223 271 331 402
#     4   9  21  43  65  91 126 169 222 277 333 400
#     4  11  24  41  61  93 133 172 219 273 331 392
#
# _framework density 24.361366
#
# number of rings (size 3 to 8) (size 9 to 14) (size 15 to 20)
#    0.000    2.000    0.000    2.571    2.000    2.286 
#   10.286    0.714    0.000    0.000    0.000    0.000 
#    0.000    0.000    0.000    0.000    0.000    0.000 
#
# Total GULP energy -156090.094407 kJ/mol
# GULP energy per Si atom -5574.646229 kJ/mol
# Density = 2.430592 g / cm^3
# Si number density = 24.361366 Si / 1000 Ang^3
#
#
#
# Elastic Constant Matrix: (Units=GPa)
#
#
# Indices 1 2 3 4 5 6 
#
# 1 82.5675 25.5297 -13.1672 0.0000 0.0001 0.0000
# 2 25.5297 85.3270 2.6010 0.0000 0.0003 0.0000
# 3 -13.1672 2.6010 45.2001 0.0001 -0.0013 0.0000
# 4 0.0000 0.0000 0.0001 37.4869 -0.0004 0.0000
# 5 0.0001 0.0003 -0.0013 -0.0004 -324.1734 0.0000
# 6 0.0000 0.0000 0.0000 0.0000 0.0000 21.0444
#
#
#
# Elastic Compliance Matrix: (Units=1/GPa)
#
#
# Indices 1 2 3 4 5 6 
#
# 1 0.014160 -0.004370 0.004377 0.000000 0.000000 0.000000
# 2 -0.004370 0.013089 -0.002026 0.000000 0.000000 0.000000
# 3 0.004377 -0.002026 0.023515 0.000000 0.000000 0.000000
# 4 0.000000 0.000000 0.000000 0.026676 0.000000 0.000000
# 5 0.000000 0.000000 0.000000 0.000000 -0.003085 0.000000
# 6 0.000000 0.000000 0.000000 0.000000 0.000000 0.047519
#
#
# Mechanical properties :
#
#
# Convention : Reuss Voigt Hill
#
# Bulk Modulus (GPa) = 21.40185 27.00241 24.20213
# Shear Modulus (GPa) = 35.33833 -39.91968 -2.29067
#
# Velocity S-wave (km/s) = 3.81279 -4.05241 -0.97074
# Velocity P-wave (km/s) = 5.30918 3.28449 2.94954
#
# Compressibility (1/GPa) = 0.04672493
#
# Stress axis : x y z
#
# Youngs Moduli (GPa) = 70.61900 76.40035 42.52542
#
# Poissons Ratio (x) = 0.33389 -0.18611
# Poissons Ratio (y) = 0.30862 0.08617
# Poissons Ratio (z) = -0.30907 0.15481
#
# Static dielectric constant tensor:
#      x y z
#    x 2.405200 0.000000 0.000000 
#    y 0.000000 2.065140 0.000000 
#    z 0.000000 0.000000 1.989450 
# 
# From -- ./inp_files/5944.got.cif
#   From: 2010.05.17/outbox.cif.g08.bks.cpg/sg46_3_cif.got.tgz:5944.got - 2010.06.03 19:58:25.
