data_PCOD9379635
_publ_section_title
;
Structure prediction by ZEFSAII (Michael W. Deem and Ramdas Pophale) SiO2 
 PCOD9379635
Probable space group: I M A 2
;
_chemical_formula_sum "Si O2"
_cell_formula_units_Z 48
_cell_length_a 13.937208
_cell_length_b 16.200606
_cell_length_c 9.169656
_cell_angle_alpha 90.000000
_cell_angle_beta 90.000000
_cell_angle_gamma 90.000000
_cell_volume 2070.427774
_symmetry_space_group_name_H-M "I M A 2"
_symmetry_group_IT_number 46
_symmetry_cell_setting 'orthorhombic'
loop_
_space_group_symop_operation_xyz
x,y,z
-x,-y,z
1/2-x,y,z
1/2+x,-y,z
1/2+x,1/2+y,1/2+z
1/2-x,1/2-y,1/2+z
-x,1/2+y,1/2+z
x,1/2-y,1/2+z
loop_
_atom_site_type_symbol
_atom_site_label
_atom_site_fract_x
_atom_site_fract_y
_atom_site_fract_z
Si Si1 0.591958 0.662461 0.927990
Si Si2 0.428614 0.828586 0.813326
Si Si3 0.364863 0.668141 0.641626
Si Si4 0.855496 0.670893 0.264197
Si Si5 0.145547 0.502675 0.776994
Si Si6 0.076767 0.925520 0.558174
O O1 0.631810 0.737990 0.833986
O O2 0.601972 0.584484 0.820380
O O3 0.643444 0.665021 0.087207
O O4 0.483599 0.650393 0.988100
O O5 0.417558 0.740344 0.731612
O O6 0.539643 0.861593 0.815701
O O7 0.378545 0.894583 0.707140
O O8 0.384654 0.821927 0.971378
O O9 0.250000 0.672952 0.672383
O O10 0.399754 0.575445 0.682056
O O11 0.750000 0.638710 0.311320
O O12 0.250000 0.486182 0.714544
O O13 0.148863 0.544613 0.936664
O O14 0.000000 0.000000 0.578824
#
# Coordination Sequence:
#
# PCOD9379635 Si02
#       6
#     8   8   8   8   8   8
#     4  10  21  38  59  86 120 155 197 243 296 361
#     4  11  22  39  59  88 123 156 202 254 296 356
#     4  11  23  38  61  89 120 161 205 251 305 358
#     4  11  21  36  61  89 119 158 198 243 299 361
#     4  10  20  37  59  84 115 153 196 245 301 361
#     4   9  20  38  59  84 117 159 197 240 298 355
#
# _framework density 23.183615
#
# number of rings (size 3 to 8) (size 9 to 14) (size 15 to 20)
#    0.000    1.667    0.000    6.000    0.000    2.667 
#    0.000    9.167    0.000    6.000    0.000    0.000 
#    0.000    0.000    0.000    0.000    0.000    0.000 
#
# Total GULP energy -133651.961807 kJ/mol
# GULP energy per Si atom -5568.831742 kJ/mol
# Density = 2.313085 g / cm^3
# Si number density = 23.183615 Si / 1000 Ang^3
#
#
#
# Elastic Constant Matrix: (Units=GPa)
#
#
# Indices 1 2 3 4 5 6 
#
# 1 82.0566 -19.8564 -12.3555 0.0000 0.0000 0.0000
# 2 -19.8564 39.5454 29.9490 0.0000 0.0000 0.0000
# 3 -12.3555 29.9490 93.0811 0.0000 0.0000 0.0000
# 4 0.0000 0.0000 0.0000 44.2583 0.0000 0.0000
# 5 0.0000 0.0000 0.0000 0.0000 21.6153 0.0000
# 6 0.0000 0.0000 0.0000 0.0000 0.0000 10.2741
#
#
#
# Elastic Compliance Matrix: (Units=1/GPa)
#
#
# Indices 1 2 3 4 5 6 
#
# 1 0.013892 0.007376 -0.000529 0.000000 0.000000 0.000000
# 2 0.007376 0.037351 -0.011039 0.000000 0.000000 0.000000
# 3 -0.000529 -0.011039 0.014225 0.000000 0.000000 0.000000
# 4 0.000000 0.000000 0.000000 0.022595 0.000000 0.000000
# 5 0.000000 0.000000 0.000000 0.000000 0.046264 0.000000
# 6 0.000000 0.000000 0.000000 0.000000 0.000000 0.097332
#
#
# Mechanical properties :
#
#
# Convention : Reuss Voigt Hill
#
# Bulk Modulus (GPa) = 17.51798 23.35084 20.43441
# Shear Modulus (GPa) = 19.29983 29.69259 24.49621
#
# Velocity S-wave (km/s) = 2.88840 3.58265 3.25409
# Velocity P-wave (km/s) = 4.32393 5.21611 4.79084
#
# Compressibility (1/GPa) = 0.05708420
#
# Stress axis : x y z
#
# Youngs Moduli (GPa) = 71.98425 26.77308 70.30003
#
# Poissons Ratio (x) = -0.19748 0.03721
# Poissons Ratio (y) = -0.53097 0.77601
# Poissons Ratio (z) = 0.03810 0.29554
#
# Static dielectric constant tensor:
#      x y z
#    x 1.950390 0.000000 0.000000 
#    y 0.000000 1.948680 0.000000 
#    z 0.000000 0.000000 1.869290 
# 
# From -- ./inp_files/5701.got.cif
#   From: 2010.05.17/outbox.cif.g08.bks.cpg/sg46_3_cif.got.tgz:5701.got - 2010.06.03 19:58:25.
