data_PCOD9379573
_publ_section_title
;
Structure prediction by ZEFSAII (Michael W. Deem and Ramdas Pophale) SiO2 
 PCOD9379573
Probable space group: I M A 2
;
_chemical_formula_sum "Si O2"
_cell_formula_units_Z 48
_cell_length_a 8.758779
_cell_length_b 31.353672
_cell_length_c 9.249239
_cell_angle_alpha 90.000000
_cell_angle_beta 90.000000
_cell_angle_gamma 90.000000
_cell_volume 2540.024940
_symmetry_space_group_name_H-M "I M A 2"
_symmetry_group_IT_number 46
_symmetry_cell_setting 'orthorhombic'
loop_
_space_group_symop_operation_xyz
x,y,z
-x,-y,z
1/2-x,y,z
1/2+x,-y,z
1/2+x,1/2+y,1/2+z
1/2-x,1/2-y,1/2+z
-x,1/2+y,1/2+z
x,1/2-y,1/2+z
loop_
_atom_site_type_symbol
_atom_site_label
_atom_site_fract_x
_atom_site_fract_y
_atom_site_fract_z
Si Si1 0.567264 0.545189 0.716560
Si Si2 0.431846 0.545504 0.036212
Si Si3 0.433044 0.288959 0.034875
Si Si4 0.433259 0.369477 0.542857
Si Si5 0.566879 0.875704 0.706068
Si Si6 0.431809 0.789900 0.213503
O O1 0.500000 0.500000 0.665586
O O2 0.750000 0.541593 0.729751
O O3 0.531670 0.584502 0.611858
O O4 0.498105 0.553557 0.875372
O O5 0.500000 0.500000 0.084133
O O6 0.250000 0.542655 0.028671
O O7 0.484192 0.583535 0.139305
O O8 0.250000 0.283791 0.034077
O O9 0.494331 0.289480 0.872155
O O10 0.469424 0.333541 0.113915
O O11 0.506779 0.250302 0.123207
O O12 0.250000 0.362683 0.556017
O O13 0.472716 0.368683 0.373698
O O14 0.517252 0.332547 0.630262
O O15 0.750000 0.882578 0.697600
O O16 0.250000 0.787985 0.225567
#
# Coordination Sequence:
#
# PCOD9379573 Si02
#       6
#     8   8   8   8   8   8
#     4  10  20  36  59  85 115 152 196 244 293 350
#     4  11  22  37  59  85 116 153 194 241 293 350
#     4  11  23  41  65  88 118 161 202 240 293 362
#     4  10  22  40  61  86 119 159 199 239 292 358
#     4  10  22  40  61  86 116 153 198 243 288 346
#     4  12  25  40  62  92 124 154 195 251 299 344
#
# _framework density 18.897452000000001
#
# number of rings (size 3 to 8) (size 9 to 14) (size 15 to 20)
#    0.000    1.333    0.000    7.000    0.000    9.333 
#    0.000    1.667    0.000    0.000    0.000    0.000 
#    0.000    0.000    0.000    0.000    0.000    0.000 
#
# Total GULP energy -134256.127704 kJ/mol
# GULP energy per Si atom -5594.005321 kJ/mol
# Density = 1.885444 g / cm^3
# Si number density = 18.897452 Si / 1000 Ang^3
#
#
#
# Elastic Constant Matrix: (Units=GPa)
#
#
# Indices 1 2 3 4 5 6 
#
# 1 75.4980 62.0528 46.8399 -0.0002 -0.0004 0.0000
# 2 62.0528 130.8381 78.7456 -0.0001 -0.0004 0.0000
# 3 46.8399 78.7456 121.9670 0.0004 -0.0005 0.0000
# 4 -0.0002 -0.0001 0.0004 38.9439 -0.0002 -0.0001
# 5 -0.0004 -0.0004 -0.0005 -0.0002 20.9600 -0.0001
# 6 0.0000 0.0000 0.0000 -0.0001 -0.0001 35.9286
#
#
#
# Elastic Compliance Matrix: (Units=1/GPa)
#
#
# Indices 1 2 3 4 5 6 
#
# 1 0.022292 -0.008864 -0.002838 0.000000 0.000000 0.000000
# 2 -0.008864 0.016025 -0.006942 0.000000 0.000000 0.000000
# 3 -0.002838 -0.006942 0.013771 0.000000 0.000000 0.000000
# 4 0.000000 0.000000 0.000000 0.025678 0.000000 0.000000
# 5 0.000000 0.000000 0.000000 0.000000 0.047710 0.000000
# 6 0.000000 0.000000 0.000000 0.000000 0.000000 0.027833
#
#
# Mechanical properties :
#
#
# Convention : Reuss Voigt Hill
#
# Bulk Modulus (GPa) = 67.57106 78.17552 72.87329
# Shear Modulus (GPa) = 25.57145 28.54415 27.05780
#
# Velocity S-wave (km/s) = 3.68254 3.89070 3.78805
# Velocity P-wave (km/s) = 7.34273 7.85121 7.60123
#
# Compressibility (1/GPa) = 0.01479924
#
# Stress axis : x y z
#
# Youngs Moduli (GPa) = 44.85972 62.40104 72.61728
#
# Poissons Ratio (x) = 0.55315 0.20607
# Poissons Ratio (y) = 0.39766 0.50412
# Poissons Ratio (z) = 0.12730 0.43320
#
# Static dielectric constant tensor:
#      x y z
#    x 1.636410 0.000000 0.000000 
#    y 0.000000 1.629140 0.000000 
#    z 0.000000 0.000000 1.621940 
# 
# From -- ./inp_files/3907.got.cif
#   From: 2010.05.17/outbox.cif.g08.bks.cpg/sg46_2_cif.got.tgz:3907.got - 2010.06.03 19:58:25.
