data_PCOD9379824
_publ_section_title
;
Structure prediction by ZEFSAII (Michael W. Deem and Ramdas Pophale) SiO2 
 PCOD9379824
Probable space group: I M A 2
;
_chemical_formula_sum "Si O2"
_cell_formula_units_Z 64
_cell_length_a 15.932035
_cell_length_b 11.934841
_cell_length_c 15.312093
_cell_angle_alpha 90.000000
_cell_angle_beta 90.000000
_cell_angle_gamma 90.000000
_cell_volume 2911.537899
_symmetry_space_group_name_H-M "I M A 2"
_symmetry_group_IT_number 46
_symmetry_cell_setting 'orthorhombic'
loop_
_space_group_symop_operation_xyz
x,y,z
-x,-y,z
1/2-x,y,z
1/2+x,-y,z
1/2+x,1/2+y,1/2+z
1/2-x,1/2-y,1/2+z
-x,1/2+y,1/2+z
x,1/2-y,1/2+z
loop_
_atom_site_type_symbol
_atom_site_label
_atom_site_fract_x
_atom_site_fract_y
_atom_site_fract_z
Si Si1 0.154908 0.762999 0.810120
Si Si2 0.853074 0.031994 0.249537
Si Si3 0.421237 0.331052 0.417813
Si Si4 0.152604 0.013408 0.779510
Si Si5 0.650539 0.499670 0.557904
Si Si6 0.652257 0.592724 0.923389
Si Si7 0.407326 0.973048 0.595240
Si Si8 0.400153 0.755633 0.994719
O O1 0.250000 0.775782 0.776991
O O2 0.115385 0.660051 0.757919
O O3 0.155756 0.724449 0.910745
O O4 0.120750 0.888779 0.805829
O O5 0.750000 0.035640 0.250388
O O6 0.880366 0.962502 0.333824
O O7 0.877428 0.979866 0.157323
O O8 0.405948 0.394982 0.326190
O O9 0.396670 0.422540 0.489968
O O10 0.359767 0.225148 0.418839
O O11 0.510324 0.280668 0.448342
O O12 0.250000 0.027729 0.810130
O O13 0.151083 0.010828 0.674717
O O14 0.750000 0.520186 0.550685
O O15 0.633146 0.370340 0.535606
O O16 0.750000 0.564125 0.931821
O O17 0.606776 0.543987 0.007766
O O18 0.400081 0.844047 0.564807
O O19 0.500000 0.000000 0.628216
#
# Coordination Sequence:
#
# PCOD9379824 Si02
#       8
#     8   8   8   8   8   8   8   8
#     4  10  20  38  68 100 125 165 221 278 342 401
#     4   9  20  39  66  97 125 163 223 283 332 387
#     4  12  26  44  64 100 141 182 225 273 350 425
#     4  11  25  44  70 100 133 179 232 286 344 413
#     4  11  23  42  69  99 130 173 230 285 338 412
#     4  11  23  44  70  94 132 183 231 282 337 418
#     4  12  26  45  66 101 137 178 229 286 351 416
#     4  12  24  42  68  98 137 178 221 284 352 411
#
# _framework density 21.98151
#
# number of rings (size 3 to 8) (size 9 to 14) (size 15 to 20)
#    0.000    1.000    3.750    3.000    1.750    3.500 
#    0.000    5.000    0.000    0.000    0.000    0.000 
#    0.000    0.000    0.000    0.000    0.000    0.000 
#
# Total GULP energy -178878.191828 kJ/mol
# GULP energy per Si atom -5589.943495 kJ/mol
# Density = 2.193148 g / cm^3
# Si number density = 21.981510 Si / 1000 Ang^3
#
#
#
# Elastic Constant Matrix: (Units=GPa)
#
#
# Indices 1 2 3 4 5 6 
#
# 1 56.0489 -1.6688 6.7387 0.0000 0.0000 0.0000
# 2 -1.6688 114.3092 31.9720 0.0000 0.0000 0.0000
# 3 6.7387 31.9720 124.9544 0.0000 0.0000 0.0000
# 4 0.0000 0.0000 0.0000 10.3936 0.0000 0.0000
# 5 0.0000 0.0000 0.0000 0.0000 7.7507 0.0000
# 6 0.0000 0.0000 0.0000 0.0000 0.0000 19.7743
#
#
#
# Elastic Compliance Matrix: (Units=1/GPa)
#
#
# Indices 1 2 3 4 5 6 
#
# 1 0.017993 0.000575 -0.001118 0.000000 0.000000 0.000000
# 2 0.000575 0.009441 -0.002447 0.000000 0.000000 0.000000
# 3 -0.001118 -0.002447 0.008689 0.000000 0.000000 0.000000
# 4 0.000000 0.000000 0.000000 0.096213 0.000000 0.000000
# 5 0.000000 0.000000 0.000000 0.000000 0.129021 0.000000
# 6 0.000000 0.000000 0.000000 0.000000 0.000000 0.050571
#
#
# Mechanical properties :
#
#
# Convention : Reuss Voigt Hill
#
# Bulk Modulus (GPa) = 33.17271 41.04405 37.10838
# Shear Modulus (GPa) = 15.24607 24.80177 20.02392
#
# Velocity S-wave (km/s) = 2.63646 3.36266 3.02146
# Velocity P-wave (km/s) = 4.93881 5.81286 5.39357
#
# Compressibility (1/GPa) = 0.03014526
#
# Stress axis : x y z
#
# Youngs Moduli (GPa) = 55.57705 105.92182 115.08519
#
# Poissons Ratio (x) = -0.06093 0.12861
# Poissons Ratio (y) = -0.03197 0.28158
# Poissons Ratio (z) = 0.06211 0.25916
#
# Static dielectric constant tensor:
#      x y z
#    x 1.837570 0.000000 0.000000 
#    y 0.000000 1.784870 0.000000 
#    z 0.000000 0.000000 1.802170 
# 
# From -- ./inp_files/16766.got.cif
#   From: 2010.05.17/outbox.cif.g08.bks.cpg/sg46_9_cif.got.tgz:16766.got - 2010.06.03 19:58:25.
