data_PCOD9379420
_publ_section_title
;
Structure prediction by ZEFSAII (Michael W. Deem and Ramdas Pophale) SiO2 
 PCOD9379420
Probable space group: I M A 2
;
_chemical_formula_sum "Si O2"
_cell_formula_units_Z 64
_cell_length_a 15.089594
_cell_length_b 9.227258
_cell_length_c 21.796681
_cell_angle_alpha 90.000000
_cell_angle_beta 90.000000
_cell_angle_gamma 90.000000
_cell_volume 3034.873455
_symmetry_space_group_name_H-M "I M A 2"
_symmetry_group_IT_number 46
_symmetry_cell_setting 'orthorhombic'
loop_
_space_group_symop_operation_xyz
x,y,z
-x,-y,z
1/2-x,y,z
1/2+x,-y,z
1/2+x,1/2+y,1/2+z
1/2-x,1/2-y,1/2+z
-x,1/2+y,1/2+z
x,1/2-y,1/2+z
loop_
_atom_site_type_symbol
_atom_site_label
_atom_site_fract_x
_atom_site_fract_y
_atom_site_fract_z
Si Si1 0.904557 0.424809 0.304610
Si Si2 0.356918 0.603589 0.663068
Si Si3 0.404557 0.424809 0.912228
Si Si4 0.148556 0.606651 0.798797
Si Si5 0.401175 0.432932 0.047618
Si Si6 0.856918 0.896411 0.053770
Si Si7 0.851444 0.893348 0.918041
Si Si8 0.901175 0.067068 0.669220
O O1 0.908618 0.250992 0.309819
O O2 0.857996 0.492761 0.363565
O O3 0.862558 0.457728 0.237467
O O4 0.000000 0.500000 0.304582
O O5 0.250000 0.623638 0.656988
O O6 0.373878 0.543613 0.731657
O O7 0.386100 0.500000 0.608419
O O8 0.401481 0.760549 0.660142
O O9 0.500000 0.500000 0.912255
O O10 0.357996 0.492761 0.853273
O O11 0.408618 0.250992 0.907019
O O12 0.362558 0.457727 0.979371
O O13 0.250000 0.659682 0.795315
O O14 0.500000 0.500000 0.045301
O O15 0.401481 0.260549 0.056696
O O16 0.357417 0.500000 0.108419
O O17 0.750000 0.876362 0.059850
O O18 0.873878 0.956387 0.985180
O O19 0.750000 0.840317 0.921522
O O20 0.000000 0.000000 0.671536
#
# Coordination Sequence:
#
# PCOD9379420 Si02
#       8
#     8   8   8   8   8   8   8   8
#     4  10  20  35  55  78 108 144 180 221 269 323
#     4   9  19  36  56  80 111 145 181 223 272 326
#     4  10  20  35  55  78 108 144 180 221 269 323
#     4  10  20  35  55  81 112 142 179 225 269 318
#     4   9  19  36  55  78 108 141 181 226 271 321
#     4   9  19  36  56  80 111 145 181 223 272 326
#     4  10  20  35  55  81 112 142 179 225 269 318
#     4   9  19  36  55  78 108 141 181 226 271 321
#
# _framework density 21.088194999999999
#
# number of rings (size 3 to 8) (size 9 to 14) (size 15 to 20)
#    0.000    2.500    0.000    1.500    0.000    3.500 
#    0.000   10.000    0.000    0.000    0.000    0.000 
#    0.000    0.000    0.000    0.000    0.000    0.000 
#
# Total GULP energy -178465.854911 kJ/mol
# GULP energy per Si atom -5577.057966 kJ/mol
# Density = 2.104020 g / cm^3
# Si number density = 21.088195 Si / 1000 Ang^3
#
#
#
# Elastic Constant Matrix: (Units=GPa)
#
#
# Indices 1 2 3 4 5 6 
#
# 1 50.5678 15.8380 17.7888 0.0000 0.0000 0.0000
# 2 15.8380 88.6690 94.9532 0.0000 0.0000 0.0000
# 3 17.7888 94.9532 232.9588 0.0000 0.0000 0.0000
# 4 0.0000 0.0000 0.0000 44.1740 0.0000 0.0000
# 5 0.0000 0.0000 0.0000 0.0000 16.9806 0.0000
# 6 0.0000 0.0000 0.0000 0.0000 0.0000 25.6298
#
#
#
# Elastic Compliance Matrix: (Units=1/GPa)
#
#
# Indices 1 2 3 4 5 6 
#
# 1 0.020950 -0.003600 -0.000132 0.000000 0.000000 0.000000
# 2 -0.003600 0.020632 -0.008135 0.000000 0.000000 0.000000
# 3 -0.000132 -0.008135 0.007618 0.000000 0.000000 0.000000
# 4 0.000000 0.000000 0.000000 0.022638 0.000000 0.000000
# 5 0.000000 0.000000 0.000000 0.000000 0.058891 0.000000
# 6 0.000000 0.000000 0.000000 0.000000 0.000000 0.039017
#
#
# Mechanical properties :
#
#
# Convention : Reuss Voigt Hill
#
# Bulk Modulus (GPa) = 39.26874 69.92840 54.59857
# Shear Modulus (GPa) = 24.75630 33.59793 29.17711
#
# Velocity S-wave (km/s) = 3.43000 3.99583 3.72368
# Velocity P-wave (km/s) = 5.86073 7.38383 6.66592
#
# Compressibility (1/GPa) = 0.02546555
#
# Stress axis : x y z
#
# Youngs Moduli (GPa) = 47.73365 48.46784 131.26157
#
# Poissons Ratio (x) = 0.17451 0.01735
# Poissons Ratio (y) = 0.17186 1.06777
# Poissons Ratio (z) = 0.00631 0.39427
#
# Static dielectric constant tensor:
#      x y z
#    x 1.822370 0.000000 0.000000 
#    y 0.000000 1.700850 0.000000 
#    z 0.000000 0.000000 1.820150 
# 
# From -- ./inp_files/23685.got.cif
#   From: 2010.05.17/outbox.cif.g08.bks.cpg/sg46_12_cif.got.tgz:23685.got - 2010.06.03 19:58:25.
