data_PCOD9379228
_publ_section_title
;
Structure prediction by ZEFSAII (Michael W. Deem and Ramdas Pophale) SiO2 
 PCOD9379228
Probable space group: I M A 2
;
_chemical_formula_sum "Si O2"
_cell_formula_units_Z 64
_cell_length_a 8.771218
_cell_length_b 23.846911
_cell_length_c 19.582973
_cell_angle_alpha 90.000000
_cell_angle_beta 90.000000
_cell_angle_gamma 90.000000
_cell_volume 4096.101041
_symmetry_space_group_name_H-M "I M A 2"
_symmetry_group_IT_number 46
_symmetry_cell_setting 'orthorhombic'
loop_
_space_group_symop_operation_xyz
x,y,z
-x,-y,z
1/2-x,y,z
1/2+x,-y,z
1/2+x,1/2+y,1/2+z
1/2-x,1/2-y,1/2+z
-x,1/2+y,1/2+z
x,1/2-y,1/2+z
loop_
_atom_site_type_symbol
_atom_site_label
_atom_site_fract_x
_atom_site_fract_y
_atom_site_fract_z
Si Si1 0.568579 0.061811 0.740590
Si Si2 0.569087 0.245469 0.601837
Si Si3 0.566369 0.938573 0.462835
Si Si4 0.067612 0.156719 0.829797
Si Si5 0.933183 0.879663 0.605979
Si Si6 0.933112 0.729802 0.744421
Si Si7 0.935355 0.665452 0.876142
Si Si8 0.066244 0.275319 0.462134
O O1 0.750000 0.058710 0.735819
O O2 0.518507 0.102874 0.801791
O O3 0.502331 0.089719 0.671631
O O4 0.500000 0.000000 0.748685
O O5 0.750000 0.239847 0.600608
O O6 0.493993 0.183574 0.600455
O O7 0.514781 0.273297 0.672291
O O8 0.511111 0.278502 0.535341
O O9 0.750000 0.941324 0.459845
O O10 0.526773 0.913407 0.537189
O O11 0.513077 0.893590 0.406314
O O12 0.500000 0.000000 0.453734
O O13 0.250000 0.147141 0.827222
O O14 0.036433 0.209683 0.779728
O O15 0.027959 0.177486 0.906003
O O16 0.750000 0.877802 0.612294
O O17 0.750000 0.726264 0.735148
O O18 0.982264 0.683688 0.800297
O O19 0.750000 0.665325 0.875781
O O20 0.978348 0.715856 0.927437
O O21 0.250000 0.274859 0.469965
#
# Coordination Sequence:
#
# PCOD9379228 Si02
#       8
#     8   8   8   8   8   8   8   8
#     4  12  24  36  51  72 102 136 173 210 247 295
#     4  12  22  30  46  76 107 133 162 203 255 303
#     4  10  20  33  50  70  96 129 168 206 241 283
#     4   9  18  33  54  75  95 127 169 210 251 297
#     4  11  21  35  51  67  97 139 178 211 241 286
#     4   9  17  31  53  71  93 128 166 204 246 298
#     4   8  15  31  51  71  91 125 169 205 239 287
#     4   9  17  33  54  72  95 130 169 204 246 302
#
# _framework density 15.624613999999999
#
# number of rings (size 3 to 8) (size 9 to 14) (size 15 to 20)
#    0.000    2.000    2.500    4.500    0.000    2.500 
#    0.000    2.500    0.000    0.000    0.000    0.875 
#    0.000    2.000    0.000    0.000    0.000    0.000 
#
# Total GULP energy -178578.491626 kJ/mol
# GULP energy per Si atom -5580.577863 kJ/mol
# Density = 1.558905 g / cm^3
# Si number density = 15.624614 Si / 1000 Ang^3
#
#
#
# Elastic Constant Matrix: (Units=GPa)
#
#
# Indices 1 2 3 4 5 6 
#
# 1 56.0742 38.4122 53.0761 0.0000 0.0000 0.0000
# 2 38.4122 91.7584 66.5161 0.0000 0.0000 0.0000
# 3 53.0761 66.5161 139.8374 0.0000 0.0000 0.0000
# 4 0.0000 0.0000 0.0000 17.6083 0.0000 0.0000
# 5 0.0000 0.0000 0.0000 0.0000 8.8469 0.0000
# 6 0.0000 0.0000 0.0000 0.0000 0.0000 23.5869
#
#
#
# Elastic Compliance Matrix: (Units=1/GPa)
#
#
# Indices 1 2 3 4 5 6 
#
# 1 0.030261 -0.006627 -0.008334 0.000000 0.000000 0.000000
# 2 -0.006627 0.018085 -0.006087 0.000000 0.000000 0.000000
# 3 -0.008334 -0.006087 0.013210 0.000000 0.000000 0.000000
# 4 0.000000 0.000000 0.000000 0.056792 0.000000 0.000000
# 5 0.000000 0.000000 0.000000 0.000000 0.113034 0.000000
# 6 0.000000 0.000000 0.000000 0.000000 0.000000 0.042396
#
#
# Mechanical properties :
#
#
# Convention : Reuss Voigt Hill
#
# Bulk Modulus (GPa) = 51.38623 67.07541 59.23082
# Shear Modulus (GPa) = 15.51063 18.65280 17.08172
#
# Velocity S-wave (km/s) = 3.15414 3.45890 3.31003
# Velocity P-wave (km/s) = 6.79884 7.67949 7.25254
#
# Compressibility (1/GPa) = 0.01946047
#
# Stress axis : x y z
#
# Youngs Moduli (GPa) = 33.04570 55.29454 75.70223
#
# Poissons Ratio (x) = 0.36644 0.63087
# Poissons Ratio (y) = 0.21899 0.46081
# Poissons Ratio (z) = 0.27539 0.33658
#
# Static dielectric constant tensor:
#      x y z
#    x 1.521510 0.000000 0.000000 
#    y 0.000000 1.499940 0.000000 
#    z 0.000000 0.000000 1.525940 
# 
# From -- ./inp_files/21469.got.cif
#   From: 2010.05.17/outbox.cif.g08.bks.cpg/sg46_11_cif.got.tgz:21469.got - 2010.06.03 19:58:25.
