data_PCOD9379966
_publ_section_title
;
Structure prediction by ZEFSAII (Michael W. Deem and Ramdas Pophale) SiO2 
 PCOD9379966
Probable space group: I M A 2
;
_chemical_formula_sum "Si O2"
_cell_formula_units_Z 56
_cell_length_a 15.102503
_cell_length_b 5.154749
_cell_length_c 36.169726
_cell_angle_alpha 90.000000
_cell_angle_beta 90.000000
_cell_angle_gamma 90.000000
_cell_volume 2815.799144
_symmetry_space_group_name_H-M "I M A 2"
_symmetry_group_IT_number 46
_symmetry_cell_setting 'orthorhombic'
loop_
_space_group_symop_operation_xyz
x,y,z
-x,-y,z
1/2-x,y,z
1/2+x,-y,z
1/2+x,1/2+y,1/2+z
1/2-x,1/2-y,1/2+z
-x,1/2+y,1/2+z
x,1/2-y,1/2+z
loop_
_atom_site_type_symbol
_atom_site_label
_atom_site_fract_x
_atom_site_fract_y
_atom_site_fract_z
Si Si1 0.852231 0.632531 0.766230
Si Si2 0.938097 0.749299 0.844276
Si Si3 0.145105 0.848695 0.050823
Si Si4 0.000000 0.500000 0.610438
Si Si5 0.352231 0.367471 0.002433
Si Si6 0.500000 0.000000 0.658225
Si Si7 0.438097 0.249299 0.424387
Si Si8 0.645105 0.348693 0.217840
O O1 0.750000 0.560516 0.770483
O O2 0.885087 0.701161 0.806959
O O3 0.890261 0.388281 0.743387
O O4 0.859877 0.889437 0.741736
O O5 0.890206 0.774816 0.884331
O O6 0.000000 0.500000 0.846892
O O7 0.000000 0.000000 0.840123
O O8 0.250000 0.805417 0.060519
O O9 0.109739 0.611722 0.025276
O O10 0.081191 0.895965 0.085414
O O11 0.140123 0.110566 0.026927
O O12 0.970937 0.750000 0.634331
O O13 0.250000 0.439484 0.998180
O O14 0.385087 0.298839 0.961704
O O15 0.418809 0.895966 0.683249
O O16 0.500000 0.500000 0.428540
O O17 0.500000 0.000000 0.421771
O O18 0.750000 0.305415 0.208144
#
# Coordination Sequence:
#
# PCOD9379966 Si02
#       8
#     8   8   8   4   8   4   8   8
#     4  10  21  38  60  87 117 159 205 244 297 351
#     4  10  21  35  54  86 122 159 200 246 298 344
#     4  10  23  41  62  91 122 155 200 251 298 357
#     4  12  26  42  64  94 119 156 201 238 312 384
#     4  10  21  38  60  87 117 159 205 244 297 351
#     4  12  26  42  64  94 119 156 201 238 312 384
#     4  10  21  35  54  86 122 159 200 246 298 344
#     4  10  23  41  62  91 122 155 200 251 298 357
#
# _framework density 19.887782000000001
#
# number of rings (size 3 to 8) (size 9 to 14) (size 15 to 20)
#    0.000    1.714    0.000    3.429    6.000    1.714 
#    0.000    0.000    0.000   10.286    0.000    0.000 
#    0.000    0.000    0.000    0.000    0.000    0.000 
#
# Total GULP energy -156220.752849 kJ/mol
# GULP energy per Si atom -5579.312602 kJ/mol
# Density = 1.984252 g / cm^3
# Si number density = 19.887782 Si / 1000 Ang^3
#
#
#
# Elastic Constant Matrix: (Units=GPa)
#
#
# Indices 1 2 3 4 5 6 
#
# 1 53.8158 33.2497 62.8295 0.0000 0.0000 0.0000
# 2 33.2497 131.2022 50.2957 0.0000 0.0000 0.0000
# 3 62.8295 50.2957 156.4486 0.0000 0.0000 0.0000
# 4 0.0000 0.0000 0.0000 37.5934 0.0000 0.0000
# 5 0.0000 0.0000 0.0000 0.0000 16.2588 0.0000
# 6 0.0000 0.0000 0.0000 0.0000 0.0000 15.3295
#
#
#
# Elastic Compliance Matrix: (Units=1/GPa)
#
#
# Indices 1 2 3 4 5 6 
#
# 1 0.036896 -0.004186 -0.013472 0.000000 0.000000 0.000000
# 2 -0.004186 0.009168 -0.001266 0.000000 0.000000 0.000000
# 3 -0.013472 -0.001266 0.012209 0.000000 0.000000 0.000000
# 4 0.000000 0.000000 0.000000 0.026600 0.000000 0.000000
# 5 0.000000 0.000000 0.000000 0.000000 0.061505 0.000000
# 6 0.000000 0.000000 0.000000 0.000000 0.000000 0.065234
#
#
# Mechanical properties :
#
#
# Convention : Reuss Voigt Hill
#
# Bulk Modulus (GPa) = 48.95854 70.46848 59.71351
# Shear Modulus (GPa) = 19.51068 26.84245 23.17656
#
# Velocity S-wave (km/s) = 3.13555 3.67781 3.41745
# Velocity P-wave (km/s) = 6.14652 7.31744 6.75739
#
# Compressibility (1/GPa) = 0.02042545
#
# Stress axis : x y z
#
# Youngs Moduli (GPa) = 27.10290 109.07394 81.90544
#
# Poissons Ratio (x) = 0.45659 1.10341
# Poissons Ratio (y) = 0.11346 0.10371
# Poissons Ratio (z) = 0.36512 0.13812
#
# Static dielectric constant tensor:
#      x y z
#    x 1.724970 0.000000 0.000000 
#    y 0.000000 1.687020 0.000000 
#    z 0.000000 0.000000 1.763860 
# 
# From -- ./inp_files/25452.got.cif
#   From: 2010.05.17/outbox.cif.g08.bks.cpg/sg46_13_cif.got.tgz:25452.got - 2010.06.03 19:58:25.
