data_PCOD9379641
_publ_section_title
;
Structure prediction by ZEFSAII (Michael W. Deem and Ramdas Pophale) SiO2 
 PCOD9379641
Probable space group: I M A 2
;
_chemical_formula_sum "Si O2"
_cell_formula_units_Z 64
_cell_length_a 25.854590
_cell_length_b 4.953224
_cell_length_c 24.439125
_cell_angle_alpha 90.000000
_cell_angle_beta 90.000000
_cell_angle_gamma 90.000000
_cell_volume 3129.761734
_symmetry_space_group_name_H-M "I M A 2"
_symmetry_group_IT_number 46
_symmetry_cell_setting 'orthorhombic'
loop_
_space_group_symop_operation_xyz
x,y,z
-x,-y,z
1/2-x,y,z
1/2+x,-y,z
1/2+x,1/2+y,1/2+z
1/2-x,1/2-y,1/2+z
-x,1/2+y,1/2+z
x,1/2-y,1/2+z
loop_
_atom_site_type_symbol
_atom_site_label
_atom_site_fract_x
_atom_site_fract_y
_atom_site_fract_z
Si Si1 0.410586 0.066151 0.751120
Si Si2 0.438827 0.017013 0.514492
Si Si3 0.873289 0.604391 0.910556
Si Si4 0.811353 0.086724 0.947957
Si Si5 0.646051 0.203783 0.663841
Si Si6 0.556319 0.051257 0.311374
Si Si7 0.378316 0.992404 0.050618
Si Si8 0.308938 0.234014 0.217582
O O1 0.405774 0.920341 0.692058
O O2 0.434778 0.854856 0.792413
O O3 0.349704 0.135300 0.759732
O O4 0.439160 0.348298 0.759409
O O5 0.419590 0.119610 0.455160
O O6 0.407730 0.221676 0.554747
O O7 0.500000 0.000000 0.521029
O O8 0.417693 0.716352 0.522439
O O9 0.833691 0.380783 0.933788
O O10 0.899372 0.525357 0.853956
O O11 0.841993 0.881287 0.908890
O O12 0.750000 0.074797 0.942717
O O13 0.829934 0.997851 0.008968
O O14 0.637099 0.352836 0.607208
O O15 0.683519 0.941863 0.666190
O O16 0.670531 0.437632 0.702211
O O17 0.500000 0.000000 0.335955
O O18 0.250000 0.226918 0.234895
#
# Coordination Sequence:
#
# PCOD9379641 Si02
#       8
#     8   8   8   8   8   8   8   8
#     4  10  22  41  59  87 125 148 195 265 292 349
#     4  10  20  37  59  86 118 155 195 245 299 354
#     4  10  22  39  62  87 121 152 198 257 295 354
#     4  10  21  39  60  89 125 158 193 238 306 365
#     4  10  20  38  60  82 127 153 195 246 296 340
#     4  12  23  41  66  88 113 160 210 251 306 359
#     4  10  21  36  60  87 121 157 196 245 288 358
#     4  10  20  37  62  83 114 154 191 240 295 350
#
# _framework density 20.448841000000002
#
# number of rings (size 3 to 8) (size 9 to 14) (size 15 to 20)
#    0.750    1.000    1.250    3.375    0.000    1.000 
#    0.000   10.000    0.000    0.000    0.000    0.000 
#    0.000    0.000    0.000    0.000    0.000    0.000 
#
# Total GULP energy -178357.337665 kJ/mol
# GULP energy per Si atom -5573.666802 kJ/mol
# Density = 2.040230 g / cm^3
# Si number density = 20.448841 Si / 1000 Ang^3
#
#
#
# Elastic Constant Matrix: (Units=GPa)
#
#
# Indices 1 2 3 4 5 6 
#
# 1 94.8258 4.7441 9.5974 0.0000 0.0000 0.0000
# 2 4.7441 93.2348 -8.1503 0.0000 0.0000 0.0000
# 3 9.5974 -8.1503 29.5697 0.0000 0.0000 0.0000
# 4 0.0000 0.0000 0.0000 17.1451 0.0000 0.0000
# 5 0.0000 0.0000 0.0000 0.0000 10.1244 0.0000
# 6 0.0000 0.0000 0.0000 0.0000 0.0000 18.4210
#
#
#
# Elastic Compliance Matrix: (Units=1/GPa)
#
#
# Indices 1 2 3 4 5 6 
#
# 1 0.010976 -0.000891 -0.003808 0.000000 0.000000 0.000000
# 2 -0.000891 0.011063 0.003339 0.000000 0.000000 0.000000
# 3 -0.003808 0.003339 0.035975 0.000000 0.000000 0.000000
# 4 0.000000 0.000000 0.000000 0.058326 0.000000 0.000000
# 5 0.000000 0.000000 0.000000 0.000000 0.098771 0.000000
# 6 0.000000 0.000000 0.000000 0.000000 0.000000 0.054286
#
#
# Mechanical properties :
#
#
# Convention : Reuss Voigt Hill
#
# Bulk Modulus (GPa) = 18.08602 25.55697 21.82149
# Shear Modulus (GPa) = 17.20888 23.23405 20.22147
#
# Velocity S-wave (km/s) = 2.90411 3.37442 3.14806
# Velocity P-wave (km/s) = 4.48429 5.26378 4.88959
#
# Compressibility (1/GPa) = 0.05529132
#
# Stress axis : x y z
#
# Youngs Moduli (GPa) = 91.11064 90.39298 27.79743
#
# Poissons Ratio (x) = 0.08057 0.10585
# Poissons Ratio (y) = 0.08121 -0.09280
# Poissons Ratio (z) = 0.34695 -0.30178
#
# Static dielectric constant tensor:
#      x y z
#    x 1.707200 0.000000 0.000000 
#    y 0.000000 1.727390 0.000000 
#    z 0.000000 0.000000 1.780220 
# 
# From -- ./inp_files/24732.got.cif
#   From: 2010.05.17/outbox.cif.g08.bks.cpg/sg46_13_cif.got.tgz:24732.got - 2010.06.03 19:58:25.
