data_PCOD9379452
_publ_section_title
;
Structure prediction by ZEFSAII (Michael W. Deem and Ramdas Pophale) SiO2 
 PCOD9379452
Probable space group: I M A 2
;
_chemical_formula_sum "Si O2"
_cell_formula_units_Z 48
_cell_length_a 16.703118
_cell_length_b 18.819304
_cell_length_c 8.431436
_cell_angle_alpha 90.000000
_cell_angle_beta 90.000000
_cell_angle_gamma 90.000000
_cell_volume 2650.346491
_symmetry_space_group_name_H-M "I M A 2"
_symmetry_group_IT_number 46
_symmetry_cell_setting 'orthorhombic'
loop_
_space_group_symop_operation_xyz
x,y,z
-x,-y,z
1/2-x,y,z
1/2+x,-y,z
1/2+x,1/2+y,1/2+z
1/2-x,1/2-y,1/2+z
-x,1/2+y,1/2+z
x,1/2-y,1/2+z
loop_
_atom_site_type_symbol
_atom_site_label
_atom_site_fract_x
_atom_site_fract_y
_atom_site_fract_z
Si Si1 0.985362 0.581470 0.453000
Si Si2 0.343345 0.669826 0.928872
Si Si3 0.923728 0.199044 0.746065
Si Si4 0.076272 0.199044 0.534331
Si Si5 0.514638 0.418530 0.827397
Si Si6 0.156655 0.330174 0.351524
O O1 0.894536 0.604042 0.416133
O O2 0.000000 0.500000 0.407023
O O3 0.041518 0.635541 0.353988
O O4 1.000000 0.589173 0.640198
O O5 0.250000 0.667442 0.892157
O O6 0.385013 0.738797 0.849246
O O7 0.394536 0.604042 0.864263
O O8 0.359537 0.673742 0.116789
O O9 1.000000 0.224758 0.640198
O O10 0.114987 0.261203 0.431151
O O11 0.140464 0.173742 0.663607
O O12 0.041518 0.135541 0.426408
O O13 0.500000 0.500000 0.873374
O O14 0.250000 0.332558 0.388240
#
# Coordination Sequence:
#
# PCOD9379452 Si02
#       6
#     8   8   8   8   8   8
#     4  10  21  39  59  78 107 149 186 218 267 331
#     4  11  21  35  56  85 112 140 180 230 271 312
#     4  10  20  35  57  82 110 146 182 217 267 328
#     4  10  20  35  57  82 110 146 182 217 267 328
#     4  10  21  39  59  78 107 149 186 218 267 331
#     4  11  21  35  56  85 112 140 180 230 271 312
#
# _framework density 18.110838999999999
#
# number of rings (size 3 to 8) (size 9 to 14) (size 15 to 20)
#    0.000    1.667    0.000    8.000    0.000    6.000 
#    0.000   10.000    0.000    0.000    0.000    0.000 
#    0.000    0.000    0.000    0.000    0.000    0.000 
#
# Total GULP energy -134021.778438 kJ/mol
# GULP energy per Si atom -5584.240768 kJ/mol
# Density = 1.806962 g / cm^3
# Si number density = 18.110839 Si / 1000 Ang^3
#
#
#
# Elastic Constant Matrix: (Units=GPa)
#
#
# Indices 1 2 3 4 5 6 
#
# 1 153.7375 97.9717 52.9482 0.0000 0.0000 0.0000
# 2 97.9717 145.9645 57.0423 0.0000 0.0000 0.0000
# 3 52.9482 57.0423 96.0229 0.0000 0.0000 0.0000
# 4 0.0000 0.0000 0.0000 25.0658 0.0000 0.0000
# 5 0.0000 0.0000 0.0000 0.0000 14.1879 0.0000
# 6 0.0000 0.0000 0.0000 0.0000 0.0000 7.0993
#
#
#
# Elastic Compliance Matrix: (Units=1/GPa)
#
#
# Indices 1 2 3 4 5 6 
#
# 1 0.011756 -0.006977 -0.002338 0.000000 0.000000 0.000000
# 2 -0.006977 0.013063 -0.003913 0.000000 0.000000 0.000000
# 3 -0.002338 -0.003913 0.014028 0.000000 0.000000 0.000000
# 4 0.000000 0.000000 0.000000 0.039895 0.000000 0.000000
# 5 0.000000 0.000000 0.000000 0.000000 0.070482 0.000000
# 6 0.000000 0.000000 0.000000 0.000000 0.000000 0.140858
#
#
# Mechanical properties :
#
#
# Convention : Reuss Voigt Hill
#
# Bulk Modulus (GPa) = 80.70059 90.18327 85.44193
# Shear Modulus (GPa) = 15.59244 21.78812 18.69028
#
# Velocity S-wave (km/s) = 2.93737 3.47225 3.21595
# Velocity P-wave (km/s) = 7.49401 8.12273 7.81469
#
# Compressibility (1/GPa) = 0.01239148
#
# Stress axis : x y z
#
# Youngs Moduli (GPa) = 85.06333 76.55116 71.28779
#
# Poissons Ratio (x) = 0.53410 0.16665
# Poissons Ratio (y) = 0.59349 0.27894
# Poissons Ratio (z) = 0.19885 0.29954
#
# Static dielectric constant tensor:
#      x y z
#    x 1.601750 0.000000 0.000000 
#    y 0.000000 1.614420 0.000000 
#    z 0.000000 0.000000 1.652500 
# 
# From -- ./inp_files/5717.got.cif
#   From: 2010.05.17/outbox.cif.g08.bks.cpg/sg46_3_cif.got.tgz:5717.got - 2010.06.03 19:58:25.
