data_PCOD9379683
_publ_section_title
;
Structure prediction by ZEFSAII (Michael W. Deem and Ramdas Pophale) SiO2 
 PCOD9379683
Probable space group: I M A 2
;
_chemical_formula_sum "Si O2"
_cell_formula_units_Z 56
_cell_length_a 16.513854
_cell_length_b 4.955782
_cell_length_c 31.892666
_cell_angle_alpha 90.000000
_cell_angle_beta 90.000000
_cell_angle_gamma 90.000000
_cell_volume 2610.065819
_symmetry_space_group_name_H-M "I M A 2"
_symmetry_group_IT_number 46
_symmetry_cell_setting 'orthorhombic'
loop_
_space_group_symop_operation_xyz
x,y,z
-x,-y,z
1/2-x,y,z
1/2+x,-y,z
1/2+x,1/2+y,1/2+z
1/2-x,1/2-y,1/2+z
-x,1/2+y,1/2+z
x,1/2-y,1/2+z
loop_
_atom_site_type_symbol
_atom_site_label
_atom_site_fract_x
_atom_site_fract_y
_atom_site_fract_z
Si Si1 0.342070 0.597417 0.807880
Si Si2 0.059231 0.245744 0.942769
Si Si3 0.409044 0.389747 0.352971
Si Si4 0.157165 0.266027 0.527941
Si Si5 0.593827 0.069992 0.215348
Si Si6 0.657540 0.253110 0.584574
Si Si7 0.847977 0.563549 0.167611
O O1 0.250000 0.521751 0.817626
O O2 0.401927 0.397653 0.831446
O O3 0.358230 0.549250 0.758847
O O4 0.357884 0.896432 0.825866
O O5 0.111132 0.163647 0.901783
O O6 0.000000 0.500000 0.934049
O O7 0.111720 0.271196 0.984419
O O8 0.000000 0.000000 0.951334
O O9 0.500000 0.500000 0.352752
O O10 0.250000 0.356049 0.520117
O O11 0.121529 0.481665 0.561947
O O12 0.159492 0.975361 0.549332
O O13 0.626724 0.868629 0.178908
O O14 0.500000 0.000000 0.221796
O O15 0.609433 0.376600 0.201936
O O16 0.750000 0.333522 0.596802
O O17 0.625180 0.084407 0.624501
O O18 0.750000 0.551516 0.169626
#
# Coordination Sequence:
#
# PCOD9379683 Si02
#       7
#     8   8   8   8   8   8   8
#     4  12  25  42  65  94 123 157 208 261 312 374
#     4  11  23  41  62  89 124 163 204 249 311 377
#     4  11  23  43  65  89 124 166 204 251 317 384
#     4  10  20  37  61  89 120 158 205 252 301 361
#     4  12  25  42  62  91 128 164 202 254 320 383
#     4   9  19  36  60  88 119 158 202 251 306 360
#     4  11  22  41  66  90 121 164 214 260 308 373
#
# _framework density 21.455397999999999
#
# number of rings (size 3 to 8) (size 9 to 14) (size 15 to 20)
#    0.000    1.143    0.000    7.714    0.000    3.429 
#    0.000    8.571    0.000    0.000    0.000    0.000 
#    0.000    0.000    0.000    0.000    0.000    0.000 
#
# Total GULP energy -156323.679155 kJ/mol
# GULP energy per Si atom -5582.988541 kJ/mol
# Density = 2.140656 g / cm^3
# Si number density = 21.455398 Si / 1000 Ang^3
#
#
#
# Elastic Constant Matrix: (Units=GPa)
#
#
# Indices 1 2 3 4 5 6 
#
# 1 39.1195 12.5632 12.1864 0.0000 0.0000 0.0000
# 2 12.5632 92.1228 -12.5174 0.0000 0.0000 0.0000
# 3 12.1864 -12.5174 71.2191 0.0000 0.0000 0.0000
# 4 0.0000 0.0000 0.0000 39.3784 0.0000 0.0000
# 5 0.0000 0.0000 0.0000 0.0000 23.5135 0.0000
# 6 0.0000 0.0000 0.0000 0.0000 0.0000 28.7940
#
#
#
# Elastic Compliance Matrix: (Units=1/GPa)
#
#
# Indices 1 2 3 4 5 6 
#
# 1 0.028877 -0.004722 -0.005771 0.000000 0.000000 0.000000
# 2 -0.004722 0.011893 0.002898 0.000000 0.000000 0.000000
# 3 -0.005771 0.002898 0.015538 0.000000 0.000000 0.000000
# 4 0.000000 0.000000 0.000000 0.025395 0.000000 0.000000
# 5 0.000000 0.000000 0.000000 0.000000 0.042529 0.000000
# 6 0.000000 0.000000 0.000000 0.000000 0.000000 0.034729
#
#
# Mechanical properties :
#
#
# Convention : Reuss Voigt Hill
#
# Bulk Modulus (GPa) = 24.32035 25.21396 24.76716
# Shear Modulus (GPa) = 26.61600 31.01914 28.81757
#
# Velocity S-wave (km/s) = 3.52593 3.80643 3.66886
# Velocity P-wave (km/s) = 5.28547 5.57636 5.43286
#
# Compressibility (1/GPa) = 0.04111782
#
# Stress axis : x y z
#
# Youngs Moduli (GPa) = 34.62958 84.08387 64.35793
#
# Poissons Ratio (x) = 0.39707 0.37142
# Poissons Ratio (y) = 0.16353 -0.18653
# Poissons Ratio (z) = 0.19985 -0.24370
#
# Static dielectric constant tensor:
#      x y z
#    x 1.762200 0.000000 0.000000 
#    y 0.000000 1.585000 0.000000 
#    z 0.000000 0.000000 1.825330 
# 
# From -- ./inp_files/25392.got.cif
#   From: 2010.05.17/outbox.cif.g08.bks.cpg/sg46_13_cif.got.tgz:25392.got - 2010.06.03 19:58:25.
