data_PCOD9379956
_publ_section_title
;
Structure prediction by ZEFSAII (Michael W. Deem and Ramdas Pophale) SiO2 
 PCOD9379956
Probable space group: I M A 2
;
_chemical_formula_sum "Si O2"
_cell_formula_units_Z 64
_cell_length_a 14.567836
_cell_length_b 13.672716
_cell_length_c 18.891634
_cell_angle_alpha 90.000000
_cell_angle_beta 90.000000
_cell_angle_gamma 90.000000
_cell_volume 3762.871259
_symmetry_space_group_name_H-M "I M A 2"
_symmetry_group_IT_number 46
_symmetry_cell_setting 'orthorhombic'
loop_
_space_group_symop_operation_xyz
x,y,z
-x,-y,z
1/2-x,y,z
1/2+x,-y,z
1/2+x,1/2+y,1/2+z
1/2-x,1/2-y,1/2+z
-x,1/2+y,1/2+z
x,1/2-y,1/2+z
loop_
_atom_site_type_symbol
_atom_site_label
_atom_site_fract_x
_atom_site_fract_y
_atom_site_fract_z
Si Si1 0.145801 0.604687 0.517010
Si Si2 0.107609 0.475211 0.380165
Si Si3 0.473668 0.352899 0.176074
Si Si4 0.358723 0.428386 0.612711
Si Si5 0.854531 0.035813 0.722266
Si Si6 0.643135 0.756162 0.403074
Si Si7 0.023572 0.239575 0.034551
Si Si8 0.141957 0.316909 0.748646
O O1 0.250000 0.639561 0.526698
O O2 0.143340 0.534047 0.448325
O O3 0.118416 0.535292 0.583217
O O4 0.071695 0.689976 0.511413
O O5 0.147095 0.510983 0.305645
O O6 0.125446 0.359361 0.386853
O O7 0.000000 0.500000 0.377617
O O8 0.404850 0.444590 0.184028
O O9 0.572449 0.378027 0.209335
O O10 0.487544 0.318737 0.095945
O O11 0.423281 0.266604 0.217924
O O12 0.250000 0.414258 0.598270
O O13 0.414726 0.347965 0.568393
O O14 0.372915 0.408745 0.696239
O O15 0.750000 0.051962 0.698301
O O16 0.750000 0.766128 0.422478
O O17 0.577390 0.781239 0.467604
O O18 0.625859 0.819476 0.332418
O O19 0.250000 0.288766 0.740379
#
# Coordination Sequence:
#
# PCOD9379956 Si02
#       8
#     8   8   8   8   8   8   8   8
#     4  11  21  32  48  74 107 142 170 200 245 302
#     4  12  18  31  51  77 108 135 162 199 257 313
#     4  10  21  34  49  75 101 134 170 205 255 308
#     4   9  17  30  47  71 103 136 169 204 247 296
#     4  11  21  35  55  76 102 132 166 211 258 308
#     4  11  19  29  48  76 105 131 162 207 257 303
#     4  11  21  32  48  73 105 134 169 209 249 300
#     4   9  17  30  49  73 105 136 167 207 250 296
#
# _framework density 17.008289000000001
#
# number of rings (size 3 to 8) (size 9 to 14) (size 15 to 20)
#    0.000    1.500    5.000    2.250    0.000    2.000 
#    0.000    0.000    0.000    0.000   13.000    0.000 
#    0.000    0.000    0.000    0.000    0.000    0.000 
#
# Total GULP energy -178485.207910 kJ/mol
# GULP energy per Si atom -5577.662747 kJ/mol
# Density = 1.696958 g / cm^3
# Si number density = 17.008289 Si / 1000 Ang^3
#
#
#
# Elastic Constant Matrix: (Units=GPa)
#
#
# Indices 1 2 3 4 5 6 
#
# 1 90.5558 13.7926 31.8250 0.0000 0.0000 0.0000
# 2 13.7926 22.4405 28.0907 0.0000 0.0000 0.0000
# 3 31.8250 28.0907 108.0089 0.0000 0.0000 0.0000
# 4 0.0000 0.0000 0.0000 23.8050 0.0000 0.0000
# 5 0.0000 0.0000 0.0000 0.0000 21.3168 0.0000
# 6 0.0000 0.0000 0.0000 0.0000 0.0000 6.3163
#
#
#
# Elastic Compliance Matrix: (Units=1/GPa)
#
#
# Indices 1 2 3 4 5 6 
#
# 1 0.012631 -0.004603 -0.002525 0.000000 0.000000 0.000000
# 2 -0.004603 0.067751 -0.016264 0.000000 0.000000 0.000000
# 3 -0.002525 -0.016264 0.014232 0.000000 0.000000 0.000000
# 4 0.000000 0.000000 0.000000 0.042008 0.000000 0.000000
# 5 0.000000 0.000000 0.000000 0.000000 0.046911 0.000000
# 6 0.000000 0.000000 0.000000 0.000000 0.000000 0.158320
#
#
# Mechanical properties :
#
#
# Convention : Reuss Voigt Hill
#
# Bulk Modulus (GPa) = 20.90723 40.93576 30.92150
# Shear Modulus (GPa) = 12.35846 20.10741 16.23294
#
# Velocity S-wave (km/s) = 2.69850 3.44206 3.09271
# Velocity P-wave (km/s) = 4.69343 6.31802 5.56533
#
# Compressibility (1/GPa) = 0.04783034
#
# Stress axis : x y z
#
# Youngs Moduli (GPa) = 79.16849 14.75998 70.26263
#
# Poissons Ratio (x) = 0.06794 0.17739
# Poissons Ratio (y) = 0.36443 1.14276
# Poissons Ratio (z) = 0.19987 0.24006
#
# Static dielectric constant tensor:
#      x y z
#    x 1.585750 0.000000 0.000000 
#    y 0.000000 1.560290 0.000000 
#    z 0.000000 0.000000 1.595100 
# 
# From -- ./inp_files/19619.got.cif
#   From: 2010.05.17/outbox.cif.g08.bks.cpg/sg46_10_cif.got.tgz:19619.got - 2010.06.03 19:58:25.
