data_PCOD9379640
_publ_section_title
;
Structure prediction by ZEFSAII (Michael W. Deem and Ramdas Pophale) SiO2 
 PCOD9379640
Probable space group: I M A 2
;
_chemical_formula_sum "Si O2"
_cell_formula_units_Z 40
_cell_length_a 17.139147
_cell_length_b 12.872550
_cell_length_c 8.370100
_cell_angle_alpha 90.000000
_cell_angle_beta 90.000000
_cell_angle_gamma 90.000000
_cell_volume 1846.649351
_symmetry_space_group_name_H-M "I M A 2"
_symmetry_group_IT_number 46
_symmetry_cell_setting 'orthorhombic'
loop_
_space_group_symop_operation_xyz
x,y,z
-x,-y,z
1/2-x,y,z
1/2+x,-y,z
1/2+x,1/2+y,1/2+z
1/2-x,1/2-y,1/2+z
-x,1/2+y,1/2+z
x,1/2-y,1/2+z
loop_
_atom_site_type_symbol
_atom_site_label
_atom_site_fract_x
_atom_site_fract_y
_atom_site_fract_z
Si Si1 0.521475 0.885056 0.252110
Si Si2 0.343581 0.880735 0.669556
Si Si3 0.156243 0.110940 0.689102
Si Si4 0.343567 0.329051 0.548408
Si Si5 0.566796 0.281017 0.459613
O O1 0.610643 0.884438 0.191677
O O2 0.494955 0.794934 0.372751
O O3 0.473345 0.853263 0.091733
O O4 0.500000 0.000000 0.307503
O O5 0.250000 0.877638 0.687968
O O6 0.371984 0.797059 0.541920
O O7 0.368985 0.998418 0.629475
O O8 0.387556 0.849563 0.831456
O O9 0.250000 0.109391 0.693785
O O10 0.136176 0.208035 0.578425
O O11 0.132080 0.131808 0.872891
O O12 0.250000 0.341129 0.562479
#
# Coordination Sequence:
#
# PCOD9379640 Si02
#       5
#     8   8   8   8   8
#     4  11  23  40  59  86 120 154 191 238 294 345
#     4  10  20  39  61  85 116 156 198 240 287 344
#     4   9  19  34  58  87 116 148 190 238 285 331
#     4  10  20  37  59  86 116 153 195 237 282 345
#     4  10  23  38  58  86 117 153 195 243 292 343
#
# _framework density 21.660851999999998
#
# number of rings (size 3 to 8) (size 9 to 14) (size 15 to 20)
#    0.000    2.000    0.000    3.000    0.000    3.200 
#    0.000   11.000    0.000    0.000    0.000    0.000 
#    0.000    0.000    0.000    0.000    0.000    0.000 
#
# Total GULP energy -111796.516990 kJ/mol
# GULP energy per Si atom -5589.825849 kJ/mol
# Density = 2.161155 g / cm^3
# Si number density = 21.660852 Si / 1000 Ang^3
#
#
#
# Elastic Constant Matrix: (Units=GPa)
#
#
# Indices 1 2 3 4 5 6 
#
# 1 89.2019 17.1010 18.9550 0.0000 0.0000 0.0000
# 2 17.1010 83.5709 -6.3658 0.0000 0.0000 0.0000
# 3 18.9550 -6.3658 36.0273 0.0000 0.0000 0.0000
# 4 0.0000 0.0000 0.0000 -2.0395 0.0000 0.0000
# 5 0.0000 0.0000 0.0000 0.0000 35.3251 0.0000
# 6 0.0000 0.0000 0.0000 0.0000 0.0000 27.3576
#
#
#
# Elastic Compliance Matrix: (Units=1/GPa)
#
#
# Indices 1 2 3 4 5 6 
#
# 1 0.013485 -0.003345 -0.007686 0.000000 0.000000 0.000000
# 2 -0.003345 0.012959 0.004050 0.000000 0.000000 0.000000
# 3 -0.007686 0.004050 0.032516 0.000000 0.000000 0.000000
# 4 0.000000 0.000000 0.000000 -0.490328 0.000000 0.000000
# 5 0.000000 0.000000 0.000000 0.000000 0.028309 0.000000
# 6 0.000000 0.000000 0.000000 0.000000 0.000000 0.036553
#
#
# Mechanical properties :
#
#
# Convention : Reuss Voigt Hill
#
# Bulk Modulus (GPa) = 22.22344 29.79783 26.01063
# Shear Modulus (GPa) = -14.81284 24.06930 4.62823
#
# Velocity S-wave (km/s) = -2.61790 3.33707 1.46332
# Velocity P-wave (km/s) = 1.06965 5.35111 3.85866
#
# Compressibility (1/GPa) = 0.04499754
#
# Stress axis : x y z
#
# Youngs Moduli (GPa) = 74.15661 77.16759 30.75406
#
# Poissons Ratio (x) = 0.25812 0.23637
# Poissons Ratio (y) = 0.24804 -0.12454
# Poissons Ratio (z) = 0.56996 -0.31250
#
# Static dielectric constant tensor:
#      x y z
#    x 1.796100 0.000000 0.000000 
#    y 0.000000 1.763270 0.000000 
#    z 0.000000 0.000000 1.781900 
# 
# From -- ./inp_files/6365.got.cif
#   From: 2010.05.17/outbox.cif.g08.bks.cpg/sg46_4_cif.got.tgz:6365.got - 2010.06.03 19:58:25.
