data_PCOD9379179
_publ_section_title
;
Structure prediction by ZEFSAII (Michael W. Deem and Ramdas Pophale) SiO2 
 PCOD9379179
Probable space group: I M A 2
;
_chemical_formula_sum "Si O2"
_cell_formula_units_Z 64
_cell_length_a 9.193680
_cell_length_b 13.938285
_cell_length_c 23.725488
_cell_angle_alpha 90.000000
_cell_angle_beta 90.000000
_cell_angle_gamma 90.000000
_cell_volume 3040.282067
_symmetry_space_group_name_H-M "I M A 2"
_symmetry_group_IT_number 46
_symmetry_cell_setting 'orthorhombic'
loop_
_space_group_symop_operation_xyz
x,y,z
-x,-y,z
1/2-x,y,z
1/2+x,-y,z
1/2+x,1/2+y,1/2+z
1/2-x,1/2-y,1/2+z
-x,1/2+y,1/2+z
x,1/2-y,1/2+z
loop_
_atom_site_type_symbol
_atom_site_label
_atom_site_fract_x
_atom_site_fract_y
_atom_site_fract_z
Si Si1 0.915035 0.141792 0.163030
Si Si2 0.414628 0.375299 0.072554
Si Si3 0.085905 0.143758 0.055611
Si Si4 0.075769 0.203650 0.813226
Si Si5 0.573905 0.797506 0.937081
Si Si6 0.922844 0.662595 0.193350
Si Si7 0.917243 0.406093 0.790297
Si Si8 0.921963 0.404266 0.962322
O O1 0.750000 0.161005 0.146455
O O2 0.914264 0.085662 0.221917
O O3 0.995867 0.104032 0.107852
O O4 0.991772 0.240245 0.180986
O O5 0.250000 0.408514 0.057232
O O6 0.408380 0.259077 0.066938
O O7 0.448165 0.399443 0.137447
O O8 0.538422 0.404001 0.028966
O O9 0.250000 0.105760 0.057742
O O10 0.028334 0.139682 0.991447
O O11 0.250000 0.220577 0.812553
O O12 0.040532 0.162850 0.874930
O O13 0.040180 0.138894 0.758231
O O14 0.997227 0.306749 0.805856
O O15 0.750000 0.785171 0.942529
O O16 0.497932 0.693190 0.940607
O O17 0.750000 0.681800 0.191827
O O18 0.750000 0.402725 0.809667
O O19 0.000000 0.500000 0.811559
O O20 0.750000 0.404142 0.952813
O O21 0.000000 0.500000 0.939742
#
# Coordination Sequence:
#
# PCOD9379179 Si02
#       8
#     8   8   8   8   8   8   8   8
#     4   9  16  25  39  59  79  99 128 167 206 242
#     4   8  14  26  42  60  81 101 127 164 204 244
#     4   8  14  25  41  59  79 103 129 161 202 242
#     4   9  17  30  46  61  81 111 142 169 198 234
#     4   9  18  31  44  60  83 110 141 172 198 232
#     4   8  14  25  42  61  79 102 129 159 200 244
#     4  10  20  31  42  58  81 109 141 174 205 239
#     4  11  21  31  43  58  79 109 143 174 206 241
#
# _framework density 21.050678999999999
#
# number of rings (size 3 to 8) (size 9 to 14) (size 15 to 20)
#    0.000    3.000    0.000    3.375    0.000    7.000 
#    0.000    0.000    0.000    0.000    0.000    0.000 
#    0.000    1.000    0.000    4.250    0.000    3.500 
#
# Total GULP energy -178228.281914 kJ/mol
# GULP energy per Si atom -5569.633810 kJ/mol
# Density = 2.100277 g / cm^3
# Si number density = 21.050679 Si / 1000 Ang^3
#
#
#
# Elastic Constant Matrix: (Units=GPa)
#
#
# Indices 1 2 3 4 5 6 
#
# 1 227.3293 -30.0143 -8.3547 0.0000 0.0000 0.0000
# 2 -30.0143 31.6349 5.4097 0.0000 0.0000 0.0000
# 3 -8.3547 5.4097 208.7543 0.0000 0.0000 0.0000
# 4 0.0000 0.0000 0.0000 -6.9925 0.0000 0.0000
# 5 0.0000 0.0000 0.0000 0.0000 15.8841 0.0000
# 6 0.0000 0.0000 0.0000 0.0000 0.0000 9.1629
#
#
#
# Elastic Compliance Matrix: (Units=1/GPa)
#
#
# Indices 1 2 3 4 5 6 
#
# 1 0.005030 0.004759 0.000078 0.000000 0.000000 0.000000
# 2 0.004759 0.036254 -0.000749 0.000000 0.000000 0.000000
# 3 0.000078 -0.000749 0.004813 0.000000 0.000000 0.000000
# 4 0.000000 0.000000 0.000000 -0.143010 0.000000 0.000000
# 5 0.000000 0.000000 0.000000 0.000000 0.062956 0.000000
# 6 0.000000 0.000000 0.000000 0.000000 0.000000 0.109136
#
#
# Mechanical properties :
#
#
# Convention : Reuss Voigt Hill
#
# Bulk Modulus (GPa) = 18.42532 44.64445 31.53488
# Shear Modulus (GPa) = 58.75840 36.98940 47.87390
#
# Velocity S-wave (km/s) = 5.28899 4.19640 4.77405
# Velocity P-wave (km/s) = 6.78747 6.68833 6.73808
#
# Compressibility (1/GPa) = 0.05427313
#
# Stress axis : x y z
#
# Youngs Moduli (GPa) = 198.80266 27.58311 207.77702
#
# Poissons Ratio (x) = -0.13127 -0.01620
# Poissons Ratio (y) = -0.94612 0.15563
# Poissons Ratio (z) = -0.01550 0.02066
#
# Static dielectric constant tensor:
#      x y z
#    x 1.717410 0.000000 0.000000 
#    y 0.000000 1.752910 0.000000 
#    z 0.000000 0.000000 1.868840 
# 
# From -- ./inp_files/23273.got.cif
#   From: 2010.05.17/outbox.cif.g08.bks.cpg/sg46_12_cif.got.tgz:23273.got - 2010.06.03 19:58:25.
