data_PCOD9379266
_publ_section_title
;
Structure prediction by ZEFSAII (Michael W. Deem and Ramdas Pophale) SiO2 
 PCOD9379266
Probable space group: I M A 2
;
_chemical_formula_sum "Si O2"
_cell_formula_units_Z 56
_cell_length_a 8.896935
_cell_length_b 14.471121
_cell_length_c 23.309366
_cell_angle_alpha 90.000000
_cell_angle_beta 90.000000
_cell_angle_gamma 90.000000
_cell_volume 3001.048774
_symmetry_space_group_name_H-M "I M A 2"
_symmetry_group_IT_number 46
_symmetry_cell_setting 'orthorhombic'
loop_
_space_group_symop_operation_xyz
x,y,z
-x,-y,z
1/2-x,y,z
1/2+x,-y,z
1/2+x,1/2+y,1/2+z
1/2-x,1/2-y,1/2+z
-x,1/2+y,1/2+z
x,1/2-y,1/2+z
loop_
_atom_site_type_symbol
_atom_site_label
_atom_site_fract_x
_atom_site_fract_y
_atom_site_fract_z
Si Si1 0.579886 0.646086 0.053840
Si Si2 0.927805 0.092709 0.131876
Si Si3 0.930880 0.601951 0.277344
Si Si4 0.570290 0.201003 0.667838
Si Si5 0.932781 0.798612 0.895058
Si Si6 0.431815 0.093430 0.429034
Si Si7 0.579369 0.639437 0.516070
O O1 0.750000 0.614016 0.066845
O O2 0.480232 0.646122 0.110559
O O3 0.590396 0.752806 0.033761
O O4 0.521605 0.598431 0.996173
O O5 0.750000 0.086414 0.136250
O O6 0.975092 0.191085 0.159115
O O7 0.976492 0.097504 0.065176
O O8 0.000000 0.000000 0.157242
O O9 0.750000 0.596861 0.275654
O O10 0.976763 0.654753 0.335711
O O11 0.000000 0.500000 0.277022
O O12 0.990930 0.657517 0.222606
O O13 0.750000 0.197026 0.673367
O O14 0.750000 0.797984 0.898390
O O15 0.979482 0.691174 0.901087
O O16 0.980845 0.857302 0.951126
O O17 0.250000 0.089791 0.427665
O O18 0.500000 0.000000 0.403386
O O19 0.750000 0.601139 0.518118
#
# Coordination Sequence:
#
# PCOD9379266 Si02
#       7
#     8   8   8   8   8   8   8
#     4   8  15  29  50  74 103 140 174 207 254 308
#     4  10  20  33  52  80 112 143 176 215 260 315
#     4  11  23  40  60  78 100 134 177 222 268 316
#     4  10  21  37  55  78 108 139 178 225 266 309
#     4   8  17  35  56  77 105 141 176 213 259 313
#     4   9  17  31  52  80 111 141 174 209 253 311
#     4   8  14  29  52  75 102 136 173 211 254 304
#
# _framework density 18.660143000000001
#
# number of rings (size 3 to 8) (size 9 to 14) (size 15 to 20)
#    0.000    2.857    0.000    3.000    0.000    3.429 
#    0.000    8.571    0.000    3.429    0.000    0.000 
#    0.000    0.000    0.000    0.000    0.000    0.000 
#
# Total GULP energy -156051.153247 kJ/mol
# GULP energy per Si atom -5573.255473 kJ/mol
# Density = 1.861767 g / cm^3
# Si number density = 18.660143 Si / 1000 Ang^3
#
#
#
# Elastic Constant Matrix: (Units=GPa)
#
#
# Indices 1 2 3 4 5 6 
#
# 1 35.5481 35.4009 40.0452 0.0000 0.0000 0.0000
# 2 35.4009 126.6916 62.0110 0.0000 0.0000 0.0000
# 3 40.0452 62.0110 129.0129 0.0000 0.0000 0.0000
# 4 0.0000 0.0000 0.0000 18.5217 0.0000 0.0000
# 5 0.0000 0.0000 0.0000 0.0000 10.5110 0.0000
# 6 0.0000 0.0000 0.0000 0.0000 0.0000 27.3474
#
#
#
# Elastic Compliance Matrix: (Units=1/GPa)
#
#
# Indices 1 2 3 4 5 6 
#
# 1 0.048959 -0.008163 -0.011273 0.000000 0.000000 0.000000
# 2 -0.008163 0.011682 -0.003082 0.000000 0.000000 0.000000
# 3 -0.011273 -0.003082 0.012732 0.000000 0.000000 0.000000
# 4 0.000000 0.000000 0.000000 0.053991 0.000000 0.000000
# 5 0.000000 0.000000 0.000000 0.000000 0.095138 0.000000
# 6 0.000000 0.000000 0.000000 0.000000 0.000000 0.036566
#
#
# Mechanical properties :
#
#
# Convention : Reuss Voigt Hill
#
# Bulk Modulus (GPa) = 35.28816 62.90742 49.09779
# Shear Modulus (GPa) = 15.94641 21.52905 18.73773
#
# Velocity S-wave (km/s) = 2.92648 3.40037 3.17228
# Velocity P-wave (km/s) = 5.51099 7.01442 6.30766
#
# Compressibility (1/GPa) = 0.02833812
#
# Stress axis : x y z
#
# Youngs Moduli (GPa) = 20.42512 85.59935 78.54479
#
# Poissons Ratio (x) = 0.69871 0.88547
# Poissons Ratio (y) = 0.16672 0.24204
# Poissons Ratio (z) = 0.23026 0.26378
#
# Static dielectric constant tensor:
#      x y z
#    x 1.636590 0.000000 0.000000 
#    y 0.000000 1.674440 0.000000 
#    z 0.000000 0.000000 1.638420 
# 
# From -- ./inp_files/21110.got.cif
#   From: 2010.05.17/outbox.cif.g08.bks.cpg/sg46_11_cif.got.tgz:21110.got - 2010.06.03 19:58:25.
