data_PCOD9379632
_publ_section_title
;
Structure prediction by ZEFSAII (Michael W. Deem and Ramdas Pophale) SiO2 
 PCOD9379632
Probable space group: I M A 2
;
_chemical_formula_sum "Si O2"
_cell_formula_units_Z 48
_cell_length_a 8.475174
_cell_length_b 31.874744
_cell_length_c 9.302800
_cell_angle_alpha 90.000000
_cell_angle_beta 90.000000
_cell_angle_gamma 90.000000
_cell_volume 2513.095618
_symmetry_space_group_name_H-M "I M A 2"
_symmetry_group_IT_number 46
_symmetry_cell_setting 'orthorhombic'
loop_
_space_group_symop_operation_xyz
x,y,z
-x,-y,z
1/2-x,y,z
1/2+x,-y,z
1/2+x,1/2+y,1/2+z
1/2-x,1/2-y,1/2+z
-x,1/2+y,1/2+z
x,1/2-y,1/2+z
loop_
_atom_site_type_symbol
_atom_site_label
_atom_site_fract_x
_atom_site_fract_y
_atom_site_fract_z
Si Si1 0.559878 0.545348 0.697640
Si Si2 0.559541 0.545438 0.030519
Si Si3 0.439615 0.289383 0.026480
Si Si4 0.441426 0.371536 0.530845
Si Si5 0.557465 0.872132 0.699592
Si Si6 0.437773 0.790739 0.201350
O O1 0.500000 0.500000 0.647986
O O2 0.750000 0.544669 0.696389
O O3 0.508938 0.551142 0.864017
O O4 0.507822 0.584463 0.601609
O O5 0.500000 0.500000 0.079878
O O6 0.750000 0.545015 0.032293
O O7 0.505194 0.584480 0.126244
O O8 0.250000 0.288350 0.028069
O O9 0.496226 0.289078 0.862728
O O10 0.492274 0.331935 0.106862
O O11 0.502022 0.249207 0.111912
O O12 0.250000 0.370171 0.534410
O O13 0.492307 0.368639 0.365026
O O14 0.503989 0.332759 0.622604
O O15 0.750000 0.872495 0.698718
O O16 0.250000 0.790190 0.206024
#
# Coordination Sequence:
#
# PCOD9379632 Si02
#       6
#     8   8   8   8   8   8
#     4   9  18  32  53  78 109 147 191 238 285 339
#     4   9  17  32  51  76 107 142 183 230 279 330
#     4  11  22  40  64  86 111 152 197 234 279 347
#     4  10  20  37  59  83 111 151 196 235 280 347
#     4   9  19  35  58  83 108 141 190 238 273 323
#     4  12  25  40  59  88 121 149 183 239 296 340
#
# _framework density 19.099948999999999
#
# number of rings (size 3 to 8) (size 9 to 14) (size 15 to 20)
#    0.000    2.000    0.000    4.000    0.000    5.333 
#    0.000    6.667    0.000    0.000    0.000    0.000 
#    0.000    0.000    0.000    0.000    0.000    0.000 
#
# Total GULP energy -134085.874345 kJ/mol
# GULP energy per Si atom -5586.911431 kJ/mol
# Density = 1.905648 g / cm^3
# Si number density = 19.099949 Si / 1000 Ang^3
#
#
#
# Elastic Constant Matrix: (Units=GPa)
#
#
# Indices 1 2 3 4 5 6 
#
# 1 38.9245 42.4167 41.1697 0.0001 0.0000 0.0000
# 2 42.4167 224.2098 142.6948 0.0002 -0.0001 0.0000
# 3 41.1697 142.6948 191.7610 0.0004 0.0000 0.0000
# 4 0.0001 0.0002 0.0004 43.0904 -0.0001 0.0000
# 5 0.0000 -0.0001 0.0000 -0.0001 4.7850 -0.0001
# 6 0.0000 0.0000 0.0000 0.0000 -0.0001 30.8178
#
#
#
# Elastic Compliance Matrix: (Units=1/GPa)
#
#
# Indices 1 2 3 4 5 6 
#
# 1 0.034590 -0.003453 -0.004857 0.000000 0.000000 0.000000
# 2 -0.003453 0.008817 -0.005820 0.000000 0.000000 0.000000
# 3 -0.004857 -0.005820 0.010588 0.000000 0.000000 0.000000
# 4 0.000000 0.000000 0.000000 0.023207 0.000000 0.000000
# 5 0.000000 0.000000 0.000000 0.000000 0.208986 0.000001
# 6 0.000000 0.000000 0.000000 0.000000 0.000001 0.032449
#
#
# Mechanical properties :
#
#
# Convention : Reuss Voigt Hill
#
# Bulk Modulus (GPa) = 38.85503 100.82867 69.84185
# Shear Modulus (GPa) = 14.06563 30.97959 22.52261
#
# Velocity S-wave (km/s) = 2.71665 4.03174 3.43767
# Velocity P-wave (km/s) = 5.49795 8.63585 7.23897
#
# Compressibility (1/GPa) = 0.02573669
#
# Stress axis : x y z
#
# Youngs Moduli (GPa) = 28.90973 113.41316 94.44322
#
# Poissons Ratio (x) = 0.39159 0.45871
# Poissons Ratio (y) = 0.09982 0.54965
# Poissons Ratio (z) = 0.14042 0.66006
#
# Static dielectric constant tensor:
#      x y z
#    x 1.658090 0.000000 0.000000 
#    y 0.000000 1.636760 0.000000 
#    z 0.000000 0.000000 1.640330 
# 
# From -- ./inp_files/3923.got.cif
#   From: 2010.05.17/outbox.cif.g08.bks.cpg/sg46_2_cif.got.tgz:3923.got - 2010.06.03 19:58:25.
