data_PCOD9379627
_publ_section_title
;
Structure prediction by ZEFSAII (Michael W. Deem and Ramdas Pophale) SiO2 
 PCOD9379627
Probable space group: I M A 2
;
_chemical_formula_sum "Si O2"
_cell_formula_units_Z 48
_cell_length_a 8.338913
_cell_length_b 31.433300
_cell_length_c 10.125711
_cell_angle_alpha 90.000000
_cell_angle_beta 90.000000
_cell_angle_gamma 90.000000
_cell_volume 2654.146851
_symmetry_space_group_name_H-M "I M A 2"
_symmetry_group_IT_number 46
_symmetry_cell_setting 'orthorhombic'
loop_
_space_group_symop_operation_xyz
x,y,z
-x,-y,z
1/2-x,y,z
1/2+x,-y,z
1/2+x,1/2+y,1/2+z
1/2-x,1/2-y,1/2+z
-x,1/2+y,1/2+z
x,1/2-y,1/2+z
loop_
_atom_site_type_symbol
_atom_site_label
_atom_site_fract_x
_atom_site_fract_y
_atom_site_fract_z
Si Si1 0.559393 0.716673 0.748600
Si Si2 0.438437 0.785285 0.954480
Si Si3 0.055809 0.120691 0.941429
Si Si4 0.443824 0.046803 0.441512
Si Si5 0.556337 0.953213 0.745104
Si Si6 0.945417 0.619931 0.743679
O O1 0.750000 0.718810 0.769221
O O2 0.478844 0.750585 0.844237
O O3 0.523863 0.724497 0.594045
O O4 0.504576 0.668142 0.776932
O O5 0.250000 0.786312 0.979570
O O6 0.494865 0.832124 0.909491
O O7 0.250000 0.121901 0.938404
O O8 0.000486 0.084409 0.840794
O O9 0.006577 0.110995 0.092456
O O10 0.250000 0.047250 0.440838
O O11 0.497180 0.053290 0.593319
O O12 0.501322 0.084156 0.345308
O O13 0.500000 0.000000 0.399097
O O14 0.750000 0.952934 0.745810
O O15 0.500000 0.000000 0.787687
O O16 0.750000 0.619853 0.746075
#
# Coordination Sequence:
#
# PCOD9379627 Si02
#       6
#     8   8   8   8   8   8
#     4  10  20  37  58  78 103 142 183 217 259 322
#     4  11  22  36  54  81 112 138 170 223 276 315
#     4   9  18  34  52  71  97 135 175 209 251 314
#     4   9  17  31  48  70  97 126 160 203 250 298
#     4   9  18  31  49  71  98 130 167 209 255 307
#     4   8  16  31  51  71  94 125 167 209 243 290
#
# _framework density 18.084906
#
# number of rings (size 3 to 8) (size 9 to 14) (size 15 to 20)
#    0.000    2.667    0.000    3.000    0.000    2.667 
#    0.000    7.500    0.000    0.000    0.000    0.000 
#    0.000    0.000    0.000    0.000    0.000    0.000 
#
# Total GULP energy -133861.829995 kJ/mol
# GULP energy per Si atom -5577.576250 kJ/mol
# Density = 1.804374 g / cm^3
# Si number density = 18.084906 Si / 1000 Ang^3
#
#
#
# Elastic Constant Matrix: (Units=GPa)
#
#
# Indices 1 2 3 4 5 6 
#
# 1 13.7974 4.5992 1.0269 0.0000 0.0000 0.0000
# 2 4.5992 156.0479 103.2693 -0.0001 0.0000 0.0000
# 3 1.0269 103.2693 85.0423 -0.0005 -0.0001 0.0000
# 4 0.0000 -0.0001 -0.0005 43.2212 -0.0001 0.0000
# 5 0.0000 0.0000 -0.0001 -0.0001 15.7086 0.0000
# 6 0.0000 0.0000 0.0000 0.0000 0.0000 24.5388
#
#
#
# Elastic Compliance Matrix: (Units=1/GPa)
#
#
# Indices 1 2 3 4 5 6 
#
# 1 0.074525 -0.008152 0.009000 0.000000 0.000000 0.000000
# 2 -0.008152 0.033523 -0.040610 0.000000 0.000000 0.000000
# 3 0.009000 -0.040610 0.060964 0.000001 0.000000 0.000000
# 4 0.000000 0.000000 0.000001 0.023137 0.000000 0.000000
# 5 0.000000 0.000000 0.000000 0.000000 0.063659 0.000000
# 6 0.000000 0.000000 0.000000 0.000000 0.000000 0.040752
#
#
# Mechanical properties :
#
#
# Convention : Reuss Voigt Hill
#
# Bulk Modulus (GPa) = 11.17475 52.51981 31.84728
# Shear Modulus (GPa) = 12.31786 26.42654 19.37220
#
# Velocity S-wave (km/s) = 2.61264 3.82678 3.27644
# Velocity P-wave (km/s) = 3.91071 6.97347 5.65345
#
# Compressibility (1/GPa) = 0.08948748
#
# Stress axis : x y z
#
# Youngs Moduli (GPa) = 13.41827 29.82992 16.40313
#
# Poissons Ratio (x) = 0.24318 -0.14762
# Poissons Ratio (y) = 0.10939 0.66613
# Poissons Ratio (z) = -0.12076 1.21139
#
# Static dielectric constant tensor:
#      x y z
#    x 1.625350 0.000000 0.000000 
#    y 0.000000 1.598630 0.000000 
#    z 0.000000 0.000000 1.607530 
# 
# From -- ./inp_files/3918.got.cif
#   From: 2010.05.17/outbox.cif.g08.bks.cpg/sg46_2_cif.got.tgz:3918.got - 2010.06.03 19:58:25.
