data_PCOD9379055
_publ_section_title
;
Structure prediction by ZEFSAII (Michael W. Deem and Ramdas Pophale) SiO2 
 PCOD9379055
Probable space group: I M A 2
;
_chemical_formula_sum "Si O2"
_cell_formula_units_Z 56
_cell_length_a 32.525017
_cell_length_b 4.937546
_cell_length_c 16.698141
_cell_angle_alpha 90.000000
_cell_angle_beta 90.000000
_cell_angle_gamma 90.000000
_cell_volume 2681.617375
_symmetry_space_group_name_H-M "I M A 2"
_symmetry_group_IT_number 46
_symmetry_cell_setting 'orthorhombic'
loop_
_space_group_symop_operation_xyz
x,y,z
-x,-y,z
1/2-x,y,z
1/2+x,-y,z
1/2+x,1/2+y,1/2+z
1/2-x,1/2-y,1/2+z
-x,1/2+y,1/2+z
x,1/2-y,1/2+z
loop_
_atom_site_type_symbol
_atom_site_label
_atom_site_fract_x
_atom_site_fract_y
_atom_site_fract_z
Si Si1 0.373982 0.629523 0.456310
Si Si2 0.953338 0.970991 0.050242
Si Si3 0.250000 0.675737 0.884991
Si Si4 0.337392 0.837105 0.298072
Si Si5 0.953439 0.470139 0.160414
Si Si6 0.837531 0.850938 0.538215
Si Si7 0.131417 0.357741 0.210183
Si Si8 0.750000 0.814182 0.998879
O O1 0.419673 0.570983 0.487473
O O2 0.368439 0.739327 0.367538
O O3 0.351547 0.342635 0.465972
O O4 0.350371 0.846638 0.513193
O O5 0.948051 0.165476 0.128169
O O6 0.949956 0.664464 0.082029
O O7 0.000000 0.000000 0.020684
O O8 0.208206 0.697392 0.834185
O O9 0.250000 0.376510 0.921088
O O10 0.250000 0.885233 0.960518
O O11 0.343465 0.632407 0.224715
O O12 0.350601 0.132302 0.268772
O O13 0.916701 0.567092 0.217263
O O14 0.000000 0.500000 0.191667
O O15 0.860984 0.769985 0.618746
O O16 0.790022 0.776627 0.547683
#
# Coordination Sequence:
#
# PCOD9379055 Si02
#       8
#     8   8   4   8   8   8   8   4
#     4  12  21  42  63  98 123 175 216 264 321 390
#     4  10  19  35  65  97 124 160 214 270 311 370
#     4  12  24  44  64  90 130 170 228 260 330 410
#     4  12  26  40  65  90 136 179 206 267 340 397
#     4  10  20  37  65  94 124 165 211 261 320 384
#     4  12  23  39  69  90 127 164 224 277 310 381
#     4  12  24  42  62 100 132 167 215 269 333 390
#     4  12  22  42  66  96 118 168 230 278 318 378
#
# _framework density 20.882916999999999
#
# number of rings (size 3 to 8) (size 9 to 14) (size 15 to 20)
#    0.000    0.571    5.714    3.429    0.000    1.143 
#    0.000    0.714    0.000    1.714    0.000    0.000 
#    0.000    0.000    0.000    0.000    0.000    0.000 
#
# Total GULP energy -156439.325770 kJ/mol
# GULP energy per Si atom -5587.118777 kJ/mol
# Density = 2.083539 g / cm^3
# Si number density = 20.882917 Si / 1000 Ang^3
#
#
#
# Elastic Constant Matrix: (Units=GPa)
#
#
# Indices 1 2 3 4 5 6 
#
# 1 166.6647 14.8304 11.3710 0.0000 0.0000 0.0000
# 2 14.8304 85.1902 -0.9682 0.0000 0.0000 0.0000
# 3 11.3710 -0.9682 38.3878 0.0000 0.0000 0.0000
# 4 0.0000 0.0000 0.0000 26.7115 0.0000 0.0000
# 5 0.0000 0.0000 0.0000 0.0000 26.9385 0.0000
# 6 0.0000 0.0000 0.0000 0.0000 0.0000 30.4501
#
#
#
# Elastic Compliance Matrix: (Units=1/GPa)
#
#
# Indices 1 2 3 4 5 6 
#
# 1 0.006226 -0.001105 -0.001872 0.000000 0.000000 0.000000
# 2 -0.001105 0.011938 0.000628 0.000000 0.000000 0.000000
# 3 -0.001872 0.000628 0.026620 0.000000 0.000000 0.000000
# 4 0.000000 0.000000 0.000000 0.037437 0.000000 0.000000
# 5 0.000000 0.000000 0.000000 0.000000 0.037122 0.000000
# 6 0.000000 0.000000 0.000000 0.000000 0.000000 0.032841
#
#
# Mechanical properties :
#
#
# Convention : Reuss Voigt Hill
#
# Bulk Modulus (GPa) = 24.94591 37.85658 31.40124
# Shear Modulus (GPa) = 29.36968 34.48733 31.92851
#
# Velocity S-wave (km/s) = 3.75427 4.06823 3.91439
# Velocity P-wave (km/s) = 5.54655 6.34308 5.95814
#
# Compressibility (1/GPa) = 0.04008673
#
# Stress axis : x y z
#
# Youngs Moduli (GPa) = 160.61313 83.76631 37.56529
#
# Poissons Ratio (x) = 0.09258 0.07033
# Poissons Ratio (y) = 0.17750 -0.02361
# Poissons Ratio (z) = 0.30069 -0.05264
#
# Static dielectric constant tensor:
#      x y z
#    x 1.884870 0.000000 0.000000 
#    y 0.000000 1.759850 0.000000 
#    z 0.000000 0.000000 1.731350 
# 
# From -- ./inp_files/17713.got.cif
#   From: 2010.05.17/outbox.cif.g08.bks.cpg/sg46_9_cif.got.tgz:17713.got - 2010.06.03 19:58:25.
