data_PCOD9379776
_publ_section_title
;
Structure prediction by ZEFSAII (Michael W. Deem and Ramdas Pophale) SiO2 
 PCOD9379776
Probable space group: I M A 2
;
_chemical_formula_sum "Si O2"
_cell_formula_units_Z 48
_cell_length_a 11.339968
_cell_length_b 21.241584
_cell_length_c 8.398744
_cell_angle_alpha 90.000000
_cell_angle_beta 90.000000
_cell_angle_gamma 90.000000
_cell_volume 2023.080072
_symmetry_space_group_name_H-M "I M A 2"
_symmetry_group_IT_number 46
_symmetry_cell_setting 'orthorhombic'
loop_
_space_group_symop_operation_xyz
x,y,z
-x,-y,z
1/2-x,y,z
1/2+x,-y,z
1/2+x,1/2+y,1/2+z
1/2-x,1/2-y,1/2+z
-x,1/2+y,1/2+z
x,1/2-y,1/2+z
loop_
_atom_site_type_symbol
_atom_site_label
_atom_site_fract_x
_atom_site_fract_y
_atom_site_fract_z
Si Si1 0.750000 0.342723 0.443900
Si Si2 0.391995 0.225776 0.664845
Si Si3 0.379381 0.069601 0.212618
Si Si4 0.452180 0.849218 0.425760
Si Si5 0.750000 0.229867 0.265599
Si Si6 0.124884 0.522488 0.993196
Si Si7 0.978696 0.847994 0.981851
O O1 0.750000 0.304125 0.281047
O O2 0.750000 0.290974 0.585027
O O3 0.616914 0.368548 0.465760
O O4 0.250000 0.230245 0.665408
O O5 0.446040 0.182245 0.527514
O O6 0.435611 0.189874 0.824724
O O7 0.446720 0.294071 0.616530
O O8 0.250000 0.097077 0.243252
O O9 0.481263 0.106499 0.301670
O O10 0.374873 0.002857 0.306952
O O11 0.408676 0.088054 0.030431
O O12 0.363800 0.799359 0.350784
O O13 0.377401 0.902863 0.513925
O O14 0.250000 0.497506 0.058531
O O15 0.000000 0.500000 0.062148
#
# Coordination Sequence:
#
# PCOD9379776 Si02
#       7
#     4   8   8   8   4   8   8
#     4  12  24  40  58  92 130 172 224 271 325 411
#     4  12  25  40  62  94 136 178 223 272 333 413
#     4  10  20  38  62  91 126 166 216 273 328 394
#     4  11  21  37  62  92 125 171 216 273 326 392
#     4  12  22  38  60  88 134 168 218 265 327 397
#     4   9  19  35  62  93 121 159 217 271 330 386
#     4  12  24  41  62  93 134 178 223 272 340 402
#
# _framework density 23.726201
#
# number of rings (size 3 to 8) (size 9 to 14) (size 15 to 20)
#    0.000    1.000    4.167    4.000    0.000    0.667 
#    0.000    0.000    0.000    9.000    0.000    9.333 
#    0.000    0.000    0.000    0.000    0.000    0.000 
#
# Total GULP energy -133635.911890 kJ/mol
# GULP energy per Si atom -5568.162995 kJ/mol
# Density = 2.367220 g / cm^3
# Si number density = 23.726201 Si / 1000 Ang^3
#
#
#
# Elastic Constant Matrix: (Units=GPa)
#
#
# Indices 1 2 3 4 5 6 
#
# 1 228.8489 18.6172 6.0004 0.0003 0.0000 0.0000
# 2 18.6172 70.2121 1.2797 0.0004 0.0001 -0.0001
# 3 6.0004 1.2797 34.1894 0.0001 0.0001 -0.0001
# 4 0.0003 0.0004 0.0001 17.1557 0.0000 -0.0001
# 5 0.0000 0.0001 0.0001 0.0000 8.9697 0.0000
# 6 0.0000 -0.0001 -0.0001 -0.0001 0.0000 29.1189
#
#
#
# Elastic Compliance Matrix: (Units=1/GPa)
#
#
# Indices 1 2 3 4 5 6 
#
# 1 0.004485 -0.001176 -0.000743 0.000000 0.000000 0.000000
# 2 -0.001176 0.014560 -0.000339 0.000000 0.000000 0.000000
# 3 -0.000743 -0.000339 0.029392 0.000000 0.000000 0.000000
# 4 0.000000 0.000000 0.000000 0.058290 0.000000 0.000000
# 5 0.000000 0.000000 0.000000 0.000000 0.111487 0.000000
# 6 0.000000 0.000000 0.000000 0.000000 0.000000 0.034342
#
#
# Mechanical properties :
#
#
# Convention : Reuss Voigt Hill
#
# Bulk Modulus (GPa) = 22.76744 42.78277 32.77510
# Shear Modulus (GPa) = 18.40190 31.53908 24.97049
#
# Velocity S-wave (km/s) = 2.78797 3.64990 3.24766
# Velocity P-wave (km/s) = 4.46995 5.98610 5.28270
#
# Compressibility (1/GPa) = 0.04392238
#
# Stress axis : x y z
#
# Youngs Moduli (GPa) = 222.97443 68.67917 34.02299
#
# Poissons Ratio (x) = 0.08074 0.02528
# Poissons Ratio (y) = 0.26214 0.01152
# Poissons Ratio (z) = 0.16569 0.02326
#
# Static dielectric constant tensor:
#      x y z
#    x 1.948240 0.000000 0.000000 
#    y 0.000000 1.968530 0.000000 
#    z 0.000000 0.000000 2.088880 
# 
# From -- ./inp_files/4740.got.cif
#   From: 2010.05.17/outbox.cif.g08.bks.cpg/sg46_3_cif.got.tgz:4740.got - 2010.06.03 19:58:25.
