data_PCOD9379083
_publ_section_title
;
Structure prediction by ZEFSAII (Michael W. Deem and Ramdas Pophale) SiO2 
 PCOD9379083
Probable space group: I M A 2
;
_chemical_formula_sum "Si O2"
_cell_formula_units_Z 64
_cell_length_a 13.734207
_cell_length_b 29.048093
_cell_length_c 8.897214
_cell_angle_alpha 90.000000
_cell_angle_beta 90.000000
_cell_angle_gamma 90.000000
_cell_volume 3549.565966
_symmetry_space_group_name_H-M "I M A 2"
_symmetry_group_IT_number 46
_symmetry_cell_setting 'orthorhombic'
loop_
_space_group_symop_operation_xyz
x,y,z
-x,-y,z
1/2-x,y,z
1/2+x,-y,z
1/2+x,1/2+y,1/2+z
1/2-x,1/2-y,1/2+z
-x,1/2+y,1/2+z
x,1/2-y,1/2+z
loop_
_atom_site_type_symbol
_atom_site_label
_atom_site_fract_x
_atom_site_fract_y
_atom_site_fract_z
Si Si1 0.134551 0.431904 0.596060
Si Si2 0.006474 0.894138 0.335871
Si Si3 0.640357 0.019951 0.920339
Si Si4 0.362004 0.281078 0.217790
Si Si5 0.138006 0.189898 0.375803
Si Si6 0.474151 0.552462 0.132489
Si Si7 0.543236 0.629055 0.354209
Si Si8 0.638335 0.382954 0.560680
O O1 0.250000 0.436194 0.629381
O O2 0.066400 0.427196 0.741105
O O3 0.096262 0.474893 0.496615
O O4 0.112785 0.388151 0.489482
O O5 0.935847 0.852176 0.378451
O O6 0.049472 0.919739 0.481222
O O7 0.088985 0.875933 0.222106
O O8 0.750000 0.005417 0.888065
O O9 0.600403 0.039836 0.765493
O O10 0.639555 0.061818 0.036481
O O11 0.250000 0.285290 0.271911
O O12 0.393865 0.229876 0.261855
O O13 0.422698 0.322588 0.288901
O O14 0.361975 0.287499 0.039868
O O15 0.250000 0.175281 0.340929
O O16 0.500000 0.500000 0.084799
O O17 0.543247 0.588875 0.225265
O O18 0.436380 0.633656 0.431149
O O19 0.750000 0.366692 0.547662
#
# Coordination Sequence:
#
# PCOD9379083 Si02
#       8
#     8   8   8   8   8   8   8   8
#     4  10  20  34  54  82 115 150 191 232 285 355
#     4  11  23  35  58  84 117 157 191 248 304 354
#     4   9  19  37  55  76 106 149 198 240 281 339
#     4  10  21  37  59  88 122 152 186 233 294 368
#     4  10  22  39  58  89 124 153 189 236 299 367
#     4  11  21  35  52  80 115 149 196 243 295 338
#     4  10  19  36  61  82 109 154 195 236 292 351
#     4   9  21  37  57  79 108 148 196 239 279 335
#
# _framework density 18.030373000000001
#
# number of rings (size 3 to 8) (size 9 to 14) (size 15 to 20)
#    0.000    2.000    2.500    0.750    5.250    0.500 
#    0.000    1.250    0.000    0.750    0.000    0.000 
#    0.000    0.000    0.000    0.000    0.000    0.000 
#
# Total GULP energy -178203.592407 kJ/mol
# GULP energy per Si atom -5568.862263 kJ/mol
# Density = 1.798933 g / cm^3
# Si number density = 18.030373 Si / 1000 Ang^3
#
#
#
# Elastic Constant Matrix: (Units=GPa)
#
#
# Indices 1 2 3 4 5 6 
#
# 1 66.5050 20.7318 13.0615 0.0005 -0.0002 0.0000
# 2 20.7318 70.3373 27.0238 -0.0003 -0.0002 -0.0001
# 3 13.0615 27.0238 73.3889 0.0028 -0.0018 -0.0002
# 4 0.0005 -0.0003 0.0028 31.8362 -0.0005 -0.0001
# 5 -0.0002 -0.0002 -0.0018 -0.0005 15.4733 0.0000
# 6 0.0000 -0.0001 -0.0002 -0.0001 0.0000 22.2539
#
#
#
# Elastic Compliance Matrix: (Units=1/GPa)
#
#
# Indices 1 2 3 4 5 6 
#
# 1 0.016672 -0.004396 -0.001349 0.000000 0.000000 0.000000
# 2 -0.004396 0.017719 -0.005742 0.000001 -0.000001 0.000000
# 3 -0.001349 -0.005742 0.015981 -0.000001 0.000002 0.000000
# 4 0.000000 0.000001 -0.000001 0.031411 0.000001 0.000000
# 5 0.000000 -0.000001 0.000002 0.000001 0.064628 0.000000
# 6 0.000000 0.000000 0.000000 0.000000 0.000000 0.044936
#
#
# Mechanical properties :
#
#
# Convention : Reuss Voigt Hill
#
# Bulk Modulus (GPa) = 36.49906 36.87393 36.68650
# Shear Modulus (GPa) = 22.37623 23.87361 23.12492
#
# Velocity S-wave (km/s) = 3.52665 3.64273 3.58516
# Velocity P-wave (km/s) = 6.07207 6.17965 6.12610
#
# Compressibility (1/GPa) = 0.02739797
#
# Stress axis : x y z
#
# Youngs Moduli (GPa) = 59.98215 56.43633 62.57617
#
# Poissons Ratio (x) = 0.24808 0.08438
# Poissons Ratio (y) = 0.26367 0.35933
# Poissons Ratio (z) = 0.08089 0.32407
#
# Static dielectric constant tensor:
#      x y z
#    x 1.650100 0.000000 0.000000 
#    y 0.000000 1.624850 0.000000 
#    z 0.000000 0.000000 1.640140 
# 
# From -- ./inp_files/6210.got.cif
#   From: 2010.05.17/outbox.cif.g08.bks.cpg/sg46_4_cif.got.tgz:6210.got - 2010.06.03 19:58:25.
