data_PCOD9379504
_publ_section_title
;
Structure prediction by ZEFSAII (Michael W. Deem and Ramdas Pophale) SiO2 
 PCOD9379504
Probable space group: I M A 2
;
_chemical_formula_sum "Si O2"
_cell_formula_units_Z 44
_cell_length_a 20.395791
_cell_length_b 6.683049
_cell_length_c 16.796866
_cell_angle_alpha 90.000000
_cell_angle_beta 90.000000
_cell_angle_gamma 90.000000
_cell_volume 2289.514804
_symmetry_space_group_name_H-M "I M A 2"
_symmetry_group_IT_number 46
_symmetry_cell_setting 'orthorhombic'
loop_
_space_group_symop_operation_xyz
x,y,z
-x,-y,z
1/2-x,y,z
1/2+x,-y,z
1/2+x,1/2+y,1/2+z
1/2-x,1/2-y,1/2+z
-x,1/2+y,1/2+z
x,1/2-y,1/2+z
loop_
_atom_site_type_symbol
_atom_site_label
_atom_site_fract_x
_atom_site_fract_y
_atom_site_fract_z
Si Si1 0.445382 0.661345 0.511950
Si Si2 0.824964 0.420033 0.621035
Si Si3 0.879466 0.423895 0.227396
Si Si4 0.324221 0.179157 0.279826
Si Si5 0.000000 0.000000 0.627377
Si Si6 0.071038 0.599031 0.851961
O O1 0.500000 0.500000 0.487369
O O2 0.381911 0.565871 0.555130
O O3 0.424662 0.794652 0.437053
O O4 0.480419 0.809976 0.574575
O O5 0.750000 0.431118 0.591262
O O6 0.837378 0.207479 0.665529
O O7 0.832836 0.583793 0.691286
O O8 0.837050 0.585550 0.273876
O O9 0.914561 0.266741 0.285670
O O10 0.936864 0.540777 0.181452
O O11 0.250000 0.134972 0.304224
O O12 0.375158 0.071895 0.337735
O O13 0.000000 0.500000 0.842289
#
# Coordination Sequence:
#
# PCOD9379504 Si02
#       6
#     8   8   8   8   4   8
#     4  11  23  37  59  85 121 160 199 246 303 355
#     4   9  20  39  60  87 118 153 200 251 298 357
#     4  10  20  35  64  88 115 157 200 244 299 359
#     4  10  21  39  62  90 120 155 201 250 300 362
#     4  10  20  36  58  88 116 150 208 244 294 352
#     4  11  24  38  59  88 126 159 199 251 300 354
#
# _framework density 19.218045
#
# number of rings (size 3 to 8) (size 9 to 14) (size 15 to 20)
#    0.000    1.818    0.909    2.727    3.818    6.545 
#    0.000    0.000    0.000    0.000    0.000    0.000 
#    0.000    0.000    0.000    0.000    0.000    0.000 
#
# Total GULP energy -122869.843828 kJ/mol
# GULP energy per Si atom -5584.992901 kJ/mol
# Density = 1.917430 g / cm^3
# Si number density = 19.218045 Si / 1000 Ang^3
#
#
#
# Elastic Constant Matrix: (Units=GPa)
#
#
# Indices 1 2 3 4 5 6 
#
# 1 114.8592 27.5429 28.8750 0.0000 0.0000 0.0000
# 2 27.5429 52.9572 4.5464 0.0000 0.0000 0.0000
# 3 28.8750 4.5464 44.3422 0.0000 0.0000 0.0000
# 4 0.0000 0.0000 0.0000 13.1163 0.0000 0.0000
# 5 0.0000 0.0000 0.0000 0.0000 9.0593 0.0000
# 6 0.0000 0.0000 0.0000 0.0000 0.0000 23.2897
#
#
#
# Elastic Compliance Matrix: (Units=1/GPa)
#
#
# Indices 1 2 3 4 5 6 
#
# 1 0.011828 -0.005539 -0.007134 0.000000 0.000000 0.000000
# 2 -0.005539 0.021645 0.001388 0.000000 0.000000 0.000000
# 3 -0.007134 0.001388 0.027055 0.000000 0.000000 0.000000
# 4 0.000000 0.000000 0.000000 0.076241 0.000000 0.000000
# 5 0.000000 0.000000 0.000000 0.000000 0.110383 0.000000
# 6 0.000000 0.000000 0.000000 0.000000 0.000000 0.042938
#
#
# Mechanical properties :
#
#
# Convention : Reuss Voigt Hill
#
# Bulk Modulus (GPa) = 26.34568 37.12080 31.73324
# Shear Modulus (GPa) = 15.36975 19.17269 17.27122
#
# Velocity S-wave (km/s) = 2.83106 3.16197 3.00108
# Velocity P-wave (km/s) = 4.94218 5.71737 5.34385
#
# Compressibility (1/GPa) = 0.03795688
#
# Stress axis : x y z
#
# Youngs Moduli (GPa) = 84.54396 46.20007 36.96125
#
# Poissons Ratio (x) = 0.25592 0.26370
# Poissons Ratio (y) = 0.46832 -0.05130
# Poissons Ratio (z) = 0.60317 -0.06412
#
# Static dielectric constant tensor:
#      x y z
#    x 1.669460 0.000000 0.000000 
#    y 0.000000 1.662810 0.000000 
#    z 0.000000 0.000000 1.654710 
# 
# From -- ./inp_files/20306.got.cif
#   From: 2010.05.17/outbox.cif.g08.bks.cpg/sg46_11_cif.got.tgz:20306.got - 2010.06.03 19:58:25.
