data_PCOD9379551
_publ_section_title
;
Structure prediction by ZEFSAII (Michael W. Deem and Ramdas Pophale) SiO2 
 PCOD9379551
Probable space group: I M A 2
;
_chemical_formula_sum "Si O2"
_cell_formula_units_Z 64
_cell_length_a 7.961064
_cell_length_b 33.974469
_cell_length_c 12.180226
_cell_angle_alpha 90.000000
_cell_angle_beta 90.000000
_cell_angle_gamma 90.000000
_cell_volume 3294.421318
_symmetry_space_group_name_H-M "I M A 2"
_symmetry_group_IT_number 46
_symmetry_cell_setting 'orthorhombic'
loop_
_space_group_symop_operation_xyz
x,y,z
-x,-y,z
1/2-x,y,z
1/2+x,-y,z
1/2+x,1/2+y,1/2+z
1/2-x,1/2-y,1/2+z
-x,1/2+y,1/2+z
x,1/2-y,1/2+z
loop_
_atom_site_type_symbol
_atom_site_label
_atom_site_fract_x
_atom_site_fract_y
_atom_site_fract_z
Si Si1 0.450044 0.454335 0.400110
Si Si2 0.451122 0.724736 0.896915
Si Si3 0.047103 0.454677 0.156629
Si Si4 0.550012 0.853145 0.267677
Si Si5 0.044423 0.812413 0.848480
Si Si6 0.453337 0.673507 0.097832
Si Si7 0.550064 0.377101 0.522894
Si Si8 0.056634 0.098729 0.467529
O O1 0.500000 0.500000 0.420892
O O2 0.250000 0.454304 0.395016
O O3 0.514282 0.441581 0.277981
O O4 0.501812 0.421393 0.487684
O O5 0.250000 0.727088 0.891399
O O6 0.498869 0.690071 0.811775
O O7 0.516840 0.768340 0.874553
O O8 0.494634 0.710269 0.019449
O O9 0.250000 0.449731 0.155674
O O10 0.977646 0.433492 0.048155
O O11 0.000000 0.500000 0.150735
O O12 0.750000 0.854487 0.277870
O O13 0.503564 0.863721 0.144026
O O14 0.479526 0.885989 0.353253
O O15 0.250000 0.812073 0.853501
O O16 0.999585 0.821895 0.723566
O O17 0.984139 0.845590 0.933265
O O18 0.250000 0.667264 0.090855
O O19 0.548170 0.637272 0.043509
O O20 0.750000 0.375187 0.519604
O O21 0.250000 0.087001 0.445608
#
# Coordination Sequence:
#
# PCOD9379551 Si02
#       8
#     8   8   8   8   8   8   8   8
#     4  10  20  36  58  84 115 146 180 224 277 332
#     4   9  18  33  54  76 101 136 177 221 270 324
#     4   9  18  32  53  81 108 137 168 211 268 323
#     4  10  21  37  54  74 106 146 184 226 274 326
#     4   9  19  32  52  80 106 136 176 225 273 323
#     4   9  17  30  50  75  99 128 170 214 261 312
#     4  11  22  36  56  82 110 146 190 232 276 331
#     4   9  18  34  53  72 101 137 172 211 265 319
#
# _framework density 19.426780999999998
#
# number of rings (size 3 to 8) (size 9 to 14) (size 15 to 20)
#    0.000    2.500    0.000    1.875    1.750    1.500 
#    0.000    3.125    0.000    1.500    0.000    0.000 
#    0.000    0.000    0.000    0.000    0.000    0.000 
#
# Total GULP energy -178366.139475 kJ/mol
# GULP energy per Si atom -5573.941859 kJ/mol
# Density = 1.938256 g / cm^3
# Si number density = 19.426781 Si / 1000 Ang^3
#
#
#
# Elastic Constant Matrix: (Units=GPa)
#
#
# Indices 1 2 3 4 5 6 
#
# 1 10.5980 -5.2223 4.2388 0.0002 0.0000 0.0000
# 2 -5.2223 77.6838 70.6869 0.0003 0.0001 0.0000
# 3 4.2388 70.6869 166.1310 0.0003 0.0003 0.0000
# 4 0.0002 0.0003 0.0003 15.7676 0.0001 0.0000
# 5 0.0000 0.0001 0.0003 0.0001 11.4329 0.0000
# 6 0.0000 0.0000 0.0000 0.0000 0.0000 16.3274
#
#
#
# Elastic Compliance Matrix: (Units=1/GPa)
#
#
# Indices 1 2 3 4 5 6 
#
# 1 0.105787 0.015612 -0.009342 -0.000001 0.000000 0.000000
# 2 0.015612 0.023309 -0.010316 0.000000 0.000000 0.000000
# 3 -0.009342 -0.010316 0.010647 0.000000 0.000000 0.000000
# 4 -0.000001 0.000000 0.000000 0.063421 -0.000001 0.000000
# 5 0.000000 0.000000 0.000000 -0.000001 0.087467 0.000000
# 6 0.000000 0.000000 0.000000 0.000000 0.000000 0.061247
#
#
# Mechanical properties :
#
#
# Convention : Reuss Voigt Hill
#
# Bulk Modulus (GPa) = 7.59580 43.75771 25.67676
# Shear Modulus (GPa) = 12.38071 21.01954 16.70013
#
# Velocity S-wave (km/s) = 2.52722 3.29293 2.93515
# Velocity P-wave (km/s) = 3.52622 6.08532 4.97320
#
# Compressibility (1/GPa) = 0.13165172
#
# Stress axis : x y z
#
# Youngs Moduli (GPa) = 9.45293 42.90151 93.92226
#
# Poissons Ratio (x) = -0.66978 0.87741
# Poissons Ratio (y) = -0.14758 0.96892
# Poissons Ratio (z) = 0.08831 0.44258
#
# Static dielectric constant tensor:
#      x y z
#    x 1.769760 0.000000 0.000000 
#    y 0.000000 1.684130 0.000000 
#    z 0.000000 0.000000 1.733130 
# 
# From -- ./inp_files/9720.got.cif
#   From: 2010.05.17/outbox.cif.g08.bks.cpg/sg46_5_cif.got.tgz:9720.got - 2010.06.03 19:58:25.
