data_PCOD9379740
_publ_section_title
;
Structure prediction by ZEFSAII (Michael W. Deem and Ramdas Pophale) SiO2 
 PCOD9379740
Probable space group: I M A 2
;
_chemical_formula_sum "Si O2"
_cell_formula_units_Z 52
_cell_length_a 15.661357
_cell_length_b 11.157485
_cell_length_c 13.955065
_cell_angle_alpha 90.000000
_cell_angle_beta 90.000000
_cell_angle_gamma 90.000000
_cell_volume 2438.526978
_symmetry_space_group_name_H-M "I M A 2"
_symmetry_group_IT_number 46
_symmetry_cell_setting 'orthorhombic'
loop_
_space_group_symop_operation_xyz
x,y,z
-x,-y,z
1/2-x,y,z
1/2+x,-y,z
1/2+x,1/2+y,1/2+z
1/2-x,1/2-y,1/2+z
-x,1/2+y,1/2+z
x,1/2-y,1/2+z
loop_
_atom_site_type_symbol
_atom_site_label
_atom_site_fract_x
_atom_site_fract_y
_atom_site_fract_z
Si Si1 0.850561 0.552334 0.326600
Si Si2 0.461281 0.237555 0.104918
Si Si3 0.547084 0.701489 0.816783
Si Si4 0.750000 0.249208 0.055275
Si Si5 0.650988 0.602888 0.981034
Si Si6 0.584662 0.334295 0.439641
Si Si7 0.613113 0.406118 0.135131
O O1 0.750000 0.558141 0.346292
O O2 0.891141 0.682888 0.325067
O O3 0.898332 0.466334 0.400555
O O4 0.866380 0.489249 0.224549
O O5 0.451921 0.168991 0.204928
O O6 0.377407 0.289036 0.052495
O O7 0.517443 0.356445 0.130678
O O8 0.516258 0.169413 0.025544
O O9 0.456634 0.749137 0.857427
O O10 0.588073 0.607644 0.890371
O O11 0.825901 0.213467 0.979016
O O12 0.675590 0.293082 0.132026
O O13 0.750000 0.613376 0.954264
O O14 0.637512 0.481182 0.040352
#
# Coordination Sequence:
#
# PCOD9379740 Si02
#       7
#     8   8   8   4   8   8   8
#     4  12  21  36  64 101 125 165 212 265 309 381
#     4  10  22  38  62  92 124 168 207 263 314 374
#     4  11  23  38  61  94 131 170 212 253 320 380
#     4  10  20  38  58  92 130 156 204 274 316 362
#     4  11  22  37  58  96 129 164 205 265 316 375
#     4  10  22  37  59  95 130 163 208 262 321 371
#     4  11  20  36  65  96 124 159 214 264 317 369
#
# _framework density 21.324349999999999
#
# number of rings (size 3 to 8) (size 9 to 14) (size 15 to 20)
#    0.000    1.231    5.385    1.385    0.000    0.615 
#    0.000    0.000    0.000   22.154    0.000    0.000 
#    0.000    0.000    0.000    0.000    0.000    0.000 
#
# Total GULP energy -144859.721002 kJ/mol
# GULP energy per Si atom -5571.527731 kJ/mol
# Density = 2.127581 g / cm^3
# Si number density = 21.324350 Si / 1000 Ang^3
#
#
#
# Elastic Constant Matrix: (Units=GPa)
#
#
# Indices 1 2 3 4 5 6 
#
# 1 100.8538 7.0121 -0.0175 0.0000 0.0000 0.0000
# 2 7.0121 22.2748 7.4715 0.0000 0.0000 0.0000
# 3 -0.0175 7.4715 101.2568 0.0000 0.0000 0.0000
# 4 0.0000 0.0000 0.0000 29.1234 0.0000 0.0000
# 5 0.0000 0.0000 0.0000 0.0000 25.1459 0.0000
# 6 0.0000 0.0000 0.0000 0.0000 0.0000 28.4841
#
#
#
# Elastic Compliance Matrix: (Units=1/GPa)
#
#
# Indices 1 2 3 4 5 6 
#
# 1 0.010143 -0.003275 0.000243 0.000000 0.000000 0.000000
# 2 -0.003275 0.047090 -0.003475 0.000000 0.000000 0.000000
# 3 0.000243 -0.003475 0.010132 0.000000 0.000000 0.000000
# 4 0.000000 0.000000 0.000000 0.034337 0.000000 0.000000
# 5 0.000000 0.000000 0.000000 0.000000 0.039768 0.000000
# 6 0.000000 0.000000 0.000000 0.000000 0.000000 0.035107
#
#
# Mechanical properties :
#
#
# Convention : Reuss Voigt Hill
#
# Bulk Modulus (GPa) = 18.39839 28.14642 23.27240
# Shear Modulus (GPa) = 24.07222 30.54528 27.30875
#
# Velocity S-wave (km/s) = 3.36350 3.78883 3.58248
# Velocity P-wave (km/s) = 4.87142 5.68930 5.29617
#
# Compressibility (1/GPa) = 0.05435259
#
# Stress axis : x y z
#
# Youngs Moduli (GPa) = 98.58951 21.23581 98.69371
#
# Poissons Ratio (x) = 0.06954 -0.02402
# Poissons Ratio (y) = 0.32285 0.34299
# Poissons Ratio (z) = -0.02399 0.07380
#
# Static dielectric constant tensor:
#      x y z
#    x 1.756600 0.000000 0.000000 
#    y 0.000000 1.810990 0.000000 
#    z 0.000000 0.000000 1.808380 
# 
# From -- ./inp_files/11889.got.cif
#   From: 2010.05.17/outbox.cif.g08.bks.cpg/sg46_6_cif.got.tgz:11889.got - 2010.06.03 19:58:25.
