data_PCOD9379896
_publ_section_title
;
Structure prediction by ZEFSAII (Michael W. Deem and Ramdas Pophale) SiO2 
 PCOD9379896
Probable space group: I M A 2
;
_chemical_formula_sum "Si O2"
_cell_formula_units_Z 60
_cell_length_a 20.637083
_cell_length_b 22.287876
_cell_length_c 5.387811
_cell_angle_alpha 90.000000
_cell_angle_beta 90.000000
_cell_angle_gamma 90.000000
_cell_volume 2478.160021
_symmetry_space_group_name_H-M "I M A 2"
_symmetry_group_IT_number 46
_symmetry_cell_setting 'orthorhombic'
loop_
_space_group_symop_operation_xyz
x,y,z
-x,-y,z
1/2-x,y,z
1/2+x,-y,z
1/2+x,1/2+y,1/2+z
1/2-x,1/2-y,1/2+z
-x,1/2+y,1/2+z
x,1/2-y,1/2+z
loop_
_atom_site_type_symbol
_atom_site_label
_atom_site_fract_x
_atom_site_fract_y
_atom_site_fract_z
Si Si1 0.002910 0.727682 0.366150
Si Si2 0.750000 0.341737 0.618509
Si Si3 0.651067 0.089753 0.776087
Si Si4 0.886578 0.581086 0.574924
Si Si5 0.326720 0.288305 0.625479
Si Si6 0.971110 0.103846 0.020689
Si Si7 0.177180 0.034802 0.569133
Si Si8 0.621140 0.314281 0.863905
O O1 0.971283 0.743148 0.627970
O O2 0.006382 0.657034 0.334670
O O3 0.074893 0.756912 0.407503
O O4 0.805276 0.387843 0.501557
O O5 0.689898 0.300917 0.732237
O O6 0.582295 0.066342 0.877017
O O7 0.642072 0.148593 0.606991
O O8 0.679961 0.036466 0.616763
O O9 0.866934 0.650380 0.612675
O O10 0.852167 0.546089 0.798914
O O11 0.963783 0.573459 0.606798
O O12 0.862488 0.562313 0.300772
O O13 0.250000 0.305004 0.623335
O O14 0.337537 0.251632 0.879456
O O15 0.929587 0.140727 0.224419
O O16 0.250000 0.059889 0.578480
#
# Coordination Sequence:
#
# PCOD9379896 Si02
#       8
#     8   4   8   8   8   8   8   8
#     4  10  20  40  67  96 141 190 232 298 360 431
#     4  10  22  40  72 106 138 192 258 310 362 438
#     4  11  23  45  72  99 144 197 250 304 377 445
#     4  12  28  47  73 116 145 191 250 307 375 452
#     4  10  21  41  71 103 143 184 228 293 367 440
#     4  10  25  44  69 103 145 189 247 301 381 451
#     4  12  28  48  78 105 147 195 252 316 371 443
#     4  10  22  41  71 100 147 190 249 309 369 447
#
# _framework density 24.211511999999999
#
# number of rings (size 3 to 8) (size 9 to 14) (size 15 to 20)
#    0.000    1.333    2.000    2.400    5.600    3.733 
#    0.000    6.000    0.000    0.000    0.000    0.000 
#    0.000    0.000    0.000    0.000    0.000    0.000 
#
# Total GULP energy -167329.114365 kJ/mol
# GULP energy per Si atom -5577.637145 kJ/mol
# Density = 2.415641 g / cm^3
# Si number density = 24.211512 Si / 1000 Ang^3
#
#
#
# Elastic Constant Matrix: (Units=GPa)
#
#
# Indices 1 2 3 4 5 6 
#
# 1 172.0303 5.3802 29.4335 0.0000 0.0000 0.0000
# 2 5.3802 53.6269 2.0383 0.0000 0.0000 0.0000
# 3 29.4335 2.0383 82.6390 0.0000 0.0000 0.0000
# 4 0.0000 0.0000 0.0000 37.7574 0.0000 0.0000
# 5 0.0000 0.0000 0.0000 0.0000 27.9570 0.0000
# 6 0.0000 0.0000 0.0000 0.0000 0.0000 28.5548
#
#
#
# Elastic Compliance Matrix: (Units=1/GPa)
#
#
# Indices 1 2 3 4 5 6 
#
# 1 0.006206 -0.000539 -0.002197 0.000000 0.000000 0.000000
# 2 -0.000539 0.018712 -0.000270 0.000000 0.000000 0.000000
# 3 -0.002197 -0.000270 0.012890 0.000000 0.000000 0.000000
# 4 0.000000 0.000000 0.000000 0.026485 0.000000 0.000000
# 5 0.000000 0.000000 0.000000 0.000000 0.035769 0.000000
# 6 0.000000 0.000000 0.000000 0.000000 0.000000 0.035020
#
#
# Mechanical properties :
#
#
# Convention : Reuss Voigt Hill
#
# Bulk Modulus (GPa) = 31.45033 42.44446 36.94739
# Shear Modulus (GPa) = 32.96160 36.95012 34.95586
#
# Velocity S-wave (km/s) = 3.69372 3.91082 3.80382
# Velocity P-wave (km/s) = 5.58654 6.16129 5.88094
#
# Compressibility (1/GPa) = 0.03179617
#
# Stress axis : x y z
#
# Youngs Moduli (GPa) = 161.14263 53.44253 77.57972
#
# Poissons Ratio (x) = 0.02881 0.17044
# Poissons Ratio (y) = 0.08687 0.02091
# Poissons Ratio (z) = 0.35403 0.01440
#
# Static dielectric constant tensor:
#      x y z
#    x 1.971600 0.000000 0.000000 
#    y 0.000000 1.904550 0.000000 
#    z 0.000000 0.000000 1.996810 
# 
# From -- ./inp_files/2167.got.cif
#   From: 2010.05.17/outbox.cif.g08.bks.cpg/sg46_2_cif.got.tgz:2167.got - 2010.06.03 19:58:25.
