data_PCOD9379540
_publ_section_title
;
Structure prediction by ZEFSAII (Michael W. Deem and Ramdas Pophale) SiO2 
 PCOD9379540
Probable space group: I M A 2
;
_chemical_formula_sum "Si O2"
_cell_formula_units_Z 32
_cell_length_a 16.909140
_cell_length_b 11.656554
_cell_length_c 7.536765
_cell_angle_alpha 90.000000
_cell_angle_beta 90.000000
_cell_angle_gamma 90.000000
_cell_volume 1485.513742
_symmetry_space_group_name_H-M "I M A 2"
_symmetry_group_IT_number 46
_symmetry_cell_setting 'orthorhombic'
loop_
_space_group_symop_operation_xyz
x,y,z
-x,-y,z
1/2-x,y,z
1/2+x,-y,z
1/2+x,1/2+y,1/2+z
1/2-x,1/2-y,1/2+z
-x,1/2+y,1/2+z
x,1/2-y,1/2+z
loop_
_atom_site_type_symbol
_atom_site_label
_atom_site_fract_x
_atom_site_fract_y
_atom_site_fract_z
Si Si1 0.881506 0.416722 0.831960
Si Si2 0.336408 0.810764 0.956934
Si Si3 0.056323 0.139096 0.453224
Si Si4 0.493720 0.376769 0.353541
O O1 0.848540 0.376381 0.642712
O O2 0.878331 0.551947 0.876475
O O3 0.974877 0.387166 0.848073
O O4 0.841210 0.327885 0.968885
O O5 0.250000 0.840746 0.885060
O O6 0.414488 0.840108 0.844791
O O7 0.058650 0.277407 0.443715
O O8 0.041865 0.108580 0.658087
O O9 0.500000 0.500000 0.446478
#
# Coordination Sequence:
#
# PCOD9379540 Si02
#       4
#     8   8   8   8
#     4  10  20  36  57  89 130 158 207 262 312 375
#     4  11  23  37  61  94 129 170 208 259 327 385
#     4  10  21  37  58  94 121 158 218 263 318 367
#     4  11  22  38  64  95 122 166 213 270 323 374
#
# _framework density 21.541367000000001
#
# number of rings (size 3 to 8) (size 9 to 14) (size 15 to 20)
#    0.000    1.500    2.500    6.750    7.000    0.000 
#    0.000    1.250    0.000    3.000    0.000    0.000 
#    0.000    0.000    0.000    0.000    0.000    0.000 
#
# Total GULP energy -89143.936314 kJ/mol
# GULP energy per Si atom -5571.496020 kJ/mol
# Density = 2.149234 g / cm^3
# Si number density = 21.541367 Si / 1000 Ang^3
#
#
#
# Elastic Constant Matrix: (Units=GPa)
#
#
# Indices 1 2 3 4 5 6 
#
# 1 56.3709 8.4558 -3.6526 0.0000 0.0000 0.0000
# 2 8.4558 165.9144 13.8395 0.0000 0.0000 0.0000
# 3 -3.6526 13.8395 66.0272 0.0000 0.0000 0.0000
# 4 0.0000 0.0000 0.0000 28.5565 0.0000 0.0000
# 5 0.0000 0.0000 0.0000 0.0000 19.8406 0.0000
# 6 0.0000 0.0000 0.0000 0.0000 0.0000 8.8518
#
#
#
# Elastic Compliance Matrix: (Units=1/GPa)
#
#
# Indices 1 2 3 4 5 6 
#
# 1 0.017970 -0.001017 0.001207 0.000000 0.000000 0.000000
# 2 -0.001017 0.006192 -0.001354 0.000000 0.000000 0.000000
# 3 0.001207 -0.001354 0.015496 0.000000 0.000000 0.000000
# 4 0.000000 0.000000 0.000000 0.035018 0.000000 0.000000
# 5 0.000000 0.000000 0.000000 0.000000 0.050402 0.000000
# 6 0.000000 0.000000 0.000000 0.000000 0.000000 0.112972
#
#
# Mechanical properties :
#
#
# Convention : Reuss Voigt Hill
#
# Bulk Modulus (GPa) = 26.78720 36.17754 31.48237
# Shear Modulus (GPa) = 19.77686 29.42776 24.60231
#
# Velocity S-wave (km/s) = 3.03328 3.70009 3.38316
# Velocity P-wave (km/s) = 4.97292 5.92327 5.46878
#
# Compressibility (1/GPa) = 0.03733127
#
# Stress axis : x y z
#
# Youngs Moduli (GPa) = 55.64724 161.49971 64.53330
#
# Poissons Ratio (x) = 0.16417 -0.07790
# Poissons Ratio (y) = 0.05657 0.08738
# Poissons Ratio (z) = -0.06718 0.21868
#
# Static dielectric constant tensor:
#      x y z
#    x 1.736100 0.000000 0.000000 
#    y 0.000000 1.973300 0.000000 
#    z 0.000000 0.000000 1.820380 
# 
# From -- ./inp_files/6339.got.cif
#   From: 2010.05.17/outbox.cif.g08.bks.cpg/sg46_4_cif.got.tgz:6339.got - 2010.06.03 19:58:25.
