data_PCOD9379445
_publ_section_title
;
Structure prediction by ZEFSAII (Michael W. Deem and Ramdas Pophale) SiO2 
 PCOD9379445
Probable space group: I M A 2
;
_chemical_formula_sum "Si O2"
_cell_formula_units_Z 64
_cell_length_a 8.997680
_cell_length_b 14.773492
_cell_length_c 24.155337
_cell_angle_alpha 90.000000
_cell_angle_beta 90.000000
_cell_angle_gamma 90.000000
_cell_volume 3210.900189
_symmetry_space_group_name_H-M "I M A 2"
_symmetry_group_IT_number 46
_symmetry_cell_setting 'orthorhombic'
loop_
_space_group_symop_operation_xyz
x,y,z
-x,-y,z
1/2-x,y,z
1/2+x,-y,z
1/2+x,1/2+y,1/2+z
1/2-x,1/2-y,1/2+z
-x,1/2+y,1/2+z
x,1/2-y,1/2+z
loop_
_atom_site_type_symbol
_atom_site_label
_atom_site_fract_x
_atom_site_fract_y
_atom_site_fract_z
Si Si1 0.576466 0.804497 0.129270
Si Si2 0.081468 0.422950 0.363022
Si Si3 0.920393 0.736987 0.447444
Si Si4 0.073825 0.598467 0.531207
Si Si5 0.420836 0.625874 0.253119
Si Si6 0.077263 0.191194 0.258580
Si Si7 0.072457 0.096371 0.375198
Si Si8 0.573845 0.592314 0.139065
O O1 0.750000 0.812747 0.112387
O O2 0.473048 0.866421 0.091953
O O3 0.570234 0.835547 0.193776
O O4 0.535190 0.696804 0.121974
O O5 0.250000 0.447341 0.349136
O O6 0.086864 0.329209 0.394703
O O7 0.000000 0.500000 0.398666
O O8 0.976571 0.412798 0.310541
O O9 0.750000 0.750203 0.467834
O O10 0.979869 0.830080 0.420977
O O11 0.011990 0.678883 0.491620
O O12 0.250000 0.590173 0.524648
O O13 0.000000 0.500000 0.522503
O O14 0.250000 0.606331 0.240580
O O15 0.454034 0.731457 0.260811
O O16 0.525391 0.594527 0.203298
O O17 0.250000 0.225614 0.266114
O O18 0.048443 0.126665 0.310952
O O19 0.250000 0.091742 0.381692
O O20 0.000000 0.000000 0.384604
O O21 0.500000 0.500000 0.114922
O O22 0.750000 0.583907 0.133381
#
# Coordination Sequence:
#
# PCOD9379445 Si02
#       8
#     8   8   8   8   8   8   8   8
#     4   9  20  39  64  91 124 165 209 258 312 366
#     4  11  21  34  52  78 112 151 195 243 299 360
#     4  10  22  42  65  86 119 159 201 253 309 364
#     4  12  26  44  68  94 124 158 205 259 313 374
#     4  11  20  30  49  79 116 158 201 245 293 355
#     4   9  18  37  60  86 123 165 205 249 307 360
#     4  10  21  39  63  93 127 164 202 250 306 367
#     4  10  20  35  56  83 120 163 204 250 302 361
#
# _framework density 19.932103999999999
#
# number of rings (size 3 to 8) (size 9 to 14) (size 15 to 20)
#    0.000    1.750    1.250    4.500    0.000    6.000 
#    0.000    1.875    0.000    0.000    0.000    0.000 
#    0.000    0.000    0.000    0.000    0.000    0.000 
#
# Total GULP energy -178363.640510 kJ/mol
# GULP energy per Si atom -5573.863766 kJ/mol
# Density = 1.988674 g / cm^3
# Si number density = 19.932104 Si / 1000 Ang^3
#
#
#
# Elastic Constant Matrix: (Units=GPa)
#
#
# Indices 1 2 3 4 5 6 
#
# 1 65.0085 50.7300 37.5942 0.0000 0.0000 0.0000
# 2 50.7300 127.8932 44.6047 0.0000 0.0000 0.0000
# 3 37.5942 44.6047 71.1355 0.0000 0.0000 0.0000
# 4 0.0000 0.0000 0.0000 -2.4557 0.0000 0.0000
# 5 0.0000 0.0000 0.0000 0.0000 17.0632 0.0000
# 6 0.0000 0.0000 0.0000 0.0000 0.0000 35.2523
#
#
#
# Elastic Compliance Matrix: (Units=1/GPa)
#
#
# Indices 1 2 3 4 5 6 
#
# 1 0.026483 -0.007197 -0.009483 0.000000 0.000000 0.000000
# 2 -0.007197 0.011964 -0.003698 0.000000 0.000000 0.000000
# 3 -0.009483 -0.003698 0.021388 0.000000 0.000000 0.000000
# 4 0.000000 0.000000 0.000000 -0.407212 0.000000 0.000000
# 5 0.000000 0.000000 0.000000 0.000000 0.058606 0.000000
# 6 0.000000 0.000000 0.000000 0.000000 0.000000 0.028367
#
#
# Mechanical properties :
#
#
# Convention : Reuss Voigt Hill
#
# Bulk Modulus (GPa) = 52.41576 58.87723 55.64650
# Shear Modulus (GPa) = -23.44239 18.71251 -2.36494
#
# Velocity S-wave (km/s) = -3.43317 3.06733 -1.09045
# Velocity P-wave (km/s) = 3.26170 6.49213 5.13743
#
# Compressibility (1/GPa) = 0.01907823
#
# Stress axis : x y z
#
# Youngs Moduli (GPa) = 37.75989 83.58645 46.75518
#
# Poissons Ratio (x) = 0.60161 0.44338
# Poissons Ratio (y) = 0.27178 0.17290
# Poissons Ratio (z) = 0.35807 0.30909
#
# Static dielectric constant tensor:
#      x y z
#    x 1.681910 0.000000 0.000000 
#    y 0.000000 1.907460 0.000000 
#    z 0.000000 0.000000 1.746040 
# 
# From -- ./inp_files/23168.got.cif
#   From: 2010.05.17/outbox.cif.g08.bks.cpg/sg46_12_cif.got.tgz:23168.got - 2010.06.03 19:58:25.
