data_PCOD9379075
_publ_section_title
;
Structure prediction by ZEFSAII (Michael W. Deem and Ramdas Pophale) SiO2 
 PCOD9379075
Probable space group: I M A 2
;
_chemical_formula_sum "Si O2"
_cell_formula_units_Z 64
_cell_length_a 26.569221
_cell_length_b 17.005580
_cell_length_c 5.588174
_cell_angle_alpha 90.000000
_cell_angle_beta 90.000000
_cell_angle_gamma 90.000000
_cell_volume 2524.876792
_symmetry_space_group_name_H-M "I M A 2"
_symmetry_group_IT_number 46
_symmetry_cell_setting 'orthorhombic'
loop_
_space_group_symop_operation_xyz
x,y,z
-x,-y,z
1/2-x,y,z
1/2+x,-y,z
1/2+x,1/2+y,1/2+z
1/2-x,1/2-y,1/2+z
-x,1/2+y,1/2+z
x,1/2-y,1/2+z
loop_
_atom_site_type_symbol
_atom_site_label
_atom_site_fract_x
_atom_site_fract_y
_atom_site_fract_z
Si Si1 0.353409 0.271157 0.248530
Si Si2 0.954115 0.663684 0.748530
Si Si3 0.911209 0.403393 0.248532
Si Si4 0.310749 0.969268 0.748532
Si Si5 0.937126 0.323318 0.748532
Si Si6 0.926262 0.589611 0.248530
Si Si7 0.171927 0.783247 0.248532
Si Si8 0.190716 0.528991 0.748532
O O1 0.326905 0.250000 0.498530
O O2 0.404954 0.218530 0.248530
O O3 0.374909 0.359008 0.248530
O O4 0.952003 0.614612 0.501056
O O5 0.006771 0.710684 0.748531
O O6 0.952003 0.614611 0.996003
O O7 0.849744 0.396330 0.248532
O O8 0.931334 0.371548 0.501361
O O9 0.921650 0.496411 0.248531
O O10 0.931334 0.371547 0.995705
O O11 0.250000 0.952034 0.748532
O O12 0.324440 0.008862 0.497163
O O13 0.324440 0.008862 0.999900
O O14 0.888445 0.267642 0.748532
O O15 0.192811 0.750000 0.498532
O O16 0.177521 0.878364 0.248532
O O17 0.250000 0.525653 0.748531
#
# Coordination Sequence:
#
# PCOD9379075 Si02
#       8
#     8   8   8   8   8   8   8   8
#     4   8  16  32  52  72 101 131 175 214 248 304
#     4  10  21  37  54  76 108 143 184 218 261 314
#     4  12  22  38  58  81 112 134 178 225 269 324
#     4  10  19  36  60  78 105 143 175 212 272 335
#     4  12  25  38  55  76 108 146 179 221 272 312
#     4  10  21  35  57  81 104 140 178 224 269 309
#     4  12  24  37  54  76 105 135 185 232 274 323
#     4  10  20  37  58  76  99 135 176 222 279 331
#
# _framework density 25.347771999999999
#
# number of rings (size 3 to 8) (size 9 to 14) (size 15 to 20)
#    0.000    1.500    2.500    3.000    0.000    6.500 
#    0.000    0.000    0.000    0.000    0.000    0.000 
#    0.000    9.000    0.000    0.000    0.000    9.750 
#
# Total GULP energy -178729.303676 kJ/mol
# GULP energy per Si atom -5585.290740 kJ/mol
# Density = 2.529008 g / cm^3
# Si number density = 25.347772 Si / 1000 Ang^3
#
#
#
# Elastic Constant Matrix: (Units=GPa)
#
#
# Indices 1 2 3 4 5 6 
#
# 1 45.8999 23.9698 25.4908 0.0000 0.0000 0.0000
# 2 23.9698 85.5162 68.4732 0.0000 0.0000 0.0000
# 3 25.4908 68.4732 337.7810 0.0000 0.0000 0.0000
# 4 0.0000 0.0000 0.0000 40.7219 0.0000 0.0000
# 5 0.0000 0.0000 0.0000 0.0000 -73.9850 0.0000
# 6 0.0000 0.0000 0.0000 0.0000 0.0000 -2.1504
#
#
#
# Elastic Compliance Matrix: (Units=1/GPa)
#
#
# Indices 1 2 3 4 5 6 
#
# 1 0.025614 -0.006723 -0.000570 0.000000 0.000000 0.000000
# 2 -0.006723 0.015724 -0.002680 0.000000 0.000000 0.000000
# 3 -0.000570 -0.002680 0.003547 0.000000 0.000000 0.000000
# 4 0.000000 0.000000 0.000000 0.024557 0.000000 0.000000
# 5 0.000000 0.000000 0.000000 0.000000 -0.013516 0.000000
# 6 0.000000 0.000000 0.000000 0.000000 0.000000 -0.465022
#
#
# Mechanical properties :
#
#
# Convention : Reuss Voigt Hill
#
# Bulk Modulus (GPa) = 40.09875 78.34054 59.21965
# Shear Modulus (GPa) = -13.12897 16.33485 1.60294
#
# Velocity S-wave (km/s) = -2.27833 2.54132 0.79609
# Velocity P-wave (km/s) = 2.98877 6.29162 4.92530
#
# Compressibility (1/GPa) = 0.02493843
#
# Stress axis : x y z
#
# Youngs Moduli (GPa) = 39.04110 63.59645 281.94180
#
# Poissons Ratio (x) = 0.42756 0.16074
# Poissons Ratio (y) = 0.26247 0.75565
# Poissons Ratio (z) = 0.02226 0.17045
#
# Static dielectric constant tensor:
#      x y z
#    x 2.011190 0.000000 0.000000 
#    y 0.000000 2.018210 0.000000 
#    z 0.000000 0.000000 2.125170 
# 
# From -- ./inp_files/2757.got.cif
#   From: 2010.05.17/outbox.cif.g08.bks.cpg/sg46_2_cif.got.tgz:2757.got - 2010.06.03 19:58:25.
