data_PCOD9379253
_publ_section_title
;
Structure prediction by ZEFSAII (Michael W. Deem and Ramdas Pophale) SiO2 
 PCOD9379253
Probable space group: I M A 2
;
_chemical_formula_sum "Si O2"
_cell_formula_units_Z 64
_cell_length_a 8.884097
_cell_length_b 28.913097
_cell_length_c 13.695366
_cell_angle_alpha 90.000000
_cell_angle_beta 90.000000
_cell_angle_gamma 90.000000
_cell_volume 3517.884268
_symmetry_space_group_name_H-M "I M A 2"
_symmetry_group_IT_number 46
_symmetry_cell_setting 'orthorhombic'
loop_
_space_group_symop_operation_xyz
x,y,z
-x,-y,z
1/2-x,y,z
1/2+x,-y,z
1/2+x,1/2+y,1/2+z
1/2-x,1/2-y,1/2+z
-x,1/2+y,1/2+z
x,1/2-y,1/2+z
loop_
_atom_site_type_symbol
_atom_site_label
_atom_site_fract_x
_atom_site_fract_y
_atom_site_fract_z
Si Si1 0.921480 0.296346 0.914290
Si Si2 0.070434 0.396380 0.909466
Si Si3 0.069305 0.551281 0.094450
Si Si4 0.921580 0.787669 0.016411
Si Si5 0.921291 0.407362 0.704865
Si Si6 0.069247 0.948632 0.815661
Si Si7 0.431319 0.104650 0.999604
Si Si8 0.087323 0.796070 0.195705
O O1 0.750000 0.309632 0.939730
O O2 0.921022 0.277679 0.803922
O O3 0.021904 0.342458 0.916493
O O4 0.981570 0.253869 0.975419
O O5 0.250000 0.400524 0.907957
O O6 0.004296 0.417517 0.807594
O O7 0.001522 0.420445 0.005253
O O8 0.250000 0.549471 0.083721
O O9 0.036857 0.569306 0.205053
O O10 0.000000 0.500000 0.090301
O O11 0.750000 0.782721 0.985542
O O12 0.971369 0.840452 0.994631
O O13 0.944963 0.783401 0.132226
O O14 0.750000 0.425740 0.704612
O O15 0.911165 0.351498 0.705814
O O16 0.004136 0.416582 0.601491
O O17 0.250000 0.950650 0.826517
O O18 0.998592 0.919636 0.904131
O O19 0.000000 0.000000 0.820943
O O20 0.250000 0.101348 0.001694
O O21 0.250000 0.782816 0.150957
#
# Coordination Sequence:
#
# PCOD9379253 Si02
#       8
#     8   8   8   8   8   8   8   8
#     4  10  20  35  54  76 105 143 185 228 273 327
#     4  11  21  35  57  84 113 146 185 230 282 338
#     4  10  21  39  61  85 113 149 190 233 282 339
#     4  10  20  33  51  77 107 142 179 225 276 326
#     4   9  17  32  55  80 108 143 181 221 269 327
#     4  10  21  38  61  85 112 149 189 232 282 338
#     4  10  20  35  56  83 114 147 186 231 280 336
#     4   8  16  31  50  70  95 135 177 216 262 319
#
# _framework density 18.192754000000001
#
# number of rings (size 3 to 8) (size 9 to 14) (size 15 to 20)
#    0.000    2.250    0.000    4.125    0.000    6.500 
#    2.250    0.625    0.000    0.000    0.000    0.000 
#    0.000    0.000    0.000    0.000    0.000    0.000 
#
# Total GULP energy -178251.795813 kJ/mol
# GULP energy per Si atom -5570.368619 kJ/mol
# Density = 1.815135 g / cm^3
# Si number density = 18.192754 Si / 1000 Ang^3
#
#
#
# Elastic Constant Matrix: (Units=GPa)
#
#
# Indices 1 2 3 4 5 6 
#
# 1 108.9197 32.0024 71.9681 0.0000 0.0000 0.0000
# 2 32.0024 38.1778 51.4524 0.0001 0.0000 0.0000
# 3 71.9681 51.4524 152.3384 0.0005 0.0000 0.0000
# 4 0.0000 0.0001 0.0005 27.7586 0.0000 0.0000
# 5 0.0000 0.0000 0.0000 0.0000 28.5830 0.0000
# 6 0.0000 0.0000 0.0000 0.0000 0.0000 26.2062
#
#
#
# Elastic Compliance Matrix: (Units=1/GPa)
#
#
# Indices 1 2 3 4 5 6 
#
# 1 0.013875 -0.005133 -0.004821 0.000000 0.000000 0.000000
# 2 -0.005133 0.049977 -0.014455 0.000000 0.000000 0.000000
# 3 -0.004821 -0.014455 0.013724 0.000000 0.000000 0.000000
# 4 0.000000 0.000000 0.000000 0.036025 0.000000 0.000000
# 5 0.000000 0.000000 0.000000 0.000000 0.034986 0.000000
# 6 0.000000 0.000000 0.000000 0.000000 0.000000 0.038159
#
#
# Mechanical properties :
#
#
# Convention : Reuss Voigt Hill
#
# Bulk Modulus (GPa) = 34.77318 67.80907 51.29113
# Shear Modulus (GPa) = 20.39580 26.11043 23.25311
#
# Velocity S-wave (km/s) = 3.35191 3.79253 3.57900
# Velocity P-wave (km/s) = 5.84257 7.51872 6.73301
#
# Compressibility (1/GPa) = 0.02875779
#
# Stress axis : x y z
#
# Youngs Moduli (GPa) = 72.07344 20.00932 72.86528
#
# Poissons Ratio (x) = 0.10271 0.35129
# Poissons Ratio (y) = 0.36996 1.05324
# Poissons Ratio (z) = 0.34747 0.28923
#
# Static dielectric constant tensor:
#      x y z
#    x 1.652860 0.000000 0.000000 
#    y 0.000000 1.600850 0.000000 
#    z 0.000000 0.000000 1.649060 
# 
# From -- ./inp_files/9714.got.cif
#   From: 2010.05.17/outbox.cif.g08.bks.cpg/sg46_5_cif.got.tgz:9714.got - 2010.06.03 19:58:25.
