data_PCOD9379408
_publ_section_title
;
Structure prediction by ZEFSAII (Michael W. Deem and Ramdas Pophale) SiO2 
 PCOD9379408
Probable space group: I M A 2
;
_chemical_formula_sum "Si O2"
_cell_formula_units_Z 40
_cell_length_a 9.124501
_cell_length_b 21.500292
_cell_length_c 12.796620
_cell_angle_alpha 90.000000
_cell_angle_beta 90.000000
_cell_angle_gamma 90.000000
_cell_volume 2510.433692
_symmetry_space_group_name_H-M "I M A 2"
_symmetry_group_IT_number 46
_symmetry_cell_setting 'orthorhombic'
loop_
_space_group_symop_operation_xyz
x,y,z
-x,-y,z
1/2-x,y,z
1/2+x,-y,z
1/2+x,1/2+y,1/2+z
1/2-x,1/2-y,1/2+z
-x,1/2+y,1/2+z
x,1/2-y,1/2+z
loop_
_atom_site_type_symbol
_atom_site_label
_atom_site_fract_x
_atom_site_fract_y
_atom_site_fract_z
Si Si1 0.425917 0.566728 0.388260
Si Si2 0.422796 0.800667 0.487276
Si Si3 0.925273 0.168847 0.719080
Si Si4 0.575642 0.798936 0.275749
Si Si5 0.424963 0.838765 0.070789
O O1 0.500000 0.500000 0.386141
O O2 0.250000 0.559801 0.388769
O O3 0.464143 0.609354 0.288166
O O4 0.466007 0.606774 0.490997
O O5 0.250000 0.805654 0.462362
O O6 0.452060 0.836955 0.595252
O O7 0.516990 0.820298 0.388266
O O8 0.452180 0.728058 0.515350
O O9 0.750000 0.180871 0.732392
O O10 0.010685 0.229527 0.758525
O O11 0.750000 0.797981 0.272210
O O12 0.510472 0.838382 0.179617
O O13 0.250000 0.841341 0.090463
#
# Coordination Sequence:
#
# PCOD9379408 Si02
#       5
#     8   8   8   8   8
#     4  10  20  35  54  75 100 133 170 208 246 294
#     4   9  16  30  52  71  95 131 168 203 241 302
#     4   9  18  34  51  69  97 135 173 199 239 305
#     4  11  20  28  46  76 107 128 156 210 261 293
#     4   9  18  33  51  69  97 136 173 199 237 304
#
# _framework density 15.933501
#
# number of rings (size 3 to 8) (size 9 to 14) (size 15 to 20)
#    0.000    2.400    2.000    3.000    0.000    4.800 
#    0.000    0.000    0.000    1.200    0.000    2.800 
#    0.000    0.000    0.000    0.000    0.000    0.000 
#
# Total GULP energy -111529.339984 kJ/mol
# GULP energy per Si atom -5576.466999 kJ/mol
# Density = 1.589724 g / cm^3
# Si number density = 15.933501 Si / 1000 Ang^3
#
#
#
# Elastic Constant Matrix: (Units=GPa)
#
#
# Indices 1 2 3 4 5 6 
#
# 1 53.2959 35.3325 72.6451 0.0000 0.0000 0.0000
# 2 35.3325 95.0877 69.0446 0.0000 0.0000 0.0000
# 3 72.6451 69.0446 158.8528 0.0000 0.0000 0.0000
# 4 0.0000 0.0000 0.0000 18.8498 0.0000 0.0000
# 5 0.0000 0.0000 0.0000 0.0000 6.4598 0.0000
# 6 0.0000 0.0000 0.0000 0.0000 0.0000 24.2125
#
#
#
# Elastic Compliance Matrix: (Units=1/GPa)
#
#
# Indices 1 2 3 4 5 6 
#
# 1 0.050359 -0.002908 -0.021766 0.000000 0.000000 0.000000
# 2 -0.002908 0.015534 -0.005422 0.000000 0.000000 0.000000
# 3 -0.021766 -0.005422 0.018606 0.000000 0.000000 0.000000
# 4 0.000000 0.000000 0.000000 0.053051 0.000000 0.000000
# 5 0.000000 0.000000 0.000000 0.000000 0.154803 0.000000
# 6 0.000000 0.000000 0.000000 0.000000 0.000000 0.041301
#
#
# Mechanical properties :
#
#
# Convention : Reuss Voigt Hill
#
# Bulk Modulus (GPa) = 41.14003 73.47563 57.30783
# Shear Modulus (GPa) = 12.43946 18.58538 15.51242
#
# Velocity S-wave (km/s) = 2.79715 3.41901 3.12360
# Velocity P-wave (km/s) = 6.02561 7.86131 7.00386
#
# Compressibility (1/GPa) = 0.02430723
#
# Stress axis : x y z
#
# Youngs Moduli (GPa) = 19.85748 64.37443 53.74740
#
# Poissons Ratio (x) = 0.18719 1.16986
# Poissons Ratio (y) = 0.05774 0.29142
# Poissons Ratio (z) = 0.43221 0.34904
#
# Static dielectric constant tensor:
#      x y z
#    x 1.525850 0.000000 0.000000 
#    y 0.000000 1.498880 0.000000 
#    z 0.000000 0.000000 1.556690 
# 
# From -- ./inp_files/9045.got.cif
#   From: 2010.05.17/outbox.cif.g08.bks.cpg/sg46_5_cif.got.tgz:9045.got - 2010.06.03 19:58:25.
