data_PCOD9379171
_publ_section_title
;
Structure prediction by ZEFSAII (Michael W. Deem and Ramdas Pophale) SiO2 
 PCOD9379171
Probable space group: I M A 2
;
_chemical_formula_sum "Si O2"
_cell_formula_units_Z 28
_cell_length_a 5.539555
_cell_length_b 9.163268
_cell_length_c 25.912162
_cell_angle_alpha 90.000000
_cell_angle_beta 90.000000
_cell_angle_gamma 90.000000
_cell_volume 1315.312409
_symmetry_space_group_name_H-M "I M A 2"
_symmetry_group_IT_number 46
_symmetry_cell_setting 'orthorhombic'
loop_
_space_group_symop_operation_xyz
x,y,z
-x,-y,z
1/2-x,y,z
1/2+x,-y,z
1/2+x,1/2+y,1/2+z
1/2-x,1/2-y,1/2+z
-x,1/2+y,1/2+z
x,1/2-y,1/2+z
loop_
_atom_site_type_symbol
_atom_site_label
_atom_site_fract_x
_atom_site_fract_y
_atom_site_fract_z
Si Si1 0.250000 0.578558 0.476630
Si Si2 0.250000 0.506453 0.054919
Si Si3 0.750000 0.847671 0.358639
Si Si4 0.250000 0.677711 0.899894
Si Si5 0.250000 0.410485 0.737006
Si Si6 0.750000 0.736428 0.636280
Si Si7 0.750000 0.164870 0.092754
O O1 0.500000 0.500000 0.460693
O O2 0.250000 0.743667 0.455087
O O3 0.250000 0.583265 0.538550
O O4 0.500000 0.500000 0.024393
O O5 0.250000 0.384287 0.101022
O O6 0.250000 0.662627 0.080602
O O7 0.499790 0.771873 0.373577
O O8 0.750000 0.876023 0.297755
O O9 0.750000 0.002806 0.390078
O O10 0.500000 0.500000 0.727843
O O11 0.250000 0.270418 0.698547
O O12 0.506284 0.652058 0.620780
#
# Coordination Sequence:
#
# PCOD9379171 Si02
#       7
#     4   4   4   4   4   4   4
#     4  12  26  42  63  91 130 173 216 256 332 388
#     4   8  16  34  54  74 111 155 195 253 298 340
#     4  10  19  40  64  95 124 149 217 274 319 365
#     4  10  20  40  64  90 124 160 200 280 315 373
#     4  12  21  35  60  96 123 164 202 260 323 376
#     4  10  21  35  58  90 124 167 203 261 312 372
#     4  10  21  40  57  84 124 170 211 262 299 380
#
# _framework density 21.287717000000001
#
# number of rings (size 3 to 8) (size 9 to 14) (size 15 to 20)
#    0.000    1.714    2.857    2.571    0.000    3.429 
#   15.429    0.000    0.000   15.429    0.000    0.000 
#    0.000    0.000    0.000    0.000    0.000    0.000 
#
# Total GULP energy -77951.501583 kJ/mol
# GULP energy per Si atom -5567.964399 kJ/mol
# Density = 2.123927 g / cm^3
# Si number density = 21.287717 Si / 1000 Ang^3
#
#
#
# Elastic Constant Matrix: (Units=GPa)
#
#
# Indices 1 2 3 4 5 6 
#
# 1 245.1075 11.8498 29.0473 0.0000 0.0000 0.0000
# 2 11.8498 65.4582 11.7703 0.0000 0.0000 0.0000
# 3 29.0473 11.7703 85.5074 0.0000 0.0000 0.0000
# 4 0.0000 0.0000 0.0000 -45.8384 0.0000 0.0000
# 5 0.0000 0.0000 0.0000 0.0000 80.7796 0.0000
# 6 0.0000 0.0000 0.0000 0.0000 0.0000 -555.5122
#
#
#
# Elastic Compliance Matrix: (Units=1/GPa)
#
#
# Indices 1 2 3 4 5 6 
#
# 1 0.004268 -0.000525 -0.001378 0.000000 0.000000 0.000000
# 2 -0.000525 0.015729 -0.001987 0.000000 0.000000 0.000000
# 3 -0.001378 -0.001987 0.012436 0.000000 0.000000 0.000000
# 4 0.000000 0.000000 0.000000 -0.021816 0.000000 0.000000
# 5 0.000000 0.000000 0.000000 0.000000 0.012379 0.000000
# 6 0.000000 0.000000 0.000000 0.000000 0.000000 -0.001800
#
#
# Mechanical properties :
#
#
# Convention : Reuss Voigt Hill
#
# Bulk Modulus (GPa) = 40.55973 55.71199 48.13586
# Shear Modulus (GPa) = 134.42640 -81.22049 26.60296
#
# Velocity S-wave (km/s) = 7.95515 -6.18357 3.53892
# Velocity P-wave (km/s) = 10.17221 4.97536 6.27374
#
# Compressibility (1/GPa) = 0.02465499
#
# Stress axis : x y z
#
# Youngs Moduli (GPa) = 234.27436 63.57590 80.40898
#
# Poissons Ratio (x) = 0.03338 0.11078
# Poissons Ratio (y) = 0.12299 0.15976
# Poissons Ratio (z) = 0.32277 0.12631
#
# Static dielectric constant tensor:
#      x y z
#    x 1.893720 0.000000 0.000000 
#    y 0.000000 1.799520 0.000000 
#    z 0.000000 0.000000 1.731900 
# 
# From -- ./inp_files/22665.got.cif
#   From: 2010.05.17/outbox.cif.g08.bks.cpg/sg46_12_cif.got.tgz:22665.got - 2010.06.03 19:58:25.
