data_PCOD9379334
_publ_section_title
;
Structure prediction by ZEFSAII (Michael W. Deem and Ramdas Pophale) SiO2 
 PCOD9379334
Probable space group: I M A 2
;
_chemical_formula_sum "Si O2"
_cell_formula_units_Z 64
_cell_length_a 8.896277
_cell_length_b 25.569005
_cell_length_c 15.037984
_cell_angle_alpha 90.000000
_cell_angle_beta 90.000000
_cell_angle_gamma 90.000000
_cell_volume 3420.674447
_symmetry_space_group_name_H-M "I M A 2"
_symmetry_group_IT_number 46
_symmetry_cell_setting 'orthorhombic'
loop_
_space_group_symop_operation_xyz
x,y,z
-x,-y,z
1/2-x,y,z
1/2+x,-y,z
1/2+x,1/2+y,1/2+z
1/2-x,1/2-y,1/2+z
-x,1/2+y,1/2+z
x,1/2-y,1/2+z
loop_
_atom_site_type_symbol
_atom_site_label
_atom_site_fract_x
_atom_site_fract_y
_atom_site_fract_z
Si Si1 0.569255 0.342393 0.311040
Si Si2 0.425513 0.232273 0.286812
Si Si3 0.428026 0.632313 0.699449
Si Si4 0.930574 0.444283 0.200584
Si Si5 0.575827 0.715962 0.000143
Si Si6 0.929118 0.107554 0.515256
Si Si7 0.071166 0.057284 0.340509
Si Si8 0.428684 0.825203 0.016242
O O1 0.750000 0.336207 0.300217
O O2 0.488421 0.290667 0.273899
O O3 0.522882 0.395709 0.262717
O O4 0.536294 0.344150 0.416660
O O5 0.250000 0.228857 0.261753
O O6 0.522260 0.188775 0.236943
O O7 0.436549 0.219666 0.392495
O O8 0.250000 0.625009 0.713218
O O9 0.517408 0.589318 0.754602
O O10 0.460791 0.633958 0.594378
O O11 0.750000 0.448038 0.205708
O O12 0.969953 0.428101 0.099588
O O13 0.000000 0.500000 0.224162
O O14 0.750000 0.708228 0.023076
O O15 0.478957 0.667073 0.032515
O O16 0.516152 0.771432 0.033940
O O17 0.750000 0.105295 0.502219
O O18 0.011486 0.087690 0.427208
O O19 0.250000 0.054329 0.343566
O O20 0.000000 0.000000 0.340375
O O21 0.250000 0.813818 0.019190
#
# Coordination Sequence:
#
# PCOD9379334 Si02
#       8
#     8   8   8   8   8   8   8   8
#     4   9  19  39  61  83 114 153 195 242 291 350
#     4  10  20  34  54  85 118 151 191 237 288 347
#     4  11  22  37  59  87 118 157 198 242 293 350
#     4  10  23  40  60  85 113 150 197 244 293 348
#     4  10  20  34  54  84 121 157 193 235 287 345
#     4  11  22  37  58  86 119 157 196 239 291 353
#     4  12  25  42  62  86 117 156 199 245 297 356
#     4   9  20  37  59  84 117 157 197 240 291 349
#
# _framework density 18.709759999999999
#
# number of rings (size 3 to 8) (size 9 to 14) (size 15 to 20)
#    0.000    1.750    1.250    3.000    1.750    4.500 
#    0.000    0.625    0.000    1.500    0.000    0.000 
#    0.000    0.000    0.000    0.000    0.000    0.000 
#
# Total GULP energy -178840.012007 kJ/mol
# GULP energy per Si atom -5588.750375 kJ/mol
# Density = 1.866718 g / cm^3
# Si number density = 18.709760 Si / 1000 Ang^3
#
#
#
# Elastic Constant Matrix: (Units=GPa)
#
#
# Indices 1 2 3 4 5 6 
#
# 1 67.5543 31.3343 29.2429 0.0000 0.0000 0.0000
# 2 31.3343 94.8030 17.2267 0.0001 -0.0001 0.0000
# 3 29.2429 17.2267 40.0153 0.0002 -0.0001 0.0000
# 4 0.0000 0.0001 0.0002 24.1200 0.0000 0.0000
# 5 0.0000 -0.0001 -0.0001 0.0000 8.3284 0.0000
# 6 0.0000 0.0000 0.0000 0.0000 0.0000 36.7778
#
#
#
# Elastic Compliance Matrix: (Units=1/GPa)
#
#
# Indices 1 2 3 4 5 6 
#
# 1 0.023718 -0.005088 -0.015142 0.000000 0.000000 0.000000
# 2 -0.005088 0.012535 -0.001678 0.000000 0.000000 0.000000
# 3 -0.015142 -0.001678 0.036779 0.000000 0.000000 0.000000
# 4 0.000000 0.000000 0.000000 0.041459 0.000000 0.000000
# 5 0.000000 0.000000 0.000000 0.000000 0.120072 0.000000
# 6 0.000000 0.000000 0.000000 0.000000 0.000000 0.027190
#
#
# Mechanical properties :
#
#
# Convention : Reuss Voigt Hill
#
# Bulk Modulus (GPa) = 34.22937 39.77560 37.00248
# Shear Modulus (GPa) = 15.85754 22.14982 19.00368
#
# Velocity S-wave (km/s) = 2.91444 3.44447 3.19048
# Velocity P-wave (km/s) = 5.44609 6.09299 5.77860
#
# Compressibility (1/GPa) = 0.02921468
#
# Stress axis : x y z
#
# Youngs Moduli (GPa) = 42.16285 79.77856 27.18947
#
# Poissons Ratio (x) = 0.40588 0.41171
# Poissons Ratio (y) = 0.21451 0.04563
# Poissons Ratio (z) = 0.63845 0.13389
#
# Static dielectric constant tensor:
#      x y z
#    x 1.626250 0.000000 0.000000 
#    y 0.000000 1.614130 0.000000 
#    z 0.000000 0.000000 1.669900 
# 
# From -- ./inp_files/14479.got.cif
#   From: 2010.05.17/outbox.cif.g08.bks.cpg/sg46_8_cif.got.tgz:14479.got - 2010.06.03 19:58:25.
