data_PCOD9379940
_publ_section_title
;
Structure prediction by ZEFSAII (Michael W. Deem and Ramdas Pophale) SiO2 
 PCOD9379940
Probable space group: I M A 2
;
_chemical_formula_sum "Si O2"
_cell_formula_units_Z 36
_cell_length_a 24.652925
_cell_length_b 6.144390
_cell_length_c 10.495174
_cell_angle_alpha 90.000000
_cell_angle_beta 90.000000
_cell_angle_gamma 90.000000
_cell_volume 1589.779422
_symmetry_space_group_name_H-M "I M A 2"
_symmetry_group_IT_number 46
_symmetry_cell_setting 'orthorhombic'
loop_
_space_group_symop_operation_xyz
x,y,z
-x,-y,z
1/2-x,y,z
1/2+x,-y,z
1/2+x,1/2+y,1/2+z
1/2-x,1/2-y,1/2+z
-x,1/2+y,1/2+z
x,1/2-y,1/2+z
loop_
_atom_site_type_symbol
_atom_site_label
_atom_site_fract_x
_atom_site_fract_y
_atom_site_fract_z
Si Si1 0.098688 0.712865 0.415690
Si Si2 0.188349 0.066163 0.488302
Si Si3 0.355291 0.344062 0.262746
Si Si4 0.444942 0.376931 0.621818
Si Si5 0.000000 0.500000 0.964435
O O1 0.120751 0.581019 0.294749
O O2 0.086709 0.531373 0.523391
O O3 0.144857 0.877843 0.460816
O O4 0.041378 0.834466 0.396364
O O5 0.250000 0.987583 0.477656
O O6 0.177782 0.251315 0.382039
O O7 0.177375 0.151570 0.630966
O O8 0.406688 0.187465 0.237946
O O9 0.500000 0.500000 0.654154
O O10 0.462001 0.154075 0.551388
#
# Coordination Sequence:
#
# PCOD9379940 Si02
#       5
#     8   8   8   8   4
#     4  11  24  47  74 110 155 194 244 307 371 453
#     4  12  29  51  78 107 147 202 259 317 375 441
#     4  12  25  52  74 113 153 195 256 309 380 447
#     4  10  23  47  73 108 152 199 240 296 370 454
#     4  10  20  48  70 110 150 196 236 296 372 452
#
# _framework density 22.644651
#
# number of rings (size 3 to 8) (size 9 to 14) (size 15 to 20)
#    0.000    0.889    4.444    0.667    3.111    1.778 
#   26.000    0.000    0.000    0.000    0.000    0.000 
#    0.000    0.000    0.000    0.000    0.000    0.000 
#
# Total GULP energy -100831.403999 kJ/mol
# GULP energy per Si atom -5601.744667 kJ/mol
# Density = 2.259311 g / cm^3
# Si number density = 22.644651 Si / 1000 Ang^3
#
#
#
# Elastic Constant Matrix: (Units=GPa)
#
#
# Indices 1 2 3 4 5 6 
#
# 1 132.9795 29.1139 40.8419 0.0000 0.0000 0.0000
# 2 29.1139 89.7690 40.5950 0.0000 0.0000 0.0000
# 3 40.8419 40.5950 137.6525 0.0000 0.0000 0.0000
# 4 0.0000 0.0000 0.0000 43.5740 0.0000 0.0000
# 5 0.0000 0.0000 0.0000 0.0000 14.1327 0.0000
# 6 0.0000 0.0000 0.0000 0.0000 0.0000 29.6856
#
#
#
# Elastic Compliance Matrix: (Units=1/GPa)
#
#
# Indices 1 2 3 4 5 6 
#
# 1 0.008539 -0.001873 -0.001981 0.000000 0.000000 0.000000
# 2 -0.001873 0.013265 -0.003356 0.000000 0.000000 0.000000
# 3 -0.001981 -0.003356 0.008842 0.000000 0.000000 0.000000
# 4 0.000000 0.000000 0.000000 0.022949 0.000000 0.000000
# 5 0.000000 0.000000 0.000000 0.000000 0.070758 0.000000
# 6 0.000000 0.000000 0.000000 0.000000 0.000000 0.033686
#
#
# Mechanical properties :
#
#
# Convention : Reuss Voigt Hill
#
# Bulk Modulus (GPa) = 61.63419 64.61142 63.12281
# Shear Modulus (GPa) = 28.11069 34.13516 31.12293
#
# Velocity S-wave (km/s) = 3.52715 3.88677 3.71132
# Velocity P-wave (km/s) = 6.62305 6.98121 6.80449
#
# Compressibility (1/GPa) = 0.01622476
#
# Stress axis : x y z
#
# Youngs Moduli (GPa) = 117.11646 75.38645 113.09451
#
# Poissons Ratio (x) = 0.14123 0.22403
# Poissons Ratio (y) = 0.21941 0.37956
# Poissons Ratio (z) = 0.23200 0.25301
#
# Static dielectric constant tensor:
#      x y z
#    x 1.801280 0.000000 0.000000 
#    y 0.000000 1.837130 0.000000 
#    z 0.000000 0.000000 1.883600 
# 
# From -- ./inp_files/12614.got.cif
#   From: 2010.05.17/outbox.cif.g08.bks.cpg/sg46_7_cif.got.tgz:12614.got - 2010.06.03 19:58:25.
