data_PCOD9379144
_publ_section_title
;
Structure prediction by ZEFSAII (Michael W. Deem and Ramdas Pophale) SiO2 
 PCOD9379144
Probable space group: I M A 2
;
_chemical_formula_sum "Si O2"
_cell_formula_units_Z 60
_cell_length_a 25.806052
_cell_length_b 6.416614
_cell_length_c 17.695566
_cell_angle_alpha 90.000000
_cell_angle_beta 90.000000
_cell_angle_gamma 90.000000
_cell_volume 2930.164085
_symmetry_space_group_name_H-M "I M A 2"
_symmetry_group_IT_number 46
_symmetry_cell_setting 'orthorhombic'
loop_
_space_group_symop_operation_xyz
x,y,z
-x,-y,z
1/2-x,y,z
1/2+x,-y,z
1/2+x,1/2+y,1/2+z
1/2-x,1/2-y,1/2+z
-x,1/2+y,1/2+z
x,1/2-y,1/2+z
loop_
_atom_site_type_symbol
_atom_site_label
_atom_site_fract_x
_atom_site_fract_y
_atom_site_fract_z
Si Si1 0.808524 0.244996 0.200090
Si Si2 0.402481 0.433088 0.192786
Si Si3 0.405258 0.028931 0.518121
Si Si4 0.058522 0.711954 0.885746
Si Si5 0.866696 0.904728 0.923410
Si Si6 0.808695 0.280996 0.524846
Si Si7 0.000000 0.000000 0.797266
Si Si8 0.865159 0.583110 0.792736
O O1 0.750000 0.325592 0.209408
O O2 0.852450 0.421025 0.205932
O O3 0.812529 0.159739 0.113756
O O4 0.821093 0.070175 0.262103
O O5 0.417791 0.450257 0.105627
O O6 0.450011 0.501030 0.244649
O O7 0.387544 0.202992 0.220163
O O8 0.444467 0.895149 0.467267
O O9 0.350828 0.900548 0.511756
O O10 0.396036 0.252227 0.481031
O O11 0.090474 0.555171 0.832544
O O12 0.093785 0.918992 0.894627
O O13 0.005678 0.794816 0.849281
O O14 0.849120 0.758477 0.853924
O O15 0.823019 0.028909 0.969751
O O16 0.750000 0.209439 0.511131
#
# Coordination Sequence:
#
# PCOD9379144 Si02
#       8
#     8   8   8   8   8   8   4   8
#     4  10  21  39  61  90 132 171 214 276 335 390
#     4  11  23  42  64  97 129 168 221 272 325 392
#     4   9  21  40  63  87 130 165 213 269 319 382
#     4  10  22  42  64  90 126 171 206 262 327 386
#     4  10  19  38  60  86 126 165 209 265 312 390
#     4   9  19  35  59  87 122 170 216 268 326 382
#     4  12  22  44  68  92 128 170 216 260 328 392
#     4  11  20  38  63  91 125 167 217 261 335 389
#
# _framework density 20.476668
#
# number of rings (size 3 to 8) (size 9 to 14) (size 15 to 20)
#    0.000    1.867    2.667    0.800    0.000    2.133 
#    2.400   12.000    0.000    0.000    0.000    0.000 
#    0.000    0.000    0.000    0.000    0.000    0.000 
#
# Total GULP energy -167567.468058 kJ/mol
# GULP energy per Si atom -5585.582269 kJ/mol
# Density = 2.043006 g / cm^3
# Si number density = 20.476668 Si / 1000 Ang^3
#
#
#
# Elastic Constant Matrix: (Units=GPa)
#
#
# Indices 1 2 3 4 5 6 
#
# 1 95.0589 33.8667 57.4263 0.0000 0.0000 0.0000
# 2 33.8667 94.9686 60.7573 0.0000 0.0000 0.0000
# 3 57.4263 60.7573 142.0075 0.0000 0.0000 0.0000
# 4 0.0000 0.0000 0.0000 39.6828 0.0000 0.0000
# 5 0.0000 0.0000 0.0000 0.0000 24.5142 0.0000
# 6 0.0000 0.0000 0.0000 0.0000 0.0000 25.8394
#
#
#
# Elastic Compliance Matrix: (Units=1/GPa)
#
#
# Indices 1 2 3 4 5 6 
#
# 1 0.014168 -0.001910 -0.004912 0.000000 0.000000 0.000000
# 2 -0.001910 0.014756 -0.005541 0.000000 0.000000 0.000000
# 3 -0.004912 -0.005541 0.011399 0.000000 0.000000 0.000000
# 4 0.000000 0.000000 0.000000 0.025200 0.000000 0.000000
# 5 0.000000 0.000000 0.000000 0.000000 0.040793 0.000000
# 6 0.000000 0.000000 0.000000 0.000000 0.000000 0.038701
#
#
# Mechanical properties :
#
#
# Convention : Reuss Voigt Hill
#
# Bulk Modulus (GPa) = 64.11594 70.68174 67.39884
# Shear Modulus (GPa) = 28.58124 30.00626 29.29375
#
# Velocity S-wave (km/s) = 3.74009 3.83219 3.78642
# Velocity P-wave (km/s) = 7.07324 7.36030 7.21820
#
# Compressibility (1/GPa) = 0.01559675
#
# Stress axis : x y z
#
# Youngs Moduli (GPa) = 70.58320 67.77060 87.72723
#
# Poissons Ratio (x) = 0.12942 0.43093
# Poissons Ratio (y) = 0.13479 0.48609
# Poissons Ratio (z) = 0.34672 0.37551
#
# Static dielectric constant tensor:
#      x y z
#    x 1.734430 0.000000 0.000000 
#    y 0.000000 1.731010 0.000000 
#    z 0.000000 0.000000 1.751690 
# 
# From -- ./inp_files/20483.got.cif
#   From: 2010.05.17/outbox.cif.g08.bks.cpg/sg46_11_cif.got.tgz:20483.got - 2010.06.03 19:58:25.
