data_PCOD9379175
_publ_section_title
;
Structure prediction by ZEFSAII (Michael W. Deem and Ramdas Pophale) SiO2 
 PCOD9379175
Probable space group: I M A 2
;
_chemical_formula_sum "Si O2"
_cell_formula_units_Z 64
_cell_length_a 14.420525
_cell_length_b 25.323743
_cell_length_c 9.916889
_cell_angle_alpha 90.000000
_cell_angle_beta 90.000000
_cell_angle_gamma 90.000000
_cell_volume 3621.466077
_symmetry_space_group_name_H-M "I M A 2"
_symmetry_group_IT_number 46
_symmetry_cell_setting 'orthorhombic'
loop_
_space_group_symop_operation_xyz
x,y,z
-x,-y,z
1/2-x,y,z
1/2+x,-y,z
1/2+x,1/2+y,1/2+z
1/2-x,1/2-y,1/2+z
-x,1/2+y,1/2+z
x,1/2-y,1/2+z
loop_
_atom_site_type_symbol
_atom_site_label
_atom_site_fract_x
_atom_site_fract_y
_atom_site_fract_z
Si Si1 0.860548 0.370495 0.219300
Si Si2 0.051171 0.833324 0.442742
Si Si3 0.851683 0.870647 0.828982
Si Si4 0.044284 0.861719 0.151165
Si Si5 0.854997 0.688266 0.050653
Si Si6 0.473696 0.939078 0.914898
Si Si7 0.145657 0.190841 0.091892
Si Si8 0.360803 0.782934 0.944770
O O1 0.750000 0.373192 0.201839
O O2 0.898044 0.420561 0.304199
O O3 0.881779 0.319321 0.314002
O O4 0.910340 0.361620 0.076708
O O5 0.075433 0.863758 0.305317
O O6 0.094767 0.774657 0.435619
O O7 0.940395 0.825910 0.456001
O O8 0.750000 0.894975 0.850475
O O9 0.858505 0.850835 0.677376
O O10 0.933786 0.908757 0.868386
O O11 0.857441 0.821231 0.931291
O O12 0.936468 0.844095 0.150728
O O13 0.054668 0.913652 0.058959
O O14 0.098008 0.815233 0.071136
O O15 0.750000 0.687382 0.993271
O O16 0.870459 0.747187 0.108447
O O17 0.500000 0.000000 0.921944
O O18 0.250000 0.177725 0.138406
O O19 0.250000 0.778382 0.957373
#
# Coordination Sequence:
#
# PCOD9379175 Si02
#       8
#     8   8   8   8   8   8   8   8
#     4  10  22  39  58  84 114 148 195 238 275 328
#     4  12  21  32  54  83 119 155 178 224 276 337
#     4   9  18  34  54  79 108 140 183 223 262 324
#     4  10  22  34  54  82 114 148 185 231 277 335
#     4  10  20  30  48  78 115 150 177 212 266 330
#     4  10  21  41  63  82 101 138 188 245 290 333
#     4   9  18  30  48  76 112 151 181 211 254 319
#     4  10  21  36  54  78 114 158 196 224 263 328
#
# _framework density 17.6724
#
# number of rings (size 3 to 8) (size 9 to 14) (size 15 to 20)
#    0.000    2.000    2.500    1.125    1.750    3.000 
#    0.000    0.625    0.000    0.000    0.000    0.000 
#    0.000    0.000    0.000    0.000    0.000    0.000 
#
# Total GULP energy -178537.813200 kJ/mol
# GULP energy per Si atom -5579.306663 kJ/mol
# Density = 1.763218 g / cm^3
# Si number density = 17.672400 Si / 1000 Ang^3
#
#
#
# Elastic Constant Matrix: (Units=GPa)
#
#
# Indices 1 2 3 4 5 6 
#
# 1 72.2120 21.2094 36.9562 0.0005 0.0000 0.0000
# 2 21.2094 85.9319 36.9627 0.0002 0.0000 0.0000
# 3 36.9562 36.9627 113.0291 0.0033 0.0004 -0.0001
# 4 0.0005 0.0002 0.0033 7.8857 -0.0003 0.0001
# 5 0.0000 0.0000 0.0004 -0.0003 12.8372 0.0000
# 6 0.0000 0.0000 -0.0001 0.0001 0.0000 10.0174
#
#
#
# Elastic Compliance Matrix: (Units=1/GPa)
#
#
# Indices 1 2 3 4 5 6 
#
# 1 0.016949 -0.002094 -0.004857 0.000001 0.000000 0.000000
# 2 -0.002094 0.013801 -0.003828 0.000001 0.000000 0.000000
# 3 -0.004857 -0.003828 0.011687 -0.000005 0.000000 0.000000
# 4 0.000001 0.000001 -0.000005 0.126813 0.000003 -0.000001
# 5 0.000000 0.000000 0.000000 0.000003 0.077898 0.000000
# 6 0.000000 0.000000 0.000000 -0.000001 0.000000 0.099827
#
#
# Mechanical properties :
#
#
# Convention : Reuss Voigt Hill
#
# Bulk Modulus (GPa) = 47.89710 51.26993 49.58351
# Shear Modulus (GPa) = 13.31585 17.88436 15.60011
#
# Velocity S-wave (km/s) = 2.74794 3.18464 2.97431
# Velocity P-wave (km/s) = 6.10163 6.52662 6.31770
#
# Compressibility (1/GPa) = 0.02087809
#
# Stress axis : x y z
#
# Youngs Moduli (GPa) = 59.00141 72.45987 85.56355
#
# Poissons Ratio (x) = 0.15174 0.41556
# Poissons Ratio (y) = 0.12356 0.32757
# Poissons Ratio (z) = 0.28656 0.27741
#
# Static dielectric constant tensor:
#      x y z
#    x 1.634800 0.000000 0.000000 
#    y 0.000000 1.258450 0.000000 
#    z 0.000000 0.000000 1.624470 
# 
# From -- ./inp_files/6090.got.cif
#   From: 2010.05.17/outbox.cif.g08.bks.cpg/sg46_4_cif.got.tgz:6090.got - 2010.06.03 19:58:25.
