data_PCOD9379208
_publ_section_title
;
Structure prediction by ZEFSAII (Michael W. Deem and Ramdas Pophale) SiO2 
 PCOD9379208
Probable space group: I M A 2
;
_chemical_formula_sum "Si O2"
_cell_formula_units_Z 40
_cell_length_a 10.246937
_cell_length_b 7.966824
_cell_length_c 24.323541
_cell_angle_alpha 90.000000
_cell_angle_beta 90.000000
_cell_angle_gamma 90.000000
_cell_volume 1985.665492
_symmetry_space_group_name_H-M "I M A 2"
_symmetry_group_IT_number 46
_symmetry_cell_setting 'orthorhombic'
loop_
_space_group_symop_operation_xyz
x,y,z
-x,-y,z
1/2-x,y,z
1/2+x,-y,z
1/2+x,1/2+y,1/2+z
1/2-x,1/2-y,1/2+z
-x,1/2+y,1/2+z
x,1/2-y,1/2+z
loop_
_atom_site_type_symbol
_atom_site_label
_atom_site_fract_x
_atom_site_fract_y
_atom_site_fract_z
Si Si1 0.494468 0.699562 0.890370
Si Si2 0.750000 0.700468 0.458115
Si Si3 0.750000 0.712165 0.586144
Si Si4 0.588399 0.171494 0.272572
Si Si5 0.495731 0.794427 0.154148
Si Si6 0.250000 0.699200 0.584015
Si Si7 0.750000 0.302524 0.461464
O O1 0.500000 0.500000 0.886271
O O2 0.625383 0.754859 0.920937
O O3 0.457278 0.761264 0.828877
O O4 0.376424 0.747341 0.929275
O O5 0.750000 0.768282 0.521666
O O6 0.750000 0.501824 0.465101
O O7 0.625615 0.761981 0.622915
O O8 0.750000 0.506268 0.583952
O O9 0.750000 0.146440 0.272181
O O10 0.540276 0.258121 0.216240
O O11 0.500000 0.000000 0.272470
O O12 0.376644 0.744476 0.115962
O O13 0.500000 0.000000 0.155251
O O14 0.250000 0.765312 0.522735
#
# Coordination Sequence:
#
# PCOD9379208 Si02
#       7
#     8   4   4   8   8   4   4
#     4  11  23  38  58  85 120 155 197 241 291 346
#     4  11  23  38  59  87 119 155 198 241 290 354
#     4   9  18  30  47  79 111 141 182 237 288 346
#     4  10  20  32  52  80 114 149 192 241 297 349
#     4   9  16  27  47  75 111 141 177 232 299 338
#     4   9  16  28  49  75 107 143 180 231 288 338
#     4  11  21  38  59  85 117 155 196 237 292 350
#
# _framework density 20.144378
#
# number of rings (size 3 to 8) (size 9 to 14) (size 15 to 20)
#    0.000    2.000    2.000    2.400    8.400    3.200 
#    0.000    0.000    0.000    0.000    0.000   28.000 
#    0.000    0.000    0.000    0.000    0.000    0.000 
#
# Total GULP energy -111430.829221 kJ/mol
# GULP energy per Si atom -5571.541461 kJ/mol
# Density = 2.009853 g / cm^3
# Si number density = 20.144378 Si / 1000 Ang^3
#
#
#
# Elastic Constant Matrix: (Units=GPa)
#
#
# Indices 1 2 3 4 5 6 
#
# 1 230.1159 6.7189 132.8263 0.0000 0.0000 0.0000
# 2 6.7189 16.9158 13.4668 0.0000 0.0000 0.0000
# 3 132.8263 13.4668 270.2175 0.0000 0.0000 0.0000
# 4 0.0000 0.0000 0.0000 21.1977 0.0000 0.0000
# 5 0.0000 0.0000 0.0000 0.0000 40.8765 0.0000
# 6 0.0000 0.0000 0.0000 0.0000 0.0000 21.0315
#
#
#
# Elastic Compliance Matrix: (Units=1/GPa)
#
#
# Indices 1 2 3 4 5 6 
#
# 1 0.006067 -0.000037 -0.002980 0.000000 0.000000 0.000000
# 2 -0.000037 0.061559 -0.003050 0.000000 0.000000 0.000000
# 3 -0.002980 -0.003050 0.005318 0.000000 0.000000 0.000000
# 4 0.000000 0.000000 0.000000 0.047175 0.000000 0.000000
# 5 0.000000 0.000000 0.000000 0.000000 0.024464 0.000000
# 6 0.000000 0.000000 0.000000 0.000000 0.000000 0.047548
#
#
# Mechanical properties :
#
#
# Convention : Reuss Voigt Hill
#
# Bulk Modulus (GPa) = 16.44487 91.47481 53.95984
# Shear Modulus (GPa) = 22.26830 40.90361 31.58596
#
# Velocity S-wave (km/s) = 3.32842 4.51102 3.96407
# Velocity P-wave (km/s) = 4.79086 8.52294 6.91350
#
# Compressibility (1/GPa) = 0.06080925
#
# Stress axis : x y z
#
# Youngs Moduli (GPa) = 164.82418 16.24463 188.04927
#
# Poissons Ratio (x) = 0.00060 0.56047
# Poissons Ratio (y) = 0.00611 0.57349
# Poissons Ratio (z) = 0.49125 0.04954
#
# Static dielectric constant tensor:
#      x y z
#    x 0.150950 0.000000 0.000000 
#    y 0.000000 1.856270 0.000000 
#    z 0.000000 0.000000 1.756670 
# 
# From -- ./inp_files/21663.got.cif
#   From: 2010.05.17/outbox.cif.g08.bks.cpg/sg46_11_cif.got.tgz:21663.got - 2010.06.03 19:58:25.
