data_PCOD9379590
_publ_section_title
;
Structure prediction by ZEFSAII (Michael W. Deem and Ramdas Pophale) SiO2 
 PCOD9379590
Probable space group: I M A 2
;
_chemical_formula_sum "Si O2"
_cell_formula_units_Z 48
_cell_length_a 8.717911
_cell_length_b 28.790147
_cell_length_c 10.490881
_cell_angle_alpha 90.000000
_cell_angle_beta 90.000000
_cell_angle_gamma 90.000000
_cell_volume 2633.105585
_symmetry_space_group_name_H-M "I M A 2"
_symmetry_group_IT_number 46
_symmetry_cell_setting 'orthorhombic'
loop_
_space_group_symop_operation_xyz
x,y,z
-x,-y,z
1/2-x,y,z
1/2+x,-y,z
1/2+x,1/2+y,1/2+z
1/2-x,1/2-y,1/2+z
-x,1/2+y,1/2+z
x,1/2-y,1/2+z
loop_
_atom_site_type_symbol
_atom_site_label
_atom_site_fract_x
_atom_site_fract_y
_atom_site_fract_z
Si Si1 0.432616 0.549351 0.470130
Si Si2 0.066862 0.450283 0.754246
Si Si3 0.565244 0.807279 0.601208
Si Si4 0.565490 0.698775 0.617337
Si Si5 0.434000 0.140840 0.863372
Si Si6 0.431943 0.642491 0.854868
O O1 0.500000 0.500000 0.426044
O O2 0.250000 0.546369 0.481273
O O3 0.503371 0.557968 0.610887
O O4 0.482768 0.591925 0.382132
O O5 0.250000 0.452178 0.749304
O O6 0.000000 0.500000 0.795899
O O7 0.011090 0.407659 0.839573
O O8 0.750000 0.809594 0.583956
O O9 0.524190 0.752954 0.610173
O O10 0.526611 0.833167 0.732808
O O11 0.486064 0.831819 0.482264
O O12 0.750000 0.695584 0.636464
O O13 0.528548 0.673162 0.484841
O O14 0.484857 0.673072 0.733983
O O15 0.250000 0.133296 0.865210
O O16 0.250000 0.636735 0.852979
#
# Coordination Sequence:
#
# PCOD9379590 Si02
#       6
#     8   8   8   8   8   8
#     4  11  21  35  58  87 118 150 191 241 294 350
#     4  11  21  37  61  88 117 150 194 245 293 349
#     4  10  22  40  61  86 118 160 203 244 293 350
#     4  10  20  38  64  88 113 154 204 249 290 347
#     4  10  20  36  60  88 118 153 198 245 290 345
#     4  12  24  38  58  89 124 159 196 242 298 353
#
# _framework density 18.229426
#
# number of rings (size 3 to 8) (size 9 to 14) (size 15 to 20)
#    0.000    1.333    1.667    6.500    0.000    4.000 
#    0.000    2.500    0.000    4.000    0.000    0.000 
#    0.000    0.000    0.000    0.000    0.000    0.000 
#
# Total GULP energy -134186.877600 kJ/mol
# GULP energy per Si atom -5591.119900 kJ/mol
# Density = 1.818793 g / cm^3
# Si number density = 18.229426 Si / 1000 Ang^3
#
#
#
# Elastic Constant Matrix: (Units=GPa)
#
#
# Indices 1 2 3 4 5 6 
#
# 1 110.1206 79.2059 65.6795 0.0002 0.0001 0.0000
# 2 79.2059 168.5280 69.2886 0.0002 0.0000 0.0001
# 3 65.6795 69.2886 113.5974 -0.0007 -0.0007 0.0004
# 4 0.0002 0.0002 -0.0007 -3.5383 -0.0003 0.0002
# 5 0.0001 0.0000 -0.0007 -0.0003 19.8357 0.0000
# 6 0.0000 0.0001 0.0004 0.0002 0.0000 31.7480
#
#
#
# Elastic Compliance Matrix: (Units=1/GPa)
#
#
# Indices 1 2 3 4 5 6 
#
# 1 0.016664 -0.005166 -0.006484 0.000002 0.000000 0.000000
# 2 -0.005166 0.009521 -0.002821 0.000001 0.000000 0.000000
# 3 -0.006484 -0.002821 0.014272 -0.000003 0.000001 0.000000
# 4 0.000002 0.000001 -0.000003 -0.282621 -0.000005 0.000002
# 5 0.000000 0.000000 0.000001 -0.000005 0.050414 0.000000
# 6 0.000000 0.000000 0.000000 0.000002 0.000000 0.031498
#
#
# Mechanical properties :
#
#
# Convention : Reuss Voigt Hill
#
# Bulk Modulus (GPa) = 86.83061 91.17710 89.00386
# Shear Modulus (GPa) = -39.22438 21.48054 -8.87192
#
# Velocity S-wave (km/s) = -4.64368 3.43643 -2.20848
# Velocity P-wave (km/s) = 4.35704 8.11606 6.51361
#
# Compressibility (1/GPa) = 0.01151668
#
# Stress axis : x y z
#
# Youngs Moduli (GPa) = 60.01058 105.02655 70.06666
#
# Poissons Ratio (x) = 0.54258 0.45428
# Poissons Ratio (y) = 0.31002 0.19763
# Poissons Ratio (z) = 0.38908 0.29624
#
# Static dielectric constant tensor:
#      x y z
#    x 1.612220 0.000000 0.000000 
#    y 0.000000 1.618060 0.000000 
#    z 0.000000 0.000000 1.592640 
# 
# From -- ./inp_files/9393.got.cif
#   From: 2010.05.17/outbox.cif.g08.bks.cpg/sg46_5_cif.got.tgz:9393.got - 2010.06.03 19:58:25.
