data_PCOD9379165
_publ_section_title
;
Structure prediction by ZEFSAII (Michael W. Deem and Ramdas Pophale) SiO2 
 PCOD9379165
Probable space group: I M A 2
;
_chemical_formula_sum "Si O2"
_cell_formula_units_Z 48
_cell_length_a 14.701921
_cell_length_b 14.017354
_cell_length_c 10.414893
_cell_angle_alpha 90.000000
_cell_angle_beta 90.000000
_cell_angle_gamma 90.000000
_cell_volume 2146.322304
_symmetry_space_group_name_H-M "I M A 2"
_symmetry_group_IT_number 46
_symmetry_cell_setting 'orthorhombic'
loop_
_space_group_symop_operation_xyz
x,y,z
-x,-y,z
1/2-x,y,z
1/2+x,-y,z
1/2+x,1/2+y,1/2+z
1/2-x,1/2-y,1/2+z
-x,1/2+y,1/2+z
x,1/2-y,1/2+z
loop_
_atom_site_type_symbol
_atom_site_label
_atom_site_fract_x
_atom_site_fract_y
_atom_site_fract_z
Si Si1 0.138756 0.467823 0.114620
Si Si2 0.641497 0.673107 0.891895
Si Si3 0.897572 0.528441 0.666520
Si Si4 0.137857 0.677183 0.017482
Si Si5 0.860322 0.890301 0.887682
Si Si6 0.352938 0.818539 0.231952
O O1 0.250000 0.466095 0.113768
O O2 0.108755 0.442752 0.258180
O O3 0.106748 0.389703 0.011116
O O4 0.112370 0.573042 0.069001
O O5 0.750000 0.681261 0.911496
O O6 0.628866 0.614014 0.761054
O O7 0.606873 0.780883 0.886506
O O8 0.886962 0.559046 0.519580
O O9 0.847110 0.429887 0.697864
O O10 0.000000 0.500000 0.694130
O O11 0.250000 0.678810 0.010514
O O12 0.103946 0.691509 0.872270
O O13 0.105351 0.758350 0.115748
O O14 0.750000 0.889908 0.884569
O O15 0.250000 0.780327 0.243811
#
# Coordination Sequence:
#
# PCOD9379165 Si02
#       6
#     8   8   8   8   8   8
#     4   9  17  32  57  89 116 140 188 256 311 352
#     4  10  19  39  67  90 116 156 211 267 312 358
#     4  12  25  41  56  89 129 167 201 243 316 383
#     4   9  18  32  56  89 114 141 187 239 296 354
#     4  10  21  37  64  92 116 156 211 269 311 357
#     4  10  20  37  61  85 115 154 200 250 290 350
#
# _framework density 22.363837
#
# number of rings (size 3 to 8) (size 9 to 14) (size 15 to 20)
#    0.000    2.000    1.667    2.500    2.333    2.667 
#    3.000    0.833    0.000    0.000    0.000    0.000 
#    0.000    0.000    0.000    0.000    0.000    0.000 
#
# Total GULP energy -134178.739213 kJ/mol
# GULP energy per Si atom -5590.780801 kJ/mol
# Density = 2.231294 g / cm^3
# Si number density = 22.363837 Si / 1000 Ang^3
#
#
#
# Elastic Constant Matrix: (Units=GPa)
#
#
# Indices 1 2 3 4 5 6 
#
# 1 36.4488 2.8180 -14.0118 0.0000 0.0000 0.0000
# 2 2.8180 112.4068 85.3800 0.0000 0.0000 0.0000
# 3 -14.0118 85.3800 203.2540 0.0000 0.0000 0.0000
# 4 0.0000 0.0000 0.0000 40.9116 0.0000 0.0000
# 5 0.0000 0.0000 0.0000 0.0000 -8.1302 0.0000
# 6 0.0000 0.0000 0.0000 0.0000 0.0000 -21.5965
#
#
#
# Elastic Compliance Matrix: (Units=1/GPa)
#
#
# Indices 1 2 3 4 5 6 
#
# 1 0.028991 -0.003297 0.003383 0.000000 0.000000 0.000000
# 2 -0.003297 0.013440 -0.005873 0.000000 0.000000 0.000000
# 3 0.003383 -0.005873 0.007620 0.000000 0.000000 0.000000
# 4 0.000000 0.000000 0.000000 0.024443 0.000000 0.000000
# 5 0.000000 0.000000 0.000000 0.000000 -0.122999 0.000000
# 6 0.000000 0.000000 0.000000 0.000000 0.000000 -0.046304
#
#
# Mechanical properties :
#
#
# Convention : Reuss Voigt Hill
#
# Bulk Modulus (GPa) = 25.98830 55.60912 40.79871
# Shear Modulus (GPa) = -71.01268 20.76522 -25.12373
#
# Velocity S-wave (km/s) = -5.64112 3.05046 -3.35537
# Velocity P-wave (km/s) = 5.54832 6.10956 1.80872
#
# Compressibility (1/GPa) = 0.03847886
#
# Stress axis : x y z
#
# Youngs Moduli (GPa) = 34.49316 74.40661 131.23091
#
# Poissons Ratio (x) = 0.24530 -0.44401
# Poissons Ratio (y) = 0.11371 0.77069
# Poissons Ratio (z) = -0.11670 0.43698
#
# Static dielectric constant tensor:
#      x y z
#    x 1.744780 0.000000 0.000000 
#    y 0.000000 1.793270 0.000000 
#    z 0.000000 0.000000 1.795680 
# 
# From -- ./inp_files/6582.got.cif
#   From: 2010.05.17/outbox.cif.g08.bks.cpg/sg46_4_cif.got.tgz:6582.got - 2010.06.03 19:58:25.
