data_PCOD9379647
_publ_section_title
;
Structure prediction by ZEFSAII (Michael W. Deem and Ramdas Pophale) SiO2 
 PCOD9379647
Probable space group: I M A 2
;
_chemical_formula_sum "Si O2"
_cell_formula_units_Z 36
_cell_length_a 7.874320
_cell_length_b 18.620952
_cell_length_c 14.447270
_cell_angle_alpha 90.000000
_cell_angle_beta 90.000000
_cell_angle_gamma 90.000000
_cell_volume 2118.364695
_symmetry_space_group_name_H-M "I M A 2"
_symmetry_group_IT_number 46
_symmetry_cell_setting 'orthorhombic'
loop_
_space_group_symop_operation_xyz
x,y,z
-x,-y,z
1/2-x,y,z
1/2+x,-y,z
1/2+x,1/2+y,1/2+z
1/2-x,1/2-y,1/2+z
-x,1/2+y,1/2+z
x,1/2-y,1/2+z
loop_
_atom_site_type_symbol
_atom_site_label
_atom_site_fract_x
_atom_site_fract_y
_atom_site_fract_z
Si Si1 0.059609 0.079220 0.681920
Si Si2 0.561305 0.333704 0.012713
Si Si3 0.250000 0.276636 0.518041
Si Si4 0.750000 0.674973 0.312599
Si Si5 0.551238 0.416666 0.819836
Si Si6 0.750000 0.833296 0.221266
O O1 0.250000 0.072789 0.640315
O O2 0.090526 0.131122 0.769645
O O3 0.949483 0.116916 0.603766
O O4 0.000000 0.000000 0.707212
O O5 0.750000 0.301692 0.005920
O O6 0.414986 0.274618 0.018780
O O7 0.533315 0.382349 0.922057
O O8 0.250000 0.319977 0.422296
O O9 0.250000 0.322437 0.611398
O O10 0.750000 0.754562 0.269219
O O11 0.500000 0.500000 0.822400
O O12 0.750000 0.409426 0.792729
O O13 0.417897 0.374935 0.755277
#
# Coordination Sequence:
#
# PCOD9379647 Si02
#       6
#     8   8   4   4   8   4
#     4  10  20  37  59  92 124 164 199 250 313 362
#     4  11  21  34  63  98 128 157 199 260 316 374
#     4  12  22  44  60  94 128 164 210 254 316 362
#     4  10  22  40  66  86 129 172 197 260 314 364
#     4  11  23  38  63  96 127 163 205 255 318 367
#     4  12  22  42  66  86 131 166 205 264 300 384
#
# _framework density 16.994242
#
# number of rings (size 3 to 8) (size 9 to 14) (size 15 to 20)
#    0.667    0.444    6.667    1.333    0.000    2.667 
#    0.000    3.333    0.000    0.000    0.000    0.000 
#    0.000    0.000    0.000    0.000    0.000    0.000 
#
# Total GULP energy -100385.906010 kJ/mol
# GULP energy per Si atom -5576.994778 kJ/mol
# Density = 1.695556 g / cm^3
# Si number density = 16.994242 Si / 1000 Ang^3
#
#
#
# Elastic Constant Matrix: (Units=GPa)
#
#
# Indices 1 2 3 4 5 6 
#
# 1 132.7956 64.0596 60.7924 0.0000 0.0000 0.0000
# 2 64.0596 97.9555 68.4023 0.0000 0.0000 0.0000
# 3 60.7924 68.4023 149.7497 0.0000 0.0000 0.0000
# 4 0.0000 0.0000 0.0000 2.3074 0.0000 0.0000
# 5 0.0000 0.0000 0.0000 0.0000 46.5596 0.0000
# 6 0.0000 0.0000 0.0000 0.0000 0.0000 36.7318
#
#
#
# Elastic Compliance Matrix: (Units=1/GPa)
#
#
# Indices 1 2 3 4 5 6 
#
# 1 0.011316 -0.006156 -0.001782 0.000000 0.000000 0.000000
# 2 -0.006156 0.018339 -0.005878 0.000000 0.000000 0.000000
# 3 -0.001782 -0.005878 0.010086 0.000000 0.000000 0.000000
# 4 0.000000 0.000000 0.000000 0.433380 0.000000 0.000000
# 5 0.000000 0.000000 0.000000 0.000000 0.021478 0.000000
# 6 0.000000 0.000000 0.000000 0.000000 0.000000 0.027224
#
#
# Mechanical properties :
#
#
# Convention : Reuss Voigt Hill
#
# Bulk Modulus (GPa) = 82.57879 85.22326 83.90103
# Shear Modulus (GPa) = 9.03359 29.60289 19.31824
#
# Velocity S-wave (km/s) = 2.30808 4.17818 3.37523
# Velocity P-wave (km/s) = 7.46998 8.57516 8.04158
#
# Compressibility (1/GPa) = 0.01210965
#
# Stress axis : x y z
#
# Youngs Moduli (GPa) = 88.37389 54.52923 99.14716
#
# Poissons Ratio (x) = 0.33567 0.17667
# Poissons Ratio (y) = 0.54400 0.58276
# Poissons Ratio (z) = 0.15747 0.32051
#
# Static dielectric constant tensor:
#      x y z
#    x 1.605240 0.000000 0.000000 
#    y 0.000000 1.562740 0.000000 
#    z 0.000000 0.000000 1.550570 
# 
# From -- ./inp_files/13631.got.cif
#   From: 2010.05.17/outbox.cif.g08.bks.cpg/sg46_7_cif.got.tgz:13631.got - 2010.06.03 19:58:25.
