data_PCOD9379693
_publ_section_title
;
Structure prediction by ZEFSAII (Michael W. Deem and Ramdas Pophale) SiO2 
 PCOD9379693
Probable space group: I M A 2
;
_chemical_formula_sum "Si O2"
_cell_formula_units_Z 56
_cell_length_a 14.376892
_cell_length_b 20.253475
_cell_length_c 7.782722
_cell_angle_alpha 90.000000
_cell_angle_beta 90.000000
_cell_angle_gamma 90.000000
_cell_volume 2266.188734
_symmetry_space_group_name_H-M "I M A 2"
_symmetry_group_IT_number 46
_symmetry_cell_setting 'orthorhombic'
loop_
_space_group_symop_operation_xyz
x,y,z
-x,-y,z
1/2-x,y,z
1/2+x,-y,z
1/2+x,1/2+y,1/2+z
1/2-x,1/2-y,1/2+z
-x,1/2+y,1/2+z
x,1/2-y,1/2+z
loop_
_atom_site_type_symbol
_atom_site_label
_atom_site_fract_x
_atom_site_fract_y
_atom_site_fract_z
Si Si1 0.857511 0.840923 0.979730
Si Si2 0.116544 0.561141 0.767922
Si Si3 0.539662 0.281441 0.326505
Si Si4 0.149167 0.687434 0.637999
Si Si5 0.360975 0.049499 0.696599
Si Si6 0.642912 0.100019 0.652752
Si Si7 0.600285 0.583483 0.811500
O O1 0.750000 0.820205 0.944875
O O2 0.877878 0.906554 0.864770
O O3 0.939159 0.792129 0.912624
O O4 0.865229 0.860534 0.180870
O O5 0.149170 0.608891 0.618754
O O6 0.147838 0.486301 0.762400
O O7 0.006355 0.568545 0.771062
O O8 0.148388 0.593850 0.946448
O O9 0.624688 0.281663 0.458866
O O10 0.558242 0.211166 0.241458
O O11 0.570817 0.342651 0.205302
O O12 0.250000 0.708542 0.700157
O O13 0.250000 0.042891 0.679769
O O14 0.390793 0.086268 0.518958
O O15 0.394206 0.973270 0.706140
O O16 0.750000 0.111267 0.712793
#
# Coordination Sequence:
#
# PCOD9379693 Si02
#       7
#     8   8   8   8   8   8   8
#     4  11  24  43  69  99 135 179 235 293 350 414
#     4  10  21  37  64 100 138 177 221 274 350 421
#     4  12  26  44  65  94 135 181 241 290 345 419
#     4  12  25  43  66  94 130 177 227 283 348 416
#     4   9  20  36  61  97 137 181 225 280 353 421
#     4  10  20  37  61  95 139 183 224 280 349 419
#     4  10  20  39  65 103 142 181 222 282 348 413
#
# _framework density 24.711092000000001
#
# number of rings (size 3 to 8) (size 9 to 14) (size 15 to 20)
#    0.000    1.429    1.429    3.857    2.000    3.429 
#    0.000    0.714    0.000    0.000    0.000    0.000 
#    0.000    0.000    0.000    0.000    0.000    0.000 
#
# Total GULP energy -156318.543386 kJ/mol
# GULP energy per Si atom -5582.805121 kJ/mol
# Density = 2.465485 g / cm^3
# Si number density = 24.711092 Si / 1000 Ang^3
#
#
#
# Elastic Constant Matrix: (Units=GPa)
#
#
# Indices 1 2 3 4 5 6 
#
# 1 152.0992 36.1254 6.4354 0.0000 0.0000 0.0000
# 2 36.1254 59.0667 20.4115 0.0000 0.0000 0.0000
# 3 6.4354 20.4115 48.2355 0.0000 0.0000 0.0000
# 4 0.0000 0.0000 0.0000 32.7824 0.0000 0.0000
# 5 0.0000 0.0000 0.0000 0.0000 28.2989 0.0000
# 6 0.0000 0.0000 0.0000 0.0000 0.0000 3.9242
#
#
#
# Elastic Compliance Matrix: (Units=1/GPa)
#
#
# Indices 1 2 3 4 5 6 
#
# 1 0.007745 -0.005130 0.001137 0.000000 0.000000 0.000000
# 2 -0.005130 0.023228 -0.009145 0.000000 0.000000 0.000000
# 3 0.001137 -0.009145 0.024450 0.000000 0.000000 0.000000
# 4 0.000000 0.000000 0.000000 0.030504 0.000000 0.000000
# 5 0.000000 0.000000 0.000000 0.000000 0.035337 0.000000
# 6 0.000000 0.000000 0.000000 0.000000 0.000000 0.254832
#
#
# Mechanical properties :
#
#
# Convention : Reuss Voigt Hill
#
# Bulk Modulus (GPa) = 34.30778 42.81624 38.56201
# Shear Modulus (GPa) = 12.13341 26.09636 19.11489
#
# Velocity S-wave (km/s) = 2.21828 3.25323 2.78427
# Velocity P-wave (km/s) = 4.52490 5.61032 5.09659
#
# Compressibility (1/GPa) = 0.02914791
#
# Stress axis : x y z
#
# Youngs Moduli (GPa) = 129.11643 43.05229 40.90055
#
# Poissons Ratio (x) = 0.22085 -0.04652
# Poissons Ratio (y) = 0.66236 0.37402
# Poissons Ratio (z) = -0.14687 0.39370
#
# Static dielectric constant tensor:
#      x y z
#    x 1.962830 0.000000 0.000000 
#    y 0.000000 1.991660 0.000000 
#    z 0.000000 0.000000 1.991320 
# 
# From -- ./inp_files/5929.got.cif
#   From: 2010.05.17/outbox.cif.g08.bks.cpg/sg46_3_cif.got.tgz:5929.got - 2010.06.03 19:58:25.
