data_PCOD9379721
_publ_section_title
;
Structure prediction by ZEFSAII (Michael W. Deem and Ramdas Pophale) SiO2 
 PCOD9379721
Probable space group: I M A 2
;
_chemical_formula_sum "Si O2"
_cell_formula_units_Z 32
_cell_length_a 14.957121
_cell_length_b 4.929153
_cell_length_c 17.127406
_cell_angle_alpha 90.000000
_cell_angle_beta 90.000000
_cell_angle_gamma 90.000000
_cell_volume 1262.734070
_symmetry_space_group_name_H-M "I M A 2"
_symmetry_group_IT_number 46
_symmetry_cell_setting 'orthorhombic'
loop_
_space_group_symop_operation_xyz
x,y,z
-x,-y,z
1/2-x,y,z
1/2+x,-y,z
1/2+x,1/2+y,1/2+z
1/2-x,1/2-y,1/2+z
-x,1/2+y,1/2+z
x,1/2-y,1/2+z
loop_
_atom_site_type_symbol
_atom_site_label
_atom_site_fract_x
_atom_site_fract_y
_atom_site_fract_z
Si Si1 0.595257 0.613577 0.699280
Si Si2 0.108522 0.468430 0.344444
Si Si3 0.350002 0.583629 0.108092
Si Si4 0.107503 0.528883 0.934236
O O1 0.500000 0.500000 0.727756
O O2 0.635658 0.802700 0.767449
O O3 0.640288 0.348783 0.662103
O O4 0.584941 0.836460 0.631158
O O5 0.138746 0.769836 0.365203
O O6 0.000000 0.500000 0.340246
O O7 0.137739 0.274213 0.415208
O O8 0.250000 0.472844 0.118019
O O9 0.364382 0.644172 0.017305
O O10 0.000000 0.500000 0.933391
#
# Coordination Sequence:
#
# PCOD9379721 Si02
#       4
#     8   8   8   8
#     4  12  23  42  70  96 126 171 219 267 320 382
#     4  10  20  37  64  96 124 155 212 275 318 367
#     4  12  26  43  62  96 138 174 212 263 320 384
#     4  10  20  38  64  92 124 166 212 263 319 379
#
# _framework density 25.341837999999999
#
# number of rings (size 3 to 8) (size 9 to 14) (size 15 to 20)
#    0.000    1.000    0.000    9.750    0.000    2.000 
#    0.000    7.500    0.000    0.000    0.000    0.000 
#    0.000    0.000    0.000    0.000    0.000    0.000 
#
# Total GULP energy -89456.000533 kJ/mol
# GULP energy per Si atom -5591.000033 kJ/mol
# Density = 2.528416 g / cm^3
# Si number density = 25.341838 Si / 1000 Ang^3
#
#
#
# Elastic Constant Matrix: (Units=GPa)
#
#
# Indices 1 2 3 4 5 6 
#
# 1 68.6518 14.3594 3.9443 0.0000 0.0000 0.0000
# 2 14.3594 169.3504 42.1541 0.0000 0.0000 0.0000
# 3 3.9443 42.1541 120.4152 0.0000 0.0000 0.0000
# 4 0.0000 0.0000 0.0000 59.0025 0.0000 0.0000
# 5 0.0000 0.0000 0.0000 0.0000 -52.7677 0.0000
# 6 0.0000 0.0000 0.0000 0.0000 0.0000 7.0755
#
#
#
# Elastic Compliance Matrix: (Units=1/GPa)
#
#
# Indices 1 2 3 4 5 6 
#
# 1 0.014830 -0.001245 -0.000050 0.000000 0.000000 0.000000
# 2 -0.001245 0.006573 -0.002260 0.000000 0.000000 0.000000
# 3 -0.000050 -0.002260 0.009098 0.000000 0.000000 0.000000
# 4 0.000000 0.000000 0.000000 0.016948 0.000000 0.000000
# 5 0.000000 0.000000 0.000000 0.000000 -0.018951 0.000000
# 6 0.000000 0.000000 0.000000 0.000000 0.000000 0.141334
#
#
# Mechanical properties :
#
#
# Convention : Reuss Voigt Hill
#
# Bulk Modulus (GPa) = 42.75375 53.25921 48.00648
# Shear Modulus (GPa) = 27.06535 22.52604 24.79569
#
# Velocity S-wave (km/s) = 3.27159 2.98466 3.13141
# Velocity P-wave (km/s) = 5.58377 5.73929 5.66207
#
# Compressibility (1/GPa) = 0.02338976
#
# Stress axis : x y z
#
# Youngs Moduli (GPa) = 67.43302 152.13523 109.92029
#
# Poissons Ratio (x) = 0.18941 0.00549
# Poissons Ratio (y) = 0.08395 0.24845
# Poissons Ratio (z) = 0.00337 0.34387
#
# Static dielectric constant tensor:
#      x y z
#    x 2.064520 0.000000 0.000000 
#    y 0.000000 1.916580 0.000000 
#    z 0.000000 0.000000 2.016010 
# 
# From -- ./inp_files/19108.got.cif
#   From: 2010.05.17/outbox.cif.g08.bks.cpg/sg46_10_cif.got.tgz:19108.got - 2010.06.03 19:58:25.
