data_PCOD9379890
_publ_section_title
;
Structure prediction by ZEFSAII (Michael W. Deem and Ramdas Pophale) SiO2 
 PCOD9379890
Probable space group: I M A 2
;
_chemical_formula_sum "Si O2"
_cell_formula_units_Z 56
_cell_length_a 22.900925
_cell_length_b 8.743875
_cell_length_c 13.812338
_cell_angle_alpha 90.000000
_cell_angle_beta 90.000000
_cell_angle_gamma 90.000000
_cell_volume 2765.821589
_symmetry_space_group_name_H-M "I M A 2"
_symmetry_group_IT_number 46
_symmetry_cell_setting 'orthorhombic'
loop_
_space_group_symop_operation_xyz
x,y,z
-x,-y,z
1/2-x,y,z
1/2+x,-y,z
1/2+x,1/2+y,1/2+z
1/2-x,1/2-y,1/2+z
-x,1/2+y,1/2+z
x,1/2-y,1/2+z
loop_
_atom_site_type_symbol
_atom_site_label
_atom_site_fract_x
_atom_site_fract_y
_atom_site_fract_z
Si Si1 0.936779 0.691085 0.508890
Si Si2 0.000000 0.500000 0.978244
Si Si3 0.683514 0.633653 0.221083
Si Si4 0.062734 0.487703 0.312817
Si Si5 0.500000 0.500000 0.663794
Si Si6 0.185707 0.477352 0.795016
Si Si7 0.926589 0.336932 0.817314
Si Si8 0.813306 0.673736 0.003514
O O1 0.952183 0.621514 0.403937
O O2 0.952957 0.575371 0.593389
O O3 0.868080 0.716461 0.502459
O O4 0.970416 0.851751 0.527165
O O5 0.949340 0.432146 0.909208
O O6 0.750000 0.592830 0.258426
O O7 0.622685 0.571396 0.264391
O O8 0.679357 0.817292 0.237691
O O9 0.683622 0.592733 0.107503
O O10 0.077703 0.660494 0.342895
O O11 0.000000 0.500000 0.257180
O O12 0.526434 0.371038 0.733420
O O13 0.250000 0.540151 0.773595
O O14 0.133718 0.593731 0.778843
O O15 0.183355 0.431386 0.908864
O O16 0.750000 0.752603 0.999273
#
# Coordination Sequence:
#
# PCOD9379890 Si02
#       8
#     8   4   8   8   4   8   8   8
#     4  12  22  40  64  92 130 161 220 262 327 392
#     4  11  20  38  64  85 122 174 201 266 330 379
#     4  10  22  41  64  92 128 169 220 270 323 393
#     4  12  24  40  61  93 134 170 214 266 323 400
#     4  11  26  40  58  95 128 168 211 272 320 391
#     4  10  20  40  66  90 121 170 218 266 324 387
#     4  11  23  40  59  88 132 165 211 263 324 384
#     4  10  21  37  66  96 120 160 218 268 315 387
#
# _framework density 20.247149
#
# number of rings (size 3 to 8) (size 9 to 14) (size 15 to 20)
#    0.000    1.143    5.000    0.857    4.000    1.714 
#    2.571    0.000    0.000    0.000    0.000    0.000 
#    0.000    0.000    0.000    0.000    0.000    0.000 
#
# Total GULP energy -156162.124787 kJ/mol
# GULP energy per Si atom -5577.218742 kJ/mol
# Density = 2.020107 g / cm^3
# Si number density = 20.247149 Si / 1000 Ang^3
#
#
#
# Elastic Constant Matrix: (Units=GPa)
#
#
# Indices 1 2 3 4 5 6 
#
# 1 145.3013 18.2401 -6.2044 0.0000 0.0000 0.0000
# 2 18.2401 64.7752 -4.6610 0.0000 0.0000 0.0000
# 3 -6.2044 -4.6610 56.9441 0.0000 0.0000 0.0000
# 4 0.0000 0.0000 0.0000 12.9304 0.0000 0.0000
# 5 0.0000 0.0000 0.0000 0.0000 23.0989 0.0000
# 6 0.0000 0.0000 0.0000 0.0000 0.0000 26.0356
#
#
#
# Elastic Compliance Matrix: (Units=1/GPa)
#
#
# Indices 1 2 3 4 5 6 
#
# 1 0.007156 -0.001971 0.000618 0.000000 0.000000 0.000000
# 2 -0.001971 0.016072 0.001101 0.000000 0.000000 0.000000
# 3 0.000618 0.001101 0.017719 0.000000 0.000000 0.000000
# 4 0.000000 0.000000 0.000000 0.077337 0.000000 0.000000
# 5 0.000000 0.000000 0.000000 0.000000 0.043292 0.000000
# 6 0.000000 0.000000 0.000000 0.000000 0.000000 0.038409
#
#
# Mechanical properties :
#
#
# Convention : Reuss Voigt Hill
#
# Bulk Modulus (GPa) = 24.72553 31.30778 28.01665
# Shear Modulus (GPa) = 23.36785 29.72270 26.54527
#
# Velocity S-wave (km/s) = 3.40093 3.83560 3.62479
# Velocity P-wave (km/s) = 5.25929 5.92555 5.60233
#
# Compressibility (1/GPa) = 0.04044403
#
# Stress axis : x y z
#
# Youngs Moduli (GPa) = 139.74236 62.21956 56.43795
#
# Poissons Ratio (x) = 0.12261 -0.03490
# Poissons Ratio (y) = 0.27537 -0.06213
# Poissons Ratio (z) = -0.08642 -0.06849
#
# Static dielectric constant tensor:
#      x y z
#    x 1.771950 0.000000 0.000000 
#    y 0.000000 1.697380 0.000000 
#    z 0.000000 0.000000 1.751620 
# 
# From -- ./inp_files/17129.got.cif
#   From: 2010.05.17/outbox.cif.g08.bks.cpg/sg46_9_cif.got.tgz:17129.got - 2010.06.03 19:58:25.
