data_PCOD9379922
_publ_section_title
;
Structure prediction by ZEFSAII (Michael W. Deem and Ramdas Pophale) SiO2 
 PCOD9379922
Probable space group: I M A 2
;
_chemical_formula_sum "Si O2"
_cell_formula_units_Z 48
_cell_length_a 15.850891
_cell_length_b 13.342273
_cell_length_c 11.156599
_cell_angle_alpha 90.000000
_cell_angle_beta 90.000000
_cell_angle_gamma 90.000000
_cell_volume 2359.474705
_symmetry_space_group_name_H-M "I M A 2"
_symmetry_group_IT_number 46
_symmetry_cell_setting 'orthorhombic'
loop_
_space_group_symop_operation_xyz
x,y,z
-x,-y,z
1/2-x,y,z
1/2+x,-y,z
1/2+x,1/2+y,1/2+z
1/2-x,1/2-y,1/2+z
-x,1/2+y,1/2+z
x,1/2-y,1/2+z
loop_
_atom_site_type_symbol
_atom_site_label
_atom_site_fract_x
_atom_site_fract_y
_atom_site_fract_z
Si Si1 0.396041 0.367739 0.922980
Si Si2 0.900116 0.977263 0.666576
Si Si3 0.347330 0.145348 0.897300
Si Si4 0.905595 0.017943 0.047640
Si Si5 0.750000 0.360757 0.581781
Si Si6 0.250000 0.511361 0.830012
Si Si7 0.500000 0.500000 0.780760
Si Si8 0.750000 0.120552 0.583464
O O1 0.391775 0.251211 0.900350
O O2 0.327752 0.434678 0.851687
O O3 0.482367 0.409116 0.869121
O O4 0.383937 0.396404 0.061119
O O5 0.878475 0.928273 0.793502
O O6 0.834324 0.068051 0.639924
O O7 0.000000 0.000000 0.661692
O O8 0.250000 0.166063 0.876779
O O9 0.360202 0.086816 0.021520
O O10 0.929780 0.033994 0.185570
O O11 0.836275 0.101956 0.014842
O O12 0.000000 0.000000 0.991174
O O13 0.750000 0.425472 0.706562
O O14 0.750000 0.240922 0.597888
O O15 0.250000 0.587970 0.943136
#
# Coordination Sequence:
#
# PCOD9379922 Si02
#       8
#     8   8   8   8   4   4   4   4
#     4  11  23  42  70  97 133 184 226 283 356 415
#     4  11  25  47  66  96 149 180 228 298 351 421
#     4  12  25  42  73 104 138 184 231 292 359 415
#     4  10  24  43  66 100 136 170 235 288 342 409
#     4  12  22  41  74  89 134 189 225 292 349 417
#     4  10  20  42  60  92 128 166 224 286 334 420
#     4  10  22  44  64  96 140 170 232 284 328 428
#     4  10  26  41  64 101 128 183 239 276 367 417
#
# _framework density 20.343512
#
# number of rings (size 3 to 8) (size 9 to 14) (size 15 to 20)
#    0.500    0.667    5.000    0.500    2.333    4.000 
#    0.000    0.000    0.000    0.000    0.000    0.000 
#    0.000    0.000    0.000    0.000    0.000    0.000 
#
# Total GULP energy -133668.195050 kJ/mol
# GULP energy per Si atom -5569.508127 kJ/mol
# Density = 2.029721 g / cm^3
# Si number density = 20.343512 Si / 1000 Ang^3
#
#
#
# Elastic Constant Matrix: (Units=GPa)
#
#
# Indices 1 2 3 4 5 6 
#
# 1 95.0330 44.6363 5.0283 0.0000 0.0000 0.0000
# 2 44.6363 157.8458 22.6392 0.0000 0.0000 0.0000
# 3 5.0283 22.6392 39.0550 0.0000 0.0000 0.0000
# 4 0.0000 0.0000 0.0000 14.8036 0.0000 0.0000
# 5 0.0000 0.0000 0.0000 0.0000 11.5919 0.0000
# 6 0.0000 0.0000 0.0000 0.0000 0.0000 31.7118
#
#
#
# Elastic Compliance Matrix: (Units=1/GPa)
#
#
# Indices 1 2 3 4 5 6 
#
# 1 0.012142 -0.003500 0.000466 0.000000 0.000000 0.000000
# 2 -0.003500 0.007919 -0.004140 0.000000 0.000000 0.000000
# 3 0.000466 -0.004140 0.027945 0.000000 0.000000 0.000000
# 4 0.000000 0.000000 0.000000 0.067551 0.000000 0.000000
# 5 0.000000 0.000000 0.000000 0.000000 0.086267 0.000000
# 6 0.000000 0.000000 0.000000 0.000000 0.000000 0.031534
#
#
# Mechanical properties :
#
#
# Convention : Reuss Voigt Hill
#
# Bulk Modulus (GPa) = 29.71149 48.50460 39.10804
# Shear Modulus (GPa) = 19.31056 26.26346 22.78701
#
# Velocity S-wave (km/s) = 3.08429 3.59695 3.35044
# Velocity P-wave (km/s) = 5.22689 6.41446 5.85088
#
# Compressibility (1/GPa) = 0.03365701
#
# Stress axis : x y z
#
# Youngs Moduli (GPa) = 82.35783 126.28017 35.78511
#
# Poissons Ratio (x) = 0.44203 -0.01667
# Poissons Ratio (y) = 0.28829 0.14814
# Poissons Ratio (z) = -0.03836 0.52276
#
# Static dielectric constant tensor:
#      x y z
#    x 1.892510 0.000000 0.000000 
#    y 0.000000 1.706340 0.000000 
#    z 0.000000 0.000000 1.726190 
# 
# From -- ./inp_files/11834.got.cif
#   From: 2010.05.17/outbox.cif.g08.bks.cpg/sg46_6_cif.got.tgz:11834.got - 2010.06.03 19:58:25.
