data_PCOD9379317
_publ_section_title
;
Structure prediction by ZEFSAII (Michael W. Deem and Ramdas Pophale) SiO2 
 PCOD9379317
Probable space group: I M A 2
;
_chemical_formula_sum "Si O2"
_cell_formula_units_Z 64
_cell_length_a 15.476008
_cell_length_b 9.217569
_cell_length_c 22.196934
_cell_angle_alpha 90.000000
_cell_angle_beta 90.000000
_cell_angle_gamma 90.000000
_cell_volume 3166.418641
_symmetry_space_group_name_H-M "I M A 2"
_symmetry_group_IT_number 46
_symmetry_cell_setting 'orthorhombic'
loop_
_space_group_symop_operation_xyz
x,y,z
-x,-y,z
1/2-x,y,z
1/2+x,-y,z
1/2+x,1/2+y,1/2+z
1/2-x,1/2-y,1/2+z
-x,1/2+y,1/2+z
x,1/2-y,1/2+z
loop_
_atom_site_type_symbol
_atom_site_label
_atom_site_fract_x
_atom_site_fract_y
_atom_site_fract_z
Si Si1 0.905032 0.568310 0.371110
Si Si2 0.588765 0.416713 0.007778
Si Si3 0.652117 0.848572 0.064070
Si Si4 0.652056 0.672077 0.940018
Si Si5 0.514356 0.831371 0.168311
Si Si6 0.847192 0.378509 0.481416
Si Si7 0.407485 0.080777 0.736968
Si Si8 0.153799 0.638057 0.139360
O O1 0.906010 0.732565 0.395919
O O2 0.855460 0.472564 0.420819
O O3 0.868700 0.566294 0.303510
O O4 0.000000 0.500000 0.369712
O O5 0.500000 0.500000 0.019832
O O6 0.640070 0.414436 0.070741
O O7 0.630788 0.506106 0.953041
O O8 0.584191 0.249611 0.987731
O O9 0.750000 0.834566 0.089117
O O10 0.575871 0.819337 0.110009
O O11 0.646311 0.743960 0.006386
O O12 0.642482 0.009724 0.036438
O O13 0.750000 0.689858 0.918563
O O14 0.567065 0.744049 0.219260
O O15 0.423541 0.749810 0.155117
O O16 0.500000 0.000000 0.181983
O O17 0.750000 0.316289 0.484441
O O18 0.500000 0.000000 0.737978
O O19 0.355799 0.998191 0.684613
O O20 0.250000 0.701264 0.145331
#
# Coordination Sequence:
#
# PCOD9379317 Si02
#       8
#     8   8   8   8   8   8   8   8
#     4  10  20  38  60  81 109 150 198 239 280 339
#     4  12  22  35  56  85 118 150 189 237 295 353
#     4   9  19  35  56  85 119 155 192 233 288 358
#     4  10  20  34  53  81 115 144 179 231 286 337
#     4  11  22  37  60  88 120 154 195 248 304 360
#     4  10  21  37  58  86 119 153 192 239 295 358
#     4   9  21  41  60  81 111 154 203 243 286 349
#     4  11  23  39  60  87 121 160 201 246 297 358
#
# _framework density 20.212109000000002
#
# number of rings (size 3 to 8) (size 9 to 14) (size 15 to 20)
#    0.000    1.750    0.000    6.375    0.000    7.000 
#    0.000    4.375    0.000    1.500    0.000    0.000 
#    0.000    0.000    0.000    0.000    0.000    0.000 
#
# Total GULP energy -178732.389947 kJ/mol
# GULP energy per Si atom -5585.387186 kJ/mol
# Density = 2.016611 g / cm^3
# Si number density = 20.212109 Si / 1000 Ang^3
#
#
#
# Elastic Constant Matrix: (Units=GPa)
#
#
# Indices 1 2 3 4 5 6 
#
# 1 101.4515 25.6318 22.9135 0.0000 0.0000 0.0000
# 2 25.6318 65.3803 12.1558 0.0000 0.0000 0.0000
# 3 22.9135 12.1558 93.5131 0.0000 0.0000 0.0000
# 4 0.0000 0.0000 0.0000 14.0116 0.0000 0.0000
# 5 0.0000 0.0000 0.0000 0.0000 -41.0183 0.0000
# 6 0.0000 0.0000 0.0000 0.0000 0.0000 23.0407
#
#
#
# Elastic Compliance Matrix: (Units=1/GPa)
#
#
# Indices 1 2 3 4 5 6 
#
# 1 0.011390 -0.004044 -0.002265 0.000000 0.000000 0.000000
# 2 -0.004044 0.017110 -0.001233 0.000000 0.000000 0.000000
# 3 -0.002265 -0.001233 0.011409 0.000000 0.000000 0.000000
# 4 0.000000 0.000000 0.000000 0.071370 0.000000 0.000000
# 5 0.000000 0.000000 0.000000 0.000000 -0.024379 0.000000
# 6 0.000000 0.000000 0.000000 0.000000 0.000000 0.043401
#
#
# Mechanical properties :
#
#
# Convention : Reuss Voigt Hill
#
# Bulk Modulus (GPa) = 40.28379 42.41635 41.35007
# Shear Modulus (GPa) = 32.53913 12.51637 22.52775
#
# Velocity S-wave (km/s) = 4.01669 2.49118 3.34214
# Velocity P-wave (km/s) = 6.44092 5.41348 5.94942
#
# Compressibility (1/GPa) = 0.02482388
#
# Stress axis : x y z
#
# Youngs Moduli (GPa) = 87.79355 58.44549 87.64974
#
# Poissons Ratio (x) = 0.23637 0.19855
# Poissons Ratio (y) = 0.35507 0.10809
# Poissons Ratio (z) = 0.19887 0.07207
#
# Static dielectric constant tensor:
#      x y z
#    x 1.741030 0.000000 0.000000 
#    y 0.000000 1.738040 0.000000 
#    z 0.000000 0.000000 1.695280 
# 
# From -- ./inp_files/23663.got.cif
#   From: 2010.05.17/outbox.cif.g08.bks.cpg/sg46_12_cif.got.tgz:23663.got - 2010.06.03 19:58:25.
