data_PCOD9379061
_publ_section_title
;
Structure prediction by ZEFSAII (Michael W. Deem and Ramdas Pophale) SiO2 
 PCOD9379061
Probable space group: I M A 2
;
_chemical_formula_sum "Si O2"
_cell_formula_units_Z 40
_cell_length_a 15.221550
_cell_length_b 13.806628
_cell_length_c 9.925193
_cell_angle_alpha 90.000000
_cell_angle_beta 90.000000
_cell_angle_gamma 90.000000
_cell_volume 2085.861474
_symmetry_space_group_name_H-M "I M A 2"
_symmetry_group_IT_number 46
_symmetry_cell_setting 'orthorhombic'
loop_
_space_group_symop_operation_xyz
x,y,z
-x,-y,z
1/2-x,y,z
1/2+x,-y,z
1/2+x,1/2+y,1/2+z
1/2-x,1/2-y,1/2+z
-x,1/2+y,1/2+z
x,1/2-y,1/2+z
loop_
_atom_site_type_symbol
_atom_site_label
_atom_site_fract_x
_atom_site_fract_y
_atom_site_fract_z
Si Si1 0.577332 0.079117 0.342450
Si Si2 0.349394 0.583305 0.551076
Si Si3 0.153486 0.095259 0.858014
Si Si4 0.969159 0.301294 0.349915
Si Si5 0.095901 0.949896 0.638064
O O1 0.635858 0.075703 0.209494
O O2 0.537616 0.186785 0.349399
O O3 0.625687 0.063441 0.485330
O O4 0.500000 0.000000 0.328819
O O5 0.250000 0.616304 0.520362
O O6 0.360208 0.477607 0.483419
O O7 0.419956 0.652559 0.479104
O O8 0.250000 0.141097 0.867644
O O9 0.070317 0.165077 0.848975
O O10 0.150844 0.023068 0.729735
O O11 0.919918 0.351250 0.222123
O O12 0.000000 0.000000 0.630551
#
# Coordination Sequence:
#
# PCOD9379061 Si02
#       5
#     8   8   8   8   8
#     4  11  21  34  54  80 113 146 178 223 276 320
#     4  10  21  36  57  83 109 142 183 227 273 320
#     4   9  18  36  61  84 106 139 184 226 268 325
#     4  10  19  36  58  79 110 148 184 220 265 327
#     4   8  17  32  52  78 106 141 178 216 266 318
#
# _framework density 19.176729000000002
#
# number of rings (size 3 to 8) (size 9 to 14) (size 15 to 20)
#    0.000    2.400    0.000    4.200    0.000    1.600 
#    0.000    5.000    0.000   18.000    0.000    0.000 
#    0.000    0.000    0.000    0.000    0.000    0.000 
#
# Total GULP energy -111588.091198 kJ/mol
# GULP energy per Si atom -5579.404560 kJ/mol
# Density = 1.913308 g / cm^3
# Si number density = 19.176729 Si / 1000 Ang^3
#
#
#
# Elastic Constant Matrix: (Units=GPa)
#
#
# Indices 1 2 3 4 5 6 
#
# 1 68.8578 -0.4628 14.3733 0.0000 0.0000 0.0000
# 2 -0.4628 45.8735 14.9155 0.0000 0.0000 0.0000
# 3 14.3733 14.9155 141.7334 0.0000 0.0000 0.0000
# 4 0.0000 0.0000 0.0000 5.6426 0.0000 0.0000
# 5 0.0000 0.0000 0.0000 0.0000 -42.7386 0.0000
# 6 0.0000 0.0000 0.0000 0.0000 0.0000 8.1160
#
#
#
# Elastic Compliance Matrix: (Units=1/GPa)
#
#
# Indices 1 2 3 4 5 6 
#
# 1 0.014856 0.000662 -0.001576 0.000000 0.000000 0.000000
# 2 0.000662 0.022601 -0.002446 0.000000 0.000000 0.000000
# 3 -0.001576 -0.002446 0.007473 0.000000 0.000000 0.000000
# 4 0.000000 0.000000 0.000000 0.177224 0.000000 0.000000
# 5 0.000000 0.000000 0.000000 0.000000 -0.023398 0.000000
# 6 0.000000 0.000000 0.000000 0.000000 0.000000 0.123214
#
#
# Mechanical properties :
#
#
# Convention : Reuss Voigt Hill
#
# Bulk Modulus (GPa) = 26.17057 34.90184 30.53621
# Shear Modulus (GPa) = 14.64446 9.37990 12.01218
#
# Velocity S-wave (km/s) = 2.76643 2.21403 2.50550
# Velocity P-wave (km/s) = 4.88681 4.97750 4.93236
#
# Compressibility (1/GPa) = 0.03821086
#
# Stress axis : x y z
#
# Youngs Moduli (GPa) = 67.31211 44.24592 133.82008
#
# Poissons Ratio (x) = -0.02931 0.21094
# Poissons Ratio (y) = -0.04459 0.32727
# Poissons Ratio (z) = 0.10610 0.10821
#
# Static dielectric constant tensor:
#      x y z
#    x 1.675680 0.000000 0.000000 
#    y 0.000000 1.635170 0.000000 
#    z 0.000000 0.000000 1.702180 
# 
# From -- ./inp_files/5392.got.cif
#   From: 2010.05.17/outbox.cif.g08.bks.cpg/sg46_3_cif.got.tgz:5392.got - 2010.06.03 19:58:25.
