data_PCOD9379991
_publ_section_title
;
Structure prediction by ZEFSAII (Michael W. Deem and Ramdas Pophale) SiO2 
 PCOD9379991
Probable space group: I M A 2
;
_chemical_formula_sum "Si O2"
_cell_formula_units_Z 64
_cell_length_a 9.823316
_cell_length_b 11.037144
_cell_length_c 27.727055
_cell_angle_alpha 90.000000
_cell_angle_beta 90.000000
_cell_angle_gamma 90.000000
_cell_volume 3006.204825
_symmetry_space_group_name_H-M "I M A 2"
_symmetry_group_IT_number 46
_symmetry_cell_setting 'orthorhombic'
loop_
_space_group_symop_operation_xyz
x,y,z
-x,-y,z
1/2-x,y,z
1/2+x,-y,z
1/2+x,1/2+y,1/2+z
1/2-x,1/2-y,1/2+z
-x,1/2+y,1/2+z
x,1/2-y,1/2+z
loop_
_atom_site_type_symbol
_atom_site_label
_atom_site_fract_x
_atom_site_fract_y
_atom_site_fract_z
Si Si1 0.594047 0.112404 0.518250
Si Si2 0.391137 0.583084 0.282309
Si Si3 0.907343 0.109278 0.155031
Si Si4 0.913155 0.887792 0.358287
Si Si5 0.906905 0.389374 0.496365
Si Si6 0.899844 0.360429 0.766929
Si Si7 0.093618 0.886513 0.634462
Si Si8 0.598350 0.322261 0.388778
O O1 0.750000 0.100426 0.499692
O O2 0.547373 0.250449 0.506859
O O3 0.599004 0.105732 0.576256
O O4 0.500000 0.000000 0.501526
O O5 0.500000 0.500000 0.259554
O O6 0.250000 0.519334 0.274821
O O7 0.393373 0.716110 0.261647
O O8 0.408188 0.601653 0.339672
O O9 0.750000 0.101045 0.138216
O O10 0.906413 0.092357 0.213021
O O11 0.954000 0.248194 0.145523
O O12 0.000000 0.000000 0.135056
O O13 0.750000 0.894521 0.360749
O O14 0.973553 0.879780 0.303087
O O15 0.974856 0.771145 0.384917
O O16 0.000000 0.000000 0.378729
O O17 0.750000 0.399993 0.513459
O O18 0.905138 0.394635 0.438082
O O19 0.000000 0.500000 0.514220
O O20 0.750000 0.396695 0.788040
O O21 0.250000 0.897440 0.652774
O O22 0.000000 0.000000 0.649926
O O23 0.750000 0.261544 0.387080
#
# Coordination Sequence:
#
# PCOD9379991 Si02
#       8
#     8   8   8   8   8   8   8   8
#     4   9  19  37  59  83 112 146 183 224 271 324
#     4   9  17  29  46  66  92 127 167 214 262 308
#     4  10  21  36  55  80 111 145 181 224 273 325
#     4  11  21  33  51  73  98 133 177 223 271 322
#     4  10  21  36  56  83 115 148 183 226 275 327
#     4   9  19  35  50  69 101 138 176 220 268 315
#     4   9  19  37  59  83 112 145 181 223 272 325
#     4   9  19  35  50  69 101 138 176 220 268 316
#
# _framework density 21.289300999999998
#
# number of rings (size 3 to 8) (size 9 to 14) (size 15 to 20)
#    0.000    2.500    0.000    2.625    0.000    6.500 
#    0.000    1.250    0.000    0.000    0.000    0.000 
#    0.000    0.000    0.000    0.000    0.000    0.000 
#
# Total GULP energy -178307.167080 kJ/mol
# GULP energy per Si atom -5572.098971 kJ/mol
# Density = 2.124085 g / cm^3
# Si number density = 21.289301 Si / 1000 Ang^3
#
#
#
# Elastic Constant Matrix: (Units=GPa)
#
#
# Indices 1 2 3 4 5 6 
#
# 1 157.4806 100.9293 8.0168 0.0000 0.0000 0.0000
# 2 100.9293 150.8935 1.7568 0.0000 0.0000 0.0000
# 3 8.0168 1.7568 55.2085 0.0000 0.0000 0.0000
# 4 0.0000 0.0000 0.0000 -43.5471 0.0000 0.0000
# 5 0.0000 0.0000 0.0000 0.0000 68.3853 0.0000
# 6 0.0000 0.0000 0.0000 0.0000 0.0000 40.7716
#
#
#
# Elastic Compliance Matrix: (Units=1/GPa)
#
#
# Indices 1 2 3 4 5 6 
#
# 1 0.011220 -0.007489 -0.001391 0.000000 0.000000 0.000000
# 2 -0.007489 0.011628 0.000717 0.000000 0.000000 0.000000
# 3 -0.001391 0.000717 0.018292 0.000000 0.000000 0.000000
# 4 0.000000 0.000000 0.000000 -0.022964 0.000000 0.000000
# 5 0.000000 0.000000 0.000000 0.000000 0.014623 0.000000
# 6 0.000000 0.000000 0.000000 0.000000 0.000000 0.024527
#
#
# Mechanical properties :
#
#
# Convention : Reuss Voigt Hill
#
# Bulk Modulus (GPa) = 40.29691 64.99872 52.64781
# Shear Modulus (GPa) = 61.03221 29.98060 45.50640
#
# Velocity S-wave (km/s) = 5.36006 3.75673 4.62835
# Velocity P-wave (km/s) = 7.56811 7.02957 7.30381
#
# Compressibility (1/GPa) = 0.02481580
#
# Stress axis : x y z
#
# Youngs Moduli (GPa) = 89.12297 85.99922 54.66780
#
# Poissons Ratio (x) = 0.64404 0.07604
# Poissons Ratio (y) = 0.66743 -0.03922
# Poissons Ratio (z) = 0.12397 -0.06170
#
# Static dielectric constant tensor:
#      x y z
#    x 1.622890 0.000000 0.000000 
#    y 0.000000 1.796380 0.000000 
#    z 0.000000 0.000000 1.800210 
# 
# From -- ./inp_files/25204.got.cif
#   From: 2010.05.17/outbox.cif.g08.bks.cpg/sg46_13_cif.got.tgz:25204.got - 2010.06.03 19:58:25.
