data_PCOD9379819
_publ_section_title
;
Structure prediction by ZEFSAII (Michael W. Deem and Ramdas Pophale) SiO2 
 PCOD9379819
Probable space group: I M A 2
;
_chemical_formula_sum "Si O2"
_cell_formula_units_Z 40
_cell_length_a 11.653725
_cell_length_b 12.240282
_cell_length_c 11.343391
_cell_angle_alpha 90.000000
_cell_angle_beta 90.000000
_cell_angle_gamma 90.000000
_cell_volume 1618.076652
_symmetry_space_group_name_H-M "I M A 2"
_symmetry_group_IT_number 46
_symmetry_cell_setting 'orthorhombic'
loop_
_space_group_symop_operation_xyz
x,y,z
-x,-y,z
1/2-x,y,z
1/2+x,-y,z
1/2+x,1/2+y,1/2+z
1/2-x,1/2-y,1/2+z
-x,1/2+y,1/2+z
x,1/2-y,1/2+z
loop_
_atom_site_type_symbol
_atom_site_label
_atom_site_fract_x
_atom_site_fract_y
_atom_site_fract_z
Si Si1 0.885103 0.073614 0.707100
Si Si2 0.250000 0.167707 0.196629
Si Si3 0.489708 0.352531 0.978536
Si Si4 0.972266 0.615876 0.558146
Si Si5 0.750000 0.651696 0.984890
Si Si6 0.622548 0.180910 0.262701
O O1 0.750000 0.033150 0.715011
O O2 0.885385 0.187768 0.780056
O O3 0.919661 0.121555 0.578859
O O4 0.000000 0.000000 0.735627
O O5 0.364529 0.108002 0.148494
O O6 0.250000 0.185223 0.340328
O O7 0.250000 0.273586 0.107117
O O8 0.451666 0.223911 0.981131
O O9 0.369125 0.410900 0.999210
O O10 0.539303 0.375318 0.853209
O O11 0.082824 0.648039 0.633974
O O12 0.000000 0.500000 0.500602
O O13 0.750000 0.145368 0.286499
#
# Coordination Sequence:
#
# PCOD9379819 Si02
#       6
#     8   4   8   8   4   8
#     4  10  23  42  64  93 125 168 216 271 337 400
#     4  10  20  40  64  96 121 171 217 267 336 390
#     4  10  21  40  63  88 125 170 214 269 328 396
#     4  10  22  38  61  90 126 160 215 270 324 385
#     4  10  20  38  66  96 129 169 219 275 334 394
#     4  10  21  40  63  86 122 169 211 265 328 396
#
# _framework density 24.720707999999998
#
# number of rings (size 3 to 8) (size 9 to 14) (size 15 to 20)
#    0.000    2.000    2.000    0.600    2.800    2.400 
#    3.600    0.000    0.000    0.000    0.000    0.000 
#    0.000    0.000    0.000    0.000    0.000    0.000 
#
# Total GULP energy -111381.885956 kJ/mol
# GULP energy per Si atom -5569.094298 kJ/mol
# Density = 2.466444 g / cm^3
# Si number density = 24.720708 Si / 1000 Ang^3
#
#
#
# Elastic Constant Matrix: (Units=GPa)
#
#
# Indices 1 2 3 4 5 6 
#
# 1 164.9907 27.6358 11.6548 0.0000 0.0000 0.0000
# 2 27.6358 132.1133 11.3069 0.0000 0.0000 0.0000
# 3 11.6548 11.3069 78.4677 0.0000 0.0000 0.0000
# 4 0.0000 0.0000 0.0000 5.7954 0.0000 0.0000
# 5 0.0000 0.0000 0.0000 0.0000 24.5161 0.0000
# 6 0.0000 0.0000 0.0000 0.0000 0.0000 16.2390
#
#
#
# Elastic Compliance Matrix: (Units=1/GPa)
#
#
# Indices 1 2 3 4 5 6 
#
# 1 0.006325 -0.001258 -0.000758 0.000000 0.000000 0.000000
# 2 -0.001258 0.007914 -0.000953 0.000000 0.000000 0.000000
# 3 -0.000758 -0.000953 0.012994 0.000000 0.000000 0.000000
# 4 0.000000 0.000000 0.000000 0.172551 0.000000 0.000000
# 5 0.000000 0.000000 0.000000 0.000000 0.040789 0.000000
# 6 0.000000 0.000000 0.000000 0.000000 0.000000 0.061580
#
#
# Mechanical properties :
#
#
# Convention : Reuss Voigt Hill
#
# Bulk Modulus (GPa) = 46.96249 52.97406 49.96827
# Shear Modulus (GPa) = 15.86334 30.97506 23.41920
#
# Velocity S-wave (km/s) = 2.53593 3.54361 3.08125
# Velocity P-wave (km/s) = 5.25481 6.18211 5.73723
#
# Compressibility (1/GPa) = 0.02129359
#
# Stress axis : x y z
#
# Youngs Moduli (GPa) = 158.09627 126.35730 76.95794
#
# Poissons Ratio (x) = 0.15899 0.05835
# Poissons Ratio (y) = 0.19892 0.07338
# Poissons Ratio (z) = 0.11987 0.12048
#
# Static dielectric constant tensor:
#      x y z
#    x 1.978650 0.000000 0.000000 
#    y 0.000000 2.091570 0.000000 
#    z 0.000000 0.000000 1.922840 
# 
# From -- ./inp_files/10161.got.cif
#   From: 2010.05.17/outbox.cif.g08.bks.cpg/sg46_6_cif.got.tgz:10161.got - 2010.06.03 19:58:25.
