data_PCOD9379388
_publ_section_title
;
Structure prediction by ZEFSAII (Michael W. Deem and Ramdas Pophale) SiO2 
 PCOD9379388
Probable space group: I M A 2
;
_chemical_formula_sum "Si O2"
_cell_formula_units_Z 64
_cell_length_a 20.336706
_cell_length_b 10.903456
_cell_length_c 14.239443
_cell_angle_alpha 90.000000
_cell_angle_beta 90.000000
_cell_angle_gamma 90.000000
_cell_volume 3157.459488
_symmetry_space_group_name_H-M "I M A 2"
_symmetry_group_IT_number 46
_symmetry_cell_setting 'orthorhombic'
loop_
_space_group_symop_operation_xyz
x,y,z
-x,-y,z
1/2-x,y,z
1/2+x,-y,z
1/2+x,1/2+y,1/2+z
1/2-x,1/2-y,1/2+z
-x,1/2+y,1/2+z
x,1/2-y,1/2+z
loop_
_atom_site_type_symbol
_atom_site_label
_atom_site_fract_x
_atom_site_fract_y
_atom_site_fract_z
Si Si1 0.607109 0.790432 0.865990
Si Si2 0.326079 0.471685 0.102139
Si Si3 0.822002 0.797123 0.195350
Si Si4 0.549832 0.170786 0.074618
Si Si5 0.568638 0.431126 0.974382
Si Si6 0.096072 0.414088 0.547200
Si Si7 0.467105 0.799697 0.299424
Si Si8 0.427819 0.963870 0.755626
O O1 0.663164 0.730569 0.803149
O O2 0.540858 0.712251 0.843413
O O3 0.589136 0.923785 0.822875
O O4 0.630033 0.828227 0.969470
O O5 0.250000 0.510821 0.093694
O O6 0.326160 0.333411 0.141569
O O7 0.369888 0.543345 0.179781
O O8 0.369540 0.489535 0.008954
O O9 0.750000 0.850198 0.180991
O O10 0.877215 0.879573 0.148872
O O11 0.478713 0.130688 0.036745
O O12 0.539512 0.173969 0.188087
O O13 0.597636 0.060995 0.042064
O O14 0.567538 0.302055 0.031435
O O15 0.500000 0.500000 0.993878
O O16 0.569720 0.396372 0.864771
O O17 0.436920 0.663527 0.308591
O O18 0.500000 0.000000 0.713386
#
# Coordination Sequence:
#
# PCOD9379388 Si02
#       8
#     8   8   8   8   8   8   8   8
#     4  10  20  34  61  92 120 158 209 259 305 368
#     4  10  21  39  61  87 120 160 211 264 306 362
#     4  10  22  41  63  88 120 164 212 257 308 368
#     4  11  23  38  59  93 126 161 196 265 322 374
#     4  12  24  37  64  95 123 163 215 258 312 382
#     4  11  22  38  60  88 131 159 202 258 323 372
#     4  11  21  35  58  91 126 154 204 256 323 368
#     4   9  18  34  62  90 120 158 207 264 307 367
#
# _framework density 20.269461
#
# number of rings (size 3 to 8) (size 9 to 14) (size 15 to 20)
#    0.000    1.500    3.750    1.875    7.000    0.500 
#    0.000    1.250    0.000    1.500    0.000    0.000 
#    0.000    0.000    0.000    0.000    0.000    0.000 
#
# Total GULP energy -178544.558897 kJ/mol
# GULP energy per Si atom -5579.517466 kJ/mol
# Density = 2.022333 g / cm^3
# Si number density = 20.269461 Si / 1000 Ang^3
#
#
#
# Elastic Constant Matrix: (Units=GPa)
#
#
# Indices 1 2 3 4 5 6 
#
# 1 76.2166 11.6904 -2.4395 0.0000 0.0000 0.0000
# 2 11.6904 56.6921 13.2257 0.0000 0.0000 0.0000
# 3 -2.4395 13.2257 92.9360 0.0000 0.0000 0.0000
# 4 0.0000 0.0000 0.0000 25.9086 0.0000 0.0000
# 5 0.0000 0.0000 0.0000 0.0000 7.3041 0.0000
# 6 0.0000 0.0000 0.0000 0.0000 0.0000 12.2387
#
#
#
# Elastic Compliance Matrix: (Units=1/GPa)
#
#
# Indices 1 2 3 4 5 6 
#
# 1 0.013604 -0.002988 0.000782 0.000000 0.000000 0.000000
# 2 -0.002988 0.018901 -0.002768 0.000000 0.000000 0.000000
# 3 0.000782 -0.002768 0.011175 0.000000 0.000000 0.000000
# 4 0.000000 0.000000 0.000000 0.038597 0.000000 0.000000
# 5 0.000000 0.000000 0.000000 0.000000 0.136909 0.000000
# 6 0.000000 0.000000 0.000000 0.000000 0.000000 0.081708
#
#
# Mechanical properties :
#
#
# Convention : Reuss Voigt Hill
#
# Bulk Modulus (GPa) = 29.64539 30.08866 29.86702
# Shear Modulus (GPa) = 15.52387 22.64815 19.08601
#
# Velocity S-wave (km/s) = 2.77045 3.34631 3.07190
# Velocity P-wave (km/s) = 4.98911 5.45957 5.22964
#
# Compressibility (1/GPa) = 0.03373206
#
# Stress axis : x y z
#
# Youngs Moduli (GPa) = 73.50880 52.90719 89.48890
#
# Poissons Ratio (x) = 0.15807 -0.07000
# Poissons Ratio (y) = 0.21962 0.24773
# Poissons Ratio (z) = -0.05750 0.14646
#
# Static dielectric constant tensor:
#      x y z
#    x 1.690310 0.000000 0.000000 
#    y 0.000000 1.740900 0.000000 
#    z 0.000000 0.000000 1.799120 
# 
# From -- ./inp_files/16797.got.cif
#   From: 2010.05.17/outbox.cif.g08.bks.cpg/sg46_9_cif.got.tgz:16797.got - 2010.06.03 19:58:25.
