data_PCOD9379013
_publ_section_title
;
Structure prediction by ZEFSAII (Michael W. Deem and Ramdas Pophale) SiO2 
 PCOD9379013
Probable space group: I M A 2
;
_chemical_formula_sum "Si O2"
_cell_formula_units_Z 64
_cell_length_a 8.995900
_cell_length_b 28.448472
_cell_length_c 12.802882
_cell_angle_alpha 90.000000
_cell_angle_beta 90.000000
_cell_angle_gamma 90.000000
_cell_volume 3276.508559
_symmetry_space_group_name_H-M "I M A 2"
_symmetry_group_IT_number 46
_symmetry_cell_setting 'orthorhombic'
loop_
_space_group_symop_operation_xyz
x,y,z
-x,-y,z
1/2-x,y,z
1/2+x,-y,z
1/2+x,1/2+y,1/2+z
1/2-x,1/2-y,1/2+z
-x,1/2+y,1/2+z
x,1/2-y,1/2+z
loop_
_atom_site_type_symbol
_atom_site_label
_atom_site_fract_x
_atom_site_fract_y
_atom_site_fract_z
Si Si1 0.071907 0.911450 0.558610
Si Si2 0.427994 0.375859 0.664384
Si Si3 0.572723 0.203845 0.044885
Si Si4 0.929211 0.550622 0.846752
Si Si5 0.418285 0.320715 0.329864
Si Si6 0.580078 0.569461 0.269380
Si Si7 0.572451 0.194877 0.618967
Si Si8 0.071472 0.454117 0.496829
O O1 0.250000 0.915125 0.548021
O O2 0.030240 0.855845 0.570580
O O3 0.991081 0.934091 0.459677
O O4 0.017608 0.935636 0.666174
O O5 0.250000 0.368454 0.666550
O O6 0.507833 0.326729 0.640925
O O7 0.468041 0.407683 0.764648
O O8 0.464496 0.408671 0.564609
O O9 0.750000 0.198968 0.044435
O O10 0.534889 0.259058 0.053050
O O11 0.504536 0.185355 0.937219
O O12 0.750000 0.546288 0.847788
O O13 0.000000 0.500000 0.818930
O O14 0.250000 0.303564 0.342585
O O15 0.412085 0.375325 0.297418
O O16 0.499371 0.297753 0.231763
O O17 0.750000 0.553005 0.251044
O O18 0.517808 0.549259 0.377464
O O19 0.750000 0.192989 0.632407
O O20 0.250000 0.457905 0.494599
O O21 0.000000 0.500000 0.546747
#
# Coordination Sequence:
#
# PCOD9379013 Si02
#       8
#     8   8   8   8   8   8   8   8
#     4  10  21  39  62  85 118 157 200 249 301 362
#     4  10  22  41  60  84 119 156 200 252 301 358
#     4  11  22  36  59  88 121 160 202 250 302 363
#     4  11  24  42  65  89 121 162 208 259 311 371
#     4  10  19  35  58  81 112 151 191 242 297 353
#     4   9  18  35  57  80 112 149 186 236 294 349
#     4   9  21  39  57  85 120 158 202 250 303 360
#     4  10  20  35  55  82 115 146 182 235 290 348
#
# _framework density 19.532986000000001
#
# number of rings (size 3 to 8) (size 9 to 14) (size 15 to 20)
#    0.000    2.000    1.250    1.875    0.000    5.500 
#    0.000    5.000    0.000    0.000    0.000    0.000 
#    0.000    0.000    0.000    0.000    0.000    0.000 
#
# Total GULP energy -178576.151360 kJ/mol
# GULP energy per Si atom -5580.504730 kJ/mol
# Density = 1.948853 g / cm^3
# Si number density = 19.532986 Si / 1000 Ang^3
#
#
#
# Elastic Constant Matrix: (Units=GPa)
#
#
# Indices 1 2 3 4 5 6 
#
# 1 24.6241 18.1470 23.8626 0.0004 0.0001 0.0000
# 2 18.1470 44.7245 7.2136 0.0001 0.0000 0.0000
# 3 23.8626 7.2136 92.0433 0.0017 0.0004 -0.0001
# 4 0.0004 0.0001 0.0017 12.4997 0.0000 0.0000
# 5 0.0001 0.0000 0.0004 0.0000 23.2823 0.0000
# 6 0.0000 0.0000 -0.0001 0.0000 0.0000 26.1573
#
#
#
# Elastic Compliance Matrix: (Units=1/GPa)
#
#
# Indices 1 2 3 4 5 6 
#
# 1 0.080399 -0.029635 -0.018521 0.000000 0.000000 0.000000
# 2 -0.029635 0.033569 0.005052 0.000000 0.000000 0.000000
# 3 -0.018521 0.005052 0.015270 -0.000001 0.000000 0.000000
# 4 0.000000 0.000000 -0.000001 0.080002 0.000000 0.000000
# 5 0.000000 0.000000 0.000000 0.000000 0.042951 0.000000
# 6 0.000000 0.000000 0.000000 0.000000 0.000000 0.038230
#
#
# Mechanical properties :
#
#
# Convention : Reuss Voigt Hill
#
# Bulk Modulus (GPa) = 23.23961 28.87093 26.05527
# Shear Modulus (GPa) = 12.78865 19.86578 16.32721
#
# Velocity S-wave (km/s) = 2.56153 3.19256 2.89429
# Velocity P-wave (km/s) = 4.54665 5.32941 4.95352
#
# Compressibility (1/GPa) = 0.04302998
#
# Stress axis : x y z
#
# Youngs Moduli (GPa) = 12.43802 29.78974 65.48700
#
# Poissons Ratio (x) = 0.88281 1.21290
# Poissons Ratio (y) = 0.36860 -0.33084
# Poissons Ratio (z) = 0.23037 -0.15050
#
# Static dielectric constant tensor:
#      x y z
#    x 1.661190 0.000000 0.000000 
#    y 0.000000 1.741430 0.000000 
#    z 0.000000 0.000000 1.671230 
# 
# From -- ./inp_files/9771.got.cif
#   From: 2010.05.17/outbox.cif.g08.bks.cpg/sg46_5_cif.got.tgz:9771.got - 2010.06.03 19:58:25.
