data_PCOD9379749
_publ_section_title
;
Structure prediction by ZEFSAII (Michael W. Deem and Ramdas Pophale) SiO2 
 PCOD9379749
Probable space group: I M A 2
;
_chemical_formula_sum "Si O2"
_cell_formula_units_Z 64
_cell_length_a 15.457374
_cell_length_b 9.039893
_cell_length_c 22.030711
_cell_angle_alpha 90.000000
_cell_angle_beta 90.000000
_cell_angle_gamma 90.000000
_cell_volume 3078.417495
_symmetry_space_group_name_H-M "I M A 2"
_symmetry_group_IT_number 46
_symmetry_cell_setting 'orthorhombic'
loop_
_space_group_symop_operation_xyz
x,y,z
-x,-y,z
1/2-x,y,z
1/2+x,-y,z
1/2+x,1/2+y,1/2+z
1/2-x,1/2-y,1/2+z
-x,1/2+y,1/2+z
x,1/2-y,1/2+z
loop_
_atom_site_type_symbol
_atom_site_label
_atom_site_fract_x
_atom_site_fract_y
_atom_site_fract_z
Si Si1 0.846795 0.104522 0.882650
Si Si2 0.034147 0.654515 0.832431
Si Si3 0.154890 0.271016 0.160024
Si Si4 0.846924 0.168085 0.087610
Si Si5 0.403669 0.434216 0.499618
Si Si6 0.916459 0.595585 0.275430
Si Si7 0.900490 0.458232 0.706914
Si Si8 0.979099 0.668788 0.051922
O O1 0.750000 0.163153 0.879460
O O2 0.914926 0.238497 0.877836
O O3 0.857498 0.003965 0.942036
O O4 0.868142 0.997296 0.826655
O O5 0.094418 0.605359 0.774948
O O6 0.000000 0.500000 0.858684
O O7 0.956347 0.752768 0.803542
O O8 0.250000 0.290013 0.132137
O O9 0.141318 0.377691 0.217254
O O10 0.077016 0.304788 0.113402
O O11 0.148520 0.109475 0.191526
O O12 0.750000 0.220773 0.074215
O O13 0.863882 0.159127 0.159292
O O14 0.926245 0.257870 0.059491
O O15 0.858021 0.002823 0.059167
O O16 0.500000 0.500000 0.498870
O O17 0.420910 0.259882 0.503659
O O18 0.000000 0.500000 0.257030
O O19 0.000000 0.500000 0.691390
O O20 0.000000 0.500000 0.039138
#
# Coordination Sequence:
#
# PCOD9379749 Si02
#       8
#     8   8   8   8   8   8   8   8
#     4  11  24  41  63  95 129 169 223 278 330 396
#     4  10  20  39  64  88 127 171 218 268 332 401
#     4  12  22  35  60  96 135 175 218 270 333 397
#     4  11  21  38  66  94 127 173 223 272 323 392
#     4  10  21  43  68  89 119 168 220 262 324 396
#     4  10  20  38  60  86 129 181 220 261 323 402
#     4  11  18  36  61  93 130 173 219 267 330 396
#     4  11  24  42  64  96 134 171 217 277 335 399
#
# _framework density 20.789902000000001
#
# number of rings (size 3 to 8) (size 9 to 14) (size 15 to 20)
#    0.000    1.250    5.000    3.000    0.000    3.000 
#    0.000    5.625    0.000    0.000    0.000    0.000 
#    0.000    0.000    0.000    0.000    0.000    0.000 
#
# Total GULP energy -178631.539319 kJ/mol
# GULP energy per Si atom -5582.235604 kJ/mol
# Density = 2.074258 g / cm^3
# Si number density = 20.789902 Si / 1000 Ang^3
#
#
#
# Elastic Constant Matrix: (Units=GPa)
#
#
# Indices 1 2 3 4 5 6 
#
# 1 118.3493 22.4820 14.6219 0.0000 0.0000 0.0000
# 2 22.4820 124.7912 22.9816 0.0000 0.0000 0.0000
# 3 14.6219 22.9816 54.6503 0.0000 0.0000 0.0000
# 4 0.0000 0.0000 0.0000 22.3114 0.0000 0.0000
# 5 0.0000 0.0000 0.0000 0.0000 8.5946 0.0000
# 6 0.0000 0.0000 0.0000 0.0000 0.0000 8.4240
#
#
#
# Elastic Compliance Matrix: (Units=1/GPa)
#
#
# Indices 1 2 3 4 5 6 
#
# 1 0.008919 -0.001265 -0.001854 0.000000 0.000000 0.000000
# 2 -0.001265 0.008866 -0.003390 0.000000 0.000000 0.000000
# 3 -0.001854 -0.003390 0.020220 0.000000 0.000000 0.000000
# 4 0.000000 0.000000 0.000000 0.044820 0.000000 0.000000
# 5 0.000000 0.000000 0.000000 0.000000 0.116352 0.000000
# 6 0.000000 0.000000 0.000000 0.000000 0.000000 0.118709
#
#
# Mechanical properties :
#
#
# Convention : Reuss Voigt Hill
#
# Bulk Modulus (GPa) = 40.02257 46.44020 43.23138
# Shear Modulus (GPa) = 14.73918 23.71303 19.22610
#
# Velocity S-wave (km/s) = 2.66552 3.38095 3.04432
# Velocity P-wave (km/s) = 5.36340 6.13412 5.76166
#
# Compressibility (1/GPa) = 0.02498590
#
# Stress axis : x y z
#
# Youngs Moduli (GPa) = 112.11993 112.79573 49.45683
#
# Poissons Ratio (x) = 0.14273 0.09170
# Poissons Ratio (y) = 0.14187 0.16764
# Poissons Ratio (z) = 0.20789 0.38233
#
# Static dielectric constant tensor:
#      x y z
#    x 1.737750 0.000000 0.000000 
#    y 0.000000 1.782930 0.000000 
#    z 0.000000 0.000000 1.768400 
# 
# From -- ./inp_files/23695.got.cif
#   From: 2010.05.17/outbox.cif.g08.bks.cpg/sg46_12_cif.got.tgz:23695.got - 2010.06.03 19:58:25.
