data_PCOD9379506
_publ_section_title
;
Structure prediction by ZEFSAII (Michael W. Deem and Ramdas Pophale) SiO2 
 PCOD9379506
Probable space group: I M A 2
;
_chemical_formula_sum "Si O2"
_cell_formula_units_Z 40
_cell_length_a 16.818814
_cell_length_b 8.458611
_cell_length_c 11.112860
_cell_angle_alpha 90.000000
_cell_angle_beta 90.000000
_cell_angle_gamma 90.000000
_cell_volume 1580.957749
_symmetry_space_group_name_H-M "I M A 2"
_symmetry_group_IT_number 46
_symmetry_cell_setting 'orthorhombic'
loop_
_space_group_symop_operation_xyz
x,y,z
-x,-y,z
1/2-x,y,z
1/2+x,-y,z
1/2+x,1/2+y,1/2+z
1/2-x,1/2-y,1/2+z
-x,1/2+y,1/2+z
x,1/2-y,1/2+z
loop_
_atom_site_type_symbol
_atom_site_label
_atom_site_fract_x
_atom_site_fract_y
_atom_site_fract_z
Si Si1 0.921929 0.819882 0.937250
Si Si2 0.085397 0.507154 0.811664
Si Si3 0.000000 0.500000 0.221284
Si Si4 0.079048 0.727291 0.030787
Si Si5 0.750000 0.941720 0.295478
Si Si6 0.250000 0.404011 0.414346
Si Si7 0.250000 0.747580 0.467930
O O1 0.912962 0.633071 0.910924
O O2 0.943012 0.900741 0.809630
O O3 0.835703 0.879319 0.977555
O O4 0.000578 0.834261 0.017821
O O5 0.164956 0.479664 0.738494
O O6 0.000000 0.500000 0.751113
O O7 0.084910 0.663313 0.892377
O O8 0.053618 0.606335 0.134134
O O9 0.170609 0.769543 0.047419
O O10 0.750000 0.076092 0.405175
O O11 0.750000 0.753128 0.327059
O O12 0.250000 0.591528 0.380288
#
# Coordination Sequence:
#
# PCOD9379506 Si02
#       7
#     8   8   4   8   4   4   4
#     4  10  20  36  61  95 130 168 222 278 325 406
#     4   8  14  31  55  76 121 158 204 259 318 380
#     4  12  22  36  68  94 128 186 224 268 354 400
#     4  10  20  40  62  95 132 176 224 277 342 403
#     4   8  16  28  54  87 115 174 203 257 338 377
#     4  10  20  37  63 100 134 168 232 279 333 414
#     4  10  20  35  65  93 131 182 217 278 347 397
#
# _framework density 25.301119
#
# number of rings (size 3 to 8) (size 9 to 14) (size 15 to 20)
#    0.000    2.400    3.000    1.200    0.000    0.800 
#    0.000    2.000   19.800    0.000   10.400    0.000 
#    0.000    0.000    0.000    0.000    0.000    0.000 
#
# Total GULP energy -111384.785387 kJ/mol
# GULP energy per Si atom -5569.239269 kJ/mol
# Density = 2.524353 g / cm^3
# Si number density = 25.301119 Si / 1000 Ang^3
#
#
#
# Elastic Constant Matrix: (Units=GPa)
#
#
# Indices 1 2 3 4 5 6 
#
# 1 321.2987 17.4510 41.5380 0.0000 0.0000 0.0000
# 2 17.4510 123.2925 37.1747 0.0000 0.0000 0.0000
# 3 41.5380 37.1747 98.3633 0.0000 0.0000 0.0000
# 4 0.0000 0.0000 0.0000 86.2901 0.0000 0.0000
# 5 0.0000 0.0000 0.0000 0.0000 -27.6848 0.0000
# 6 0.0000 0.0000 0.0000 0.0000 0.0000 -12.0271
#
#
#
# Elastic Compliance Matrix: (Units=1/GPa)
#
#
# Indices 1 2 3 4 5 6 
#
# 1 0.003292 -0.000053 -0.001370 0.000000 0.000000 0.000000
# 2 -0.000053 0.009155 -0.003438 0.000000 0.000000 0.000000
# 3 -0.001370 -0.003438 0.012044 0.000000 0.000000 0.000000
# 4 0.000000 0.000000 0.000000 0.011589 0.000000 0.000000
# 5 0.000000 0.000000 0.000000 0.000000 -0.036121 0.000000
# 6 0.000000 0.000000 0.000000 0.000000 0.000000 -0.083145
#
#
# Mechanical properties :
#
#
# Convention : Reuss Voigt Hill
#
# Bulk Modulus (GPa) = 67.70547 81.69799 74.70173
# Shear Modulus (GPa) = -72.94891 39.10168 -16.92361
#
# Velocity S-wave (km/s) = -5.37540 3.93549 -2.58909
# Velocity P-wave (km/s) = 3.42177 7.28087 4.54437
#
# Compressibility (1/GPa) = 0.01476986
#
# Stress axis : x y z
#
# Youngs Moduli (GPa) = 303.72944 109.23289 83.02705
#
# Poissons Ratio (x) = 0.00577 0.11378
# Poissons Ratio (y) = 0.01604 0.28541
# Poissons Ratio (z) = 0.41623 0.37550
#
# Static dielectric constant tensor:
#      x y z
#    x 2.073270 0.000000 0.000000 
#    y 0.000000 1.840540 0.000000 
#    z 0.000000 0.000000 1.893490 
# 
# From -- ./inp_files/11643.got.cif
#   From: 2010.05.17/outbox.cif.g08.bks.cpg/sg46_6_cif.got.tgz:11643.got - 2010.06.03 19:58:25.
