data_PCOD9379736
_publ_section_title
;
Structure prediction by ZEFSAII (Michael W. Deem and Ramdas Pophale) SiO2 
 PCOD9379736
Probable space group: I M A 2
;
_chemical_formula_sum "Si O2"
_cell_formula_units_Z 52
_cell_length_a 21.334286
_cell_length_b 11.979887
_cell_length_c 8.412962
_cell_angle_alpha 90.000000
_cell_angle_beta 90.000000
_cell_angle_gamma 90.000000
_cell_volume 2150.204476
_symmetry_space_group_name_H-M "I M A 2"
_symmetry_group_IT_number 46
_symmetry_cell_setting 'orthorhombic'
loop_
_space_group_symop_operation_xyz
x,y,z
-x,-y,z
1/2-x,y,z
1/2+x,-y,z
1/2+x,1/2+y,1/2+z
1/2-x,1/2-y,1/2+z
-x,1/2+y,1/2+z
x,1/2-y,1/2+z
loop_
_atom_site_type_symbol
_atom_site_label
_atom_site_fract_x
_atom_site_fract_y
_atom_site_fract_z
Si Si1 0.750000 0.139456 0.255841
Si Si2 0.905328 0.601587 0.098753
Si Si3 0.140894 0.463306 0.788927
Si Si4 0.547446 0.148905 0.981569
Si Si5 0.861044 0.945070 0.926629
Si Si6 0.042649 0.647443 0.125616
Si Si7 0.250000 0.608475 0.380447
Si Si8 0.500000 0.500000 0.714571
O O1 0.688990 0.066706 0.306946
O O2 0.750000 0.269953 0.301051
O O3 0.750000 0.134638 0.066559
O O4 0.881634 0.632861 0.277590
O O5 0.923675 0.470408 0.121275
O O6 0.973614 0.649267 0.047908
O O7 0.857998 0.610839 0.950158
O O8 0.154217 0.409518 0.611609
O O9 0.068253 0.507067 0.793510
O O10 0.585685 0.036066 0.963658
O O11 0.526849 0.174858 0.806566
O O12 0.583483 0.254432 0.050731
O O13 0.496376 0.112668 0.109414
O O14 0.807911 0.025634 0.853143
#
# Coordination Sequence:
#
# PCOD9379736 Si02
#       8
#     4   8   8   8   8   8   4   4
#     4  10  24  36  54  90 115 158 195 234 282 362
#     4  10  21  36  54  76 115 153 193 232 283 339
#     4  10  21  36  58  77 113 149 197 230 285 334
#     4  10  21  33  56  78 118 148 191 237 295 343
#     4   9  21  36  52  78 112 159 185 233 277 342
#     4  10  21  33  50  84 109 149 191 237 287 347
#     4  10  22  36  54  80 123 152 197 226 282 350
#     4  10  20  38  58  78 116 160 186 248 296 342
#
# _framework density 24.183745999999999
#
# number of rings (size 3 to 8) (size 9 to 14) (size 15 to 20)
#    0.000    2.154    0.000    3.692   10.769    3.692 
#    0.000    0.000    0.000    0.000    0.000    2.154 
#    0.000    0.000    0.000    0.000    0.000    0.000 
#
# Total GULP energy -144785.905705 kJ/mol
# GULP energy per Si atom -5568.688681 kJ/mol
# Density = 2.412870 g / cm^3
# Si number density = 24.183746 Si / 1000 Ang^3
#
#
#
# Elastic Constant Matrix: (Units=GPa)
#
#
# Indices 1 2 3 4 5 6 
#
# 1 90.1018 1.2766 8.4973 0.0000 0.0000 0.0000
# 2 1.2766 37.0731 15.3949 0.0000 0.0000 0.0000
# 3 8.4973 15.3949 133.0857 0.0000 0.0000 0.0000
# 4 0.0000 0.0000 0.0000 27.0992 0.0000 0.0000
# 5 0.0000 0.0000 0.0000 0.0000 22.6956 0.0000
# 6 0.0000 0.0000 0.0000 0.0000 0.0000-1410.4631
#
#
#
# Elastic Compliance Matrix: (Units=1/GPa)
#
#
# Indices 1 2 3 4 5 6 
#
# 1 0.011166 -0.000093 -0.000702 0.000000 0.000000 0.000000
# 2 -0.000093 0.028336 -0.003272 0.000000 0.000000 0.000000
# 3 -0.000702 -0.003272 0.007937 0.000000 0.000000 0.000000
# 4 0.000000 0.000000 0.000000 0.036901 0.000000 0.000000
# 5 0.000000 0.000000 0.000000 0.000000 0.044061 0.000000
# 6 0.000000 0.000000 0.000000 0.000000 0.000000 -0.000709
#
#
# Mechanical properties :
#
#
# Convention : Reuss Voigt Hill
#
# Bulk Modulus (GPa) = 25.44198 34.51091 29.97645
# Shear Modulus (GPa) = 33.57317 -256.46088 -111.44385
#
# Velocity S-wave (km/s) = 3.72997 -10.30907 -6.79575
# Velocity P-wave (km/s) = 5.39383 11.28722 7.01099
#
# Compressibility (1/GPa) = 0.03930512
#
# Stress axis : x y z
#
# Youngs Moduli (GPa) = 89.55683 35.29127 125.98802
#
# Poissons Ratio (x) = 0.00328 0.08847
# Poissons Ratio (y) = 0.00832 0.41221
# Poissons Ratio (z) = 0.06289 0.11547
#
# Static dielectric constant tensor:
#      x y z
#    x 1.904260 0.000000 0.000000 
#    y 0.000000 1.986160 0.000000 
#    z 0.000000 0.000000 2.103100 
# 
# From -- ./inp_files/7382.got.cif
#   From: 2010.05.17/outbox.cif.g08.bks.cpg/sg46_4_cif.got.tgz:7382.got - 2010.06.03 19:58:25.
