data_PCOD9379675
_publ_section_title
;
Structure prediction by ZEFSAII (Michael W. Deem and Ramdas Pophale) SiO2 
 PCOD9379675
Probable space group: I M A 2
;
_chemical_formula_sum "Si O2"
_cell_formula_units_Z 48
_cell_length_a 8.812525
_cell_length_b 31.516233
_cell_length_c 9.241435
_cell_angle_alpha 90.000000
_cell_angle_beta 90.000000
_cell_angle_gamma 90.000000
_cell_volume 2566.693896
_symmetry_space_group_name_H-M "I M A 2"
_symmetry_group_IT_number 46
_symmetry_cell_setting 'orthorhombic'
loop_
_space_group_symop_operation_xyz
x,y,z
-x,-y,z
1/2-x,y,z
1/2+x,-y,z
1/2+x,1/2+y,1/2+z
1/2-x,1/2-y,1/2+z
-x,1/2+y,1/2+z
x,1/2-y,1/2+z
loop_
_atom_site_type_symbol
_atom_site_label
_atom_site_fract_x
_atom_site_fract_y
_atom_site_fract_z
Si Si1 0.068646 0.374820 0.579470
Si Si2 0.431891 0.954493 0.913815
Si Si3 0.932888 0.372158 0.897302
Si Si4 0.932102 0.789702 0.903262
Si Si5 0.932089 0.288445 0.082540
Si Si6 0.567536 0.454786 0.076368
O O1 0.250000 0.379111 0.580681
O O2 0.029148 0.333815 0.482808
O O3 0.995647 0.416593 0.509823
O O4 0.008509 0.368444 0.741390
O O5 0.250000 0.955807 0.923437
O O6 0.474628 0.947400 0.744742
O O7 0.500000 0.000000 0.956903
O O8 0.750000 0.373370 0.879972
O O9 0.969118 0.331749 0.997055
O O10 0.980976 0.415426 0.977795
O O11 0.750000 0.785540 0.899244
O O12 0.997754 0.789384 0.741976
O O13 0.002184 0.751063 0.993708
O O14 0.750000 0.284969 0.092539
O O15 0.500000 0.500000 0.030892
O O16 0.750000 0.457338 0.070674
#
# Coordination Sequence:
#
# PCOD9379675 Si02
#       6
#     8   8   8   8   8   8
#     4  11  24  39  57  84 117 155 196 236 286 347
#     4  10  20  37  61  86 115 150 191 240 291 345
#     4  10  22  39  58  83 116 152 191 239 291 342
#     4  11  24  41  61  87 121 156 192 241 299 353
#     4  11  23  40  64  90 116 152 199 244 291 352
#     4   9  19  36  58  84 112 145 186 232 284 339
#
# _framework density 18.7011
#
# number of rings (size 3 to 8) (size 9 to 14) (size 15 to 20)
#    0.000    1.667    0.000    4.000    0.000   10.000 
#    0.000    1.667    0.000    0.000    0.000    0.000 
#    0.000    0.000    0.000    0.000    0.000    0.000 
#
# Total GULP energy -134183.908810 kJ/mol
# GULP energy per Si atom -5590.996200 kJ/mol
# Density = 1.865854 g / cm^3
# Si number density = 18.701100 Si / 1000 Ang^3
#
#
#
# Elastic Constant Matrix: (Units=GPa)
#
#
# Indices 1 2 3 4 5 6 
#
# 1 51.4018 72.6231 63.8642 -0.0002 -0.0001 0.0000
# 2 72.6231 185.9601 120.1944 -0.0003 0.0000 0.0000
# 3 63.8642 120.1944 170.2074 -0.0005 -0.0002 0.0001
# 4 -0.0002 -0.0003 -0.0005 40.8540 -0.0001 0.0000
# 5 -0.0001 0.0000 -0.0002 -0.0001 35.2061 -0.0002
# 6 0.0000 0.0000 0.0001 0.0000 -0.0002 32.6230
#
#
#
# Elastic Compliance Matrix: (Units=1/GPa)
#
#
# Indices 1 2 3 4 5 6 
#
# 1 0.050140 -0.013653 -0.009172 0.000000 0.000000 0.000000
# 2 -0.013653 0.013610 -0.004488 0.000000 0.000000 0.000000
# 3 -0.009172 -0.004488 0.012486 0.000000 0.000000 0.000000
# 4 0.000000 0.000000 0.000000 0.024477 0.000000 0.000000
# 5 0.000000 0.000000 0.000000 0.000000 0.028404 0.000000
# 6 0.000000 0.000000 0.000000 0.000000 0.000000 0.030653
#
#
# Mechanical properties :
#
#
# Convention : Reuss Voigt Hill
#
# Bulk Modulus (GPa) = 46.27528 102.32588 74.30058
# Shear Modulus (GPa) = 22.56307 31.79579 27.17943
#
# Velocity S-wave (km/s) = 3.47725 4.12783 3.81643
# Velocity P-wave (km/s) = 6.39688 8.80647 7.69656
#
# Compressibility (1/GPa) = 0.02160981
#
# Stress axis : x y z
#
# Youngs Moduli (GPa) = 19.94429 73.47296 80.08808
#
# Poissons Ratio (x) = 1.00311 0.73457
# Poissons Ratio (y) = 0.27230 0.35947
# Poissons Ratio (z) = 0.18293 0.32978
#
# Static dielectric constant tensor:
#      x y z
#    x 1.626860 0.000000 0.000000 
#    y 0.000000 1.618610 0.000000 
#    z 0.000000 0.000000 1.614650 
# 
# From -- ./inp_files/3938.got.cif
#   From: 2010.05.17/outbox.cif.g08.bks.cpg/sg46_2_cif.got.tgz:3938.got - 2010.06.03 19:58:25.
