data_PCOD9379583
_publ_section_title
;
Structure prediction by ZEFSAII (Michael W. Deem and Ramdas Pophale) SiO2 
 PCOD9379583
Probable space group: I M A 2
;
_chemical_formula_sum "Si O2"
_cell_formula_units_Z 64
_cell_length_a 21.261160
_cell_length_b 10.134202
_cell_length_c 14.366928
_cell_angle_alpha 90.000000
_cell_angle_beta 90.000000
_cell_angle_gamma 90.000000
_cell_volume 3095.568564
_symmetry_space_group_name_H-M "I M A 2"
_symmetry_group_IT_number 46
_symmetry_cell_setting 'orthorhombic'
loop_
_space_group_symop_operation_xyz
x,y,z
-x,-y,z
1/2-x,y,z
1/2+x,-y,z
1/2+x,1/2+y,1/2+z
1/2-x,1/2-y,1/2+z
-x,1/2+y,1/2+z
x,1/2-y,1/2+z
loop_
_atom_site_type_symbol
_atom_site_label
_atom_site_fract_x
_atom_site_fract_y
_atom_site_fract_z
Si Si1 0.062824 0.562192 0.250000
Si Si2 0.321017 0.903041 0.402314
Si Si3 0.096724 0.208847 0.706754
Si Si4 0.180440 0.040263 0.999517
Si Si5 0.080448 0.673597 0.442611
Si Si6 0.458083 0.801291 0.147136
Si Si7 0.140454 0.011081 0.210640
Si Si8 0.677205 0.836562 0.524626
O O1 0.101187 0.427341 0.264187
O O2 0.046763 0.635247 0.346605
O O3 0.085305 0.676860 0.180621
O O4 0.128568 0.332528 0.109257
O O5 0.250000 0.856395 0.424638
O O6 0.375299 0.800149 0.428000
O O7 0.325923 0.932681 0.292560
O O8 0.332008 0.038782 0.458316
O O9 0.130998 0.338705 0.744396
O O10 0.026509 0.266044 0.686992
O O11 0.000000 0.000000 0.706015
O O12 0.250000 0.000792 0.968416
O O13 0.175511 0.023393 0.111893
O O14 0.170423 0.193745 0.976931
O O15 0.127285 0.947196 0.960508
O O16 0.039506 0.689681 0.535452
O O17 0.424390 0.932019 0.186938
O O18 0.750000 0.841611 0.558921
#
# Coordination Sequence:
#
# PCOD9379583 Si02
#       8
#     8   8   8   8   8   8   8   8
#     4  10  22  39  59  87 122 152 194 248 298 356
#     4  11  22  38  59  88 122 158 201 246 293 358
#     4  10  21  39  62  85 120 157 196 246 304 354
#     4   9  19  36  57  83 114 153 197 245 296 347
#     4  11  22  37  63  86 120 157 200 245 302 356
#     4  10  21  41  60  87 120 156 199 252 298 364
#     4  10  20  36  60  84 120 156 199 242 297 355
#     4   9  20  38  59  86 118 153 199 247 295 357
#
# _framework density 20.674716
#
# number of rings (size 3 to 8) (size 9 to 14) (size 15 to 20)
#    0.000    2.000    1.250    1.875    1.750    3.500 
#    2.250    1.250    0.000    0.000    0.000    0.000 
#    0.000    0.000    0.000    0.000    0.000    0.000 
#
# Total GULP energy -178381.242072 kJ/mol
# GULP energy per Si atom -5574.413815 kJ/mol
# Density = 2.062766 g / cm^3
# Si number density = 20.674716 Si / 1000 Ang^3
#
#
#
# Elastic Constant Matrix: (Units=GPa)
#
#
# Indices 1 2 3 4 5 6 
#
# 1 33.9558 8.6938 0.1301 0.0000 0.0000 0.0000
# 2 8.6938 102.5361 20.8534 0.0000 0.0000 0.0000
# 3 0.1301 20.8534 58.9936 0.0000 0.0000 0.0000
# 4 0.0000 0.0000 0.0000 33.0646 0.0000 0.0000
# 5 0.0000 0.0000 0.0000 0.0000 3.2774 0.0000
# 6 0.0000 0.0000 0.0000 0.0000 0.0000 19.5551
#
#
#
# Elastic Compliance Matrix: (Units=1/GPa)
#
#
# Indices 1 2 3 4 5 6 
#
# 1 0.030148 -0.002740 0.000902 0.000000 0.000000 0.000000
# 2 -0.002740 0.010757 -0.003796 0.000000 0.000000 0.000000
# 3 0.000902 -0.003796 0.018291 0.000000 0.000000 0.000000
# 4 0.000000 0.000000 0.000000 0.030244 0.000000 0.000000
# 5 0.000000 0.000000 0.000000 0.000000 0.305117 0.000000
# 6 0.000000 0.000000 0.000000 0.000000 0.000000 0.051138
#
#
# Mechanical properties :
#
#
# Convention : Reuss Voigt Hill
#
# Bulk Modulus (GPa) = 20.86469 28.31556 24.59012
# Shear Modulus (GPa) = 10.57220 22.23330 16.40275
#
# Velocity S-wave (km/s) = 2.26378 3.28287 2.81974
# Velocity P-wave (km/s) = 4.11664 5.30048 4.74562
#
# Compressibility (1/GPa) = 0.04792787
#
# Stress axis : x y z
#
# Youngs Moduli (GPa) = 33.16965 92.96233 54.67173
#
# Poissons Ratio (x) = 0.25468 -0.04931
# Poissons Ratio (y) = 0.09087 0.20756
# Poissons Ratio (z) = -0.02992 0.35292
#
# Static dielectric constant tensor:
#      x y z
#    x 1.783500 0.000000 0.000000 
#    y 0.000000 1.783370 0.000000 
#    z 0.000000 0.000000 1.733940 
# 
# From -- ./inp_files/17405.got.cif
#   From: 2010.05.17/outbox.cif.g08.bks.cpg/sg46_9_cif.got.tgz:17405.got - 2010.06.03 19:58:25.
