data_PCOD9379450
_publ_section_title
;
Structure prediction by ZEFSAII (Michael W. Deem and Ramdas Pophale) SiO2 
 PCOD9379450
Probable space group: I M A 2
;
_chemical_formula_sum "Si O2"
_cell_formula_units_Z 64
_cell_length_a 17.470849
_cell_length_b 17.545850
_cell_length_c 9.496888
_cell_angle_alpha 90.000000
_cell_angle_beta 90.000000
_cell_angle_gamma 90.000000
_cell_volume 2911.184556
_symmetry_space_group_name_H-M "I M A 2"
_symmetry_group_IT_number 46
_symmetry_cell_setting 'orthorhombic'
loop_
_space_group_symop_operation_xyz
x,y,z
-x,-y,z
1/2-x,y,z
1/2+x,-y,z
1/2+x,1/2+y,1/2+z
1/2-x,1/2-y,1/2+z
-x,1/2+y,1/2+z
x,1/2-y,1/2+z
loop_
_atom_site_type_symbol
_atom_site_label
_atom_site_fract_x
_atom_site_fract_y
_atom_site_fract_z
Si Si1 0.839803 0.106384 0.743510
Si Si2 0.088391 0.219977 0.294503
Si Si3 0.659747 0.563356 0.713100
Si Si4 0.078058 0.691721 0.679921
Si Si5 0.158397 0.334673 0.087988
Si Si6 0.080712 0.961205 0.001793
Si Si7 0.662456 0.263213 0.921689
Si Si8 0.158767 0.506169 0.999177
O O1 0.750000 0.085887 0.749844
O O2 0.843058 0.189108 0.817990
O O3 0.866280 0.080127 0.587824
O O4 0.889500 0.057214 0.848622
O O5 0.120685 0.145513 0.214201
O O6 0.128846 0.294111 0.229107
O O7 0.112141 0.203642 0.456556
O O8 0.998410 0.222086 0.256486
O O9 0.750000 0.575541 0.732543
O O10 0.641793 0.515418 0.576377
O O11 0.627309 0.514488 0.845275
O O12 0.068658 0.614535 0.593695
O O13 0.136477 0.674991 0.808185
O O14 0.111332 0.747772 0.558504
O O15 0.250000 0.322143 0.068770
O O16 0.146223 0.426113 0.083047
O O17 0.000000 0.000000 0.996121
O O18 0.750000 0.273235 0.968755
O O19 0.250000 0.515207 0.979750
#
# Coordination Sequence:
#
# PCOD9379450 Si02
#       8
#     8   8   8   8   8   8   8   8
#     4   9  19  38  61  85 117 155 199 251 304 362
#     4  11  21  37  57  83 122 161 199 252 311 363
#     4  10  20  36  60  86 116 156 201 250 305 367
#     4  11  23  41  62  87 125 160 199 257 316 366
#     4  10  20  35  56  85 120 159 207 250 296 363
#     4  11  22  39  58  85 123 157 201 248 306 371
#     4  10  22  40  64  91 120 159 209 256 305 370
#     4   8  17  35  56  84 115 147 192 246 296 352
#
# _framework density 21.984179000000001
#
# number of rings (size 3 to 8) (size 9 to 14) (size 15 to 20)
#    0.000    2.000    1.250    3.375    0.000    3.500 
#    4.500    4.375    0.000    0.000    0.000    0.000 
#    0.000    0.000    0.000    0.000    0.000    0.000 
#
# Total GULP energy -178648.591745 kJ/mol
# GULP energy per Si atom -5582.768492 kJ/mol
# Density = 2.193414 g / cm^3
# Si number density = 21.984179 Si / 1000 Ang^3
#
#
#
# Elastic Constant Matrix: (Units=GPa)
#
#
# Indices 1 2 3 4 5 6 
#
# 1 71.3394 11.7844 24.3207 0.0000 0.0000 0.0000
# 2 11.7844 43.4099 4.7320 0.0000 0.0000 0.0000
# 3 24.3207 4.7320 62.6921 0.0000 0.0000 0.0000
# 4 0.0000 0.0000 0.0000 43.4170 0.0000 0.0000
# 5 0.0000 0.0000 0.0000 0.0000 23.7956 0.0000
# 6 0.0000 0.0000 0.0000 0.0000 0.0000 20.4982
#
#
#
# Elastic Compliance Matrix: (Units=1/GPa)
#
#
# Indices 1 2 3 4 5 6 
#
# 1 0.016777 -0.003877 -0.006216 0.000000 0.000000 0.000000
# 2 -0.003877 0.024123 -0.000317 0.000000 0.000000 0.000000
# 3 -0.006216 -0.000317 0.018386 0.000000 0.000000 0.000000
# 4 0.000000 0.000000 0.000000 0.023032 0.000000 0.000000
# 5 0.000000 0.000000 0.000000 0.000000 0.042024 0.000000
# 6 0.000000 0.000000 0.000000 0.000000 0.000000 0.048785
#
#
# Mechanical properties :
#
#
# Convention : Reuss Voigt Hill
#
# Bulk Modulus (GPa) = 25.99601 28.79061 27.39331
# Shear Modulus (GPa) = 24.18151 26.64913 25.41532
#
# Velocity S-wave (km/s) = 3.32015 3.48544 3.40380
# Velocity P-wave (km/s) = 5.15251 5.41500 5.28538
#
# Compressibility (1/GPa) = 0.03846744
#
# Stress axis : x y z
#
# Youngs Moduli (GPa) = 59.60557 41.45383 54.38850
#
# Poissons Ratio (x) = 0.16071 0.33807
# Poissons Ratio (y) = 0.23108 0.01723
# Poissons Ratio (z) = 0.37050 0.01313
#
# Static dielectric constant tensor:
#      x y z
#    x 1.790590 0.000000 0.000000 
#    y 0.000000 1.854990 0.000000 
#    z 0.000000 0.000000 1.792710 
# 
# From -- ./inp_files/6967.got.cif
#   From: 2010.05.17/outbox.cif.g08.bks.cpg/sg46_4_cif.got.tgz:6967.got - 2010.06.03 19:58:25.
