data_PCOD9379884
_publ_section_title
;
Structure prediction by ZEFSAII (Michael W. Deem and Ramdas Pophale) SiO2 
 PCOD9379884
Probable space group: I M A 2
;
_chemical_formula_sum "Si O2"
_cell_formula_units_Z 48
_cell_length_a 17.229987
_cell_length_b 9.697524
_cell_length_c 14.733011
_cell_angle_alpha 90.000000
_cell_angle_beta 90.000000
_cell_angle_gamma 90.000000
_cell_volume 2461.712472
_symmetry_space_group_name_H-M "I M A 2"
_symmetry_group_IT_number 46
_symmetry_cell_setting 'orthorhombic'
loop_
_space_group_symop_operation_xyz
x,y,z
-x,-y,z
1/2-x,y,z
1/2+x,-y,z
1/2+x,1/2+y,1/2+z
1/2-x,1/2-y,1/2+z
-x,1/2+y,1/2+z
x,1/2-y,1/2+z
loop_
_atom_site_type_symbol
_atom_site_label
_atom_site_fract_x
_atom_site_fract_y
_atom_site_fract_z
Si Si1 0.576666 0.759318 0.863200
Si Si2 0.339717 0.523870 0.812901
Si Si3 0.942632 0.253415 0.725112
Si Si4 0.162045 0.527514 0.287566
Si Si5 0.334510 0.738265 0.457117
Si Si6 0.497037 0.665364 0.542950
O O1 0.619106 0.618684 0.836707
O O2 0.492497 0.760334 0.816462
O O3 0.623458 0.886798 0.820703
O O4 0.558774 0.778791 0.969895
O O5 0.250000 0.505376 0.785449
O O6 0.387156 0.613820 0.739032
O O7 0.340003 0.617648 0.903617
O O8 0.890817 0.115718 0.718456
O O9 0.003362 0.278398 0.644688
O O10 0.250000 0.507744 0.254561
O O11 0.165736 0.624730 0.376801
O O12 0.250000 0.730554 0.504016
O O13 0.409846 0.711851 0.516353
O O14 0.500000 0.500000 0.540666
#
# Coordination Sequence:
#
# PCOD9379884 Si02
#       6
#     8   8   8   8   8   8
#     4  12  21  40  62  92 124 156 201 262 314 368
#     4  10  21  39  62  88 122 164 205 256 313 368
#     4  11  23  39  63  89 121 159 212 249 310 373
#     4  10  20  40  65  87 118 161 204 254 305 365
#     4   9  19  36  59  85 113 156 204 242 294 362
#     4  12  22  38  63  93 122 162 209 258 311 369
#
# _framework density 19.498621
#
# number of rings (size 3 to 8) (size 9 to 14) (size 15 to 20)
#    0.000    1.333    5.000    4.000    0.000    1.333 
#    6.000    0.000    0.000    2.000    0.000    0.000 
#    0.000    0.000    0.000    0.000    0.000    0.000 
#
# Total GULP energy -133972.889176 kJ/mol
# GULP energy per Si atom -5582.203716 kJ/mol
# Density = 1.945424 g / cm^3
# Si number density = 19.498621 Si / 1000 Ang^3
#
#
#
# Elastic Constant Matrix: (Units=GPa)
#
#
# Indices 1 2 3 4 5 6 
#
# 1 98.9610 60.5053 5.7546 0.0000 0.0000 0.0000
# 2 60.5053 135.7225 17.5097 0.0000 0.0000 0.0000
# 3 5.7546 17.5097 56.2312 0.0000 0.0000 0.0000
# 4 0.0000 0.0000 0.0000 18.7301 0.0000 0.0000
# 5 0.0000 0.0000 0.0000 0.0000 20.7454 0.0000
# 6 0.0000 0.0000 0.0000 0.0000 0.0000 35.8820
#
#
#
# Elastic Compliance Matrix: (Units=1/GPa)
#
#
# Indices 1 2 3 4 5 6 
#
# 1 0.013906 -0.006268 0.000529 0.000000 0.000000 0.000000
# 2 -0.006268 0.010501 -0.002629 0.000000 0.000000 0.000000
# 3 0.000529 -0.002629 0.018548 0.000000 0.000000 0.000000
# 4 0.000000 0.000000 0.000000 0.053390 0.000000 0.000000
# 5 0.000000 0.000000 0.000000 0.000000 0.048204 0.000000
# 6 0.000000 0.000000 0.000000 0.000000 0.000000 0.027869
#
#
# Mechanical properties :
#
#
# Convention : Reuss Voigt Hill
#
# Bulk Modulus (GPa) = 38.13832 50.93933 44.53883
# Shear Modulus (GPa) = 25.26609 28.88118 27.07363
#
# Velocity S-wave (km/s) = 3.60361 3.85280 3.73029
# Velocity P-wave (km/s) = 6.07591 6.78037 6.43778
#
# Compressibility (1/GPa) = 0.02622035
#
# Stress axis : x y z
#
# Youngs Moduli (GPa) = 71.90975 95.22714 53.91381
#
# Poissons Ratio (x) = 0.59685 -0.02849
# Poissons Ratio (y) = 0.45070 0.14171
# Poissons Ratio (z) = -0.03801 0.25031
#
# Static dielectric constant tensor:
#      x y z
#    x 1.704560 0.000000 0.000000 
#    y 0.000000 1.664620 0.000000 
#    z 0.000000 0.000000 1.698630 
# 
# From -- ./inp_files/16494.got.cif
#   From: 2010.05.17/outbox.cif.g08.bks.cpg/sg46_9_cif.got.tgz:16494.got - 2010.06.03 19:58:25.
