data_PCOD9379931
_publ_section_title
;
Structure prediction by ZEFSAII (Michael W. Deem and Ramdas Pophale) SiO2 
 PCOD9379931
Probable space group: I M A 2
;
_chemical_formula_sum "Si O2"
_cell_formula_units_Z 32
_cell_length_a 19.977526
_cell_length_b 11.541788
_cell_length_c 5.355528
_cell_angle_alpha 90.000000
_cell_angle_beta 90.000000
_cell_angle_gamma 90.000000
_cell_volume 1234.858205
_symmetry_space_group_name_H-M "I M A 2"
_symmetry_group_IT_number 46
_symmetry_cell_setting 'orthorhombic'
loop_
_space_group_symop_operation_xyz
x,y,z
-x,-y,z
1/2-x,y,z
1/2+x,-y,z
1/2+x,1/2+y,1/2+z
1/2-x,1/2-y,1/2+z
-x,1/2+y,1/2+z
x,1/2-y,1/2+z
loop_
_atom_site_type_symbol
_atom_site_label
_atom_site_fract_x
_atom_site_fract_y
_atom_site_fract_z
Si Si1 0.381926 0.117739 0.670660
Si Si2 0.827324 0.876830 0.169215
Si Si3 0.500000 0.000000 0.940830
Si Si4 0.250000 0.685021 0.575291
Si Si5 0.102116 0.825302 0.184779
O O1 0.362782 0.065620 0.405359
O O2 0.367212 0.254337 0.641360
O O3 0.454290 0.081478 0.766658
O O4 0.333199 0.075502 0.890518
O O5 0.750000 0.855450 0.233158
O O6 0.453222 0.918962 0.109484
O O7 0.250000 0.791334 0.778698
O O8 0.321122 0.631742 0.648966
O O9 0.095127 0.727554 0.962785
#
# Coordination Sequence:
#
# PCOD9379931 Si02
#       5
#     8   8   4   4   8
#     4  10  22  36  62  94 132 167 213 260 321 406
#     4  10  20  42  68  92 128 171 214 275 338 386
#     4  12  28  42  68 106 136 180 222 262 348 410
#     4   8  16  40  66  92 118 174 226 270 320 366
#     4  10  24  44  72  93 135 174 221 279 326 388
#
# _framework density 25.913909
#
# number of rings (size 3 to 8) (size 9 to 14) (size 15 to 20)
#    0.000    2.000    0.000    3.750    7.000    4.000 
#    6.750    0.000    5.500    0.000    0.000    0.000 
#    0.000    0.000    0.000    0.000    0.000    0.000 
#
# Total GULP energy -89477.929695 kJ/mol
# GULP energy per Si atom -5592.370606 kJ/mol
# Density = 2.585493 g / cm^3
# Si number density = 25.913909 Si / 1000 Ang^3
#
#
#
# Elastic Constant Matrix: (Units=GPa)
#
#
# Indices 1 2 3 4 5 6 
#
# 1 185.1721 40.8455 21.7306 0.0000 0.0000 0.0000
# 2 40.8455 48.0943 15.4687 0.0000 0.0000 0.0000
# 3 21.7306 15.4687 173.6498 0.0000 0.0000 0.0000
# 4 0.0000 0.0000 0.0000 43.2349 0.0000 0.0000
# 5 0.0000 0.0000 0.0000 0.0000 -0.0707 0.0000
# 6 0.0000 0.0000 0.0000 0.0000 0.0000 38.1931
#
#
#
# Elastic Compliance Matrix: (Units=1/GPa)
#
#
# Indices 1 2 3 4 5 6 
#
# 1 0.006665 -0.005551 -0.000340 0.000000 0.000000 0.000000
# 2 -0.005551 0.026029 -0.001624 0.000000 0.000000 0.000000
# 3 -0.000340 -0.001624 0.005946 0.000000 0.000000 0.000000
# 4 0.000000 0.000000 0.000000 0.023129 0.000000 0.000000
# 5 0.000000 0.000000 0.000000 0.000000-14.134328 0.000000
# 6 0.000000 0.000000 0.000000 0.000000 0.000000 0.026183
#
#
# Mechanical properties :
#
#
# Convention : Reuss Voigt Hill
#
# Bulk Modulus (GPa) = 42.35380 62.55619 52.45499
# Shear Modulus (GPa) = -0.35654 38.19622 18.91984
#
# Velocity S-wave (km/s) = -0.37133 3.84339 2.70497
# Velocity P-wave (km/s) = 4.02438 6.62480 5.48104
#
# Compressibility (1/GPa) = 0.02361063
#
# Stress axis : x y z
#
# Youngs Moduli (GPa) = 150.04519 38.41853 168.18385
#
# Poissons Ratio (x) = 0.21326 0.05711
# Poissons Ratio (y) = 0.83289 0.27313
# Poissons Ratio (z) = 0.05095 0.06239
#
# Static dielectric constant tensor:
#      x y z
#    x 2.023190 0.000000 0.000000 
#    y 0.000000 1.359660 0.000000 
#    z 0.000000 0.000000 2.039660 
# 
# From -- ./inp_files/1552.got.cif
#   From: 2010.05.17/outbox.cif.g08.bks.cpg/sg46_1_cif.got.tgz:1552.got - 2010.06.03 19:58:25.
