data_PCOD9379373
_publ_section_title
;
Structure prediction by ZEFSAII (Michael W. Deem and Ramdas Pophale) SiO2 
 PCOD9379373
Probable space group: I M A 2
;
_chemical_formula_sum "Si O2"
_cell_formula_units_Z 44
_cell_length_a 9.272808
_cell_length_b 21.692587
_cell_length_c 11.744983
_cell_angle_alpha 90.000000
_cell_angle_beta 90.000000
_cell_angle_gamma 90.000000
_cell_volume 2362.517357
_symmetry_space_group_name_H-M "I M A 2"
_symmetry_group_IT_number 46
_symmetry_cell_setting 'orthorhombic'
loop_
_space_group_symop_operation_xyz
x,y,z
-x,-y,z
1/2-x,y,z
1/2+x,-y,z
1/2+x,1/2+y,1/2+z
1/2-x,1/2-y,1/2+z
-x,1/2+y,1/2+z
x,1/2-y,1/2+z
loop_
_atom_site_type_symbol
_atom_site_label
_atom_site_fract_x
_atom_site_fract_y
_atom_site_fract_z
Si Si1 0.413863 0.909720 0.733190
Si Si2 0.500000 0.500000 0.038341
Si Si3 0.423400 0.060027 0.963090
Si Si4 0.925120 0.660351 0.648234
Si Si5 0.074847 0.198452 0.606061
Si Si6 0.579135 0.619845 0.893096
O O1 0.250000 0.898741 0.770199
O O2 0.409923 0.959291 0.629603
O O3 0.510454 0.932206 0.837932
O O4 0.492401 0.848597 0.687763
O O5 0.555499 0.554017 0.954528
O O6 0.250000 0.053181 0.958034
O O7 0.500000 0.000000 0.014545
O O8 0.462526 0.118296 0.040813
O O9 0.750000 0.660269 0.651886
O O10 0.966643 0.731356 0.630569
O O11 0.981019 0.631123 0.766710
O O12 0.250000 0.192188 0.619027
O O13 0.034904 0.174116 0.479971
O O14 0.750000 0.625689 0.882113
#
# Coordination Sequence:
#
# PCOD9379373 Si02
#       6
#     8   4   8   8   8   8
#     4  11  22  37  59  86 117 151 194 242 294 348
#     4  10  20  34  58  78 116 152 196 230 292 336
#     4  11  23  38  60  87 117 153 197 242 294 348
#     4   9  20  36  58  86 114 151 195 238 285 351
#     4   9  19  36  61  87 112 147 193 239 288 342
#     4   9  18  33  55  83 112 145 188 235 281 338
#
# _framework density 18.624203000000001
#
# number of rings (size 3 to 8) (size 9 to 14) (size 15 to 20)
#    0.000    2.182    0.909    1.636    3.818    1.455 
#    0.000    1.818    0.000    2.182    0.000    0.000 
#    0.000    0.000    0.000    0.000    0.000    0.000 
#
# Total GULP energy -122515.521911 kJ/mol
# GULP energy per Si atom -5568.887360 kJ/mol
# Density = 1.858181 g / cm^3
# Si number density = 18.624203 Si / 1000 Ang^3
#
#
#
# Elastic Constant Matrix: (Units=GPa)
#
#
# Indices 1 2 3 4 5 6 
#
# 1 54.2556 32.2337 22.3213 0.0000 0.0000 0.0000
# 2 32.2337 154.4160 70.0050 0.0001 0.0000 0.0000
# 3 22.3213 70.0050 112.9472 0.0003 -0.0001 0.0000
# 4 0.0000 0.0001 0.0003 16.4734 0.0000 0.0000
# 5 0.0000 0.0000 -0.0001 0.0000 11.4099 0.0000
# 6 0.0000 0.0000 0.0000 0.0000 0.0000 15.2917
#
#
#
# Elastic Compliance Matrix: (Units=1/GPa)
#
#
# Indices 1 2 3 4 5 6 
#
# 1 0.021370 -0.003541 -0.002028 0.000000 0.000000 0.000000
# 2 -0.003541 0.009594 -0.005246 0.000000 0.000000 0.000000
# 3 -0.002028 -0.005246 0.012506 0.000000 0.000000 0.000000
# 4 0.000000 0.000000 0.000000 0.060704 0.000000 0.000000
# 5 0.000000 0.000000 0.000000 0.000000 0.087643 0.000000
# 6 0.000000 0.000000 0.000000 0.000000 0.000000 0.065395
#
#
# Mechanical properties :
#
#
# Convention : Reuss Voigt Hill
#
# Bulk Modulus (GPa) = 45.79233 63.41543 54.60388
# Shear Modulus (GPa) = 17.47500 21.77224 19.62362
#
# Velocity S-wave (km/s) = 3.06648 3.42282 3.24954
# Velocity P-wave (km/s) = 6.09743 7.05300 6.59255
#
# Compressibility (1/GPa) = 0.02183772
#
# Stress axis : x y z
#
# Youngs Moduli (GPa) = 46.79531 104.23516 79.96011
#
# Poissons Ratio (x) = 0.36913 0.16218
# Poissons Ratio (y) = 0.16572 0.41950
# Poissons Ratio (z) = 0.09491 0.54685
#
# Static dielectric constant tensor:
#      x y z
#    x 1.629810 0.000000 0.000000 
#    y 0.000000 1.649360 0.000000 
#    z 0.000000 0.000000 1.661920 
# 
# From -- ./inp_files/9246.got.cif
#   From: 2010.05.17/outbox.cif.g08.bks.cpg/sg46_5_cif.got.tgz:9246.got - 2010.06.03 19:58:25.
