data_PCOD9379116
_publ_section_title
;
Structure prediction by ZEFSAII (Michael W. Deem and Ramdas Pophale) SiO2 
 PCOD9379116
Probable space group: I M A 2
;
_chemical_formula_sum "Si O2"
_cell_formula_units_Z 56
_cell_length_a 14.633582
_cell_length_b 21.280761
_cell_length_c 9.620691
_cell_angle_alpha 90.000000
_cell_angle_beta 90.000000
_cell_angle_gamma 90.000000
_cell_volume 2996.015569
_symmetry_space_group_name_H-M "I M A 2"
_symmetry_group_IT_number 46
_symmetry_cell_setting 'orthorhombic'
loop_
_space_group_symop_operation_xyz
x,y,z
-x,-y,z
1/2-x,y,z
1/2+x,-y,z
1/2+x,1/2+y,1/2+z
1/2-x,1/2-y,1/2+z
-x,1/2+y,1/2+z
x,1/2-y,1/2+z
loop_
_atom_site_type_symbol
_atom_site_label
_atom_site_fract_x
_atom_site_fract_y
_atom_site_fract_z
Si Si1 0.145114 0.875807 0.001760
Si Si2 0.547394 0.254034 0.592673
Si Si3 0.541711 0.373119 0.220679
Si Si4 0.649417 0.473797 0.048501
Si Si5 0.538258 0.818356 0.338888
Si Si6 0.427943 0.555988 0.759597
Si Si7 0.352964 0.123845 0.580303
O O1 0.250000 0.878584 0.955260
O O2 0.121222 0.808243 0.069048
O O3 0.124909 0.926978 0.119888
O O4 0.073848 0.884559 0.876403
O O5 0.586210 0.191994 0.667528
O O6 0.511543 0.229369 0.444806
O O7 0.466467 0.283659 0.689548
O O8 0.575676 0.431935 0.129177
O O9 0.434612 0.361610 0.188229
O O10 0.750000 0.454027 0.097301
O O11 0.641534 0.548386 0.066753
O O12 0.637730 0.461693 0.885618
O O13 0.481273 0.881791 0.310961
O O14 0.623170 0.842733 0.432442
O O15 0.500000 0.500000 0.739058
O O16 0.250000 0.140688 0.623332
#
# Coordination Sequence:
#
# PCOD9379116 Si02
#       7
#     8   8   8   8   8   8   8
#     4  11  25  39  57  92 130 164 199 245 309 382
#     4  10  20  37  59  84 118 164 199 243 298 371
#     4  11  21  40  60  86 126 165 199 250 315 361
#     4  11  20  34  61  93 119 156 208 251 302 369
#     4  10  19  37  60  85 121 156 202 245 309 349
#     4  11  20  38  60  88 121 168 199 250 302 354
#     4  10  21  37  64  92 116 154 214 262 300 358
#
# _framework density 18.691492
#
# number of rings (size 3 to 8) (size 9 to 14) (size 15 to 20)
#    0.000    1.429    5.714    1.286    0.000    2.286 
#    0.000    2.857    0.000    4.286    0.000    0.000 
#    0.000    0.000    0.000    0.000    0.000    0.000 
#
# Total GULP energy -156039.535532 kJ/mol
# GULP energy per Si atom -5572.840555 kJ/mol
# Density = 1.864895 g / cm^3
# Si number density = 18.691492 Si / 1000 Ang^3
#
#
#
# Elastic Constant Matrix: (Units=GPa)
#
#
# Indices 1 2 3 4 5 6 
#
# 1 96.8924 16.1251 23.8406 0.0000 0.0000 0.0000
# 2 16.1251 77.4996 13.2443 0.0000 0.0000 0.0000
# 3 23.8406 13.2443 89.9990 0.0000 0.0000 0.0000
# 4 0.0000 0.0000 0.0000 -0.2945 0.0000 0.0000
# 5 0.0000 0.0000 0.0000 0.0000 16.4666 0.0000
# 6 0.0000 0.0000 0.0000 0.0000 0.0000 12.4731
#
#
#
# Elastic Compliance Matrix: (Units=1/GPa)
#
#
# Indices 1 2 3 4 5 6 
#
# 1 0.011303 -0.001888 -0.002716 0.000000 0.000000 0.000000
# 2 -0.001888 0.013551 -0.001494 0.000000 0.000000 0.000000
# 3 -0.002716 -0.001494 0.012051 -0.000001 0.000000 0.000000
# 4 0.000000 0.000000 -0.000001 -3.395276 0.000002 0.000002
# 5 0.000000 0.000000 0.000000 0.000002 0.060729 0.000000
# 6 0.000000 0.000000 0.000000 0.000002 0.000000 0.080173
#
#
# Mechanical properties :
#
#
# Convention : Reuss Voigt Hill
#
# Bulk Modulus (GPa) = 40.47133 41.20123 40.83628
# Shear Modulus (GPa) = -1.56395 19.80778 9.12192
#
# Velocity S-wave (km/s) = -0.91571 3.25887 2.21153
# Velocity P-wave (km/s) = 4.53665 6.02087 5.33067
#
# Compressibility (1/GPa) = 0.02470885
#
# Stress axis : x y z
#
# Youngs Moduli (GPa) = 88.47013 73.79320 82.98275
#
# Poissons Ratio (x) = 0.13929 0.22542
# Poissons Ratio (y) = 0.16700 0.12399
# Poissons Ratio (z) = 0.24032 0.11026
#
# Static dielectric constant tensor:
#      x y z
#    x 1.660800 0.000000 0.000000 
#    y 0.000000 1.654310 0.000000 
#    z 0.000000 0.000000 1.659400 
# 
# From -- ./inp_files/5919.got.cif
#   From: 2010.05.17/outbox.cif.g08.bks.cpg/sg46_3_cif.got.tgz:5919.got - 2010.06.03 19:58:25.
