data_PCOD9379889
_publ_section_title
;
Structure prediction by ZEFSAII (Michael W. Deem and Ramdas Pophale) SiO2 
 PCOD9379889
Probable space group: I M A 2
;
_chemical_formula_sum "Si O2"
_cell_formula_units_Z 60
_cell_length_a 19.202967
_cell_length_b 22.477210
_cell_length_c 5.654554
_cell_angle_alpha 90.000000
_cell_angle_beta 90.000000
_cell_angle_gamma 90.000000
_cell_volume 2440.670178
_symmetry_space_group_name_H-M "I M A 2"
_symmetry_group_IT_number 46
_symmetry_cell_setting 'orthorhombic'
loop_
_space_group_symop_operation_xyz
x,y,z
-x,-y,z
1/2-x,y,z
1/2+x,-y,z
1/2+x,1/2+y,1/2+z
1/2-x,1/2-y,1/2+z
-x,1/2+y,1/2+z
x,1/2-y,1/2+z
loop_
_atom_site_type_symbol
_atom_site_label
_atom_site_fract_x
_atom_site_fract_y
_atom_site_fract_z
Si Si1 0.988189 0.601860 0.141330
Si Si2 0.849894 0.777108 0.043236
Si Si3 0.357621 0.891220 0.792814
Si Si4 0.355651 0.093318 0.942164
Si Si5 0.428432 0.007387 0.275733
Si Si6 0.670396 0.393347 0.801639
Si Si7 0.008905 0.767653 0.505309
Si Si8 0.250000 0.003255 0.755845
O O1 0.061259 0.593239 0.272260
O O2 0.996480 0.661564 0.985412
O O3 0.927892 0.612566 0.327114
O O4 0.959668 0.547415 0.986839
O O5 0.826523 0.751951 0.789184
O O6 0.828453 0.845631 0.046520
O O7 0.933810 0.764760 0.035838
O O8 0.338293 0.858325 0.547255
O O9 0.310922 0.951199 0.781367
O O10 0.341763 0.863398 0.048257
O O11 0.309485 0.056309 0.760524
O O12 0.371200 0.047271 0.149653
O O13 0.500000 0.000000 0.125503
O O14 0.387978 0.945656 0.318017
O O15 0.750000 0.418541 0.799562
O O16 0.042968 0.743788 0.263712
#
# Coordination Sequence:
#
# PCOD9379889 Si02
#       8
#     8   8   8   8   8   8   8   4
#     4  12  26  38  69 101 130 184 226 287 363 405
#     4  10  20  42  66  92 129 166 221 297 338 396
#     4  12  25  45  64  96 138 180 229 281 334 414
#     4  12  25  41  67  94 137 188 233 278 357 412
#     4  12  24  37  60  95 135 176 228 278 332 407
#     4  12  23  44  63  85 133 188 219 274 320 394
#     4  10  20  40  65  95 132 161 213 293 347 405
#     4  12  26  46  62  98 144 190 234 270 334 420
#
# _framework density 24.583411999999999
#
# number of rings (size 3 to 8) (size 9 to 14) (size 15 to 20)
#    0.000    0.533    6.667    3.200    0.000    0.000 
#    0.000    0.667    0.000    0.000    0.000    0.933 
#    0.000    0.000    0.000    0.000    0.000    0.000 
#
# Total GULP energy -167094.743085 kJ/mol
# GULP energy per Si atom -5569.824769 kJ/mol
# Density = 2.452746 g / cm^3
# Si number density = 24.583412 Si / 1000 Ang^3
#
#
#
# Elastic Constant Matrix: (Units=GPa)
#
#
# Indices 1 2 3 4 5 6 
#
# 1 153.5680 -4.3996 4.8099 0.0000 0.0000 0.0000
# 2 -4.3996 62.6642 12.1449 0.0000 0.0000 0.0000
# 3 4.8099 12.1449 187.1476 0.0000 0.0000 0.0000
# 4 0.0000 0.0000 0.0000 -10.4593 0.0000 0.0000
# 5 0.0000 0.0000 0.0000 0.0000 40.5611 0.0000
# 6 0.0000 0.0000 0.0000 0.0000 0.0000 8.5650
#
#
#
# Elastic Compliance Matrix: (Units=1/GPa)
#
#
# Indices 1 2 3 4 5 6 
#
# 1 0.006532 0.000497 -0.000200 0.000000 0.000000 0.000000
# 2 0.000497 0.016199 -0.001064 0.000000 0.000000 0.000000
# 3 -0.000200 -0.001064 0.005418 0.000000 0.000000 0.000000
# 4 0.000000 0.000000 0.000000 -0.095609 0.000000 0.000000
# 5 0.000000 0.000000 0.000000 0.000000 0.024654 0.000000
# 6 0.000000 0.000000 0.000000 0.000000 0.000000 0.116755
#
#
# Mechanical properties :
#
#
# Convention : Reuss Voigt Hill
#
# Bulk Modulus (GPa) = 37.57206 47.61004 42.59105
# Shear Modulus (GPa) = 59.27359 33.78833 46.53096
#
# Velocity S-wave (km/s) = 4.91564 3.71136 4.35533
# Velocity P-wave (km/s) = 6.89455 6.14609 6.53105
#
# Compressibility (1/GPa) = 0.02661552
#
# Stress axis : x y z
#
# Youngs Moduli (GPa) = 153.08561 61.73137 184.58461
#
# Poissons Ratio (x) = -0.03071 0.03695
# Poissons Ratio (y) = -0.07615 0.19640
# Poissons Ratio (z) = 0.03064 0.06568
#
# Static dielectric constant tensor:
#      x y z
#    x 1.975090 0.000000 0.000000 
#    y 0.000000 2.063330 0.000000 
#    z 0.000000 0.000000 2.100180 
# 
# From -- ./inp_files/2163.got.cif
#   From: 2010.05.17/outbox.cif.g08.bks.cpg/sg46_2_cif.got.tgz:2163.got - 2010.06.03 19:58:25.
