data_PCOD9379578
_publ_section_title
;
Structure prediction by ZEFSAII (Michael W. Deem and Ramdas Pophale) SiO2 
 PCOD9379578
Probable space group: I M A 2
;
_chemical_formula_sum "Si O2"
_cell_formula_units_Z 56
_cell_length_a 17.693160
_cell_length_b 12.466514
_cell_length_c 13.689711
_cell_angle_alpha 90.000000
_cell_angle_beta 90.000000
_cell_angle_gamma 90.000000
_cell_volume 3019.567302
_symmetry_space_group_name_H-M "I M A 2"
_symmetry_group_IT_number 46
_symmetry_cell_setting 'orthorhombic'
loop_
_space_group_symop_operation_xyz
x,y,z
-x,-y,z
1/2-x,y,z
1/2+x,-y,z
1/2+x,1/2+y,1/2+z
1/2-x,1/2-y,1/2+z
-x,1/2+y,1/2+z
x,1/2-y,1/2+z
loop_
_atom_site_type_symbol
_atom_site_label
_atom_site_fract_x
_atom_site_fract_y
_atom_site_fract_z
Si Si1 0.339611 0.568270 0.148200
Si Si2 0.455725 0.384310 0.896272
Si Si3 0.601763 0.219816 0.479699
Si Si4 0.165554 0.743684 0.778817
Si Si5 0.411531 0.601022 0.624129
Si Si6 0.158998 0.158179 0.572446
Si Si7 0.585413 0.868368 0.168214
O O1 0.250000 0.577142 0.126892
O O2 0.383687 0.631105 0.062818
O O3 0.354157 0.634248 0.247728
O O4 0.357065 0.442882 0.144204
O O5 0.500000 0.500000 0.898018
O O6 0.425950 0.364838 0.785906
O O7 0.519431 0.300109 0.932646
O O8 0.386867 0.372216 0.973399
O O9 0.658977 0.214782 0.390727
O O10 0.614636 0.333894 0.530368
O O11 0.250000 0.724675 0.742645
O O12 0.111965 0.666200 0.719647
O O13 0.379228 0.482422 0.637362
O O14 0.501766 0.615852 0.623848
O O15 0.250000 0.166011 0.557007
O O16 0.126622 0.266183 0.621858
#
# Coordination Sequence:
#
# PCOD9379578 Si02
#       7
#     8   8   8   8   8   8   8
#     4   9  20  37  58  89 124 157 200 253 312 372
#     4  12  21  38  68  94 119 162 217 260 307 374
#     4  11  19  35  61  91 118 159 203 258 309 370
#     4  10  20  36  59  90 122 155 200 258 318 367
#     4  10  21  37  61  89 122 156 207 256 311 369
#     4  11  25  43  63  92 129 167 209 259 321 388
#     4  11  22  42  61  88 123 163 204 260 304 376
#
# _framework density 18.545704000000001
#
# number of rings (size 3 to 8) (size 9 to 14) (size 15 to 20)
#    0.000    1.429    5.714    0.429    0.000    1.714 
#    2.571    0.000    0.000    0.000    0.000    0.000 
#    0.000    0.000    0.000    0.000    0.000    0.000 
#
# Total GULP energy -155997.455079 kJ/mol
# GULP energy per Si atom -5571.337681 kJ/mol
# Density = 1.850349 g / cm^3
# Si number density = 18.545704 Si / 1000 Ang^3
#
#
#
# Elastic Constant Matrix: (Units=GPa)
#
#
# Indices 1 2 3 4 5 6 
#
# 1 49.0421 31.1667 8.2087 0.0000 0.0000 0.0000
# 2 31.1667 124.5176 25.0515 0.0000 0.0000 0.0000
# 3 8.2087 25.0515 52.2618 0.0000 0.0000 0.0000
# 4 0.0000 0.0000 0.0000 16.2663 0.0000 0.0000
# 5 0.0000 0.0000 0.0000 0.0000 17.1689 0.0000
# 6 0.0000 0.0000 0.0000 0.0000 0.0000 23.8170
#
#
#
# Elastic Compliance Matrix: (Units=1/GPa)
#
#
# Indices 1 2 3 4 5 6 
#
# 1 0.024295 -0.005880 -0.000997 0.000000 0.000000 0.000000
# 2 -0.005880 0.010311 -0.004019 0.000000 0.000000 0.000000
# 3 -0.000997 -0.004019 0.021218 0.000000 0.000000 0.000000
# 4 0.000000 0.000000 0.000000 0.061477 0.000000 0.000000
# 5 0.000000 0.000000 0.000000 0.000000 0.058245 0.000000
# 6 0.000000 0.000000 0.000000 0.000000 0.000000 0.041987
#
#
# Mechanical properties :
#
#
# Convention : Reuss Voigt Hill
#
# Bulk Modulus (GPa) = 29.38555 39.40834 34.39694
# Shear Modulus (GPa) = 19.94662 22.21007 21.07834
#
# Velocity S-wave (km/s) = 3.28310 3.46437 3.37495
# Velocity P-wave (km/s) = 5.50009 6.10720 5.81158
#
# Compressibility (1/GPa) = 0.03403034
#
# Stress axis : x y z
#
# Youngs Moduli (GPa) = 41.16151 96.97977 47.13063
#
# Poissons Ratio (x) = 0.57027 0.04700
# Poissons Ratio (y) = 0.24204 0.18942
# Poissons Ratio (z) = 0.04105 0.38977
#
# Static dielectric constant tensor:
#      x y z
#    x 1.648270 0.000000 0.000000 
#    y 0.000000 1.686480 0.000000 
#    z 0.000000 0.000000 1.629960 
# 
# From -- ./inp_files/12377.got.cif
#   From: 2010.05.17/outbox.cif.g08.bks.cpg/sg46_7_cif.got.tgz:12377.got - 2010.06.03 19:58:25.
