data_PCOD9379133
_publ_section_title
;
Structure prediction by ZEFSAII (Michael W. Deem and Ramdas Pophale) SiO2 
 PCOD9379133
Probable space group: I M A 2
;
_chemical_formula_sum "Si O2"
_cell_formula_units_Z 44
_cell_length_a 12.430422
_cell_length_b 14.064194
_cell_length_c 11.129432
_cell_angle_alpha 90.000000
_cell_angle_beta 90.000000
_cell_angle_gamma 90.000000
_cell_volume 1945.690334
_symmetry_space_group_name_H-M "I M A 2"
_symmetry_group_IT_number 46
_symmetry_cell_setting 'orthorhombic'
loop_
_space_group_symop_operation_xyz
x,y,z
-x,-y,z
1/2-x,y,z
1/2+x,-y,z
1/2+x,1/2+y,1/2+z
1/2-x,1/2-y,1/2+z
-x,1/2+y,1/2+z
x,1/2-y,1/2+z
loop_
_atom_site_type_symbol
_atom_site_label
_atom_site_fract_x
_atom_site_fract_y
_atom_site_fract_z
Si Si1 0.872706 0.622628 0.532820
Si Si2 0.500000 0.000000 0.845679
Si Si3 0.449328 0.851167 0.671596
Si Si4 0.016229 0.863267 0.261329
Si Si5 0.126863 0.350217 0.991577
Si Si6 0.750000 0.349672 0.760531
Si Si7 0.250000 0.785952 0.528196
O O1 0.750000 0.595781 0.559188
O O2 0.873659 0.734795 0.500231
O O3 0.922948 0.564975 0.424570
O O4 0.949943 0.606237 0.645453
O O5 0.574525 0.069196 0.767693
O O6 0.464018 0.750144 0.738390
O O7 0.561199 0.880159 0.609105
O O8 0.358457 0.839160 0.570233
O O9 0.136784 0.903699 0.270223
O O10 0.943186 0.878385 0.376916
O O11 0.250000 0.382608 0.986748
O O12 0.750000 0.301983 0.625606
O O13 0.750000 0.280921 0.882156
#
# Coordination Sequence:
#
# PCOD9379133 Si02
#       7
#     8   4   8   8   8   4   4
#     4  10  23  40  63  95 133 171 221 274 343 398
#     4  12  24  42  60  98 136 168 208 284 352 418
#     4  10  22  36  60  92 128 167 214 268 337 395
#     4  10  19  39  63  94 122 168 225 271 322 399
#     4  10  19  37  65  91 122 169 225 271 313 389
#     4  10  20  34  68  94 134 158 225 276 346 386
#     4  10  20  36  60  98 126 172 207 278 326 412
#
# _framework density 22.614082
#
# number of rings (size 3 to 8) (size 9 to 14) (size 15 to 20)
#    0.000    1.818    3.636    0.545    1.273    1.455 
#    1.636    0.909    0.000    0.000    0.000    0.000 
#    0.000    0.000    0.000    0.000    0.000    0.000 
#
# Total GULP energy -122942.101752 kJ/mol
# GULP energy per Si atom -5588.277352 kJ/mol
# Density = 2.256261 g / cm^3
# Si number density = 22.614082 Si / 1000 Ang^3
#
#
#
# Elastic Constant Matrix: (Units=GPa)
#
#
# Indices 1 2 3 4 5 6 
#
# 1 177.6630 -0.4541 28.2320 0.0000 0.0000 0.0000
# 2 -0.4541 43.0135 19.1992 0.0000 0.0000 0.0000
# 3 28.2320 19.1992 81.3001 0.0000 0.0000 0.0000
# 4 0.0000 0.0000 0.0000 25.5267 0.0000 0.0000
# 5 0.0000 0.0000 0.0000 0.0000 32.3875 0.0000
# 6 0.0000 0.0000 0.0000 0.0000 0.0000 0.0973
#
#
#
# Elastic Compliance Matrix: (Units=1/GPa)
#
#
# Indices 1 2 3 4 5 6 
#
# 1 0.006005 0.001111 -0.002348 0.000000 0.000000 0.000000
# 2 0.001111 0.026193 -0.006572 0.000000 0.000000 0.000000
# 3 -0.002348 -0.006572 0.014667 0.000000 0.000000 0.000000
# 4 0.000000 0.000000 0.000000 0.039175 0.000000 0.000000
# 5 0.000000 0.000000 0.000000 0.000000 0.030876 0.000000
# 6 0.000000 0.000000 0.000000 0.000000 0.000000 10.274752
#
#
# Mechanical properties :
#
#
# Convention : Reuss Voigt Hill
#
# Bulk Modulus (GPa) = 32.00054 43.99232 37.99643
# Shear Modulus (GPa) = 0.47995 28.60228 14.54112
#
# Velocity S-wave (km/s) = 0.46119 3.56026 2.53852
# Velocity P-wave (km/s) = 3.80329 6.03294 5.04288
#
# Compressibility (1/GPa) = 0.03124947
#
# Stress axis : x y z
#
# Youngs Moduli (GPa) = 166.54137 38.17749 68.17940
#
# Poissons Ratio (x) = -0.04242 0.16005
# Poissons Ratio (y) = -0.18506 0.44804
# Poissons Ratio (z) = 0.39096 0.25088
#
# Static dielectric constant tensor:
#      x y z
#    x 1.820610 0.000000 0.000000 
#    y 0.000000 1.905160 0.000000 
#    z 0.000000 0.000000 1.807250 
# 
# From -- ./inp_files/10246.got.cif
#   From: 2010.05.17/outbox.cif.g08.bks.cpg/sg46_6_cif.got.tgz:10246.got - 2010.06.03 19:58:25.
