data_PCOD9379788
_publ_section_title
;
Structure prediction by ZEFSAII (Michael W. Deem and Ramdas Pophale) SiO2 
 PCOD9379788
Probable space group: I M A 2
;
_chemical_formula_sum "Si O2"
_cell_formula_units_Z 32
_cell_length_a 15.805807
_cell_length_b 5.002565
_cell_length_c 17.123491
_cell_angle_alpha 90.000000
_cell_angle_beta 90.000000
_cell_angle_gamma 90.000000
_cell_volume 1353.947188
_symmetry_space_group_name_H-M "I M A 2"
_symmetry_group_IT_number 46
_symmetry_cell_setting 'orthorhombic'
loop_
_space_group_symop_operation_xyz
x,y,z
-x,-y,z
1/2-x,y,z
1/2+x,-y,z
1/2+x,1/2+y,1/2+z
1/2-x,1/2-y,1/2+z
-x,1/2+y,1/2+z
x,1/2-y,1/2+z
loop_
_atom_site_type_symbol
_atom_site_label
_atom_site_fract_x
_atom_site_fract_y
_atom_site_fract_z
Si Si1 0.899504 0.444969 0.264710
Si Si2 0.601463 0.947398 0.183958
Si Si3 0.345739 0.867469 0.419134
Si Si4 0.405291 0.382903 0.507974
O O1 0.864764 0.740601 0.248694
O O2 0.883401 0.284946 0.344014
O O3 0.000000 0.500000 0.259286
O O4 0.865173 0.244233 0.198440
O O5 0.500000 0.000000 0.192428
O O6 0.613100 0.824480 0.098574
O O7 0.250000 0.951655 0.403092
O O8 0.347737 0.629940 0.482307
O O9 0.394234 0.124865 0.453144
O O10 0.500000 0.500000 0.502075
#
# Coordination Sequence:
#
# PCOD9379788 Si02
#       4
#     8   8   8   8
#     4  10  20  38  63  91 123 162 209 262 315 374
#     4   9  19  37  63  91 118 155 213 272 312 361
#     4  12  25  41  60  94 136 171 208 262 321 383
#     4  11  23  42  68  94 123 168 219 266 317 380
#
# _framework density 23.634602000000001
#
# number of rings (size 3 to 8) (size 9 to 14) (size 15 to 20)
#    0.000    1.500    0.000    5.250    0.000    8.000 
#    0.000    7.500    0.000    0.000    0.000    0.000 
#    0.000    0.000    0.000    0.000    0.000    0.000 
#
# Total GULP energy -89349.206882 kJ/mol
# GULP energy per Si atom -5584.325430 kJ/mol
# Density = 2.358081 g / cm^3
# Si number density = 23.634602 Si / 1000 Ang^3
#
#
#
# Elastic Constant Matrix: (Units=GPa)
#
#
# Indices 1 2 3 4 5 6 
#
# 1 53.4491 34.0711 21.2699 0.0000 0.0000 0.0000
# 2 34.0711 182.3935 81.8273 0.0000 0.0000 0.0000
# 3 21.2699 81.8273 120.5785 0.0000 0.0000 0.0000
# 4 0.0000 0.0000 0.0000 49.6203 0.0000 0.0000
# 5 0.0000 0.0000 0.0000 0.0000 15.5232 0.0000
# 6 0.0000 0.0000 0.0000 0.0000 0.0000 9.7323
#
#
#
# Elastic Compliance Matrix: (Units=1/GPa)
#
#
# Indices 1 2 3 4 5 6 
#
# 1 0.021433 -0.003318 -0.001529 0.000000 0.000000 0.000000
# 2 -0.003318 0.008396 -0.005113 0.000000 0.000000 0.000000
# 3 -0.001529 -0.005113 0.012033 0.000000 0.000000 0.000000
# 4 0.000000 0.000000 0.000000 0.020153 0.000000 0.000000
# 5 0.000000 0.000000 0.000000 0.000000 0.064420 0.000000
# 6 0.000000 0.000000 0.000000 0.000000 0.000000 0.102750
#
#
# Mechanical properties :
#
#
# Convention : Reuss Voigt Hill
#
# Bulk Modulus (GPa) = 45.57352 70.08418 57.82885
# Shear Modulus (GPa) = 19.49946 29.59201 24.54573
#
# Velocity S-wave (km/s) = 2.87546 3.54229 3.22615
# Velocity P-wave (km/s) = 5.50897 6.81528 6.19664
#
# Compressibility (1/GPa) = 0.02194257
#
# Stress axis : x y z
#
# Youngs Moduli (GPa) = 46.65755 119.10449 83.10766
#
# Poissons Ratio (x) = 0.39513 0.12710
# Poissons Ratio (y) = 0.15479 0.42489
# Poissons Ratio (z) = 0.07136 0.60892
#
# Static dielectric constant tensor:
#      x y z
#    x 1.797150 0.000000 0.000000 
#    y 0.000000 1.874350 0.000000 
#    z 0.000000 0.000000 1.945110 
# 
# From -- ./inp_files/19145.got.cif
#   From: 2010.05.17/outbox.cif.g08.bks.cpg/sg46_10_cif.got.tgz:19145.got - 2010.06.03 19:58:25.
