data_PCOD9379532
_publ_section_title
;
Structure prediction by ZEFSAII (Michael W. Deem and Ramdas Pophale) SiO2 
 PCOD9379532
Probable space group: I M A 2
;
_chemical_formula_sum "Si O2"
_cell_formula_units_Z 48
_cell_length_a 12.110748
_cell_length_b 21.501232
_cell_length_c 10.197827
_cell_angle_alpha 90.000000
_cell_angle_beta 90.000000
_cell_angle_gamma 90.000000
_cell_volume 2655.473384
_symmetry_space_group_name_H-M "I M A 2"
_symmetry_group_IT_number 46
_symmetry_cell_setting 'orthorhombic'
loop_
_space_group_symop_operation_xyz
x,y,z
-x,-y,z
1/2-x,y,z
1/2+x,-y,z
1/2+x,1/2+y,1/2+z
1/2-x,1/2-y,1/2+z
-x,1/2+y,1/2+z
x,1/2-y,1/2+z
loop_
_atom_site_type_symbol
_atom_site_label
_atom_site_fract_x
_atom_site_fract_y
_atom_site_fract_z
Si Si1 0.126796 0.640958 0.765170
Si Si2 0.039240 0.239465 0.142358
Si Si3 0.124902 0.322957 0.376199
Si Si4 0.624198 0.349367 0.064989
Si Si5 0.127030 0.972328 0.067188
Si Si6 0.546653 0.068600 0.800584
O O1 0.250000 0.669595 0.753612
O O2 0.126491 0.579086 0.679789
O O3 0.035139 0.687197 0.711124
O O4 0.108373 0.626648 0.917599
O O5 0.108405 0.273380 0.257444
O O6 0.958272 0.292638 0.087755
O O7 0.098986 0.209159 0.016483
O O8 0.250000 0.345110 0.375975
O O9 0.045310 0.381559 0.348575
O O10 0.750000 0.327446 0.078215
O O11 0.601405 0.401363 0.173485
O O12 0.250000 0.005544 0.078816
O O13 0.126187 0.940696 0.924320
O O14 0.000000 0.000000 0.073253
O O15 0.500000 0.000000 0.770319
#
# Coordination Sequence:
#
# PCOD9379532 Si02
#       6
#     8   8   8   8   8   8
#     4  10  20  36  57  84 116 152 196 248 302 359
#     4  11  20  39  56  85 120 149 196 240 305 364
#     4  11  23  38  61  86 120 161 199 247 300 363
#     4  10  21  36  59  85 115 152 190 244 302 357
#     4  10  21  38  60  87 119 156 204 254 305 361
#     4  10  22  39  60  87 118 158 202 249 294 360
#
# _framework density 18.075873999999999
#
# number of rings (size 3 to 8) (size 9 to 14) (size 15 to 20)
#    0.000    1.667    3.333    1.500    0.000    4.000 
#    0.000    0.000    0.000    0.000    0.000    0.000 
#    0.000    0.000    0.000    0.000    0.000    0.000 
#
# Total GULP energy -133709.308578 kJ/mol
# GULP energy per Si atom -5571.221191 kJ/mol
# Density = 1.803473 g / cm^3
# Si number density = 18.075874 Si / 1000 Ang^3
#
#
#
# Elastic Constant Matrix: (Units=GPa)
#
#
# Indices 1 2 3 4 5 6 
#
# 1 98.1091 20.3421 21.6736 0.0000 0.0000 0.0000
# 2 20.3421 48.2983 19.3715 -0.0002 0.0000 0.0000
# 3 21.6736 19.3715 101.5309 -0.0005 0.0000 0.0000
# 4 0.0000 -0.0002 -0.0005 16.4216 0.0000 0.0000
# 5 0.0000 0.0000 0.0000 0.0000 20.3765 0.0000
# 6 0.0000 0.0000 0.0000 0.0000 0.0000 15.2076
#
#
#
# Elastic Compliance Matrix: (Units=1/GPa)
#
#
# Indices 1 2 3 4 5 6 
#
# 1 0.011416 -0.004148 -0.001646 0.000000 0.000000 0.000000
# 2 -0.004148 0.023928 -0.003680 0.000000 0.000000 0.000000
# 3 -0.001646 -0.003680 0.010903 0.000000 0.000000 0.000000
# 4 0.000000 0.000000 0.000000 0.060895 0.000000 0.000000
# 5 0.000000 0.000000 0.000000 0.000000 0.049076 0.000000
# 6 0.000000 0.000000 0.000000 0.000000 0.000000 0.065757
#
#
# Mechanical properties :
#
#
# Convention : Reuss Voigt Hill
#
# Bulk Modulus (GPa) = 36.63080 41.19032 38.91056
# Shear Modulus (GPa) = 19.99825 22.83788 21.41806
#
# Velocity S-wave (km/s) = 3.32979 3.55835 3.44597
# Velocity P-wave (km/s) = 5.92388 6.30234 6.11604
#
# Compressibility (1/GPa) = 0.02729943
#
# Stress axis : x y z
#
# Youngs Moduli (GPa) = 87.59350 41.79254 91.72156
#
# Poissons Ratio (x) = 0.17337 0.15093
# Poissons Ratio (y) = 0.36336 0.33751
# Poissons Ratio (z) = 0.14414 0.15379
#
# Static dielectric constant tensor:
#      x y z
#    x 1.654490 0.000000 0.000000 
#    y 0.000000 1.597110 0.000000 
#    z 0.000000 0.000000 1.604860 
# 
# From -- ./inp_files/4704.got.cif
#   From: 2010.05.17/outbox.cif.g08.bks.cpg/sg46_3_cif.got.tgz:4704.got - 2010.06.03 19:58:25.
