data_PCOD9379702
_publ_section_title
;
Structure prediction by ZEFSAII (Michael W. Deem and Ramdas Pophale) SiO2 
 PCOD9379702
Probable space group: I M A 2
;
_chemical_formula_sum "Si O2"
_cell_formula_units_Z 60
_cell_length_a 19.132486
_cell_length_b 25.526280
_cell_length_c 5.377659
_cell_angle_alpha 90.000000
_cell_angle_beta 90.000000
_cell_angle_gamma 90.000000
_cell_volume 2626.347527
_symmetry_space_group_name_H-M "I M A 2"
_symmetry_group_IT_number 46
_symmetry_cell_setting 'orthorhombic'
loop_
_space_group_symop_operation_xyz
x,y,z
-x,-y,z
1/2-x,y,z
1/2+x,-y,z
1/2+x,1/2+y,1/2+z
1/2-x,1/2-y,1/2+z
-x,1/2+y,1/2+z
x,1/2-y,1/2+z
loop_
_atom_site_type_symbol
_atom_site_label
_atom_site_fract_x
_atom_site_fract_y
_atom_site_fract_z
Si Si1 0.374886 0.158360 0.030470
Si Si2 0.482594 0.783499 0.879491
Si Si3 0.440339 0.067032 0.341014
Si Si4 0.906695 0.053500 0.345175
Si Si5 0.328115 0.543422 0.364253
Si Si6 0.671652 0.285033 0.449068
Si Si7 0.676558 0.926458 0.725603
Si Si8 0.750000 0.717724 0.771545
O O1 0.405152 0.106399 0.155216
O O2 0.443004 0.187707 0.924365
O O3 0.323581 0.131736 0.832805
O O4 0.323671 0.188226 0.219592
O O5 0.482720 0.760164 0.600296
O O6 0.405909 0.811490 0.917652
O O7 0.520415 0.082977 0.365087
O O8 0.396864 0.071808 0.590443
O O9 0.429329 0.006207 0.280156
O O10 0.870060 0.053937 0.611521
O O11 0.859590 0.068477 0.112145
O O12 0.250000 0.562153 0.326190
O O13 0.324010 0.479598 0.389915
O O14 0.750000 0.310694 0.430639
O O15 0.670799 0.256651 0.719069
O O16 0.750000 0.932598 0.574770
O O17 0.750000 0.739932 0.048119
#
# Coordination Sequence:
#
# PCOD9379702 Si02
#       8
#     8   8   8   8   8   8   8   4
#     4  12  24  39  63  86 120 172 216 270 328 393
#     4  10  22  38  56  84 117 150 196 251 312 380
#     4  10  24  36  62  89 126 164 208 270 330 388
#     4  10  21  39  60  93 131 160 208 267 331 383
#     4  10  20  37  62  91 127 166 212 261 319 379
#     4   8  14  28  52  78 102 130 168 224 286 349
#     4  10  22  38  59  90 120 161 221 279 316 375
#     4  12  30  48  64  90 130 178 226 286 352 396
#
# _framework density 22.845414000000002
#
# number of rings (size 3 to 8) (size 9 to 14) (size 15 to 20)
#    0.000    1.867    2.000    1.200    6.533    1.600 
#    0.000    0.000    0.000    1.600    0.000    0.000 
#    0.000    0.000    0.000    0.000    0.000    0.000 
#
# Total GULP energy -167102.559811 kJ/mol
# GULP energy per Si atom -5570.085327 kJ/mol
# Density = 2.279342 g / cm^3
# Si number density = 22.845414 Si / 1000 Ang^3
#
#
#
# Elastic Constant Matrix: (Units=GPa)
#
#
# Indices 1 2 3 4 5 6 
#
# 1 177.9215 11.8999 8.3059 0.0000 0.0000 0.0000
# 2 11.8999 26.8154 2.0482 0.0000 0.0000 0.0000
# 3 8.3059 2.0482 62.2790 0.0000 0.0000 0.0000
# 4 0.0000 0.0000 0.0000 -3.8429 0.0000 0.0000
# 5 0.0000 0.0000 0.0000 0.0000 41.1373 0.0000
# 6 0.0000 0.0000 0.0000 0.0000 0.0000 7.7548
#
#
#
# Elastic Compliance Matrix: (Units=1/GPa)
#
#
# Indices 1 2 3 4 5 6 
#
# 1 0.005822 -0.002531 -0.000693 0.000000 0.000000 0.000000
# 2 -0.002531 0.038486 -0.000928 0.000000 0.000000 0.000000
# 3 -0.000693 -0.000928 0.016180 0.000000 0.000000 0.000000
# 4 0.000000 0.000000 0.000000 -0.260218 0.000000 0.000000
# 5 0.000000 0.000000 0.000000 0.000000 0.024309 0.000000
# 6 0.000000 0.000000 0.000000 0.000000 0.000000 0.128952
#
#
# Mechanical properties :
#
#
# Convention : Reuss Voigt Hill
#
# Bulk Modulus (GPa) = 19.16313 34.61375 26.88844
# Shear Modulus (GPa) = -240.72727 25.32730 -107.69999
#
# Velocity S-wave (km/s) = -10.27624 3.33323 -6.87352
# Velocity P-wave (km/s) = 11.50630 5.47705 7.15531
#
# Compressibility (1/GPa) = 0.05218355
#
# Stress axis : x y z
#
# Youngs Moduli (GPa) = 171.75993 25.98346 61.80559
#
# Poissons Ratio (x) = 0.06576 0.04285
# Poissons Ratio (y) = 0.43468 0.05737
# Poissons Ratio (z) = 0.11907 0.02412
#
# Static dielectric constant tensor:
#      x y z
#    x 1.889620 0.000000 0.000000 
#    y 0.000000 1.939910 0.000000 
#    z 0.000000 0.000000 1.959410 
# 
# From -- ./inp_files/1813.got.cif
#   From: 2010.05.17/outbox.cif.g08.bks.cpg/sg46_1_cif.got.tgz:1813.got - 2010.06.03 19:58:25.
