data_PCOD9379650
_publ_section_title
;
Structure prediction by ZEFSAII (Michael W. Deem and Ramdas Pophale) SiO2 
 PCOD9379650
Probable space group: I M A 2
;
_chemical_formula_sum "Si O2"
_cell_formula_units_Z 64
_cell_length_a 16.645777
_cell_length_b 8.578461
_cell_length_c 24.365703
_cell_angle_alpha 90.000000
_cell_angle_beta 90.000000
_cell_angle_gamma 90.000000
_cell_volume 3479.304186
_symmetry_space_group_name_H-M "I M A 2"
_symmetry_group_IT_number 46
_symmetry_cell_setting 'orthorhombic'
loop_
_space_group_symop_operation_xyz
x,y,z
-x,-y,z
1/2-x,y,z
1/2+x,-y,z
1/2+x,1/2+y,1/2+z
1/2-x,1/2-y,1/2+z
-x,1/2+y,1/2+z
x,1/2-y,1/2+z
loop_
_atom_site_type_symbol
_atom_site_label
_atom_site_fract_x
_atom_site_fract_y
_atom_site_fract_z
Si Si1 0.423191 0.608039 0.912210
Si Si2 0.576810 0.108039 0.208801
Si Si3 0.346904 0.344325 0.310506
Si Si4 0.343456 0.295723 0.927198
Si Si5 0.515141 0.683448 0.499351
Si Si6 0.515141 0.683448 0.121661
Si Si7 0.843456 0.704277 0.693814
Si Si8 0.152534 0.790016 0.810506
O O1 0.500000 0.500000 0.896144
O O2 0.358116 0.480494 0.930913
O O3 0.453828 0.721168 0.960354
O O4 0.386237 0.707259 0.863104
O O5 0.546173 0.221168 0.160658
O O6 0.613762 0.207259 0.257908
O O7 0.500000 0.000000 0.224867
O O8 0.641884 0.980494 0.190099
O O9 0.250000 0.333751 0.310506
O O10 0.372861 0.261579 0.366797
O O11 0.372861 0.261579 0.254214
O O12 0.368053 0.526401 0.310506
O O13 0.250000 0.257112 0.932424
O O14 0.397915 0.215950 0.972874
O O15 0.500000 0.500000 0.498844
O O16 0.510499 0.750000 0.560506
O O17 0.500000 0.500000 0.122167
O O18 0.602084 0.715951 0.148138
O O19 0.750000 0.742889 0.688588
O O20 0.250000 0.774010 0.810506
#
# Coordination Sequence:
#
# PCOD9379650 Si02
#       8
#     8   8   8   8   8   8   8   8
#     4  10  21  36  56  83 114 149 189 230 283 341
#     4  10  21  36  56  83 114 149 189 230 283 341
#     4   9  19  33  52  82 115 146 178 223 282 334
#     4  10  20  37  60  85 116 151 190 235 283 334
#     4  11  23  41  61  82 112 150 192 236 283 338
#     4  11  23  41  61  82 112 150 192 236 283 338
#     4  10  20  37  60  85 116 151 190 235 283 334
#     4  11  20  33  55  84 117 148 187 235 281 334
#
# _framework density 18.394482
#
# number of rings (size 3 to 8) (size 9 to 14) (size 15 to 20)
#    0.000    1.750    0.000    5.625    0.000    4.500 
#    0.000    7.500    0.000    5.250    0.000    0.000 
#    0.000    0.000    0.000    0.000    0.000    0.000 
#
# Total GULP energy -178709.752233 kJ/mol
# GULP energy per Si atom -5584.679757 kJ/mol
# Density = 1.835262 g / cm^3
# Si number density = 18.394482 Si / 1000 Ang^3
#
#
#
# Elastic Constant Matrix: (Units=GPa)
#
#
# Indices 1 2 3 4 5 6 
#
# 1 67.8508 54.2894 83.6868 0.0000 0.0000 0.0000
# 2 54.2894 170.3718 95.8863 0.0000 0.0000 0.0000
# 3 83.6868 95.8863 166.5483 0.0000 0.0000 0.0000
# 4 0.0000 0.0000 0.0000 38.7701 0.0000 0.0000
# 5 0.0000 0.0000 0.0000 0.0000 10.0413 0.0000
# 6 0.0000 0.0000 0.0000 0.0000 0.0000 17.7579
#
#
#
# Elastic Compliance Matrix: (Units=1/GPa)
#
#
# Indices 1 2 3 4 5 6 
#
# 1 0.039253 -0.002082 -0.018525 0.000000 0.000000 0.000000
# 2 -0.002082 0.008793 -0.004016 0.000000 0.000000 0.000000
# 3 -0.018525 -0.004016 0.017625 0.000000 0.000000 0.000000
# 4 0.000000 0.000000 0.000000 0.025793 0.000000 0.000000
# 5 0.000000 0.000000 0.000000 0.000000 0.099589 0.000000
# 6 0.000000 0.000000 0.000000 0.000000 0.000000 0.056313
#
#
# Mechanical properties :
#
#
# Convention : Reuss Voigt Hill
#
# Bulk Modulus (GPa) = 60.88534 96.94400 78.91467
# Shear Modulus (GPa) = 16.55151 24.70775 20.62963
#
# Velocity S-wave (km/s) = 3.00293 3.66897 3.35253
# Velocity P-wave (km/s) = 6.72273 8.41223 7.61448
#
# Compressibility (1/GPa) = 0.01642431
#
# Stress axis : x y z
#
# Youngs Moduli (GPa) = 25.47601 113.72110 56.73766
#
# Poissons Ratio (x) = 0.23677 1.05106
# Poissons Ratio (y) = 0.05304 0.22788
# Poissons Ratio (z) = 0.47194 0.45675
#
# Static dielectric constant tensor:
#      x y z
#    x 1.643620 0.000000 0.000000 
#    y 0.000000 1.622840 0.000000 
#    z 0.000000 0.000000 1.611900 
# 
# From -- ./inp_files/23776.got.cif
#   From: 2010.05.17/outbox.cif.g08.bks.cpg/sg46_12_cif.got.tgz:23776.got - 2010.06.03 19:58:25.
