data_PCOD9379259
_publ_section_title
;
Structure prediction by ZEFSAII (Michael W. Deem and Ramdas Pophale) SiO2 
 PCOD9379259
Probable space group: I M A 2
;
_chemical_formula_sum "Si O2"
_cell_formula_units_Z 64
_cell_length_a 15.977351
_cell_length_b 8.215286
_cell_length_c 24.965769
_cell_angle_alpha 90.000000
_cell_angle_beta 90.000000
_cell_angle_gamma 90.000000
_cell_volume 3276.969590
_symmetry_space_group_name_H-M "I M A 2"
_symmetry_group_IT_number 46
_symmetry_cell_setting 'orthorhombic'
loop_
_space_group_symop_operation_xyz
x,y,z
-x,-y,z
1/2-x,y,z
1/2+x,-y,z
1/2+x,1/2+y,1/2+z
1/2-x,1/2-y,1/2+z
-x,1/2+y,1/2+z
x,1/2-y,1/2+z
loop_
_atom_site_type_symbol
_atom_site_label
_atom_site_fract_x
_atom_site_fract_y
_atom_site_fract_z
Si Si1 0.485269 0.808376 0.771410
Si Si2 0.652296 0.716671 0.582541
Si Si3 0.844320 0.206265 0.462662
Si Si4 0.081714 0.118848 0.475960
Si Si5 0.070143 0.355242 0.374903
Si Si6 0.655897 0.161629 0.852525
Si Si7 0.652412 0.176587 0.077176
Si Si8 0.002110 0.692987 0.652108
O O1 0.548221 0.761227 0.819847
O O2 0.395885 0.794257 0.800102
O O3 0.491990 0.721933 0.715164
O O4 0.500000 0.000000 0.761127
O O5 0.750000 0.770525 0.588376
O O6 0.609248 0.784920 0.528765
O O7 0.654739 0.519490 0.580263
O O8 0.585223 0.762499 0.628745
O O9 0.750000 0.272752 0.461778
O O10 0.882196 0.256514 0.406020
O O11 0.880487 0.275885 0.517862
O O12 0.846532 0.013309 0.465274
O O13 0.073750 0.242631 0.426504
O O14 0.000000 0.000000 0.481202
O O15 0.150425 0.468389 0.364064
O O16 0.000000 0.500000 0.379640
O O17 0.750000 0.217684 0.846391
O O18 0.750000 0.233375 0.083389
O O19 0.585802 0.247209 0.119837
O O20 0.000000 0.500000 0.642440
#
# Coordination Sequence:
#
# PCOD9379259 Si02
#       8
#     8   8   8   8   8   8   8   8
#     4   9  20  37  53  75 105 137 182 230 273 325
#     4  10  22  39  57  79 111 152 192 229 277 345
#     4  10  20  33  51  82 116 140 171 221 278 329
#     4  12  22  32  54  84 114 143 181 233 288 334
#     4   9  20  37  55  76 107 146 187 221 264 334
#     4   9  18  35  58  79 106 145 184 222 270 337
#     4   9  19  37  59  83 113 150 190 228 275 345
#     4  10  21  36  57  80 106 145 191 236 283 333
#
# _framework density 19.530239000000002
#
# number of rings (size 3 to 8) (size 9 to 14) (size 15 to 20)
#    0.000    2.500    0.000    3.375    0.000    7.000 
#    0.000    3.125    0.000    0.000    0.000    0.000 
#    0.000    0.000    0.000    0.000    0.000    0.000 
#
# Total GULP energy -178211.591462 kJ/mol
# GULP energy per Si atom -5569.112233 kJ/mol
# Density = 1.948579 g / cm^3
# Si number density = 19.530239 Si / 1000 Ang^3
#
#
#
# Elastic Constant Matrix: (Units=GPa)
#
#
# Indices 1 2 3 4 5 6 
#
# 1 88.3193 13.4459 68.3597 0.0000 0.0000 0.0000
# 2 13.4459 15.5005 19.9418 0.0000 0.0000 0.0000
# 3 68.3597 19.9418 155.9670 0.0000 0.0000 0.0000
# 4 0.0000 0.0000 0.0000 37.1829 0.0000 0.0000
# 5 0.0000 0.0000 0.0000 0.0000 3.0612 0.0000
# 6 0.0000 0.0000 0.0000 0.0000 0.0000 19.8905
#
#
#
# Elastic Compliance Matrix: (Units=1/GPa)
#
#
# Indices 1 2 3 4 5 6 
#
# 1 0.017653 -0.006414 -0.006917 0.000000 0.000000 0.000000
# 2 -0.006414 0.079546 -0.007359 0.000000 0.000000 0.000000
# 3 -0.006917 -0.007359 0.010384 0.000000 0.000000 0.000000
# 4 0.000000 0.000000 0.000000 0.026894 0.000000 0.000000
# 5 0.000000 0.000000 0.000000 0.000000 0.326668 0.000000
# 6 0.000000 0.000000 0.000000 0.000000 0.000000 0.050275
#
#
# Mechanical properties :
#
#
# Convention : Reuss Voigt Hill
#
# Bulk Modulus (GPa) = 15.10522 51.47573 33.29048
# Shear Modulus (GPa) = 8.69762 22.56288 15.63025
#
# Velocity S-wave (km/s) = 2.11260 3.40263 2.83204
# Velocity P-wave (km/s) = 3.70160 6.46926 5.27035
#
# Compressibility (1/GPa) = 0.06620227
#
# Stress axis : x y z
#
# Youngs Moduli (GPa) = 56.64775 12.57131 96.29886
#
# Poissons Ratio (x) = 0.08063 0.66611
# Poissons Ratio (y) = 0.36334 0.70871
# Poissons Ratio (z) = 0.39184 0.09252
#
# Static dielectric constant tensor:
#      x y z
#    x 1.788130 0.000000 0.000000 
#    y 0.000000 1.686170 0.000000 
#    z 0.000000 0.000000 1.679040 
# 
# From -- ./inp_files/22244.got.cif
#   From: 2010.05.17/outbox.cif.g08.bks.cpg/sg46_12_cif.got.tgz:22244.got - 2010.06.03 19:58:25.
