data_PCOD9379184
_publ_section_title
;
Structure prediction by ZEFSAII (Michael W. Deem and Ramdas Pophale) SiO2 
 PCOD9379184
Probable space group: I M A 2
;
_chemical_formula_sum "Si O2"
_cell_formula_units_Z 64
_cell_length_a 8.370162
_cell_length_b 28.989954
_cell_length_c 14.896532
_cell_angle_alpha 90.000000
_cell_angle_beta 90.000000
_cell_angle_gamma 90.000000
_cell_volume 3614.652597
_symmetry_space_group_name_H-M "I M A 2"
_symmetry_group_IT_number 46
_symmetry_cell_setting 'orthorhombic'
loop_
_space_group_symop_operation_xyz
x,y,z
-x,-y,z
1/2-x,y,z
1/2+x,-y,z
1/2+x,1/2+y,1/2+z
1/2-x,1/2-y,1/2+z
-x,1/2+y,1/2+z
x,1/2-y,1/2+z
loop_
_atom_site_type_symbol
_atom_site_label
_atom_site_fract_x
_atom_site_fract_y
_atom_site_fract_z
Si Si1 0.441300 0.640502 0.434030
Si Si2 0.560419 0.764153 0.896511
Si Si3 0.442482 0.829443 0.132867
Si Si4 0.556441 0.362001 0.015324
Si Si5 0.938986 0.667349 0.820596
Si Si6 0.065158 0.732732 0.083233
Si Si7 0.558196 0.050625 0.629111
Si Si8 0.059925 0.448783 0.332195
O O1 0.250000 0.644722 0.430087
O O2 0.516839 0.682969 0.377282
O O3 0.492993 0.647303 0.538673
O O4 0.492086 0.591637 0.394383
O O5 0.750000 0.761528 0.919180
O O6 0.526822 0.722470 0.828743
O O7 0.450048 0.750825 0.981075
O O8 0.250000 0.827172 0.129754
O O9 0.491584 0.851196 0.227248
O O10 0.508184 0.776624 0.133265
O O11 0.750000 0.359773 0.016254
O O12 0.503120 0.354886 0.912755
O O13 0.495848 0.318580 0.075596
O O14 0.505753 0.409555 0.060793
O O15 0.750000 0.661467 0.819435
O O16 0.250000 0.728456 0.111232
O O17 0.750000 0.050660 0.633213
O O18 0.494742 0.059468 0.729486
O O19 0.500000 0.000000 0.601525
O O20 0.250000 0.448309 0.335845
O O21 0.000000 0.500000 0.357365
#
# Coordination Sequence:
#
# PCOD9379184 Si02
#       8
#     8   8   8   8   8   8   8   8
#     4  10  20  35  54  76 101 134 174 214 254 301
#     4   9  17  29  44  68  99 131 166 205 248 293
#     4   9  18  31  49  72 101 137 174 209 249 296
#     4   9  18  33  53  74  99 133 174 212 251 300
#     4  10  20  31  47  73 106 140 174 211 253 299
#     4   8  15  29  46  66  92 127 168 207 244 287
#     4  10  20  35  55  79 104 132 166 208 256 308
#     4  11  22  37  57  80 105 132 162 204 255 308
#
# _framework density 17.705711999999998
#
# number of rings (size 3 to 8) (size 9 to 14) (size 15 to 20)
#    0.000    2.500    0.000    4.125    0.000    6.000 
#    0.000    1.250    0.000    0.750    0.000    3.500 
#    0.000    0.000    0.000    0.000    0.000    0.000 
#
# Total GULP energy -178219.208323 kJ/mol
# GULP energy per Si atom -5569.350260 kJ/mol
# Density = 1.766541 g / cm^3
# Si number density = 17.705712 Si / 1000 Ang^3
#
#
#
# Elastic Constant Matrix: (Units=GPa)
#
#
# Indices 1 2 3 4 5 6 
#
# 1 41.2492 24.4142 18.1224 0.0000 0.0000 0.0000
# 2 24.4142 137.6318 71.9695 0.0000 0.0000 0.0000
# 3 18.1224 71.9695 90.5097 0.0001 -0.0001 0.0000
# 4 0.0000 0.0000 0.0001 23.3329 0.0000 0.0000
# 5 0.0000 0.0000 -0.0001 0.0000 14.4862 0.0000
# 6 0.0000 0.0000 0.0000 0.0000 0.0000 25.9659
#
#
#
# Elastic Compliance Matrix: (Units=1/GPa)
#
#
# Indices 1 2 3 4 5 6 
#
# 1 0.027491 -0.003420 -0.002785 0.000000 0.000000 0.000000
# 2 -0.003420 0.012863 -0.009543 0.000000 0.000000 0.000000
# 3 -0.002785 -0.009543 0.019194 0.000000 0.000000 0.000000
# 4 0.000000 0.000000 0.000000 0.042858 0.000000 0.000000
# 5 0.000000 0.000000 0.000000 0.000000 0.069031 0.000000
# 6 0.000000 0.000000 0.000000 0.000000 0.000000 0.038512
#
#
# Mechanical properties :
#
#
# Convention : Reuss Voigt Hill
#
# Bulk Modulus (GPa) = 35.64852 55.37809 45.51331
# Shear Modulus (GPa) = 19.93658 23.08264 21.50961
#
# Velocity S-wave (km/s) = 3.35923 3.61457 3.48924
# Velocity P-wave (km/s) = 5.93494 6.98320 6.48030
#
# Compressibility (1/GPa) = 0.02805165
#
# Stress axis : x y z
#
# Youngs Moduli (GPa) = 36.37590 77.74450 52.09895
#
# Poissons Ratio (x) = 0.26592 0.14507
# Poissons Ratio (y) = 0.12442 0.49718
# Poissons Ratio (z) = 0.10129 0.74191
#
# Static dielectric constant tensor:
#      x y z
#    x 1.618820 0.000000 0.000000 
#    y 0.000000 1.626270 0.000000 
#    z 0.000000 0.000000 1.603950 
# 
# From -- ./inp_files/14777.got.cif
#   From: 2010.05.17/outbox.cif.g08.bks.cpg/sg46_8_cif.got.tgz:14777.got - 2010.06.03 19:58:25.
