data_PCOD9379265
_publ_section_title
;
Structure prediction by ZEFSAII (Michael W. Deem and Ramdas Pophale) SiO2 
 PCOD9379265
Probable space group: I M A 2
;
_chemical_formula_sum "Si O2"
_cell_formula_units_Z 56
_cell_length_a 7.764217
_cell_length_b 14.564080
_cell_length_c 23.823483
_cell_angle_alpha 90.000000
_cell_angle_beta 90.000000
_cell_angle_gamma 90.000000
_cell_volume 2693.927952
_symmetry_space_group_name_H-M "I M A 2"
_symmetry_group_IT_number 46
_symmetry_cell_setting 'orthorhombic'
loop_
_space_group_symop_operation_xyz
x,y,z
-x,-y,z
1/2-x,y,z
1/2+x,-y,z
1/2+x,1/2+y,1/2+z
1/2-x,1/2-y,1/2+z
-x,1/2+y,1/2+z
x,1/2-y,1/2+z
loop_
_atom_site_type_symbol
_atom_site_label
_atom_site_fract_x
_atom_site_fract_y
_atom_site_fract_z
Si Si1 0.042310 0.200661 0.873320
Si Si2 0.455649 0.196792 0.102000
Si Si3 0.955374 0.335926 0.252711
Si Si4 0.042437 0.097202 0.338020
Si Si5 0.957687 0.607174 0.487359
Si Si6 0.946036 0.863629 0.219119
Si Si7 0.453818 0.598624 0.135394
O O1 0.250000 0.202452 0.875177
O O2 0.982983 0.306833 0.865385
O O3 0.977859 0.155069 0.930427
O O4 0.992477 0.143770 0.817476
O O5 0.250000 0.182222 0.103738
O O6 0.526356 0.143120 0.157165
O O7 0.481321 0.306296 0.108537
O O8 0.522909 0.156829 0.043734
O O9 0.750000 0.319831 0.247888
O O10 0.009585 0.400106 0.201136
O O11 0.055354 0.242355 0.238767
O O12 0.250000 0.103627 0.334144
O O13 0.968550 0.093281 0.274208
O O14 0.000000 0.000000 0.366281
O O15 0.750000 0.616399 0.487301
O O16 0.000000 0.500000 0.488157
O O17 0.750000 0.898804 0.213798
O O18 0.500000 0.500000 0.109958
O O19 0.250000 0.605552 0.134037
#
# Coordination Sequence:
#
# PCOD9379265 Si02
#       7
#     8   8   8   8   8   8   8
#     4   9  19  36  53  71 103 143 176 211 260 313
#     4   9  18  35  56  76 103 138 174 215 263 312
#     4   9  17  29  48  75 102 130 169 214 255 296
#     4   9  17  29  47  72 101 132 165 201 248 306
#     4  10  22  39  58  78 101 134 176 221 266 313
#     4   8  15  29  48  70  99 134 165 198 250 309
#     4  10  20  33  52  80 111 141 174 214 261 315
#
# _framework density 20.787490999999999
#
# number of rings (size 3 to 8) (size 9 to 14) (size 15 to 20)
#    0.000    2.857    0.000    1.714    0.000    6.286 
#    0.000    3.571    0.000    1.714    0.000    0.000 
#    0.000    0.000    0.000    0.000    0.000    0.000 
#
# Total GULP energy -155935.563969 kJ/mol
# GULP energy per Si atom -5569.127285 kJ/mol
# Density = 2.074018 g / cm^3
# Si number density = 20.787491 Si / 1000 Ang^3
#
#
#
# Elastic Constant Matrix: (Units=GPa)
#
#
# Indices 1 2 3 4 5 6 
#
# 1 35.5161 -2.8570 10.1217 0.0000 0.0000 0.0000
# 2 -2.8570 123.4994 65.5931 0.0000 0.0000 0.0000
# 3 10.1217 65.5931 160.4786 0.0000 0.0000 0.0000
# 4 0.0000 0.0000 0.0000 16.4616 0.0000 0.0000
# 5 0.0000 0.0000 0.0000 0.0000 9.8650 0.0000
# 6 0.0000 0.0000 0.0000 0.0000 0.0000 20.6388
#
#
#
# Elastic Compliance Matrix: (Units=1/GPa)
#
#
# Indices 1 2 3 4 5 6 
#
# 1 0.029094 0.002105 -0.002695 0.000000 0.000000 0.000000
# 2 0.002105 0.010495 -0.004422 0.000000 0.000000 0.000000
# 3 -0.002695 -0.004422 0.008209 0.000000 0.000000 0.000000
# 4 0.000000 0.000000 0.000000 0.060747 0.000000 0.000000
# 5 0.000000 0.000000 0.000000 0.000000 0.101369 0.000000
# 6 0.000000 0.000000 0.000000 0.000000 0.000000 0.048452
#
#
# Mechanical properties :
#
#
# Convention : Reuss Voigt Hill
#
# Bulk Modulus (GPa) = 26.47514 51.68995 39.08255
# Shear Modulus (GPa) = 17.79474 25.83550 21.81512
#
# Velocity S-wave (km/s) = 2.92898 3.52922 3.24301
# Velocity P-wave (km/s) = 4.91958 6.44415 5.73277
#
# Compressibility (1/GPa) = 0.03777128
#
# Stress axis : x y z
#
# Youngs Moduli (GPa) = 34.37182 95.28669 121.81932
#
# Poissons Ratio (x) = -0.20053 0.32832
# Poissons Ratio (y) = -0.07234 0.53872
# Poissons Ratio (z) = 0.09264 0.42138
#
# Static dielectric constant tensor:
#      x y z
#    x 1.780090 0.000000 0.000000 
#    y 0.000000 1.831510 0.000000 
#    z 0.000000 0.000000 1.787120 
# 
# From -- ./inp_files/21069.got.cif
#   From: 2010.05.17/outbox.cif.g08.bks.cpg/sg46_11_cif.got.tgz:21069.got - 2010.06.03 19:58:25.
