data_PCOD9379421
_publ_section_title
;
Structure prediction by ZEFSAII (Michael W. Deem and Ramdas Pophale) SiO2 
 PCOD9379421
Probable space group: I M A 2
;
_chemical_formula_sum "Si O2"
_cell_formula_units_Z 48
_cell_length_a 16.338705
_cell_length_b 8.692530
_cell_length_c 17.279985
_cell_angle_alpha 90.000000
_cell_angle_beta 90.000000
_cell_angle_gamma 90.000000
_cell_volume 2454.184398
_symmetry_space_group_name_H-M "I M A 2"
_symmetry_group_IT_number 46
_symmetry_cell_setting 'orthorhombic'
loop_
_space_group_symop_operation_xyz
x,y,z
-x,-y,z
1/2-x,y,z
1/2+x,-y,z
1/2+x,1/2+y,1/2+z
1/2-x,1/2-y,1/2+z
-x,1/2+y,1/2+z
x,1/2-y,1/2+z
loop_
_atom_site_type_symbol
_atom_site_label
_atom_site_fract_x
_atom_site_fract_y
_atom_site_fract_z
Si Si1 0.568299 0.110016 0.497310
Si Si2 0.343351 0.793810 0.125094
Si Si3 0.343676 0.375751 0.686997
Si Si4 0.844168 0.599568 0.869461
Si Si5 0.527019 0.825600 0.889542
Si Si6 0.000975 0.684364 0.217882
O O1 0.636475 0.193735 0.548769
O O2 0.515075 0.244981 0.460896
O O3 0.500000 0.000000 0.538156
O O4 0.605685 0.012649 0.426034
O O5 0.250000 0.762209 0.150016
O O6 0.416064 0.739635 0.179876
O O7 0.351161 0.980277 0.128206
O O8 0.250000 0.313317 0.679472
O O9 0.350629 0.432581 0.777095
O O10 0.418874 0.256550 0.679521
O O11 0.750000 0.588450 0.890353
O O12 0.878846 0.771684 0.885803
O O13 0.496440 0.761798 0.807043
O O14 0.500000 0.000000 0.891973
O O15 0.000000 0.500000 0.218129
#
# Coordination Sequence:
#
# PCOD9379421 Si02
#       6
#     8   8   8   8   8   8
#     4  10  20  35  55  78 109 147 182 220 269 320
#     4  11  22  35  52  78 109 145 186 225 265 317
#     4   9  19  35  58  84 109 141 182 223 271 326
#     4   9  17  34  58  82 108 140 177 221 270 325
#     4   9  19  35  56  81 107 138 178 221 271 324
#     4  10  20  36  57  81 109 141 178 226 275 322
#
# _framework density 19.558433000000001
#
# number of rings (size 3 to 8) (size 9 to 14) (size 15 to 20)
#    0.000    2.333    0.000    2.500    0.000    4.667 
#    0.000    5.000    0.000    5.000    0.000    0.000 
#    0.000    0.000    0.000    0.000    0.000    0.000 
#
# Total GULP energy -133609.377059 kJ/mol
# GULP energy per Si atom -5567.057377 kJ/mol
# Density = 1.951392 g / cm^3
# Si number density = 19.558433 Si / 1000 Ang^3
#
#
#
# Elastic Constant Matrix: (Units=GPa)
#
#
# Indices 1 2 3 4 5 6 
#
# 1 124.9807 43.6514 21.2430 0.0000 0.0000 0.0000
# 2 43.6514 76.4480 14.6437 0.0000 0.0000 0.0000
# 3 21.2430 14.6437 28.6922 0.0000 0.0000 0.0000
# 4 0.0000 0.0000 0.0000 12.6510 0.0000 0.0000
# 5 0.0000 0.0000 0.0000 0.0000 27.8366 0.0000
# 6 0.0000 0.0000 0.0000 0.0000 0.0000 30.6431
#
#
#
# Elastic Compliance Matrix: (Units=1/GPa)
#
#
# Indices 1 2 3 4 5 6 
#
# 1 0.010679 -0.005080 -0.005314 0.000000 0.000000 0.000000
# 2 -0.005080 0.016914 -0.004872 0.000000 0.000000 0.000000
# 3 -0.005314 -0.004872 0.041273 0.000000 0.000000 0.000000
# 4 0.000000 0.000000 0.000000 0.079045 0.000000 0.000000
# 5 0.000000 0.000000 0.000000 0.000000 0.035924 0.000000
# 6 0.000000 0.000000 0.000000 0.000000 0.000000 0.032634
#
#
# Mechanical properties :
#
#
# Convention : Reuss Voigt Hill
#
# Bulk Modulus (GPa) = 26.08512 43.24413 34.66463
# Shear Modulus (GPa) = 19.24725 24.26501 21.75613
#
# Velocity S-wave (km/s) = 3.14042 3.52610 3.33883
# Velocity P-wave (km/s) = 5.14934 6.22383 5.71190
#
# Compressibility (1/GPa) = 0.03833603
#
# Stress axis : x y z
#
# Youngs Moduli (GPa) = 93.64610 59.12129 24.22878
#
# Poissons Ratio (x) = 0.30031 0.12874
# Poissons Ratio (y) = 0.47568 0.11804
# Poissons Ratio (z) = 0.49760 0.28803
#
# Static dielectric constant tensor:
#      x y z
#    x 1.677260 0.000000 0.000000 
#    y 0.000000 1.723810 0.000000 
#    z 0.000000 0.000000 1.737170 
# 
# From -- ./inp_files/19394.got.cif
#   From: 2010.05.17/outbox.cif.g08.bks.cpg/sg46_10_cif.got.tgz:19394.got - 2010.06.03 19:58:25.
