data_PCOD9379633
_publ_section_title
;
Structure prediction by ZEFSAII (Michael W. Deem and Ramdas Pophale) SiO2 
 PCOD9379633
Probable space group: I M A 2
;
_chemical_formula_sum "Si O2"
_cell_formula_units_Z 64
_cell_length_a 8.991976
_cell_length_b 25.601906
_cell_length_c 15.312150
_cell_angle_alpha 90.000000
_cell_angle_beta 90.000000
_cell_angle_gamma 90.000000
_cell_volume 3525.036454
_symmetry_space_group_name_H-M "I M A 2"
_symmetry_group_IT_number 46
_symmetry_cell_setting 'orthorhombic'
loop_
_space_group_symop_operation_xyz
x,y,z
-x,-y,z
1/2-x,y,z
1/2+x,-y,z
1/2+x,1/2+y,1/2+z
1/2-x,1/2-y,1/2+z
-x,1/2+y,1/2+z
x,1/2-y,1/2+z
loop_
_atom_site_type_symbol
_atom_site_label
_atom_site_fract_x
_atom_site_fract_y
_atom_site_fract_z
Si Si1 0.570739 0.633475 0.430910
Si Si2 0.429060 0.335121 0.618851
Si Si3 0.927819 0.151802 0.306001
Si Si4 0.428532 0.609341 0.107564
Si Si5 0.076064 0.217717 0.632461
Si Si6 0.929014 0.442852 0.291360
Si Si7 0.575499 0.740335 0.338485
Si Si8 0.570674 0.444620 0.929704
O O1 0.750000 0.628614 0.419837
O O2 0.536514 0.630928 0.533722
O O3 0.488983 0.591449 0.371528
O O4 0.529270 0.691440 0.397071
O O5 0.250000 0.334702 0.631791
O O6 0.505100 0.351590 0.708700
O O7 0.472046 0.274757 0.599675
O O8 0.750000 0.154216 0.301302
O O9 0.970819 0.101758 0.363419
O O10 0.987518 0.205794 0.347519
O O11 0.250000 0.888797 0.606329
O O12 0.488557 0.667934 0.098764
O O13 0.474687 0.585354 0.200645
O O14 0.477161 0.573615 0.026639
O O15 0.250000 0.210924 0.611772
O O16 0.060702 0.221896 0.737658
O O17 0.750000 0.446002 0.293549
O O18 0.000000 0.500000 0.293964
O O19 0.750000 0.750857 0.354626
O O20 0.500000 0.500000 0.907213
O O21 0.750000 0.449137 0.929070
#
# Coordination Sequence:
#
# PCOD9379633 Si02
#       8
#     8   8   8   8   8   8   8   8
#     4  10  20  37  59  83 115 151 190 236 279 331
#     4   9  20  37  57  83 115 150 190 231 278 336
#     4  10  21  37  57  82 114 147 186 237 287 334
#     4  10  21  36  54  81 115 148 184 228 278 335
#     4   9  17  31  52  81 113 146 185 222 266 328
#     4  11  23  38  58  83 114 151 192 234 283 339
#     4   9  18  33  55  82 113 148 186 225 272 334
#     4  10  23  41  58  81 110 145 191 237 283 336
#
# _framework density 18.155840000000001
#
# number of rings (size 3 to 8) (size 9 to 14) (size 15 to 20)
#    0.000    2.250    1.250    1.875    1.750    5.000 
#    0.000    0.625    0.000    1.500    0.000    0.000 
#    0.000    0.000    0.000    0.000    0.000    0.000 
#
# Total GULP energy -178631.869088 kJ/mol
# GULP energy per Si atom -5582.245909 kJ/mol
# Density = 1.811452 g / cm^3
# Si number density = 18.155840 Si / 1000 Ang^3
#
#
#
# Elastic Constant Matrix: (Units=GPa)
#
#
# Indices 1 2 3 4 5 6 
#
# 1 27.6248 39.0837 29.6871 0.0000 0.0000 0.0000
# 2 39.0837 117.4846 54.0781 0.0000 0.0000 0.0000
# 3 29.6871 54.0781 77.1871 0.0001 0.0000 0.0000
# 4 0.0000 0.0000 0.0001 23.5771 0.0000 0.0000
# 5 0.0000 0.0000 0.0000 0.0000 21.4280 0.0000
# 6 0.0000 0.0000 0.0000 0.0000 0.0000 34.1548
#
#
#
# Elastic Compliance Matrix: (Units=1/GPa)
#
#
# Indices 1 2 3 4 5 6 
#
# 1 0.083288 -0.019132 -0.018629 0.000000 0.000000 0.000000
# 2 -0.019132 0.016958 -0.004523 0.000000 0.000000 0.000000
# 3 -0.018629 -0.004523 0.023289 0.000000 0.000000 0.000000
# 4 0.000000 0.000000 0.000000 0.042414 0.000000 0.000000
# 5 0.000000 0.000000 0.000000 0.000000 0.046668 0.000000
# 6 0.000000 0.000000 0.000000 0.000000 0.000000 0.029278
#
#
# Mechanical properties :
#
#
# Convention : Reuss Voigt Hill
#
# Bulk Modulus (GPa) = 25.66279 51.99937 38.83108
# Shear Modulus (GPa) = 14.72958 22.46182 18.59570
#
# Velocity S-wave (km/s) = 2.85140 3.52116 3.20383
# Velocity P-wave (km/s) = 5.00060 6.72563 5.92622
#
# Compressibility (1/GPa) = 0.03896693
#
# Stress axis : x y z
#
# Youngs Moduli (GPa) = 12.00655 58.96813 42.93847
#
# Poissons Ratio (x) = 1.12820 0.79991
# Poissons Ratio (y) = 0.22971 0.19419
# Poissons Ratio (z) = 0.22367 0.26669
#
# Static dielectric constant tensor:
#      x y z
#    x 1.608860 0.000000 0.000000 
#    y 0.000000 1.593550 0.000000 
#    z 0.000000 0.000000 1.640260 
# 
# From -- ./inp_files/14454.got.cif
#   From: 2010.05.17/outbox.cif.g08.bks.cpg/sg46_8_cif.got.tgz:14454.got - 2010.06.03 19:58:25.
