data_PCOD9379543
_publ_section_title
;
Structure prediction by ZEFSAII (Michael W. Deem and Ramdas Pophale) SiO2 
 PCOD9379543
Probable space group: I M A 2
;
_chemical_formula_sum "Si O2"
_cell_formula_units_Z 64
_cell_length_a 7.503501
_cell_length_b 13.767735
_cell_length_c 25.639835
_cell_angle_alpha 90.000000
_cell_angle_beta 90.000000
_cell_angle_gamma 90.000000
_cell_volume 2648.754265
_symmetry_space_group_name_H-M "I M A 2"
_symmetry_group_IT_number 46
_symmetry_cell_setting 'orthorhombic'
loop_
_space_group_symop_operation_xyz
x,y,z
-x,-y,z
1/2-x,y,z
1/2+x,-y,z
1/2+x,1/2+y,1/2+z
1/2-x,1/2-y,1/2+z
-x,1/2+y,1/2+z
x,1/2-y,1/2+z
loop_
_atom_site_type_symbol
_atom_site_label
_atom_site_fract_x
_atom_site_fract_y
_atom_site_fract_z
Si Si1 0.463175 0.616136 0.877330
Si Si2 0.962520 0.114215 0.492872
Si Si3 0.045640 0.197244 0.044575
Si Si4 0.536059 0.612713 0.213652
Si Si5 0.040303 0.212305 0.154915
Si Si6 0.038740 0.885255 0.264451
Si Si7 0.036766 0.116258 0.826821
Si Si8 0.036185 0.385201 0.437992
O O1 0.500000 0.500000 0.876481
O O2 0.250000 0.628998 0.877559
O O3 0.531304 0.645514 0.934787
O O4 0.532720 0.653095 0.820897
O O5 0.750000 0.125771 0.493434
O O6 0.041320 0.186578 0.535695
O O7 0.000000 0.000000 0.500359
O O8 0.250000 0.161542 0.043494
O O9 0.965019 0.171404 0.100811
O O10 0.960766 0.156813 0.991549
O O11 0.500000 0.500000 0.206320
O O12 0.750000 0.623794 0.215414
O O13 0.464950 0.681959 0.168868
O O14 0.466004 0.647330 0.270379
O O15 0.250000 0.222785 0.143629
O O16 0.027478 0.155516 0.209370
O O17 0.250000 0.870978 0.264877
O O18 0.000000 0.000000 0.264081
O O19 0.250000 0.128847 0.826574
O O20 0.965776 0.154297 0.882193
O O21 0.000000 0.000000 0.827143
O O22 0.250000 0.370374 0.436798
O O23 0.000000 0.500000 0.438449
#
# Coordination Sequence:
#
# PCOD9379543 Si02
#       8
#     8   8   8   8   8   8   8   8
#     4   8  16  31  52  80 109 135 169 215 267 325
#     4  10  20  36  58  82 109 141 177 220 272 326
#     4  10  22  38  53  75 108 143 182 225 264 309
#     4   9  18  33  53  75 101 132 166 209 259 309
#     4  10  22  38  53  75 108 143 182 225 264 309
#     4  10  20  36  58  82 109 141 177 220 272 326
#     4   8  14  27  48  74  99 125 161 203 253 311
#     4   9  18  33  53  75 101 132 166 209 259 309
#
# _framework density 24.162303000000001
#
# number of rings (size 3 to 8) (size 9 to 14) (size 15 to 20)
#    0.000    2.750    0.000    0.750    0.000    4.500 
#    0.000    3.750    0.000    4.500    0.000    0.000 
#    0.000    0.000    0.000    0.000    0.000    0.000 
#
# Total GULP energy -178598.098609 kJ/mol
# GULP energy per Si atom -5581.190582 kJ/mol
# Density = 2.410731 g / cm^3
# Si number density = 24.162303 Si / 1000 Ang^3
#
#
#
# Elastic Constant Matrix: (Units=GPa)
#
#
# Indices 1 2 3 4 5 6 
#
# 1 89.9638 -8.4110 8.0671 0.0000 0.0000 0.0000
# 2 -8.4110 38.7124 7.0934 0.0000 0.0000 0.0000
# 3 8.0671 7.0934 157.2251 0.0000 0.0000 0.0000
# 4 0.0000 0.0000 0.0000 25.7210 0.0000 0.0000
# 5 0.0000 0.0000 0.0000 0.0000 1.0479 0.0000
# 6 0.0000 0.0000 0.0000 0.0000 0.0000 22.4755
#
#
#
# Elastic Compliance Matrix: (Units=1/GPa)
#
#
# Indices 1 2 3 4 5 6 
#
# 1 0.011423 0.002611 -0.000704 0.000000 0.000000 0.000000
# 2 0.002611 0.026644 -0.001336 0.000000 0.000000 0.000000
# 3 -0.000704 -0.001336 0.006457 0.000000 0.000000 0.000000
# 4 0.000000 0.000000 0.000000 0.038879 0.000000 0.000000
# 5 0.000000 0.000000 0.000000 0.000000 0.954323 0.000000
# 6 0.000000 0.000000 0.000000 0.000000 0.000000 0.044493
#
#
# Mechanical properties :
#
#
# Convention : Reuss Voigt Hill
#
# Bulk Modulus (GPa) = 21.89867 33.26669 27.58268
# Shear Modulus (GPa) = 4.56080 28.45899 16.50990
#
# Velocity S-wave (km/s) = 1.37538 3.43567 2.61682
# Velocity P-wave (km/s) = 3.40662 5.43474 4.53549
#
# Compressibility (1/GPa) = 0.04566488
#
# Stress axis : x y z
#
# Youngs Moduli (GPa) = 87.54424 37.53248 154.87784
#
# Poissons Ratio (x) = -0.09799 0.10902
# Poissons Ratio (y) = -0.22856 0.20692
# Poissons Ratio (z) = 0.06162 0.05014
#
# Static dielectric constant tensor:
#      x y z
#    x 1.832920 0.000000 0.000000 
#    y 0.000000 1.931520 0.000000 
#    z 0.000000 0.000000 2.000780 
# 
# From -- ./inp_files/23209.got.cif
#   From: 2010.05.17/outbox.cif.g08.bks.cpg/sg46_12_cif.got.tgz:23209.got - 2010.06.03 19:58:25.
