data_PCOD9379247
_publ_section_title
;
Structure prediction by ZEFSAII (Michael W. Deem and Ramdas Pophale) SiO2 
 PCOD9379247
Probable space group: I M A 2
;
_chemical_formula_sum "Si O2"
_cell_formula_units_Z 64
_cell_length_a 8.851172
_cell_length_b 14.733668
_cell_length_c 28.370951
_cell_angle_alpha 90.000000
_cell_angle_beta 90.000000
_cell_angle_gamma 90.000000
_cell_volume 3699.862236
_symmetry_space_group_name_H-M "I M A 2"
_symmetry_group_IT_number 46
_symmetry_cell_setting 'orthorhombic'
loop_
_space_group_symop_operation_xyz
x,y,z
-x,-y,z
1/2-x,y,z
1/2+x,-y,z
1/2+x,1/2+y,1/2+z
1/2-x,1/2-y,1/2+z
-x,1/2+y,1/2+z
x,1/2-y,1/2+z
loop_
_atom_site_type_symbol
_atom_site_label
_atom_site_fract_x
_atom_site_fract_y
_atom_site_fract_z
Si Si1 0.569848 0.784522 0.067090
Si Si2 0.569963 0.708084 0.845072
Si Si3 0.432249 0.907026 0.539795
Si Si4 0.079328 0.852464 0.437725
Si Si5 0.429597 0.408677 0.379911
Si Si6 0.930549 0.400311 0.759852
Si Si7 0.579109 0.354562 0.475027
Si Si8 0.569334 0.901484 0.159317
O O1 0.750000 0.776731 0.060129
O O2 0.496133 0.684810 0.062925
O O3 0.540244 0.831792 0.117054
O O4 0.501071 0.846680 0.025350
O O5 0.750000 0.703421 0.838890
O O6 0.522200 0.650789 0.891434
O O7 0.527227 0.813363 0.855245
O O8 0.486054 0.667520 0.800190
O O9 0.250000 0.906259 0.541687
O O10 0.477821 0.902561 0.484337
O O11 0.500000 0.000000 0.559975
O O12 0.250000 0.882856 0.425883
O O13 0.088970 0.749024 0.456409
O O14 0.500000 0.500000 0.358665
O O15 0.250000 0.414967 0.379135
O O16 0.486188 0.402174 0.433860
O O17 0.750000 0.406116 0.758675
O O18 0.000000 0.500000 0.769583
O O19 0.994527 0.372765 0.708653
O O20 0.750000 0.390537 0.478918
O O21 0.750000 0.910387 0.165514
O O22 0.500000 0.000000 0.147553
#
# Coordination Sequence:
#
# PCOD9379247 Si02
#       8
#     8   8   8   8   8   8   8   8
#     4  10  20  34  53  77 106 139 175 215 259 309
#     4  10  20  34  53  77 105 137 173 214 258 306
#     4  10  20  33  51  75 106 143 180 218 258 304
#     4   8  16  30  46  68  98 133 171 209 249 293
#     4  10  20  33  51  75 106 143 179 216 256 302
#     4  11  22  37  58  80 104 132 164 208 259 313
#     4   9  17  30  48  70 100 135 172 213 252 296
#     4  10  21  37  57  80 105 132 165 209 259 311
#
# _framework density 17.297941000000002
#
# number of rings (size 3 to 8) (size 9 to 14) (size 15 to 20)
#    0.000    2.250    0.000    4.875    0.000    8.000 
#    0.000    2.500    0.000    0.750    0.000    3.500 
#    0.000    0.000    0.000    0.000    0.000    0.000 
#
# Total GULP energy -178494.637945 kJ/mol
# GULP energy per Si atom -5577.957436 kJ/mol
# Density = 1.725857 g / cm^3
# Si number density = 17.297941 Si / 1000 Ang^3
#
#
#
# Elastic Constant Matrix: (Units=GPa)
#
#
# Indices 1 2 3 4 5 6 
#
# 1 98.0631 53.1495 72.9588 0.0000 0.0000 0.0000
# 2 53.1495 87.1886 68.4956 0.0000 0.0000 0.0000
# 3 72.9588 68.4956 116.5873 0.0000 0.0000 0.0000
# 4 0.0000 0.0000 0.0000 21.0652 0.0000 0.0000
# 5 0.0000 0.0000 0.0000 0.0000 29.5325 0.0000
# 6 0.0000 0.0000 0.0000 0.0000 0.0000 26.6074
#
#
#
# Elastic Compliance Matrix: (Units=1/GPa)
#
#
# Indices 1 2 3 4 5 6 
#
# 1 0.019939 -0.004369 -0.009911 0.000000 0.000000 0.000000
# 2 -0.004369 0.022258 -0.010343 0.000000 0.000000 0.000000
# 3 -0.009911 -0.010343 0.020856 0.000000 0.000000 0.000000
# 4 0.000000 0.000000 0.000000 0.047472 0.000000 0.000000
# 5 0.000000 0.000000 0.000000 0.000000 0.033861 0.000000
# 6 0.000000 0.000000 0.000000 0.000000 0.000000 0.037584
#
#
# Mechanical properties :
#
#
# Convention : Reuss Voigt Hill
#
# Bulk Modulus (GPa) = 72.42193 76.78298 74.60246
# Shear Modulus (GPa) = 21.20295 22.59002 21.89649
#
# Velocity S-wave (km/s) = 3.50487 3.61770 3.56173
# Velocity P-wave (km/s) = 7.63787 7.86989 7.75475
#
# Compressibility (1/GPa) = 0.01380797
#
# Stress axis : x y z
#
# Youngs Moduli (GPa) = 50.15284 44.92830 47.94813
#
# Poissons Ratio (x) = 0.19627 0.47522
# Poissons Ratio (y) = 0.21909 0.49591
# Poissons Ratio (z) = 0.49707 0.46468
#
# Static dielectric constant tensor:
#      x y z
#    x 1.590330 0.000000 0.000000 
#    y 0.000000 1.608950 0.000000 
#    z 0.000000 0.000000 1.567220 
# 
# From -- ./inp_files/23193.got.cif
#   From: 2010.05.17/outbox.cif.g08.bks.cpg/sg46_12_cif.got.tgz:23193.got - 2010.06.03 19:58:25.
