data_PCOD9379087
_publ_section_title
;
Structure prediction by ZEFSAII (Michael W. Deem and Ramdas Pophale) SiO2 
 PCOD9379087
Probable space group: I M A 2
;
_chemical_formula_sum "Si O2"
_cell_formula_units_Z 64
_cell_length_a 8.981515
_cell_length_b 27.664471
_cell_length_c 12.616724
_cell_angle_alpha 90.000000
_cell_angle_beta 90.000000
_cell_angle_gamma 90.000000
_cell_volume 3134.863045
_symmetry_space_group_name_H-M "I M A 2"
_symmetry_group_IT_number 46
_symmetry_cell_setting 'orthorhombic'
loop_
_space_group_symop_operation_xyz
x,y,z
-x,-y,z
1/2-x,y,z
1/2+x,-y,z
1/2+x,1/2+y,1/2+z
1/2-x,1/2-y,1/2+z
-x,1/2+y,1/2+z
x,1/2-y,1/2+z
loop_
_atom_site_type_symbol
_atom_site_label
_atom_site_fract_x
_atom_site_fract_y
_atom_site_fract_z
Si Si1 0.917322 0.318958 0.886720
Si Si2 0.424411 0.045984 0.206883
Si Si3 0.581959 0.066744 0.427477
Si Si4 0.422482 0.195860 0.594905
Si Si5 0.074196 0.125019 0.028210
Si Si6 0.428621 0.948202 0.862925
Si Si7 0.574037 0.291233 0.648422
Si Si8 0.073344 0.082243 0.642789
O O1 0.750000 0.298138 0.903030
O O2 0.907225 0.375557 0.912153
O O3 0.960361 0.311543 0.765419
O O4 0.034862 0.299705 0.971037
O O5 0.250000 0.037560 0.219338
O O6 0.500211 0.050858 0.320979
O O7 0.445498 0.092669 0.134235
O O8 0.500000 0.000000 0.152223
O O9 0.750000 0.047064 0.435112
O O10 0.489203 0.059143 0.534421
O O11 0.250000 0.207110 0.612554
O O12 0.524557 0.235671 0.649485
O O13 0.447984 0.140547 0.631477
O O14 0.250000 0.127715 0.003431
O O15 0.009725 0.177286 0.059271
O O16 0.990061 0.095140 0.936950
O O17 0.250000 0.950806 0.868705
O O18 0.484219 0.936913 0.743763
O O19 0.500000 0.000000 0.893524
O O20 0.750000 0.295918 0.631244
O O21 0.250000 0.073169 0.654104
#
# Coordination Sequence:
#
# PCOD9379087 Si02
#       8
#     8   8   8   8   8   8   8   8
#     4   9  19  36  58  83 116 157 197 248 308 369
#     4  11  23  37  58  88 121 157 197 246 304 368
#     4  10  19  36  61  88 119 154 198 250 308 369
#     4  10  22  38  60  91 125 165 209 262 319 380
#     4  11  24  42  64  91 125 165 211 263 319 382
#     4  12  26  45  69  95 128 172 220 272 330 392
#     4  11  22  38  62  91 124 165 212 262 318 382
#     4  10  22  42  65  91 127 167 212 263 321 382
#
# _framework density 20.415564
#
# number of rings (size 3 to 8) (size 9 to 14) (size 15 to 20)
#    0.000    1.500    1.250    3.750    0.000    7.000 
#    0.000    5.000    0.000    0.000    0.000    0.000 
#    0.000    0.000    0.000    0.000    0.000    0.000 
#
# Total GULP energy -178815.888267 kJ/mol
# GULP energy per Si atom -5587.996508 kJ/mol
# Density = 2.036910 g / cm^3
# Si number density = 20.415564 Si / 1000 Ang^3
#
#
#
# Elastic Constant Matrix: (Units=GPa)
#
#
# Indices 1 2 3 4 5 6 
#
# 1 100.0188 26.3981 45.5386 0.0000 0.0000 0.0000
# 2 26.3981 42.0566 5.8086 0.0000 0.0000 0.0000
# 3 45.5386 5.8086 87.1778 -0.0002 -0.0002 0.0000
# 4 0.0000 0.0000 -0.0002 17.3951 -0.0001 0.0000
# 5 0.0000 0.0000 -0.0002 -0.0001 29.2334 0.0000
# 6 0.0000 0.0000 0.0000 0.0000 0.0000 33.9272
#
#
#
# Elastic Compliance Matrix: (Units=1/GPa)
#
#
# Indices 1 2 3 4 5 6 
#
# 1 0.015840 -0.008881 -0.007683 0.000000 0.000000 0.000000
# 2 -0.008881 0.028978 0.002709 0.000000 0.000000 0.000000
# 3 -0.007683 0.002709 0.015303 0.000000 0.000000 0.000000
# 4 0.000000 0.000000 0.000000 0.057487 0.000000 0.000000
# 5 0.000000 0.000000 0.000000 0.000000 0.034207 0.000000
# 6 0.000000 0.000000 0.000000 0.000000 0.000000 0.029475
#
#
# Mechanical properties :
#
#
# Convention : Reuss Voigt Hill
#
# Bulk Modulus (GPa) = 30.85397 42.74933 36.80165
# Shear Modulus (GPa) = 22.74736 26.21166 24.47951
#
# Velocity S-wave (km/s) = 3.34161 3.58705 3.46650
# Velocity P-wave (km/s) = 5.48035 6.17584 5.83846
#
# Compressibility (1/GPa) = 0.03241074
#
# Stress axis : x y z
#
# Youngs Moduli (GPa) = 63.13096 34.50883 65.34479
#
# Poissons Ratio (x) = 0.30649 0.50201
# Poissons Ratio (y) = 0.56069 -0.17699
# Poissons Ratio (z) = 0.48501 -0.09347
#
# Static dielectric constant tensor:
#      x y z
#    x 1.705290 0.000000 0.000000 
#    y 0.000000 1.740010 0.000000 
#    z 0.000000 0.000000 1.705220 
# 
# From -- ./inp_files/9730.got.cif
#   From: 2010.05.17/outbox.cif.g08.bks.cpg/sg46_5_cif.got.tgz:9730.got - 2010.06.03 19:58:25.
