data_PCOD9379983
_publ_section_title
;
Structure prediction by ZEFSAII (Michael W. Deem and Ramdas Pophale) SiO2 
 PCOD9379983
Probable space group: I M A 2
;
_chemical_formula_sum "Si O2"
_cell_formula_units_Z 60
_cell_length_a 9.890423
_cell_length_b 16.938321
_cell_length_c 18.901492
_cell_angle_alpha 90.000000
_cell_angle_beta 90.000000
_cell_angle_gamma 90.000000
_cell_volume 3166.513267
_symmetry_space_group_name_H-M "I M A 2"
_symmetry_group_IT_number 46
_symmetry_cell_setting 'orthorhombic'
loop_
_space_group_symop_operation_xyz
x,y,z
-x,-y,z
1/2-x,y,z
1/2+x,-y,z
1/2+x,1/2+y,1/2+z
1/2-x,1/2-y,1/2+z
-x,1/2+y,1/2+z
x,1/2-y,1/2+z
loop_
_atom_site_type_symbol
_atom_site_label
_atom_site_fract_x
_atom_site_fract_y
_atom_site_fract_z
Si Si1 0.097060 0.708624 0.775490
Si Si2 0.000000 0.000000 0.904915
Si Si3 0.901168 0.885116 0.654986
Si Si4 0.907513 0.648754 0.488719
Si Si5 0.590787 0.800209 0.146457
Si Si6 0.601716 0.101168 0.776400
Si Si7 0.412417 0.790497 0.436651
Si Si8 0.908110 0.928337 0.497088
O O1 0.250000 0.689572 0.753572
O O2 0.089711 0.804028 0.784339
O O3 0.073898 0.681299 0.855399
O O4 0.995734 0.678751 0.715543
O O5 0.918139 0.055132 0.849635
O O6 0.078068 0.062011 0.954781
O O7 0.750000 0.883079 0.684072
O O8 0.936110 0.793729 0.636384
O O9 0.902255 0.932156 0.582237
O O10 0.994666 0.916626 0.716262
O O11 0.750000 0.675257 0.479846
O O12 0.938575 0.655300 0.572758
O O13 0.014155 0.706697 0.450287
O O14 0.750000 0.809886 0.160713
O O15 0.750000 0.082945 0.748522
O O16 0.250000 0.788110 0.452948
O O17 0.504476 0.850995 0.480169
O O18 0.750000 0.926231 0.472972
O O19 0.000000 0.000000 0.469478
#
# Coordination Sequence:
#
# PCOD9379983 Si02
#       8
#     8   4   8   8   8   8   8   8
#     4   9  19  37  59  86 115 148 196 251 304 364
#     4  12  24  38  58  90 126 170 212 258 314 368
#     4   9  19  36  57  83 118 156 197 243 293 357
#     4  11  23  40  62  88 124 166 210 258 309 370
#     4   9  18  36  60  87 112 149 202 249 298 362
#     4  10  21  36  52  80 120 159 200 243 292 356
#     4  11  22  39  63  90 121 156 201 253 312 375
#     4  11  23  40  60  89 122 155 199 248 308 371
#
# _framework density 18.948286
#
# number of rings (size 3 to 8) (size 9 to 14) (size 15 to 20)
#    0.000    1.867    2.667    1.200    0.933    4.267 
#    0.000    0.000    1.467    0.000    0.000    0.000 
#    0.000    0.000    0.000    0.000    0.000    0.000 
#
# Total GULP energy -167183.321679 kJ/mol
# GULP energy per Si atom -5572.777389 kJ/mol
# Density = 1.890516 g / cm^3
# Si number density = 18.948286 Si / 1000 Ang^3
#
#
#
# Elastic Constant Matrix: (Units=GPa)
#
#
# Indices 1 2 3 4 5 6 
#
# 1 121.2486 36.3878 73.8113 0.0000 0.0000 0.0000
# 2 36.3878 54.1807 27.3841 0.0000 0.0000 0.0000
# 3 73.8113 27.3841 113.3370 0.0000 0.0000 0.0000
# 4 0.0000 0.0000 0.0000 29.4165 0.0000 0.0000
# 5 0.0000 0.0000 0.0000 0.0000 22.6474 0.0000
# 6 0.0000 0.0000 0.0000 0.0000 0.0000 5.0135
#
#
#
# Elastic Compliance Matrix: (Units=1/GPa)
#
#
# Indices 1 2 3 4 5 6 
#
# 1 0.015165 -0.005916 -0.008447 0.000000 0.000000 0.000000
# 2 -0.005916 0.023332 -0.001785 0.000000 0.000000 0.000000
# 3 -0.008447 -0.001785 0.014756 0.000000 0.000000 0.000000
# 4 0.000000 0.000000 0.000000 0.033995 0.000000 0.000000
# 5 0.000000 0.000000 0.000000 0.000000 0.044155 0.000000
# 6 0.000000 0.000000 0.000000 0.000000 0.000000 0.199461
#
#
# Mechanical properties :
#
#
# Convention : Reuss Voigt Hill
#
# Bulk Modulus (GPa) = 47.71521 62.65920 55.18720
# Shear Modulus (GPa) = 13.50827 21.49436 17.50131
#
# Velocity S-wave (km/s) = 2.67292 3.37169 3.04243
# Velocity P-wave (km/s) = 5.89597 6.94968 6.44440
#
# Compressibility (1/GPa) = 0.02095768
#
# Stress axis : x y z
#
# Youngs Moduli (GPa) = 65.94119 42.86007 67.77075
#
# Poissons Ratio (x) = 0.25354 0.57246
# Poissons Ratio (y) = 0.39008 0.12096
# Poissons Ratio (z) = 0.55701 0.07650
#
# Static dielectric constant tensor:
#      x y z
#    x 1.666190 0.000000 0.000000 
#    y 0.000000 1.711210 0.000000 
#    z 0.000000 0.000000 1.654540 
# 
# From -- ./inp_files/18362.got.cif
#   From: 2010.05.17/outbox.cif.g08.bks.cpg/sg46_10_cif.got.tgz:18362.got - 2010.06.03 19:58:25.
