data_PCOD9379897
_publ_section_title
;
Structure prediction by ZEFSAII (Michael W. Deem and Ramdas Pophale) SiO2 
 PCOD9379897
Probable space group: I M A 2
;
_chemical_formula_sum "Si O2"
_cell_formula_units_Z 56
_cell_length_a 20.601694
_cell_length_b 9.271249
_cell_length_c 14.971796
_cell_angle_alpha 90.000000
_cell_angle_beta 90.000000
_cell_angle_gamma 90.000000
_cell_volume 2859.664463
_symmetry_space_group_name_H-M "I M A 2"
_symmetry_group_IT_number 46
_symmetry_cell_setting 'orthorhombic'
loop_
_space_group_symop_operation_xyz
x,y,z
-x,-y,z
1/2-x,y,z
1/2+x,-y,z
1/2+x,1/2+y,1/2+z
1/2-x,1/2-y,1/2+z
-x,1/2+y,1/2+z
x,1/2-y,1/2+z
loop_
_atom_site_type_symbol
_atom_site_label
_atom_site_fract_x
_atom_site_fract_y
_atom_site_fract_z
Si Si1 0.174339 0.776966 0.632620
Si Si2 0.327521 0.043583 0.179496
Si Si3 0.075743 0.462386 0.176621
Si Si4 0.619660 0.750308 0.026618
Si Si5 0.825667 0.223172 0.920554
Si Si6 0.424236 0.037394 0.876339
Si Si7 0.672485 0.543926 0.873911
O O1 0.250000 0.807543 0.659486
O O2 0.151538 0.623200 0.671235
O O3 0.175114 0.749677 0.526624
O O4 0.124894 0.904472 0.657120
O O5 0.250000 0.038394 0.181538
O O6 0.343947 0.138968 0.093181
O O7 0.350341 0.098921 0.276667
O O8 0.082741 0.348271 0.097442
O O9 0.092742 0.409877 0.276500
O O10 0.000000 0.500000 0.178090
O O11 0.656125 0.639562 0.960138
O O12 0.582813 0.848797 0.955680
O O13 0.750000 0.192852 0.893579
O O14 0.875112 0.095845 0.895704
O O15 0.848490 0.377209 0.882384
O O16 0.500000 0.000000 0.874836
O O17 0.750000 0.538648 0.871805
#
# Coordination Sequence:
#
# PCOD9379897 Si02
#       7
#     8   8   8   8   8   8   8
#     4  10  20  40  68  92 120 163 216 264 311 373
#     4  10  21  37  60  92 126 160 204 260 319 380
#     4  11  26  44  63  92 129 169 216 265 319 386
#     4  12  23  38  62  86 125 166 208 260 324 376
#     4  10  20  40  68  92 120 163 216 264 311 373
#     4  11  26  44  63  92 129 169 216 265 319 386
#     4  10  21  37  60  92 126 160 204 260 319 380
#
# _framework density 19.582716000000001
#
# number of rings (size 3 to 8) (size 9 to 14) (size 15 to 20)
#    0.000    1.429    2.857    2.143    2.000    2.857 
#    0.000    0.000    0.000    6.857    0.000    0.000 
#    0.000    0.000    0.000    0.000    0.000    0.000 
#
# Total GULP energy -156055.098535 kJ/mol
# GULP energy per Si atom -5573.396376 kJ/mol
# Density = 1.953814 g / cm^3
# Si number density = 19.582716 Si / 1000 Ang^3
#
#
#
# Elastic Constant Matrix: (Units=GPa)
#
#
# Indices 1 2 3 4 5 6 
#
# 1 78.9485 62.4784 34.9446 0.0000 0.0000 0.0000
# 2 62.4784 132.4004 68.6309 0.0000 0.0000 0.0000
# 3 34.9446 68.6309 181.1525 0.0000 0.0000 0.0000
# 4 0.0000 0.0000 0.0000 -55.0641 0.0000 0.0000
# 5 0.0000 0.0000 0.0000 0.0000 25.1414 0.0000
# 6 0.0000 0.0000 0.0000 0.0000 0.0000 13.8729
#
#
#
# Elastic Compliance Matrix: (Units=1/GPa)
#
#
# Indices 1 2 3 4 5 6 
#
# 1 0.020234 -0.009364 -0.000356 0.000000 0.000000 0.000000
# 2 -0.009364 0.013732 -0.003396 0.000000 0.000000 0.000000
# 3 -0.000356 -0.003396 0.006875 0.000000 0.000000 0.000000
# 4 0.000000 0.000000 0.000000 -0.018161 0.000000 0.000000
# 5 0.000000 0.000000 0.000000 0.000000 0.039775 0.000000
# 6 0.000000 0.000000 0.000000 0.000000 0.000000 0.072083
#
#
# Mechanical properties :
#
#
# Convention : Reuss Voigt Hill
#
# Bulk Modulus (GPa) = 68.44485 80.51212 74.47849
# Shear Modulus (GPa) = 30.18571 11.88655 21.03613
#
# Velocity S-wave (km/s) = 3.93039 2.46639 3.28108
# Velocity P-wave (km/s) = 7.45820 7.02239 7.24357
#
# Compressibility (1/GPa) = 0.01461030
#
# Stress axis : x y z
#
# Youngs Moduli (GPa) = 49.42070 72.82213 145.44476
#
# Poissons Ratio (x) = 0.68191 0.05172
# Poissons Ratio (y) = 0.46278 0.49395
# Poissons Ratio (z) = 0.01757 0.24731
#
# Static dielectric constant tensor:
#      x y z
#    x 1.656380 0.000000 0.000000 
#    y 0.000000 1.718390 0.000000 
#    z 0.000000 0.000000 1.777870 
# 
# From -- ./inp_files/17093.got.cif
#   From: 2010.05.17/outbox.cif.g08.bks.cpg/sg46_9_cif.got.tgz:17093.got - 2010.06.03 19:58:25.
