data_PCOD9379521
_publ_section_title
;
Structure prediction by ZEFSAII (Michael W. Deem and Ramdas Pophale) SiO2 
 PCOD9379521
Probable space group: I M A 2
;
_chemical_formula_sum "Si O2"
_cell_formula_units_Z 48
_cell_length_a 8.688733
_cell_length_b 32.090462
_cell_length_c 9.191831
_cell_angle_alpha 90.000000
_cell_angle_beta 90.000000
_cell_angle_gamma 90.000000
_cell_volume 2562.916472
_symmetry_space_group_name_H-M "I M A 2"
_symmetry_group_IT_number 46
_symmetry_cell_setting 'orthorhombic'
loop_
_space_group_symop_operation_xyz
x,y,z
-x,-y,z
1/2-x,y,z
1/2+x,-y,z
1/2+x,1/2+y,1/2+z
1/2-x,1/2-y,1/2+z
-x,1/2+y,1/2+z
x,1/2-y,1/2+z
loop_
_atom_site_type_symbol
_atom_site_label
_atom_site_fract_x
_atom_site_fract_y
_atom_site_fract_z
Si Si1 0.936996 0.865762 0.099030
Si Si2 0.433547 0.868482 0.426128
Si Si3 0.434534 0.713229 0.426629
Si Si4 0.928051 0.956460 0.431072
Si Si5 0.065587 0.291590 0.102912
Si Si6 0.573549 0.543026 0.576633
O O1 0.750000 0.865169 0.101240
O O2 0.989772 0.911188 0.038837
O O3 0.997916 0.862235 0.264037
O O4 0.002546 0.827988 0.006202
O O5 0.250000 0.863732 0.422460
O O6 0.479148 0.915264 0.473752
O O7 0.509300 0.834304 0.529584
O O8 0.250000 0.714740 0.434252
O O9 0.491430 0.712681 0.261311
O O10 0.505672 0.753380 0.505663
O O11 0.750000 0.952809 0.474250
O O12 0.931641 0.957591 0.253728
O O13 0.000000 0.000000 0.482154
O O14 0.250000 0.290630 0.112416
O O15 0.500000 0.500000 0.524783
O O16 0.750000 0.542301 0.530908
#
# Coordination Sequence:
#
# PCOD9379521 Si02
#       6
#     8   8   8   8   8   8
#     4  10  20  36  56  83 116 153 191 231 280 337
#     4  11  21  35  56  85 117 151 190 237 284 332
#     4  12  25  42  62  87 114 144 184 233 282 335
#     4   9  16  28  47  76 111 149 189 233 280 331
#     4  12  25  43  63  84 112 149 186 227 280 341
#     4   8  15  26  45  73 108 144 184 227 270 318
#
# _framework density 18.728663000000001
#
# number of rings (size 3 to 8) (size 9 to 14) (size 15 to 20)
#    0.000    1.667    0.000    7.500    0.000    4.667 
#    0.000    0.000    0.000    1.000    0.000    4.667 
#    0.000    0.000    0.000    0.000    0.000    0.000 
#
# Total GULP energy -134032.467650 kJ/mol
# GULP energy per Si atom -5584.686152 kJ/mol
# Density = 1.868604 g / cm^3
# Si number density = 18.728663 Si / 1000 Ang^3
#
#
#
# Elastic Constant Matrix: (Units=GPa)
#
#
# Indices 1 2 3 4 5 6 
#
# 1 100.0975 23.8539 0.8526 -0.0003 -0.0001 -0.0001
# 2 23.8539 143.8295 36.7547 -0.0004 -0.0001 -0.0001
# 3 0.8526 36.7547 50.9289 -0.0006 -0.0003 -0.0001
# 4 -0.0003 -0.0004 -0.0006 20.7289 -0.0001 0.0000
# 5 -0.0001 -0.0001 -0.0003 -0.0001 26.1899 -0.0001
# 6 -0.0001 -0.0001 -0.0001 0.0000 -0.0001 37.9785
#
#
#
# Elastic Compliance Matrix: (Units=1/GPa)
#
#
# Indices 1 2 3 4 5 6 
#
# 1 0.010473 -0.002075 0.001322 0.000000 0.000000 0.000000
# 2 -0.002075 0.008936 -0.006414 0.000000 0.000000 0.000000
# 3 0.001322 -0.006414 0.024242 0.000001 0.000000 0.000000
# 4 0.000000 0.000000 0.000001 0.048242 0.000000 0.000000
# 5 0.000000 0.000000 0.000000 0.000000 0.038183 0.000000
# 6 0.000000 0.000000 0.000000 0.000000 0.000000 0.026331
#
#
# Mechanical properties :
#
#
# Convention : Reuss Voigt Hill
#
# Bulk Modulus (GPa) = 34.10933 46.41980 40.26457
# Shear Modulus (GPa) = 27.69883 32.53911 30.11897
#
# Velocity S-wave (km/s) = 3.84989 4.17273 4.01456
# Velocity P-wave (km/s) = 6.16556 6.93216 6.56007
#
# Compressibility (1/GPa) = 0.02931749
#
# Stress axis : x y z
#
# Youngs Moduli (GPa) = 95.47953 111.90835 41.25057
#
# Poissons Ratio (x) = 0.23219 -0.05453
# Poissons Ratio (y) = 0.19810 0.26459
# Poissons Ratio (z) = -0.12623 0.71780
#
# Static dielectric constant tensor:
#      x y z
#    x 1.628960 0.000000 0.000000 
#    y 0.000000 1.660590 0.000000 
#    z 0.000000 0.000000 1.631240 
# 
# From -- ./inp_files/3889.got.cif
#   From: 2010.05.17/outbox.cif.g08.bks.cpg/sg46_2_cif.got.tgz:3889.got - 2010.06.03 19:58:25.
