data_PCOD9379836
_publ_section_title
;
Structure prediction by ZEFSAII (Michael W. Deem and Ramdas Pophale) SiO2 
 PCOD9379836
Probable space group: I M A 2
;
_chemical_formula_sum "Si O2"
_cell_formula_units_Z 48
_cell_length_a 14.993394
_cell_length_b 7.229842
_cell_length_c 22.470353
_cell_angle_alpha 90.000000
_cell_angle_beta 90.000000
_cell_angle_gamma 90.000000
_cell_volume 2435.783336
_symmetry_space_group_name_H-M "I M A 2"
_symmetry_group_IT_number 46
_symmetry_cell_setting 'orthorhombic'
loop_
_space_group_symop_operation_xyz
x,y,z
-x,-y,z
1/2-x,y,z
1/2+x,-y,z
1/2+x,1/2+y,1/2+z
1/2-x,1/2-y,1/2+z
-x,1/2+y,1/2+z
x,1/2-y,1/2+z
loop_
_atom_site_type_symbol
_atom_site_label
_atom_site_fract_x
_atom_site_fract_y
_atom_site_fract_z
Si Si1 0.508176 0.709167 0.613900
Si Si2 0.353946 0.167667 0.853427
Si Si3 0.352731 0.512663 0.074352
Si Si4 0.395209 0.028126 0.440556
Si Si5 0.351180 0.738709 0.832123
Si Si6 0.510820 0.777971 0.750436
O O1 0.500000 0.500000 0.590748
O O2 0.591855 0.825472 0.588690
O O3 0.524065 0.703074 0.684801
O O4 0.417564 0.825257 0.599624
O O5 0.250000 0.199344 0.841812
O O6 0.378363 0.267022 0.914980
O O7 0.411966 0.248217 0.799233
O O8 0.370118 0.948044 0.854239
O O9 0.250000 0.516432 0.096641
O O10 0.350780 0.520231 0.002794
O O11 0.500000 0.000000 0.448856
O O12 0.362844 0.896579 0.387441
O O13 0.250000 0.731324 0.810126
O O14 0.421670 0.699620 0.780584
O O15 0.500000 0.000000 0.743350
#
# Coordination Sequence:
#
# PCOD9379836 Si02
#       6
#     8   8   8   8   8   8
#     4  11  25  44  66  96 130 173 228 271 326 385
#     4  10  22  38  61  96 129 161 204 257 318 382
#     4  11  25  48  69  93 132 177 223 276 324 387
#     4  12  22  41  69  92 127 171 208 261 326 386
#     4  10  22  38  61  96 129 161 204 257 318 382
#     4  10  20  39  62  89 131 171 203 260 316 382
#
# _framework density 19.706187
#
# number of rings (size 3 to 8) (size 9 to 14) (size 15 to 20)
#    0.000    1.333    5.000    1.500    2.333    3.333 
#    0.000    0.000    0.000    0.000    0.000    0.000 
#    0.000    0.000    0.000    0.000    0.000    0.000 
#
# Total GULP energy -134066.042440 kJ/mol
# GULP energy per Si atom -5586.085102 kJ/mol
# Density = 1.966133 g / cm^3
# Si number density = 19.706187 Si / 1000 Ang^3
#
#
#
# Elastic Constant Matrix: (Units=GPa)
#
#
# Indices 1 2 3 4 5 6 
#
# 1 108.9597 20.0005 -6.3612 0.0000 0.0000 0.0000
# 2 20.0005 85.0019 -5.0872 0.0000 0.0000 0.0000
# 3 -6.3612 -5.0872 62.8816 0.0000 0.0000 0.0000
# 4 0.0000 0.0000 0.0000 21.3334 0.0000 0.0000
# 5 0.0000 0.0000 0.0000 0.0000 -1.3633 0.0000
# 6 0.0000 0.0000 0.0000 0.0000 0.0000 17.8012
#
#
#
# Elastic Compliance Matrix: (Units=1/GPa)
#
#
# Indices 1 2 3 4 5 6 
#
# 1 0.009631 -0.002219 0.000795 0.000000 0.000000 0.000000
# 2 -0.002219 0.012333 0.000773 0.000000 0.000000 0.000000
# 3 0.000795 0.000773 0.016046 0.000000 0.000000 0.000000
# 4 0.000000 0.000000 0.000000 0.046875 0.000000 0.000000
# 5 0.000000 0.000000 0.000000 0.000000 -0.733536 0.000000
# 6 0.000000 0.000000 0.000000 0.000000 0.000000 0.056176
#
#
# Mechanical properties :
#
#
# Convention : Reuss Voigt Hill
#
# Bulk Modulus (GPa) = 27.24128 30.43858 28.83993
# Shear Modulus (GPa) = -8.63651 24.10701 7.73525
#
# Velocity S-wave (km/s) = -2.09575 3.50140 1.98338
# Velocity P-wave (km/s) = 2.82799 5.64146 4.46227
#
# Compressibility (1/GPa) = 0.03670899
#
# Stress axis : x y z
#
# Youngs Moduli (GPa) = 103.82749 81.08488 62.32132
#
# Poissons Ratio (x) = 0.17990 -0.04954
# Poissons Ratio (y) = 0.23036 -0.04819
# Poissons Ratio (z) = -0.08253 -0.06270
#
# Static dielectric constant tensor:
#      x y z
#    x 1.697630 0.000000 0.000000 
#    y 0.000000 1.750920 0.000000 
#    z 0.000000 0.000000 1.662650 
# 
# From -- ./inp_files/21894.got.cif
#   From: 2010.05.17/outbox.cif.g08.bks.cpg/sg46_11_cif.got.tgz:21894.got - 2010.06.03 19:58:25.
