data_PCOD9379284
_publ_section_title
;
Structure prediction by ZEFSAII (Michael W. Deem and Ramdas Pophale) SiO2 
 PCOD9379284
Probable space group: I M A 2
;
_chemical_formula_sum "Si O2"
_cell_formula_units_Z 56
_cell_length_a 9.168573
_cell_length_b 18.879365
_cell_length_c 17.274341
_cell_angle_alpha 90.000000
_cell_angle_beta 90.000000
_cell_angle_gamma 90.000000
_cell_volume 2990.133774
_symmetry_space_group_name_H-M "I M A 2"
_symmetry_group_IT_number 46
_symmetry_cell_setting 'orthorhombic'
loop_
_space_group_symop_operation_xyz
x,y,z
-x,-y,z
1/2-x,y,z
1/2+x,-y,z
1/2+x,1/2+y,1/2+z
1/2-x,1/2-y,1/2+z
-x,1/2+y,1/2+z
x,1/2-y,1/2+z
loop_
_atom_site_type_symbol
_atom_site_label
_atom_site_fract_x
_atom_site_fract_y
_atom_site_fract_z
Si Si1 0.423168 0.924079 0.911230
Si Si2 0.576603 0.575182 0.707761
Si Si3 0.575009 0.693408 0.126016
Si Si4 0.425019 0.076023 0.504502
Si Si5 0.925316 0.670745 0.855933
Si Si6 0.423039 0.695057 0.292011
Si Si7 0.575800 0.658887 0.549397
O O1 0.250000 0.932702 0.922144
O O2 0.448549 0.880846 0.832005
O O3 0.500000 0.000000 0.911515
O O4 0.488284 0.875858 0.979745
O O5 0.500000 0.500000 0.712379
O O6 0.750000 0.564433 0.711574
O O7 0.537233 0.625145 0.779698
O O8 0.544708 0.614333 0.627278
O O9 0.750000 0.696734 0.139053
O O10 0.539139 0.621235 0.081053
O O11 0.495397 0.699596 0.207740
O O12 0.539582 0.759966 0.070400
O O13 0.250000 0.066942 0.501834
O O14 0.465287 0.124805 0.430902
O O15 0.500000 0.000000 0.501888
O O16 0.750000 0.682399 0.857595
O O17 0.005602 0.745091 0.846474
O O18 0.250000 0.706716 0.286714
O O19 0.750000 0.655220 0.533598
#
# Coordination Sequence:
#
# PCOD9379284 Si02
#       7
#     8   8   8   8   8   8   8
#     4  11  25  42  60  87 120 156 199 245 299 354
#     4  10  20  33  54  85 119 154 191 233 283 345
#     4  10  21  40  63  88 118 158 202 240 292 359
#     4  10  22  38  61  89 120 159 199 243 295 349
#     4  10  20  39  62  85 117 158 199 237 289 358
#     4  11  24  40  61  90 119 152 198 251 300 345
#     4  10  20  38  62  88 117 153 199 243 291 354
#
# _framework density 18.728258
#
# number of rings (size 3 to 8) (size 9 to 14) (size 15 to 20)
#    0.000    1.714    1.429    2.571    0.000    8.000 
#    0.000    2.857    0.000    0.000    0.000    0.000 
#    0.000    0.000    0.000    0.000    0.000    0.000 
#
# Total GULP energy -156475.067875 kJ/mol
# GULP energy per Si atom -5588.395281 kJ/mol
# Density = 1.868563 g / cm^3
# Si number density = 18.728258 Si / 1000 Ang^3
#
#
#
# Elastic Constant Matrix: (Units=GPa)
#
#
# Indices 1 2 3 4 5 6 
#
# 1 44.8155 68.2604 44.3369 0.0000 0.0000 0.0000
# 2 68.2604 148.0540 76.0671 0.0000 0.0000 0.0000
# 3 44.3369 76.0671 63.6591 0.0000 0.0000 0.0000
# 4 0.0000 0.0000 0.0000 11.2057 0.0000 0.0000
# 5 0.0000 0.0000 0.0000 0.0000 21.9331 0.0000
# 6 0.0000 0.0000 0.0000 0.0000 0.0000 32.0380
#
#
#
# Elastic Compliance Matrix: (Units=1/GPa)
#
#
# Indices 1 2 3 4 5 6 
#
# 1 0.101518 -0.027141 -0.038274 0.000000 0.000000 0.000000
# 2 -0.027141 0.024751 -0.010672 0.000000 0.000000 0.000000
# 3 -0.038274 -0.010672 0.055118 0.000000 0.000000 0.000000
# 4 0.000000 0.000000 0.000000 0.089240 0.000000 0.000000
# 5 0.000000 0.000000 0.000000 0.000000 0.045593 0.000000
# 6 0.000000 0.000000 0.000000 0.000000 0.000000 0.031213
#
#
# Mechanical properties :
#
#
# Convention : Reuss Voigt Hill
#
# Bulk Modulus (GPa) = 34.23138 70.42862 52.33000
# Shear Modulus (GPa) = 9.81653 17.55964 13.68809
#
# Velocity S-wave (km/s) = 2.29193 3.06535 2.70641
# Velocity P-wave (km/s) = 5.03205 7.08630 6.14562
#
# Compressibility (1/GPa) = 0.02921296
#
# Stress axis : x y z
#
# Youngs Moduli (GPa) = 9.85043 40.40317 18.14292
#
# Poissons Ratio (x) = 1.09656 0.69441
# Poissons Ratio (y) = 0.26735 0.19362
# Poissons Ratio (z) = 0.37702 0.43118
#
# Static dielectric constant tensor:
#      x y z
#    x 1.623470 0.000000 0.000000 
#    y 0.000000 1.630460 0.000000 
#    z 0.000000 0.000000 1.635140 
# 
# From -- ./inp_files/14224.got.cif
#   From: 2010.05.17/outbox.cif.g08.bks.cpg/sg46_8_cif.got.tgz:14224.got - 2010.06.03 19:58:25.
