data_PCOD9379902
_publ_section_title
;
Structure prediction by ZEFSAII (Michael W. Deem and Ramdas Pophale) SiO2 
 PCOD9379902
Probable space group: I M A 2
;
_chemical_formula_sum "Si O2"
_cell_formula_units_Z 64
_cell_length_a 19.204121
_cell_length_b 14.097536
_cell_length_c 10.245450
_cell_angle_alpha 90.000000
_cell_angle_beta 90.000000
_cell_angle_gamma 90.000000
_cell_volume 2773.758743
_symmetry_space_group_name_H-M "I M A 2"
_symmetry_group_IT_number 46
_symmetry_cell_setting 'orthorhombic'
loop_
_space_group_symop_operation_xyz
x,y,z
-x,-y,z
1/2-x,y,z
1/2+x,-y,z
1/2+x,1/2+y,1/2+z
1/2-x,1/2-y,1/2+z
-x,1/2+y,1/2+z
x,1/2-y,1/2+z
loop_
_atom_site_type_symbol
_atom_site_label
_atom_site_fract_x
_atom_site_fract_y
_atom_site_fract_z
Si Si1 0.538134 0.410640 0.000000
Si Si2 0.828074 0.378206 0.325265
Si Si3 0.829051 0.081360 0.121794
Si Si4 0.168115 0.127698 0.193779
Si Si5 0.670181 0.961407 0.478939
Si Si6 0.564511 0.790865 0.675669
Si Si7 0.572429 0.213655 0.277217
Si Si8 0.173086 0.400155 0.267178
O O1 0.500000 0.500000 0.928996
O O2 0.615122 0.456565 0.016853
O O3 0.477897 0.376707 0.102139
O O4 0.554238 0.314843 0.923615
O O5 0.750000 0.350315 0.283078
O O6 0.833305 0.369988 0.481385
O O7 0.885236 0.310811 0.263830
O O8 0.835473 0.489577 0.298649
O O9 0.750000 0.091848 0.170619
O O10 0.881675 0.129779 0.219412
O O11 0.841961 0.969138 0.112839
O O12 0.250000 0.152739 0.190643
O O13 0.152425 0.095870 0.345560
O O14 0.122426 0.212391 0.136318
O O15 0.750000 0.997437 0.462862
O O16 0.671771 0.896015 0.608040
O O17 0.500686 0.723360 0.709444
O O18 0.605203 0.839347 0.798456
O O19 0.250000 0.370120 0.314526
#
# Coordination Sequence:
#
# PCOD9379902 Si02
#       8
#     8   8   8   8   8   8   8   8
#     4  12  24  42  64  95 140 175 224 285 346 418
#     4  10  23  43  66  99 133 172 226 281 340 410
#     4  10  22  44  70  96 132 176 225 285 347 411
#     4  10  22  44  71  98 129 177 237 287 341 412
#     4  10  20  40  71  96 124 176 232 283 338 408
#     4  12  26  39  64  98 137 180 223 282 343 414
#     4  12  25  39  66  97 133 181 222 276 341 422
#     4  10  22  43  68  94 131 175 225 285 341 404
#
# _framework density 23.073384999999998
#
# number of rings (size 3 to 8) (size 9 to 14) (size 15 to 20)
#    0.000    1.250    2.500    3.000    0.000    1.500 
#    0.000    4.375    0.000    0.000    0.000    0.000 
#    0.000    0.000    0.000    0.000    0.000    0.000 
#
# Total GULP energy -178402.642213 kJ/mol
# GULP energy per Si atom -5575.082569 kJ/mol
# Density = 2.302087 g / cm^3
# Si number density = 23.073385 Si / 1000 Ang^3
#
#
#
# Elastic Constant Matrix: (Units=GPa)
#
#
# Indices 1 2 3 4 5 6 
#
# 1 157.1571 71.2833 16.4827 0.0000 0.0000 0.0000
# 2 71.2833 100.8731 -1.5215 0.0000 0.0000 0.0000
# 3 16.4827 -1.5215 39.1921 0.0000 0.0000 0.0000
# 4 0.0000 0.0000 0.0000 21.8197 0.0000 0.0000
# 5 0.0000 0.0000 0.0000 0.0000 4.8504 0.0000
# 6 0.0000 0.0000 0.0000 0.0000 0.0000 450.4930
#
#
#
# Elastic Compliance Matrix: (Units=1/GPa)
#
#
# Indices 1 2 3 4 5 6 
#
# 1 0.010110 -0.007213 -0.004532 0.000000 0.000000 0.000000
# 2 -0.007213 0.015065 0.003618 0.000000 0.000000 0.000000
# 3 -0.004532 0.003618 0.027562 0.000000 0.000000 0.000000
# 4 0.000000 0.000000 0.000000 0.045830 0.000000 0.000000
# 5 0.000000 0.000000 0.000000 0.000000 0.206167 0.000000
# 6 0.000000 0.000000 0.000000 0.000000 0.000000 0.002220
#
#
# Mechanical properties :
#
#
# Convention : Reuss Voigt Hill
#
# Bulk Modulus (GPa) = 27.40926 52.19015 39.79971
# Shear Modulus (GPa) = 14.90903 109.49782 62.20343
#
# Velocity S-wave (km/s) = 2.54472 6.89633 5.19783
# Velocity P-wave (km/s) = 4.53201 9.27797 7.30137
#
# Compressibility (1/GPa) = 0.03648401
#
# Stress axis : x y z
#
# Youngs Moduli (GPa) = 98.91339 66.37946 36.28216
#
# Poissons Ratio (x) = 0.47877 0.16442
# Poissons Ratio (y) = 0.71342 -0.13128
# Poissons Ratio (z) = 0.44826 -0.24017
#
# Static dielectric constant tensor:
#      x y z
#    x 1.919360 0.000000 0.000000 
#    y 0.000000 1.870940 0.000000 
#    z 0.000000 0.000000 1.911330 
# 
# From -- ./inp_files/11966.got.cif
#   From: 2010.05.17/outbox.cif.g08.bks.cpg/sg46_6_cif.got.tgz:11966.got - 2010.06.03 19:58:25.
