data_PCOD9379826
_publ_section_title
;
Structure prediction by ZEFSAII (Michael W. Deem and Ramdas Pophale) SiO2 
 PCOD9379826
Probable space group: I M A 2
;
_chemical_formula_sum "Si O2"
_cell_formula_units_Z 64
_cell_length_a 14.245830
_cell_length_b 21.432238
_cell_length_c 9.887928
_cell_angle_alpha 90.000000
_cell_angle_beta 90.000000
_cell_angle_gamma 90.000000
_cell_volume 3018.982365
_symmetry_space_group_name_H-M "I M A 2"
_symmetry_group_IT_number 46
_symmetry_cell_setting 'orthorhombic'
loop_
_space_group_symop_operation_xyz
x,y,z
-x,-y,z
1/2-x,y,z
1/2+x,-y,z
1/2+x,1/2+y,1/2+z
1/2-x,1/2-y,1/2+z
-x,1/2+y,1/2+z
x,1/2-y,1/2+z
loop_
_atom_site_type_symbol
_atom_site_label
_atom_site_fract_x
_atom_site_fract_y
_atom_site_fract_z
Si Si1 0.139221 0.678919 0.046890
Si Si2 0.638123 0.207333 0.244071
Si Si3 0.550040 0.863029 0.576731
Si Si4 0.898495 0.979893 0.095486
Si Si5 0.864078 0.723968 0.573590
Si Si6 0.854988 0.625048 0.801213
Si Si7 0.356382 0.883898 0.009527
Si Si8 0.448266 0.377124 0.378240
O O1 0.250000 0.663384 0.046773
O O2 0.120921 0.729997 0.162039
O O3 0.062196 0.626962 0.072485
O O4 0.109454 0.705930 0.899563
O O5 0.750000 0.200332 0.251115
O O6 0.608186 0.151510 0.145108
O O7 0.584378 0.790333 0.575217
O O8 0.589468 0.888715 0.437028
O O9 0.580498 0.886122 0.723652
O O10 0.852602 0.935577 0.206054
O O11 0.915930 0.935971 0.966458
O O12 0.000000 0.000000 0.150158
O O13 0.851381 0.043546 0.047940
O O14 0.750000 0.729870 0.570498
O O15 0.889864 0.682315 0.706503
O O16 0.899675 0.683372 0.445806
O O17 0.750000 0.642724 0.842686
O O18 0.250000 0.861474 0.973153
O O19 0.438622 0.872654 0.901046
#
# Coordination Sequence:
#
# PCOD9379826 Si02
#       8
#     8   8   8   8   8   8   8   8
#     4  10  23  37  55  88 128 163 192 234 294 354
#     4   9  20  36  57  85 119 155 193 233 284 348
#     4  12  24  34  60  87 125 160 195 245 296 357
#     4   9  20  40  66  85 114 153 203 250 291 354
#     4  10  22  40  61  86 119 161 205 242 287 356
#     4  10  22  40  61  88 120 155 198 249 304 345
#     4  10  20  38  68  92 112 152 206 244 287 356
#     4  10  23  39  58  90 121 157 197 247 300 346
#
# _framework density 21.199196000000001
#
# number of rings (size 3 to 8) (size 9 to 14) (size 15 to 20)
#    0.000    2.000    0.000    2.250   10.500    3.000 
#    0.000    1.875    0.000    0.000    0.000    0.000 
#    0.000    0.000    0.000    0.000    0.000    0.000 
#
# Total GULP energy -178622.754203 kJ/mol
# GULP energy per Si atom -5581.961069 kJ/mol
# Density = 2.115095 g / cm^3
# Si number density = 21.199196 Si / 1000 Ang^3
#
#
#
# Elastic Constant Matrix: (Units=GPa)
#
#
# Indices 1 2 3 4 5 6 
#
# 1 103.3339 11.9387 26.7718 0.0000 0.0000 0.0000
# 2 11.9387 38.4081 7.4566 0.0000 0.0000 0.0000
# 3 26.7718 7.4566 139.8303 -0.0001 0.0000 0.0000
# 4 0.0000 0.0000 -0.0001 4.2568 0.0000 0.0000
# 5 0.0000 0.0000 0.0000 0.0000 20.4722 0.0000
# 6 0.0000 0.0000 0.0000 0.0000 0.0000 13.8138
#
#
#
# Elastic Compliance Matrix: (Units=1/GPa)
#
#
# Indices 1 2 3 4 5 6 
#
# 1 0.010493 -0.002902 -0.001854 0.000000 0.000000 0.000000
# 2 -0.002902 0.027111 -0.000890 0.000000 0.000000 0.000000
# 3 -0.001854 -0.000890 0.007554 0.000000 0.000000 0.000000
# 4 0.000000 0.000000 0.000000 0.234917 0.000000 0.000000
# 5 0.000000 0.000000 0.000000 0.000000 0.048847 0.000000
# 6 0.000000 0.000000 0.000000 0.000000 0.000000 0.072392
#
#
# Mechanical properties :
#
#
# Convention : Reuss Voigt Hill
#
# Bulk Modulus (GPa) = 29.52830 41.54516 35.53673
# Shear Modulus (GPa) = 11.79542 23.40224 17.59883
#
# Velocity S-wave (km/s) = 2.36139 3.32614 2.88438
# Velocity P-wave (km/s) = 4.62538 5.86438 5.28134
#
# Compressibility (1/GPa) = 0.03386582
#
# Stress axis : x y z
#
# Youngs Moduli (GPa) = 95.30154 36.88549 132.38003
#
# Poissons Ratio (x) = 0.10703 0.24547
# Poissons Ratio (y) = 0.27653 0.11784
# Poissons Ratio (z) = 0.17671 0.03283
#
# Static dielectric constant tensor:
#      x y z
#    x 1.821430 0.000000 0.000000 
#    y 0.000000 1.790990 0.000000 
#    z 0.000000 0.000000 1.773060 
# 
# From -- ./inp_files/6076.got.cif
#   From: 2010.05.17/outbox.cif.g08.bks.cpg/sg46_4_cif.got.tgz:6076.got - 2010.06.03 19:58:25.
