data_PCOD9379829
_publ_section_title
;
Structure prediction by ZEFSAII (Michael W. Deem and Ramdas Pophale) SiO2 
 PCOD9379829
Probable space group: I M A 2
;
_chemical_formula_sum "Si O2"
_cell_formula_units_Z 48
_cell_length_a 17.486827
_cell_length_b 14.773953
_cell_length_c 10.118362
_cell_angle_alpha 90.000000
_cell_angle_beta 90.000000
_cell_angle_gamma 90.000000
_cell_volume 2614.074373
_symmetry_space_group_name_H-M "I M A 2"
_symmetry_group_IT_number 46
_symmetry_cell_setting 'orthorhombic'
loop_
_space_group_symop_operation_xyz
x,y,z
-x,-y,z
1/2-x,y,z
1/2+x,-y,z
1/2+x,1/2+y,1/2+z
1/2-x,1/2-y,1/2+z
-x,1/2+y,1/2+z
x,1/2-y,1/2+z
loop_
_atom_site_type_symbol
_atom_site_label
_atom_site_fract_x
_atom_site_fract_y
_atom_site_fract_z
Si Si1 0.130377 0.328369 0.913190
Si Si2 0.630345 0.672386 0.220504
Si Si3 0.250000 0.635854 0.068116
Si Si4 0.750000 0.519528 0.853848
Si Si5 0.878848 0.288304 0.566732
Si Si6 0.250000 0.020513 0.780973
Si Si7 0.482176 0.749395 0.816742
Si Si8 0.250000 0.560079 0.566796
O O1 0.162700 0.250552 0.816528
O O2 0.176239 0.420133 0.890614
O O3 0.040871 0.326831 0.872601
O O4 0.137150 0.302499 0.066722
O O5 0.676218 0.580701 0.243832
O O6 0.540853 0.674179 0.261277
O O7 0.323649 0.700708 0.068179
O O8 0.250000 0.570873 0.195441
O O9 0.250000 0.571498 0.940106
O O10 0.750000 0.497404 0.699915
O O11 0.931138 0.285668 0.696809
O O12 0.930706 0.284337 0.436210
O O13 0.823861 0.374832 0.566056
O O14 0.250000 0.998862 0.935058
#
# Coordination Sequence:
#
# PCOD9379829 Si02
#       8
#     8   8   4   4   8   4   8   4
#     4  10  21  39  66  95 123 163 191 247 315 365
#     4  10  21  39  66  95 123 163 191 247 315 365
#     4  11  24  40  67  84 122 168 205 264 282 361
#     4  12  23  41  61 100 125 151 213 246 308 359
#     4  11  22  46  62  85 120 168 218 239 306 356
#     4  12  23  41  61 100 125 151 213 246 308 359
#     4  10  20  38  70  90 118 164 200 250 300 378
#     4  11  28  40  63  86 122 172 203 262 290 353
#
# _framework density 18.362141000000001
#
# number of rings (size 3 to 8) (size 9 to 14) (size 15 to 20)
#    1.000    0.333    3.333    2.500    2.333    2.667 
#    0.000   10.000    0.000    0.000    0.000    0.000 
#    0.000    0.000    0.000    0.000    0.000    0.000 
#
# Total GULP energy -133879.680273 kJ/mol
# GULP energy per Si atom -5578.320011 kJ/mol
# Density = 1.832035 g / cm^3
# Si number density = 18.362141 Si / 1000 Ang^3
#
#
#
# Elastic Constant Matrix: (Units=GPa)
#
#
# Indices 1 2 3 4 5 6 
#
# 1 131.0544 39.4210 74.6694 0.0000 0.0000 0.0000
# 2 39.4210 71.7117 61.8317 0.0000 0.0000 0.0000
# 3 74.6694 61.8317 238.3693 0.0000 0.0000 0.0000
# 4 0.0000 0.0000 0.0000 24.3783 0.0000 0.0000
# 5 0.0000 0.0000 0.0000 0.0000 -93.1931 0.0000
# 6 0.0000 0.0000 0.0000 0.0000 0.0000 -11.2665
#
#
#
# Elastic Compliance Matrix: (Units=1/GPa)
#
#
# Indices 1 2 3 4 5 6 
#
# 1 0.009956 -0.003586 -0.002189 0.000000 0.000000 0.000000
# 2 -0.003586 0.019254 -0.003871 0.000000 0.000000 0.000000
# 3 -0.002189 -0.003871 0.005885 0.000000 0.000000 0.000000
# 4 0.000000 0.000000 0.000000 0.041020 0.000000 0.000000
# 5 0.000000 0.000000 0.000000 0.000000 -0.010730 0.000000
# 6 0.000000 0.000000 0.000000 0.000000 0.000000 -0.088758
#
#
# Mechanical properties :
#
#
# Convention : Reuss Voigt Hill
#
# Bulk Modulus (GPa) = 63.27700 88.10885 75.69292
# Shear Modulus (GPa) = 4221.22756 1.66463 2111.44609
#
# Velocity S-wave (km/s) = 47.99861 0.95316 33.94683
# Velocity P-wave (km/s) = 55.73470 7.02136 39.72189
#
# Compressibility (1/GPa) = 0.01580353
#
# Stress axis : x y z
#
# Youngs Moduli (GPa) = 100.44181 51.93822 169.92782
#
# Poissons Ratio (x) = 0.18625 0.37190
# Poissons Ratio (y) = 0.36018 0.65779
# Poissons Ratio (z) = 0.21982 0.20105
#
# Static dielectric constant tensor:
#      x y z
#    x 1.644530 0.000000 0.000000 
#    y 0.000000 1.596580 0.000000 
#    z 0.000000 0.000000 1.594130 
# 
# From -- ./inp_files/6658.got.cif
#   From: 2010.05.17/outbox.cif.g08.bks.cpg/sg46_4_cif.got.tgz:6658.got - 2010.06.03 19:58:25.
