data_PCOD9379040
_publ_section_title
;
Structure prediction by ZEFSAII (Michael W. Deem and Ramdas Pophale) SiO2 
 PCOD9379040
Probable space group: I M A 2
;
_chemical_formula_sum "Si O2"
_cell_formula_units_Z 64
_cell_length_a 16.959040
_cell_length_b 8.806402
_cell_length_c 21.889156
_cell_angle_alpha 90.000000
_cell_angle_beta 90.000000
_cell_angle_gamma 90.000000
_cell_volume 3269.104380
_symmetry_space_group_name_H-M "I M A 2"
_symmetry_group_IT_number 46
_symmetry_cell_setting 'orthorhombic'
loop_
_space_group_symop_operation_xyz
x,y,z
-x,-y,z
1/2-x,y,z
1/2+x,-y,z
1/2+x,1/2+y,1/2+z
1/2-x,1/2-y,1/2+z
-x,1/2+y,1/2+z
x,1/2-y,1/2+z
loop_
_atom_site_type_symbol
_atom_site_label
_atom_site_fract_x
_atom_site_fract_y
_atom_site_fract_z
Si Si1 0.411350 0.930068 0.847540
Si Si2 0.343476 0.572526 0.106103
Si Si3 0.912600 0.066283 0.477939
Si Si4 0.344388 0.919490 0.108896
Si Si5 0.412496 0.567167 0.480288
Si Si6 0.156043 0.394699 0.729543
Si Si7 0.411928 0.430480 0.225947
Si Si8 0.588633 0.066098 0.342937
O O1 0.415490 0.748662 0.841196
O O2 0.500000 0.000000 0.849177
O O3 0.372780 0.994270 0.786112
O O4 0.375953 0.972515 0.913878
O O5 0.250000 0.577440 0.108618
O O6 0.367944 0.516721 0.038933
O O7 0.374105 0.745736 0.114866
O O8 0.373834 0.473020 0.161659
O O9 0.915539 0.249495 0.480045
O O10 0.880330 0.023319 0.410916
O O11 0.000000 0.000000 0.481220
O O12 0.250000 0.913238 0.108935
O O13 0.370530 0.980404 0.042790
O O14 0.367233 0.018109 0.167330
O O15 0.500000 0.500000 0.482127
O O16 0.250000 0.355907 0.726384
O O17 0.100319 0.247983 0.735054
O O18 0.140000 0.500460 0.788002
O O19 0.500000 0.500000 0.223457
O O20 0.500000 0.000000 0.337629
#
# Coordination Sequence:
#
# PCOD9379040 Si02
#       8
#     8   8   8   8   8   8   8   8
#     4   9  18  34  56  84 112 140 181 232 281 329
#     4  10  20  36  56  79 111 149 188 232 285 342
#     4   9  19  34  55  83 111 142 184 231 277 333
#     4   9  20  37  54  76 108 144 181 224 277 336
#     4   9  18  33  56  81 106 138 178 226 275 328
#     4  11  24  40  57  83 119 153 191 241 292 342
#     4  11  22  37  57  81 111 148 191 238 286 341
#     4  10  19  35  60  85 112 148 190 234 282 341
#
# _framework density 19.577227000000001
#
# number of rings (size 3 to 8) (size 9 to 14) (size 15 to 20)
#    0.000    2.250    0.000    3.000    0.000    5.000 
#    0.000    3.750    0.000    1.500    0.000    0.000 
#    0.000    0.000    0.000    0.000    0.000    0.000 
#
# Total GULP energy -178396.238214 kJ/mol
# GULP energy per Si atom -5574.882444 kJ/mol
# Density = 1.953267 g / cm^3
# Si number density = 19.577227 Si / 1000 Ang^3
#
#
#
# Elastic Constant Matrix: (Units=GPa)
#
#
# Indices 1 2 3 4 5 6 
#
# 1 22.8143 14.5849 28.8321 0.0000 0.0000 0.0000
# 2 14.5849 60.4937 56.5149 0.0000 0.0000 0.0000
# 3 28.8321 56.5149 196.1990 0.0000 0.0000 0.0000
# 4 0.0000 0.0000 0.0000 36.1020 0.0000 0.0000
# 5 0.0000 0.0000 0.0000 0.0000 2730.2766 0.0000
# 6 0.0000 0.0000 0.0000 0.0000 0.0000 19.6138
#
#
#
# Elastic Compliance Matrix: (Units=1/GPa)
#
#
# Indices 1 2 3 4 5 6 
#
# 1 0.056544 -0.008031 -0.005996 0.000000 0.000000 0.000000
# 2 -0.008031 0.023758 -0.005663 0.000000 0.000000 0.000000
# 3 -0.005996 -0.005663 0.007609 0.000000 0.000000 0.000000
# 4 0.000000 0.000000 0.000000 0.027699 0.000000 0.000000
# 5 0.000000 0.000000 0.000000 0.000000 0.000366 0.000000
# 6 0.000000 0.000000 0.000000 0.000000 0.000000 0.050984
#
#
# Mechanical properties :
#
#
# Convention : Reuss Voigt Hill
#
# Bulk Modulus (GPa) = 20.60564 53.26340 36.93452
# Shear Modulus (GPa) = 22.47015 569.17016 295.82015
#
# Velocity S-wave (km/s) = 3.39155 17.06933 12.30578
# Velocity P-wave (km/s) = 5.08773 20.38991 14.85990
#
# Compressibility (1/GPa) = 0.04853040
#
# Stress axis : x y z
#
# Youngs Moduli (GPa) = 17.68543 42.09187 131.41875
#
# Poissons Ratio (x) = 0.33804 0.78799
# Poissons Ratio (y) = 0.14203 0.74425
# Poissons Ratio (z) = 0.10604 0.23837
#
# Static dielectric constant tensor:
#      x y z
#    x 1.661880 0.000000 0.000000 
#    y 0.000000 1.685680 0.000000 
#    z 0.000000 0.000000 1.731610 
# 
# From -- ./inp_files/20242.got.cif
#   From: 2010.05.17/outbox.cif.g08.bks.cpg/sg46_11_cif.got.tgz:20242.got - 2010.06.03 19:58:25.
