data_PCOD9379151
_publ_section_title
;
Structure prediction by ZEFSAII (Michael W. Deem and Ramdas Pophale) SiO2 
 PCOD9379151
Probable space group: I M A 2
;
_chemical_formula_sum "Si O2"
_cell_formula_units_Z 48
_cell_length_a 10.243697
_cell_length_b 8.695157
_cell_length_c 28.936508
_cell_angle_alpha 90.000000
_cell_angle_beta 90.000000
_cell_angle_gamma 90.000000
_cell_volume 2577.390789
_symmetry_space_group_name_H-M "I M A 2"
_symmetry_group_IT_number 46
_symmetry_cell_setting 'orthorhombic'
loop_
_space_group_symop_operation_xyz
x,y,z
-x,-y,z
1/2-x,y,z
1/2+x,-y,z
1/2+x,1/2+y,1/2+z
1/2-x,1/2-y,1/2+z
-x,1/2+y,1/2+z
x,1/2-y,1/2+z
loop_
_atom_site_type_symbol
_atom_site_label
_atom_site_fract_x
_atom_site_fract_y
_atom_site_fract_z
Si Si1 0.750000 0.303896 0.830850
Si Si2 0.250000 0.322886 0.828520
Si Si3 0.404198 0.143838 0.570990
Si Si4 0.750000 0.308654 0.722426
Si Si5 0.996013 0.685999 0.888955
Si Si6 0.403949 0.143703 0.980722
Si Si7 0.495239 0.315191 0.170951
Si Si8 0.750000 0.678964 0.723679
O O1 0.750000 0.490557 0.828146
O O2 0.750000 0.255023 0.776687
O O3 0.624855 0.261196 0.861662
O O4 0.123089 0.272988 0.855673
O O5 0.250000 0.268800 0.776481
O O6 0.250000 0.101439 0.579680
O O7 0.406254 0.254747 0.527088
O O8 0.464843 0.219775 0.617186
O O9 0.500000 0.000000 0.561444
O O10 0.625196 0.250530 0.694033
O O11 0.750000 0.493976 0.722669
O O12 0.964319 0.760576 0.938043
O O13 0.000000 0.500000 0.894156
O O14 0.250000 0.105506 0.971621
O O15 0.500000 0.000000 0.986889
O O16 0.500000 0.500000 0.173965
O O17 0.376215 0.245110 0.199099
#
# Coordination Sequence:
#
# PCOD9379151 Si02
#       8
#     4   4   8   4   8   8   8   4
#     4   9  20  35  60  93 122 155 218 257 298 361
#     4   9  18  35  60  87 120 161 208 261 298 355
#     4  10  23  44  68  92 120 161 210 252 302 373
#     4  11  23  39  64  95 126 169 216 263 310 371
#     4  10  19  38  64  89 116 163 210 257 301 359
#     4  11  25  43  61  92 129 160 198 255 318 371
#     4  11  23  41  62  93 128 167 207 261 317 371
#     4  11  21  39  64  91 126 165 214 263 312 371
#
# _framework density 18.623486
#
# number of rings (size 3 to 8) (size 9 to 14) (size 15 to 20)
#    0.000    1.667    1.667    2.500    4.667    4.667 
#    0.000    5.000    0.000    0.000    0.000    0.000 
#    0.000    0.000    0.000    0.000    0.000    0.000 
#
# Total GULP energy -133934.126148 kJ/mol
# GULP energy per Si atom -5580.588590 kJ/mol
# Density = 1.858110 g / cm^3
# Si number density = 18.623486 Si / 1000 Ang^3
#
#
#
# Elastic Constant Matrix: (Units=GPa)
#
#
# Indices 1 2 3 4 5 6 
#
# 1 205.1783 46.0254 99.1080 0.0000 0.0000 0.0000
# 2 46.0254 43.7024 53.9609 0.0000 0.0000 0.0000
# 3 99.1080 53.9609 177.7642 0.0000 0.0000 0.0000
# 4 0.0000 0.0000 0.0000 31.8497 0.0000 0.0000
# 5 0.0000 0.0000 0.0000 0.0000 40.8204 0.0000
# 6 0.0000 0.0000 0.0000 0.0000 0.0000 40.5168
#
#
#
# Elastic Compliance Matrix: (Units=1/GPa)
#
#
# Indices 1 2 3 4 5 6 
#
# 1 0.007111 -0.004149 -0.002705 0.000000 0.000000 0.000000
# 2 -0.004149 0.039021 -0.009532 0.000000 0.000000 0.000000
# 3 -0.002705 -0.009532 0.010027 0.000000 0.000000 0.000000
# 4 0.000000 0.000000 0.000000 0.031397 0.000000 0.000000
# 5 0.000000 0.000000 0.000000 0.000000 0.024498 0.000000
# 6 0.000000 0.000000 0.000000 0.000000 0.000000 0.024681
#
#
# Mechanical properties :
#
#
# Convention : Reuss Voigt Hill
#
# Bulk Modulus (GPa) = 42.75856 91.64815 67.20336
# Shear Modulus (GPa) = 28.20037 37.80743 33.00390
#
# Velocity S-wave (km/s) = 3.89554 4.51054 4.21428
# Velocity P-wave (km/s) = 6.57594 8.74326 7.73588
#
# Compressibility (1/GPa) = 0.02338713
#
# Stress axis : x y z
#
# Youngs Moduli (GPa) = 140.62266 25.62744 99.73007
#
# Poissons Ratio (x) = 0.10633 0.26980
# Poissons Ratio (y) = 0.58344 0.95060
# Poissons Ratio (z) = 0.38042 0.24427
#
# Static dielectric constant tensor:
#      x y z
#    x 1.593570 0.000000 0.000000 
#    y 0.000000 1.632680 0.000000 
#    z 0.000000 0.000000 1.627200 
# 
# From -- ./inp_files/25076.got.cif
#   From: 2010.05.17/outbox.cif.g08.bks.cpg/sg46_13_cif.got.tgz:25076.got - 2010.06.03 19:58:25.
