data_PCOD9379140
_publ_section_title
;
Structure prediction by ZEFSAII (Michael W. Deem and Ramdas Pophale) SiO2 
 PCOD9379140
Probable space group: I M A 2
;
_chemical_formula_sum "Si O2"
_cell_formula_units_Z 56
_cell_length_a 17.457419
_cell_length_b 12.171963
_cell_length_c 15.103895
_cell_angle_alpha 90.000000
_cell_angle_beta 90.000000
_cell_angle_gamma 90.000000
_cell_volume 3209.442631
_symmetry_space_group_name_H-M "I M A 2"
_symmetry_group_IT_number 46
_symmetry_cell_setting 'orthorhombic'
loop_
_space_group_symop_operation_xyz
x,y,z
-x,-y,z
1/2-x,y,z
1/2+x,-y,z
1/2+x,1/2+y,1/2+z
1/2-x,1/2-y,1/2+z
-x,1/2+y,1/2+z
x,1/2-y,1/2+z
loop_
_atom_site_type_symbol
_atom_site_label
_atom_site_fract_x
_atom_site_fract_y
_atom_site_fract_z
Si Si1 0.899073 0.151795 0.501400
Si Si2 0.658750 0.445557 0.315458
Si Si3 0.602089 0.359070 0.617118
Si Si4 0.587016 0.535757 0.141711
Si Si5 0.341857 0.805555 0.309554
Si Si6 0.342215 0.057748 0.997237
Si Si7 0.048868 0.256446 0.557475
O O1 0.865205 0.253377 0.560689
O O2 0.865585 0.143773 0.403702
O O3 0.989154 0.186644 0.496628
O O4 0.890365 0.041572 0.558737
O O5 0.750000 0.438416 0.322353
O O6 0.636764 0.506553 0.226214
O O7 0.629509 0.320826 0.312611
O O8 0.632258 0.507691 0.403067
O O9 0.625695 0.355743 0.719180
O O10 0.631600 0.468308 0.569892
O O11 0.510902 0.337644 0.607315
O O12 0.500000 0.500000 0.163082
O O13 0.586189 0.663703 0.118766
O O14 0.250000 0.806946 0.303348
O O15 0.250000 0.070065 0.999430
O O16 0.386896 0.170776 0.012239
#
# Coordination Sequence:
#
# PCOD9379140 Si02
#       7
#     8   8   8   8   8   8   8
#     4   9  20  35  57  83 114 144 191 229 291 328
#     4  10  20  32  55  84 110 142 191 234 284 332
#     4  10  20  36  57  83 114 145 189 232 288 335
#     4  10  19  38  57  83 112 147 187 236 273 337
#     4  11  20  33  55  89 118 149 187 238 288 335
#     4  11  22  38  57  84 116 150 187 240 285 340
#     4   9  21  38  58  78 115 149 194 227 290 342
#
# _framework density 17.448512999999998
#
# number of rings (size 3 to 8) (size 9 to 14) (size 15 to 20)
#    0.857    1.143    2.857    0.857    0.000    5.143 
#    0.000    5.714    0.000    1.714    0.000    0.000 
#    0.000    0.000    0.000    0.000    0.000    0.000 
#
# Total GULP energy -155978.768529 kJ/mol
# GULP energy per Si atom -5570.670305 kJ/mol
# Density = 1.740880 g / cm^3
# Si number density = 17.448513 Si / 1000 Ang^3
#
#
#
# Elastic Constant Matrix: (Units=GPa)
#
#
# Indices 1 2 3 4 5 6 
#
# 1 31.0689 24.2625 31.2979 0.0000 0.0000 0.0000
# 2 24.2625 63.2829 34.3962 0.0000 0.0000 0.0000
# 3 31.2979 34.3962 124.8612 0.0000 0.0000 0.0000
# 4 0.0000 0.0000 0.0000 1.4829 0.0000 0.0000
# 5 0.0000 0.0000 0.0000 0.0000 24.7570 0.0000
# 6 0.0000 0.0000 0.0000 0.0000 0.0000 18.3879
#
#
#
# Elastic Compliance Matrix: (Units=1/GPa)
#
#
# Indices 1 2 3 4 5 6 
#
# 1 0.053541 -0.015563 -0.009133 0.000000 0.000000 0.000000
# 2 -0.015563 0.023109 -0.002465 0.000000 0.000000 0.000000
# 3 -0.009133 -0.002465 0.010977 0.000000 0.000000 0.000000
# 4 0.000000 0.000000 0.000000 0.674353 0.000000 0.000000
# 5 0.000000 0.000000 0.000000 0.000000 0.040393 0.000000
# 6 0.000000 0.000000 0.000000 0.000000 0.000000 0.054384
#
#
# Mechanical properties :
#
#
# Convention : Reuss Voigt Hill
#
# Bulk Modulus (GPa) = 30.02628 44.34737 37.18682
# Shear Modulus (GPa) = 5.42193 17.54264 11.48229
#
# Velocity S-wave (km/s) = 1.76469 3.17424 2.56806
# Velocity P-wave (km/s) = 4.62580 6.23744 5.49107
#
# Compressibility (1/GPa) = 0.03330416
#
# Stress axis : x y z
#
# Youngs Moduli (GPa) = 18.67728 43.27394 91.09736
#
# Poissons Ratio (x) = 0.67348 0.83203
# Poissons Ratio (y) = 0.29068 0.22453
# Poissons Ratio (z) = 0.17059 0.10666
#
# Static dielectric constant tensor:
#      x y z
#    x 1.603440 0.000000 0.000000 
#    y 0.000000 1.603090 0.000000 
#    z 0.000000 0.000000 1.585120 
# 
# From -- ./inp_files/12398.got.cif
#   From: 2010.05.17/outbox.cif.g08.bks.cpg/sg46_7_cif.got.tgz:12398.got - 2010.06.03 19:58:25.
