data_PCOD9379295
_publ_section_title
;
Structure prediction by ZEFSAII (Michael W. Deem and Ramdas Pophale) SiO2 
 PCOD9379295
Probable space group: I M A 2
;
_chemical_formula_sum "Si O2"
_cell_formula_units_Z 64
_cell_length_a 8.606976
_cell_length_b 14.985322
_cell_length_c 28.825290
_cell_angle_alpha 90.000000
_cell_angle_beta 90.000000
_cell_angle_gamma 90.000000
_cell_volume 3717.837097
_symmetry_space_group_name_H-M "I M A 2"
_symmetry_group_IT_number 46
_symmetry_cell_setting 'orthorhombic'
loop_
_space_group_symop_operation_xyz
x,y,z
-x,-y,z
1/2-x,y,z
1/2+x,-y,z
1/2+x,1/2+y,1/2+z
1/2-x,1/2-y,1/2+z
-x,1/2+y,1/2+z
x,1/2-y,1/2+z
loop_
_atom_site_type_symbol
_atom_site_label
_atom_site_fract_x
_atom_site_fract_y
_atom_site_fract_z
Si Si1 0.566302 0.592737 0.978970
Si Si2 0.064363 0.211009 0.010219
Si Si3 0.937182 0.098335 0.199643
Si Si4 0.065947 0.168068 0.382017
Si Si5 0.437326 0.591646 0.318837
Si Si6 0.931674 0.350311 0.417170
Si Si7 0.436252 0.598761 0.593870
Si Si8 0.438048 0.709983 0.787941
O O1 0.500000 0.500000 0.997251
O O2 0.750000 0.591912 0.986654
O O3 0.541710 0.598051 0.923211
O O4 0.508034 0.687213 0.999975
O O5 0.250000 0.213129 0.012105
O O6 0.997494 0.169339 0.056824
O O7 0.016104 0.149225 0.966408
O O8 0.750000 0.094599 0.199884
O O9 0.985971 0.119871 0.146857
O O10 0.984513 0.169524 0.238507
O O11 0.000000 0.000000 0.211060
O O12 0.250000 0.192087 0.383226
O O13 0.959575 0.250373 0.398283
O O14 0.014248 0.152288 0.329449
O O15 0.500000 0.500000 0.297541
O O16 0.250000 0.589759 0.319120
O O17 0.491898 0.595495 0.372725
O O18 0.483597 0.685914 0.295391
O O19 0.750000 0.368646 0.424057
O O20 0.500000 0.500000 0.582828
O O21 0.250000 0.596439 0.592163
O O22 0.250000 0.705443 0.792214
#
# Coordination Sequence:
#
# PCOD9379295 Si02
#       8
#     8   8   8   8   8   8   8   8
#     4   9  19  32  47  69  99 133 167 202 240 281
#     4  10  20  34  51  74 102 130 163 207 249 293
#     4   9  19  35  54  75  99 124 157 200 248 300
#     4   9  17  29  44  67  96 126 162 203 240 277
#     4   9  18  30  46  68  96 129 164 198 234 276
#     4   9  17  30  46  66  93 128 165 199 238 285
#     4  10  20  35  55  77  98 126 160 200 252 306
#     4   9  18  33  50  70  97 130 163 199 243 294
#
# _framework density 17.214310999999999
#
# number of rings (size 3 to 8) (size 9 to 14) (size 15 to 20)
#    0.000    2.750    0.000    3.000    0.000    7.500 
#    0.000    3.750    0.000    0.750    0.000    3.500 
#    0.000    0.000    0.000    0.000    0.000    0.000 
#
# Total GULP energy -178159.653807 kJ/mol
# GULP energy per Si atom -5567.489181 kJ/mol
# Density = 1.717513 g / cm^3
# Si number density = 17.214311 Si / 1000 Ang^3
#
#
#
# Elastic Constant Matrix: (Units=GPa)
#
#
# Indices 1 2 3 4 5 6 
#
# 1 17.0878 25.9750 26.0297 0.0000 0.0000 0.0000
# 2 25.9750 106.5134 74.0344 0.0000 0.0000 0.0000
# 3 26.0297 74.0344 116.0847 0.0000 0.0000 0.0000
# 4 0.0000 0.0000 0.0000 21.1145 0.0000 0.0000
# 5 0.0000 0.0000 0.0000 0.0000 16.6957 0.0000
# 6 0.0000 0.0000 0.0000 0.0000 0.0000 23.6272
#
#
#
# Elastic Compliance Matrix: (Units=1/GPa)
#
#
# Indices 1 2 3 4 5 6 
#
# 1 0.102363 -0.016183 -0.012632 0.000000 0.000000 0.000000
# 2 -0.016183 0.019423 -0.008758 0.000000 0.000000 0.000000
# 3 -0.012632 -0.008758 0.017033 0.000000 0.000000 0.000000
# 4 0.000000 0.000000 0.000000 0.047361 0.000000 0.000000
# 5 0.000000 0.000000 0.000000 0.000000 0.059896 0.000000
# 6 0.000000 0.000000 0.000000 0.000000 0.000000 0.042324
#
#
# Mechanical properties :
#
#
# Convention : Reuss Voigt Hill
#
# Bulk Modulus (GPa) = 15.70548 54.64043 35.17296
# Shear Modulus (GPa) = 12.99479 19.86392 16.42935
#
# Velocity S-wave (km/s) = 2.75049 3.40062 3.09269
# Velocity P-wave (km/s) = 4.38523 6.87235 5.76452
#
# Compressibility (1/GPa) = 0.06367203
#
# Stress axis : x y z
#
# Youngs Moduli (GPa) = 9.76913 51.48650 58.71077
#
# Poissons Ratio (x) = 0.83319 0.74165
# Poissons Ratio (y) = 0.15809 0.51421
# Poissons Ratio (z) = 0.12341 0.45094
#
# Static dielectric constant tensor:
#      x y z
#    x 1.584950 0.000000 0.000000 
#    y 0.000000 1.592330 0.000000 
#    z 0.000000 0.000000 1.602500 
# 
# From -- ./inp_files/23146.got.cif
#   From: 2010.05.17/outbox.cif.g08.bks.cpg/sg46_12_cif.got.tgz:23146.got - 2010.06.03 19:58:25.
