data_PCOD9379103
_publ_section_title
;
Structure prediction by ZEFSAII (Michael W. Deem and Ramdas Pophale) SiO2 
 PCOD9379103
Probable space group: I M A 2
;
_chemical_formula_sum "Si O2"
_cell_formula_units_Z 64
_cell_length_a 14.902862
_cell_length_b 7.822477
_cell_length_c 24.834641
_cell_angle_alpha 90.000000
_cell_angle_beta 90.000000
_cell_angle_gamma 90.000000
_cell_volume 2895.155276
_symmetry_space_group_name_H-M "I M A 2"
_symmetry_group_IT_number 46
_symmetry_cell_setting 'orthorhombic'
loop_
_space_group_symop_operation_xyz
x,y,z
-x,-y,z
1/2-x,y,z
1/2+x,-y,z
1/2+x,1/2+y,1/2+z
1/2-x,1/2-y,1/2+z
-x,1/2+y,1/2+z
x,1/2-y,1/2+z
loop_
_atom_site_type_symbol
_atom_site_label
_atom_site_fract_x
_atom_site_fract_y
_atom_site_fract_z
Si Si1 0.359052 0.459332 0.703640
Si Si2 0.641858 0.420125 0.587772
Si Si3 0.394255 0.535831 0.086563
Si Si4 0.858142 0.079875 0.319508
Si Si5 0.105745 0.964169 0.820717
Si Si6 0.645944 0.779098 0.394978
Si Si7 0.645944 0.779098 0.012302
Si Si8 0.603429 0.557690 0.203640
O O1 0.250000 0.459989 0.703640
O O2 0.390651 0.549665 0.648947
O O3 0.390652 0.549665 0.758332
O O4 0.388413 0.262147 0.703640
O O5 0.750000 0.436688 0.589904
O O6 0.620623 0.229740 0.569111
O O7 0.606521 0.569397 0.548892
O O8 0.500000 0.500000 0.088501
O O9 0.355613 0.394401 0.046629
O O10 0.357359 0.510576 0.147363
O O11 0.750000 0.063311 0.317376
O O12 0.879377 0.270260 0.338169
O O13 0.893479 0.930604 0.358388
O O14 0.142641 0.989424 0.759917
O O15 0.144386 0.105601 0.860650
O O16 0.000000 0.000000 0.818778
O O17 0.750000 0.828344 0.404371
O O18 0.603563 0.750000 0.453640
O O19 0.750000 0.828345 0.002909
O O20 0.500000 0.500000 0.203640
#
# Coordination Sequence:
#
# PCOD9379103 Si02
#       8
#     8   8   8   8   8   8   8   8
#     4  10  19  36  64  92 119 156 202 256 304 352
#     4  10  21  38  63  91 118 154 202 253 303 355
#     4  11  23  40  59  92 124 163 199 243 306 368
#     4  10  21  38  63  91 118 154 202 253 303 355
#     4  11  23  40  59  92 124 163 199 243 306 368
#     4  10  22  42  64  87 118 160 208 256 301 351
#     4  10  22  42  64  87 118 160 208 256 301 351
#     4  10  21  38  58  90 125 160 196 233 308 370
#
# _framework density 22.105896000000001
#
# number of rings (size 3 to 8) (size 9 to 14) (size 15 to 20)
#    0.000    1.750    2.500    1.500    0.000    3.000 
#    4.500    6.250    0.000    0.000    0.000    0.000 
#    0.000    0.000    0.000    0.000    0.000    0.000 
#
# Total GULP energy -178905.256971 kJ/mol
# GULP energy per Si atom -5590.789280 kJ/mol
# Density = 2.205558 g / cm^3
# Si number density = 22.105896 Si / 1000 Ang^3
#
#
#
# Elastic Constant Matrix: (Units=GPa)
#
#
# Indices 1 2 3 4 5 6 
#
# 1 43.6516 -17.2243 1.1826 0.0000 0.0000 0.0000
# 2 -17.2243 187.0250 81.9660 0.0000 0.0000 0.0000
# 3 1.1826 81.9660 176.4290 0.0000 0.0000 0.0000
# 4 0.0000 0.0000 0.0000 -8.3026 0.0000 0.0000
# 5 0.0000 0.0000 0.0000 0.0000 -23.9951 0.0000
# 6 0.0000 0.0000 0.0000 0.0000 0.0000 56.8042
#
#
#
# Elastic Compliance Matrix: (Units=1/GPa)
#
#
# Indices 1 2 3 4 5 6 
#
# 1 0.024083 0.002874 -0.001497 0.000000 0.000000 0.000000
# 2 0.002874 0.007057 -0.003298 0.000000 0.000000 0.000000
# 3 -0.001497 -0.003298 0.007210 0.000000 0.000000 0.000000
# 4 0.000000 0.000000 0.000000 -0.120444 0.000000 0.000000
# 5 0.000000 0.000000 0.000000 0.000000 -0.041675 0.000000
# 6 0.000000 0.000000 0.000000 0.000000 0.000000 0.017604
#
#
# Mechanical properties :
#
#
# Convention : Reuss Voigt Hill
#
# Bulk Modulus (GPa) = 28.97775 59.88379 44.43077
# Shear Modulus (GPa) = -55.05363 27.64672 -13.70345
#
# Velocity S-wave (km/s) = -4.99585 3.54029 -2.49248
# Velocity P-wave (km/s) = 4.48788 6.62268 3.44375
#
# Compressibility (1/GPa) = 0.03450924
#
# Stress axis : x y z
#
# Youngs Moduli (GPa) = 41.52271 141.70664 138.69408
#
# Poissons Ratio (x) = -0.40725 0.20757
# Poissons Ratio (y) = -0.11933 0.45738
# Poissons Ratio (z) = 0.06214 0.46731
#
# Static dielectric constant tensor:
#      x y z
#    x 1.865940 0.000000 0.000000 
#    y 0.000000 1.780330 0.000000 
#    z 0.000000 0.000000 1.838540 
# 
# From -- ./inp_files/24734.got.cif
#   From: 2010.05.17/outbox.cif.g08.bks.cpg/sg46_13_cif.got.tgz:24734.got - 2010.06.03 19:58:25.
