data_PCOD9379874
_publ_section_title
;
Structure prediction by ZEFSAII (Michael W. Deem and Ramdas Pophale) SiO2 
 PCOD9379874
Probable space group: I M A 2
;
_chemical_formula_sum "Si O2"
_cell_formula_units_Z 60
_cell_length_a 25.532360
_cell_length_b 12.478623
_cell_length_c 8.003409
_cell_angle_alpha 90.000000
_cell_angle_beta 90.000000
_cell_angle_gamma 90.000000
_cell_volume 2549.955695
_symmetry_space_group_name_H-M "I M A 2"
_symmetry_group_IT_number 46
_symmetry_cell_setting 'orthorhombic'
loop_
_space_group_symop_operation_xyz
x,y,z
-x,-y,z
1/2-x,y,z
1/2+x,-y,z
1/2+x,1/2+y,1/2+z
1/2-x,1/2-y,1/2+z
-x,1/2+y,1/2+z
x,1/2-y,1/2+z
loop_
_atom_site_type_symbol
_atom_site_label
_atom_site_fract_x
_atom_site_fract_y
_atom_site_fract_z
Si Si1 0.805946 0.355813 0.375000
Si Si2 0.389968 0.826124 0.407194
Si Si3 0.191339 0.518791 0.720788
Si Si4 0.492960 0.714448 0.288870
Si Si5 0.395402 0.086877 0.045178
Si Si6 0.431874 0.174772 0.500871
Si Si7 0.377633 0.985065 0.674513
Si Si8 0.500000 0.500000 0.521527
O O1 0.750000 0.300839 0.340347
O O2 0.853464 0.277994 0.418884
O O3 0.801414 0.423294 0.542799
O O4 0.821504 0.431906 0.219360
O O5 0.348465 0.908434 0.326054
O O6 0.440226 0.783570 0.306983
O O7 0.405398 0.884030 0.581966
O O8 0.250000 0.499618 0.789822
O O9 0.155097 0.420905 0.662971
O O10 0.537835 0.803274 0.329982
O O11 0.492231 0.611779 0.415890
O O12 0.517978 0.664714 0.123329
O O13 0.403939 0.211509 0.019836
O O14 0.391937 0.031330 0.858988
O O15 0.445449 0.020948 0.115299
O O16 0.391716 0.081823 0.549832
#
# Coordination Sequence:
#
# PCOD9379874 Si02
#       8
#     8   8   8   8   8   8   8   4
#     4  10  23  44  69  97 133 178 226 285 353 418
#     4  12  26  36  66 104 138 176 232 284 353 419
#     4  10  23  43  65  93 132 178 231 290 346 413
#     4  11  26  38  67  98 140 187 234 281 348 419
#     4  10  23  42  68  91 137 187 230 287 349 417
#     4  11  24  45  64 100 140 187 231 283 343 418
#     4  11  24  45  68 100 141 182 231 284 353 421
#     4  10  20  40  62  94 138 178 224 282 346 414
#
# _framework density 23.529821999999999
#
# number of rings (size 3 to 8) (size 9 to 14) (size 15 to 20)
#    0.000    1.333    2.667    2.800   11.200    2.667 
#    0.000    0.667    0.000    3.200    0.000    0.000 
#    0.000    0.000    0.000    0.000    0.000    0.000 
#
# Total GULP energy -167100.051941 kJ/mol
# GULP energy per Si atom -5570.001731 kJ/mol
# Density = 2.347627 g / cm^3
# Si number density = 23.529822 Si / 1000 Ang^3
#
#
#
# Elastic Constant Matrix: (Units=GPa)
#
#
# Indices 1 2 3 4 5 6 
#
# 1 102.6067 48.3696 14.5323 0.0000 0.0000 0.0000
# 2 48.3696 118.2756 24.0405 0.0000 0.0000 0.0000
# 3 14.5323 24.0405 55.4429 0.0000 0.0000 0.0000
# 4 0.0000 0.0000 0.0000 39.3584 0.0000 0.0000
# 5 0.0000 0.0000 0.0000 0.0000 -24.1459 0.0000
# 6 0.0000 0.0000 0.0000 0.0000 0.0000 18.8989
#
#
#
# Elastic Compliance Matrix: (Units=1/GPa)
#
#
# Indices 1 2 3 4 5 6 
#
# 1 0.012138 -0.004734 -0.001129 0.000000 0.000000 0.000000
# 2 -0.004734 0.011119 -0.003580 0.000000 0.000000 0.000000
# 3 -0.001129 -0.003580 0.019885 0.000000 0.000000 0.000000
# 4 0.000000 0.000000 0.000000 0.025408 0.000000 0.000000
# 5 0.000000 0.000000 0.000000 0.000000 -0.041415 0.000000
# 6 0.000000 0.000000 0.000000 0.000000 0.000000 0.052913
#
#
# Mechanical properties :
#
#
# Convention : Reuss Voigt Hill
#
# Bulk Modulus (GPa) = 41.22895 50.02332 45.62613
# Shear Modulus (GPa) = 46.72111 19.44780 33.08446
#
# Velocity S-wave (km/s) = 4.46086 2.87804 3.75382
# Velocity P-wave (km/s) = 6.64021 5.68769 6.18232
#
# Compressibility (1/GPa) = 0.02425480
#
# Stress axis : x y z
#
# Youngs Moduli (GPa) = 82.38855 89.93872 50.28969
#
# Poissons Ratio (x) = 0.42580 0.05676
# Poissons Ratio (y) = 0.39006 0.18005
# Poissons Ratio (z) = 0.09298 0.32200
#
# Static dielectric constant tensor:
#      x y z
#    x 2.024590 0.000000 0.000000 
#    y 0.000000 1.907270 0.000000 
#    z 0.000000 0.000000 2.057730 
# 
# From -- ./inp_files/8207.got.cif
#   From: 2010.05.17/outbox.cif.g08.bks.cpg/sg46_5_cif.got.tgz:8207.got - 2010.06.03 19:58:25.
