data_PCOD9379389
_publ_section_title
;
Structure prediction by ZEFSAII (Michael W. Deem and Ramdas Pophale) SiO2 
 PCOD9379389
Probable space group: I M A 2
;
_chemical_formula_sum "Si O2"
_cell_formula_units_Z 40
_cell_length_a 15.710518
_cell_length_b 15.481859
_cell_length_c 7.225506
_cell_angle_alpha 90.000000
_cell_angle_beta 90.000000
_cell_angle_gamma 90.000000
_cell_volume 1757.445550
_symmetry_space_group_name_H-M "I M A 2"
_symmetry_group_IT_number 46
_symmetry_cell_setting 'orthorhombic'
loop_
_space_group_symop_operation_xyz
x,y,z
-x,-y,z
1/2-x,y,z
1/2+x,-y,z
1/2+x,1/2+y,1/2+z
1/2-x,1/2-y,1/2+z
-x,1/2+y,1/2+z
x,1/2-y,1/2+z
loop_
_atom_site_type_symbol
_atom_site_label
_atom_site_fract_x
_atom_site_fract_y
_atom_site_fract_z
Si Si1 0.910815 0.528979 0.726320
Si Si2 0.563177 0.837823 0.894348
Si Si3 0.250000 0.310687 0.421650
Si Si4 0.150028 0.852300 0.226309
Si Si5 0.544632 0.192027 0.563471
Si Si6 0.750000 0.881759 0.341640
O O1 0.936557 0.599552 0.571485
O O2 0.869468 0.444031 0.632035
O O3 0.837527 0.565536 0.859843
O O4 0.000000 0.500000 0.813971
O O5 0.497054 0.859299 0.732381
O O6 0.660671 0.834618 0.828688
O O7 0.532491 0.741859 0.958258
O O8 0.250000 0.207922 0.446823
O O9 0.250000 0.354955 0.623090
O O10 0.250000 0.837456 0.237088
O O11 0.105707 0.859062 0.426728
O O12 0.102905 0.771616 0.134336
#
# Coordination Sequence:
#
# PCOD9379389 Si02
#       6
#     8   8   4   8   8   4
#     4  11  21  38  63  92 129 169 202 264 333 385
#     4  10  20  38  62  96 130 169 214 261 326 386
#     4  10  20  34  62  90 124 164 204 254 305 381
#     4  11  22  41  66  93 129 169 221 272 327 383
#     4  10  22  38  66  94 123 172 224 260 318 394
#     4  10  22  38  64  90 124 162 212 254 317 387
#
# _framework density 22.760307000000001
#
# number of rings (size 3 to 8) (size 9 to 14) (size 15 to 20)
#    0.000    1.600    3.000    3.000    2.800    0.000 
#    0.000    1.000    6.600    0.000    0.000    0.000 
#    0.000    0.000    0.000    0.000    0.000    0.000 
#
# Total GULP energy -111742.124806 kJ/mol
# GULP energy per Si atom -5587.106240 kJ/mol
# Density = 2.270850 g / cm^3
# Si number density = 22.760307 Si / 1000 Ang^3
#
#
#
# Elastic Constant Matrix: (Units=GPa)
#
#
# Indices 1 2 3 4 5 6 
#
# 1 169.8920 35.6577 7.9720 0.0000 0.0000 0.0000
# 2 35.6577 65.1844 -5.2020 0.0000 0.0000 0.0000
# 3 7.9720 -5.2020 28.4703 0.0000 0.0000 0.0000
# 4 0.0000 0.0000 0.0000 10.1191 0.0000 0.0000
# 5 0.0000 0.0000 0.0000 0.0000 25.8907 0.0000
# 6 0.0000 0.0000 0.0000 0.0000 0.0000 36.4788
#
#
#
# Elastic Compliance Matrix: (Units=1/GPa)
#
#
# Indices 1 2 3 4 5 6 
#
# 1 0.006839 -0.003952 -0.002637 0.000000 0.000000 0.000000
# 2 -0.003952 0.017851 0.004368 0.000000 0.000000 0.000000
# 3 -0.002637 0.004368 0.036661 0.000000 0.000000 0.000000
# 4 0.000000 0.000000 0.000000 0.098823 0.000000 0.000000
# 5 0.000000 0.000000 0.000000 0.000000 0.038624 0.000000
# 6 0.000000 0.000000 0.000000 0.000000 0.000000 0.027413
#
#
# Mechanical properties :
#
#
# Convention : Reuss Voigt Hill
#
# Bulk Modulus (GPa) = 17.57144 37.82244 27.69694
# Shear Modulus (GPa) = 20.03022 29.50567 24.76794
#
# Velocity S-wave (km/s) = 2.96978 3.60441 3.30238
# Velocity P-wave (km/s) = 4.41548 5.82891 5.17072
#
# Compressibility (1/GPa) = 0.05691052
#
# Stress axis : x y z
#
# Youngs Moduli (GPa) = 146.21514 56.01798 27.27700
#
# Poissons Ratio (x) = 0.22137 0.07193
# Poissons Ratio (y) = 0.57780 -0.11915
# Poissons Ratio (z) = 0.38559 -0.24470
#
# Static dielectric constant tensor:
#      x y z
#    x 1.849580 0.000000 0.000000 
#    y 0.000000 1.887150 0.000000 
#    z 0.000000 0.000000 1.870050 
# 
# From -- ./inp_files/5431.got.cif
#   From: 2010.05.17/outbox.cif.g08.bks.cpg/sg46_3_cif.got.tgz:5431.got - 2010.06.03 19:58:25.
