data_PCOD9379456
_publ_section_title
;
Structure prediction by ZEFSAII (Michael W. Deem and Ramdas Pophale) SiO2 
 PCOD9379456
Probable space group: I M A 2
;
_chemical_formula_sum "Si O2"
_cell_formula_units_Z 64
_cell_length_a 15.781960
_cell_length_b 8.823149
_cell_length_c 24.641131
_cell_angle_alpha 90.000000
_cell_angle_beta 90.000000
_cell_angle_gamma 90.000000
_cell_volume 3431.193332
_symmetry_space_group_name_H-M "I M A 2"
_symmetry_group_IT_number 46
_symmetry_cell_setting 'orthorhombic'
loop_
_space_group_symop_operation_xyz
x,y,z
-x,-y,z
1/2-x,y,z
1/2+x,-y,z
1/2+x,1/2+y,1/2+z
1/2-x,1/2-y,1/2+z
-x,1/2+y,1/2+z
x,1/2-y,1/2+z
loop_
_atom_site_type_symbol
_atom_site_label
_atom_site_fract_x
_atom_site_fract_y
_atom_site_fract_z
Si Si1 0.501549 0.181211 0.202330
Si Si2 0.648646 0.805513 0.509898
Si Si3 0.650934 0.317046 0.131331
Si Si4 0.852865 0.345871 0.010338
Si Si5 0.005444 0.819434 0.329444
Si Si6 0.347026 0.183440 0.635448
Si Si7 0.081554 0.109701 0.913024
Si Si8 0.654878 0.305954 0.398711
O O1 0.585959 0.244963 0.173487
O O2 0.499304 0.219013 0.266134
O O3 0.418895 0.249784 0.173501
O O4 0.500000 0.000000 0.196974
O O5 0.750000 0.800286 0.499337
O O6 0.636833 0.767256 0.573165
O O7 0.602611 0.696071 0.468216
O O8 0.619492 0.980027 0.502853
O O9 0.750000 0.270402 0.138039
O O10 0.621033 0.284510 0.069316
O O11 0.648980 0.500069 0.136013
O O12 0.750000 0.349275 0.013297
O O13 0.876807 0.248735 0.958126
O O14 0.936686 0.731255 0.365955
O O15 0.094279 0.761956 0.353476
O O16 0.000000 0.000000 0.336137
O O17 0.250000 0.226426 0.649746
O O18 0.152564 0.987494 0.897852
O O19 0.000000 0.000000 0.917738
O O20 0.750000 0.248811 0.392240
#
# Coordination Sequence:
#
# PCOD9379456 Si02
#       8
#     8   8   8   8   8   8   8   8
#     4  11  24  39  57  81 110 146 188 234 281 325
#     4   9  17  33  56  81 110 143 180 218 263 326
#     4   9  19  37  61  86 112 146 186 224 269 329
#     4   8  16  32  55  83 112 143 177 214 263 328
#     4  10  23  42  56  73 106 147 190 229 268 324
#     4   9  20  38  59  84 113 147 186 225 269 327
#     4  10  21  34  52  80 112 141 176 224 276 323
#     4  10  20  35  57  84 112 141 177 224 277 326
#
# _framework density 18.652404000000001
#
# number of rings (size 3 to 8) (size 9 to 14) (size 15 to 20)
#    0.000    2.500    0.000    3.000    0.000    7.500 
#    0.000   10.000    0.000    0.000    0.000    0.000 
#    0.000    0.000    0.000    0.000    0.000    0.000 
#
# Total GULP energy -178557.249415 kJ/mol
# GULP energy per Si atom -5579.914044 kJ/mol
# Density = 1.860995 g / cm^3
# Si number density = 18.652404 Si / 1000 Ang^3
#
#
#
# Elastic Constant Matrix: (Units=GPa)
#
#
# Indices 1 2 3 4 5 6 
#
# 1 88.3445 37.3400 76.1188 0.0000 0.0000 0.0000
# 2 37.3400 67.4865 74.3263 0.0000 0.0000 0.0000
# 3 76.1188 74.3263 154.3321 0.0000 0.0000 0.0000
# 4 0.0000 0.0000 0.0000 32.5508 0.0000 0.0000
# 5 0.0000 0.0000 0.0000 0.0000 12.6174 0.0000
# 6 0.0000 0.0000 0.0000 0.0000 0.0000 18.8107
#
#
#
# Elastic Compliance Matrix: (Units=1/GPa)
#
#
# Indices 1 2 3 4 5 6 
#
# 1 0.019690 -0.000423 -0.009508 0.000000 0.000000 0.000000
# 2 -0.000423 0.031564 -0.014992 0.000000 0.000000 0.000000
# 3 -0.009508 -0.014992 0.018389 0.000000 0.000000 0.000000
# 4 0.000000 0.000000 0.000000 0.030721 0.000000 0.000000
# 5 0.000000 0.000000 0.000000 0.000000 0.079256 0.000000
# 6 0.000000 0.000000 0.000000 0.000000 0.000000 0.053161
#
#
# Mechanical properties :
#
#
# Convention : Reuss Voigt Hill
#
# Bulk Modulus (GPa) = 50.51366 76.19260 63.35313
# Shear Modulus (GPa) = 17.28749 20.95433 19.12091
#
# Velocity S-wave (km/s) = 3.04768 3.35537 3.20522
# Velocity P-wave (km/s) = 6.28688 7.47989 6.90918
#
# Compressibility (1/GPa) = 0.01979663
#
# Stress axis : x y z
#
# Youngs Moduli (GPa) = 50.78703 31.68180 54.37987
#
# Poissons Ratio (x) = 0.01341 0.51702
# Poissons Ratio (y) = 0.02149 0.81529
# Poissons Ratio (z) = 0.48286 0.47499
#
# Static dielectric constant tensor:
#      x y z
#    x 1.670300 0.000000 0.000000 
#    y 0.000000 1.640640 0.000000 
#    z 0.000000 0.000000 1.622140 
# 
# From -- ./inp_files/23639.got.cif
#   From: 2010.05.17/outbox.cif.g08.bks.cpg/sg46_12_cif.got.tgz:23639.got - 2010.06.03 19:58:25.
