data_PCOD9379012
_publ_section_title
;
Structure prediction by ZEFSAII (Michael W. Deem and Ramdas Pophale) SiO2 
 PCOD9379012
Probable space group: I M A 2
;
_chemical_formula_sum "Si O2"
_cell_formula_units_Z 56
_cell_length_a 12.803495
_cell_length_b 16.586849
_cell_length_c 12.691976
_cell_angle_alpha 90.000000
_cell_angle_beta 90.000000
_cell_angle_gamma 90.000000
_cell_volume 2695.390352
_symmetry_space_group_name_H-M "I M A 2"
_symmetry_group_IT_number 46
_symmetry_cell_setting 'orthorhombic'
loop_
_space_group_symop_operation_xyz
x,y,z
-x,-y,z
1/2-x,y,z
1/2+x,-y,z
1/2+x,1/2+y,1/2+z
1/2-x,1/2-y,1/2+z
-x,1/2+y,1/2+z
x,1/2-y,1/2+z
loop_
_atom_site_type_symbol
_atom_site_label
_atom_site_fract_x
_atom_site_fract_y
_atom_site_fract_z
Si Si1 0.128526 0.672409 0.000000
Si Si2 0.544652 0.407209 0.216759
Si Si3 0.547412 0.730466 0.366188
Si Si4 0.861969 0.061240 0.304323
Si Si5 0.416859 0.387913 0.747613
Si Si6 0.907044 0.606839 0.509690
Si Si7 0.360885 0.568725 0.435947
O O1 0.250000 0.699686 0.012330
O O2 0.053779 0.734595 0.933506
O O3 0.131013 0.596661 0.920621
O O4 0.083630 0.637783 0.110597
O O5 0.500000 0.500000 0.198854
O O6 0.474745 0.339272 0.278381
O O7 0.628824 0.419267 0.310422
O O8 0.597541 0.806168 0.308994
O O9 0.620826 0.687838 0.450323
O O10 0.750000 0.083894 0.258085
O O11 0.958072 0.097344 0.240390
O O12 0.873701 0.965654 0.306588
O O13 0.376784 0.389495 0.630002
O O14 0.864059 0.526432 0.457925
O O15 0.033605 0.599792 0.491950
O O16 0.250000 0.602136 0.473453
#
# Coordination Sequence:
#
# PCOD9379012 Si02
#       7
#     8   8   8   8   8   8   8
#     4  10  22  36  58  91 121 154 200 248 304 366
#     4  11  21  38  62  87 120 164 204 245 303 373
#     4  10  21  38  54  83 116 156 193 250 295 350
#     4   9  19  36  56  84 112 144 192 235 287 357
#     4  10  20  34  58  80 113 152 187 242 296 347
#     4  10  20  36  51  85 111 144 201 231 295 363
#     4  10  19  35  58  81 112 147 191 245 288 350
#
# _framework density 20.776211
#
# number of rings (size 3 to 8) (size 9 to 14) (size 15 to 20)
#    0.000    2.000    2.857    3.000    4.000    5.143 
#    0.000    3.571    0.000    0.000    0.000    0.000 
#    0.000    0.000    0.000    0.000    0.000    0.000 
#
# Total GULP energy -155933.710458 kJ/mol
# GULP energy per Si atom -5569.061088 kJ/mol
# Density = 2.072892 g / cm^3
# Si number density = 20.776211 Si / 1000 Ang^3
#
#
#
# Elastic Constant Matrix: (Units=GPa)
#
#
# Indices 1 2 3 4 5 6 
#
# 1 71.8762 -8.0890 14.1591 0.0000 0.0000 0.0000
# 2 -8.0890 132.2531 44.9509 0.0000 0.0000 0.0000
# 3 14.1591 44.9509 89.8360 0.0000 0.0000 0.0000
# 4 0.0000 0.0000 0.0000 -0.0846 0.0000 0.0000
# 5 0.0000 0.0000 0.0000 0.0000 0.3347 0.0000
# 6 0.0000 0.0000 0.0000 0.0000 0.0000 -3.7134
#
#
#
# Elastic Compliance Matrix: (Units=1/GPa)
#
#
# Indices 1 2 3 4 5 6 
#
# 1 0.014805 0.002047 -0.003357 0.000000 0.000000 0.000000
# 2 0.002047 0.009394 -0.005023 0.000000 0.000000 0.000000
# 3 -0.003357 -0.005023 0.014174 0.000003 0.000000 0.000000
# 4 0.000000 0.000000 0.000003-11.816488 0.000180 -0.000014
# 5 0.000000 0.000000 0.000000 0.000180 2.988040 0.000002
# 6 0.000000 0.000000 0.000000 -0.000014 0.000002 -0.269296
#
#
# Mechanical properties :
#
#
# Convention : Reuss Voigt Hill
#
# Bulk Modulus (GPa) = 38.90331 44.00080 41.45206
# Shear Modulus (GPa) = -0.55321 15.50362 7.47521
#
# Velocity S-wave (km/s) = -0.51657 2.73467 1.89889
# Velocity P-wave (km/s) = 4.29066 5.58530 4.98023
#
# Compressibility (1/GPa) = 0.02570475
#
# Stress axis : x y z
#
# Youngs Moduli (GPa) = 67.54693 106.45519 70.55269
#
# Poissons Ratio (x) = -0.21787 0.23687
# Poissons Ratio (y) = -0.13824 0.35437
# Poissons Ratio (z) = 0.22678 0.53471
#
# Static dielectric constant tensor:
#      x y z
#    x 1.848610 0.000000 0.000000 
#    y 0.000000 1.764180 0.000000 
#    z 0.000000 0.000000 1.739400 
# 
# From -- ./inp_files/11163.got.cif
#   From: 2010.05.17/outbox.cif.g08.bks.cpg/sg46_6_cif.got.tgz:11163.got - 2010.06.03 19:58:25.
