data_PCOD9379064
_publ_section_title
;
Structure prediction by ZEFSAII (Michael W. Deem and Ramdas Pophale) SiO2 
 PCOD9379064
Probable space group: I M A 2
;
_chemical_formula_sum "Si O2"
_cell_formula_units_Z 64
_cell_length_a 17.368428
_cell_length_b 10.800180
_cell_length_c 18.701157
_cell_angle_alpha 90.000000
_cell_angle_beta 90.000000
_cell_angle_gamma 90.000000
_cell_volume 3508.003214
_symmetry_space_group_name_H-M "I M A 2"
_symmetry_group_IT_number 46
_symmetry_cell_setting 'orthorhombic'
loop_
_space_group_symop_operation_xyz
x,y,z
-x,-y,z
1/2-x,y,z
1/2+x,-y,z
1/2+x,1/2+y,1/2+z
1/2-x,1/2-y,1/2+z
-x,1/2+y,1/2+z
x,1/2-y,1/2+z
loop_
_atom_site_type_symbol
_atom_site_label
_atom_site_fract_x
_atom_site_fract_y
_atom_site_fract_z
Si Si1 0.548220 0.803029 0.888150
Si Si2 0.027822 0.137216 0.251171
Si Si3 0.337311 0.957167 0.037073
Si Si4 0.616445 0.066700 0.879612
Si Si5 0.341056 0.949599 0.718272
Si Si6 0.839339 0.726126 0.178315
Si Si7 0.076772 0.744727 0.629880
Si Si8 0.080379 0.219351 0.043633
O O1 0.542531 0.709560 0.823674
O O2 0.464217 0.865322 0.894672
O O3 0.603864 0.918970 0.874320
O O4 0.575673 0.742305 0.961603
O O5 0.106004 0.163392 0.206307
O O6 0.959665 0.191444 0.202612
O O7 0.000000 0.000000 0.265509
O O8 0.250000 0.997112 0.054793
O O9 0.365150 0.848729 0.090045
O O10 0.397323 0.072327 0.043069
O O11 0.338053 0.914116 0.953757
O O12 0.644605 0.099559 0.799515
O O13 0.250000 0.944264 0.704964
O O14 0.384359 0.870786 0.657419
O O15 0.364550 0.094337 0.711791
O O16 0.750000 0.746955 0.193924
O O17 0.855992 0.718564 0.093799
O O18 0.002287 0.750193 0.578288
#
# Coordination Sequence:
#
# PCOD9379064 Si02
#       8
#     8   8   8   8   8   8   8   8
#     4  10  19  36  58  86 114 150 202 247 287 345
#     4  11  22  37  61  86 116 156 200 245 294 353
#     4  11  21  36  59  89 122 154 194 253 308 350
#     4  10  19  36  61  85 118 153 196 250 295 346
#     4  11  22  37  60  89 119 155 195 241 303 364
#     4  10  22  41  62  88 121 153 193 246 302 360
#     4  11  21  36  56  85 118 151 196 247 294 356
#     4  10  21  36  58  83 113 157 200 238 290 355
#
# _framework density 18.243995999999999
#
# number of rings (size 3 to 8) (size 9 to 14) (size 15 to 20)
#    0.000    1.500    3.750    3.000    0.000    2.000 
#    2.250    1.250    0.000    0.000    0.000    0.000 
#    0.000    0.000    0.000    0.000    0.000    0.000 
#
# Total GULP energy -178318.171476 kJ/mol
# GULP energy per Si atom -5572.442859 kJ/mol
# Density = 1.820247 g / cm^3
# Si number density = 18.243996 Si / 1000 Ang^3
#
#
#
# Elastic Constant Matrix: (Units=GPa)
#
#
# Indices 1 2 3 4 5 6 
#
# 1 65.6383 27.5088 27.5287 0.0000 0.0000 0.0000
# 2 27.5088 50.5320 38.1805 0.0000 0.0000 0.0000
# 3 27.5287 38.1805 129.0651 0.0000 0.0000 0.0000
# 4 0.0000 0.0000 0.0000 34.5840 0.0000 0.0000
# 5 0.0000 0.0000 0.0000 0.0000 -4.2785 0.0000
# 6 0.0000 0.0000 0.0000 0.0000 0.0000 23.6346
#
#
#
# Elastic Compliance Matrix: (Units=1/GPa)
#
#
# Indices 1 2 3 4 5 6 
#
# 1 0.019917 -0.009830 -0.001340 0.000000 0.000000 0.000000
# 2 -0.009830 0.030337 -0.006878 0.000000 0.000000 0.000000
# 3 -0.001340 -0.006878 0.010069 0.000000 0.000000 0.000000
# 4 0.000000 0.000000 0.000000 0.028915 0.000000 0.000000
# 5 0.000000 0.000000 0.000000 0.000000 -0.233728 0.000000
# 6 0.000000 0.000000 0.000000 0.000000 0.000000 0.042311
#
#
# Mechanical properties :
#
#
# Convention : Reuss Voigt Hill
#
# Bulk Modulus (GPa) = 41.27644 47.96350 44.61997
# Shear Modulus (GPa) = -86.19394 20.92253 -32.63570
#
# Velocity S-wave (km/s) = -6.88096 3.39014 -4.23406
# Velocity P-wave (km/s) = 6.36054 6.45532 0.77934
#
# Compressibility (1/GPa) = 0.02422690
#
# Stress axis : x y z
#
# Youngs Moduli (GPa) = 50.20913 32.96274 99.31944
#
# Poissons Ratio (x) = 0.32401 0.13311
# Poissons Ratio (y) = 0.49354 0.68311
# Poissons Ratio (z) = 0.06729 0.22671
#
# Static dielectric constant tensor:
#      x y z
#    x 1.648480 0.000000 0.000000 
#    y 0.000000 1.635440 0.000000 
#    z 0.000000 0.000000 1.656660 
# 
# From -- ./inp_files/20058.got.cif
#   From: 2010.05.17/outbox.cif.g08.bks.cpg/sg46_11_cif.got.tgz:20058.got - 2010.06.03 19:58:25.
