data_PCOD9379276
_publ_section_title
;
Structure prediction by ZEFSAII (Michael W. Deem and Ramdas Pophale) SiO2 
 PCOD9379276
Probable space group: I M A 2
;
_chemical_formula_sum "Si O2"
_cell_formula_units_Z 64
_cell_length_a 8.903603
_cell_length_b 33.402197
_cell_length_c 11.890677
_cell_angle_alpha 90.000000
_cell_angle_beta 90.000000
_cell_angle_gamma 90.000000
_cell_volume 3536.286168
_symmetry_space_group_name_H-M "I M A 2"
_symmetry_group_IT_number 46
_symmetry_cell_setting 'orthorhombic'
loop_
_space_group_symop_operation_xyz
x,y,z
-x,-y,z
1/2-x,y,z
1/2+x,-y,z
1/2+x,1/2+y,1/2+z
1/2-x,1/2-y,1/2+z
-x,1/2+y,1/2+z
x,1/2-y,1/2+z
loop_
_atom_site_type_symbol
_atom_site_label
_atom_site_fract_x
_atom_site_fract_y
_atom_site_fract_z
Si Si1 0.430865 0.455616 0.432840
Si Si2 0.430591 0.729553 0.921023
Si Si3 0.071749 0.456642 0.176110
Si Si4 0.432779 0.850909 0.291304
Si Si5 0.926528 0.815056 0.872628
Si Si6 0.419159 0.682672 0.141698
Si Si7 0.569332 0.378572 0.541900
Si Si8 0.920903 0.100956 0.500331
O O1 0.500000 0.500000 0.450562
O O2 0.250000 0.457492 0.442914
O O3 0.468895 0.443005 0.303408
O O4 0.498353 0.421738 0.513622
O O5 0.250000 0.734500 0.908512
O O6 0.478110 0.692748 0.839217
O O7 0.514657 0.770450 0.897118
O O8 0.457650 0.716274 0.049924
O O9 0.250000 0.459587 0.172559
O O10 0.000000 0.500000 0.162265
O O11 0.014451 0.428767 0.076626
O O12 0.250000 0.850785 0.297175
O O13 0.475710 0.861664 0.164719
O O14 0.482287 0.885269 0.379236
O O15 0.750000 0.818704 0.892752
O O16 0.966861 0.822116 0.742615
O O17 0.012904 0.847024 0.949342
O O18 0.250000 0.690689 0.186232
O O19 0.412861 0.642205 0.069943
O O20 0.750000 0.381567 0.538523
O O21 0.750000 0.085590 0.487390
#
# Coordination Sequence:
#
# PCOD9379276 Si02
#       8
#     8   8   8   8   8   8   8   8
#     4  10  21  38  59  86 119 152 188 236 289 342
#     4   9  19  38  60  80 104 142 191 236 281 335
#     4  10  20  33  53  82 113 144 178 221 275 331
#     4   8  18  37  60  82 106 142 189 236 280 332
#     4  12  25  36  51  81 118 148 182 232 286 340
#     4   9  19  36  58  79 101 137 183 226 273 330
#     4  11  22  38  60  85 112 151 197 238 283 342
#     4   9  17  34  58  81 105 134 175 227 275 324
#
# _framework density 18.098082000000002
#
# number of rings (size 3 to 8) (size 9 to 14) (size 15 to 20)
#    0.000    2.250    0.000    4.500    1.750    4.500 
#    0.000    4.375    0.000    0.000    0.000    0.000 
#    0.000    0.000    0.000    0.000    0.000    0.000 
#
# Total GULP energy -178547.710636 kJ/mol
# GULP energy per Si atom -5579.615957 kJ/mol
# Density = 1.805689 g / cm^3
# Si number density = 18.098082 Si / 1000 Ang^3
#
#
#
# Elastic Constant Matrix: (Units=GPa)
#
#
# Indices 1 2 3 4 5 6 
#
# 1 55.1605 28.8947 37.7462 0.0003 0.0000 0.0000
# 2 28.8947 75.6275 49.4676 0.0006 0.0000 0.0000
# 3 37.7462 49.4676 97.9633 0.0015 -0.0003 0.0002
# 4 0.0003 0.0006 0.0015 -10.0117 0.0000 0.0000
# 5 0.0000 0.0000 -0.0003 0.0000 16.1252 0.0000
# 6 0.0000 0.0000 0.0002 0.0000 0.0000 21.9804
#
#
#
# Elastic Compliance Matrix: (Units=1/GPa)
#
#
# Indices 1 2 3 4 5 6 
#
# 1 0.025835 -0.005016 -0.007421 -0.000001 0.000000 0.000000
# 2 -0.005016 0.020718 -0.008529 0.000000 0.000000 0.000000
# 3 -0.007421 -0.008529 0.017374 0.000002 0.000000 0.000000
# 4 -0.000001 0.000000 0.000002 -0.099883 0.000000 0.000000
# 5 0.000000 0.000000 0.000000 0.000000 0.062015 0.000000
# 6 0.000000 0.000000 0.000000 0.000000 0.000000 0.045495
#
#
# Mechanical properties :
#
#
# Convention : Reuss Voigt Hill
#
# Bulk Modulus (GPa) = 45.46720 51.21868 48.34294
# Shear Modulus (GPa) = 41.38447 13.12832 27.25640
#
# Velocity S-wave (km/s) = 4.78711 2.69624 3.88498
# Velocity P-wave (km/s) = 7.46541 6.16888 6.84790
#
# Compressibility (1/GPa) = 0.02199388
#
# Stress axis : x y z
#
# Youngs Moduli (GPa) = 38.70701 48.26714 57.55654
#
# Poissons Ratio (x) = 0.24213 0.42715
# Poissons Ratio (y) = 0.19417 0.49090
# Poissons Ratio (z) = 0.28726 0.41167
#
# Static dielectric constant tensor:
#      x y z
#    x 1.602070 0.000000 0.000000 
#    y 0.000000 1.625140 0.000000 
#    z 0.000000 0.000000 1.637070 
# 
# From -- ./inp_files/9721.got.cif
#   From: 2010.05.17/outbox.cif.g08.bks.cpg/sg46_5_cif.got.tgz:9721.got - 2010.06.03 19:58:25.
