data_PCOD9379223
_publ_section_title
;
Structure prediction by ZEFSAII (Michael W. Deem and Ramdas Pophale) SiO2 
 PCOD9379223
Probable space group: I M A 2
;
_chemical_formula_sum "Si O2"
_cell_formula_units_Z 64
_cell_length_a 14.092030
_cell_length_b 17.864227
_cell_length_c 14.112456
_cell_angle_alpha 90.000000
_cell_angle_beta 90.000000
_cell_angle_gamma 90.000000
_cell_volume 3552.715155
_symmetry_space_group_name_H-M "I M A 2"
_symmetry_group_IT_number 46
_symmetry_cell_setting 'orthorhombic'
loop_
_space_group_symop_operation_xyz
x,y,z
-x,-y,z
1/2-x,y,z
1/2+x,-y,z
1/2+x,1/2+y,1/2+z
1/2-x,1/2-y,1/2+z
-x,1/2+y,1/2+z
x,1/2-y,1/2+z
loop_
_atom_site_type_symbol
_atom_site_label
_atom_site_fract_x
_atom_site_fract_y
_atom_site_fract_z
Si Si1 0.634939 0.482410 0.756600
Si Si2 0.639202 0.707653 0.053547
Si Si3 0.942040 0.842731 0.942451
Si Si4 0.635129 0.627730 0.864972
Si Si5 0.353416 0.655283 0.508677
Si Si6 0.858791 0.314820 0.734162
Si Si7 0.140654 0.018768 0.042690
Si Si8 0.047335 0.232511 0.755052
O O1 0.750000 0.479609 0.754448
O O2 0.605523 0.545381 0.830897
O O3 0.607433 0.396211 0.772739
O O4 0.607701 0.510997 0.651652
O O5 0.750000 0.695246 0.074558
O O6 0.581240 0.710929 0.150612
O O7 0.624994 0.787192 0.001485
O O8 0.606738 0.649297 0.972180
O O9 0.926168 0.830589 0.831541
O O10 0.050033 0.816848 0.962621
O O11 0.922437 0.924641 0.982958
O O12 0.750000 0.630976 0.861964
O O13 0.597527 0.691402 0.793175
O O14 0.250000 0.680873 0.472481
O O15 0.357222 0.674203 0.620303
O O16 0.356976 0.565122 0.502419
O O17 0.750000 0.300253 0.764230
O O18 0.935748 0.252118 0.756307
O O19 0.250000 0.046104 0.043403
#
# Coordination Sequence:
#
# PCOD9379223 Si02
#       8
#     8   8   8   8   8   8   8   8
#     4   8  15  29  51  77 102 127 160 202 252 301
#     4  10  20  33  47  68 104 139 168 203 245 301
#     4  11  20  31  49  74 103 135 167 204 252 307
#     4   9  18  31  47  71 103 135 167 202 245 300
#     4   9  18  33  51  73 101 129 165 209 255 302
#     4   9  18  33  51  75 103 130 164 210 255 297
#     4   9  17  29  49  78 106 130 159 204 256 303
#     4  11  21  31  48  75 103 136 172 201 247 307
#
# _framework density 18.014392000000001
#
# number of rings (size 3 to 8) (size 9 to 14) (size 15 to 20)
#    0.000    2.500    1.250    3.375    0.000    3.500 
#    0.000    0.000    0.000    0.000   13.000    0.000 
#    0.000    0.000    0.000    0.000    0.000    0.000 
#
# Total GULP energy -178420.228076 kJ/mol
# GULP energy per Si atom -5575.632127 kJ/mol
# Density = 1.797339 g / cm^3
# Si number density = 18.014392 Si / 1000 Ang^3
#
#
#
# Elastic Constant Matrix: (Units=GPa)
#
#
# Indices 1 2 3 4 5 6 
#
# 1 75.9909 4.1387 14.9844 0.0000 0.0000 0.0000
# 2 4.1387 33.0630 20.5004 0.0000 0.0000 0.0000
# 3 14.9844 20.5004 77.7100 -0.0001 0.0000 0.0000
# 4 0.0000 0.0000 -0.0001 -83.4810 0.0000 0.0000
# 5 0.0000 0.0000 0.0000 0.0000 7.3305 0.0000
# 6 0.0000 0.0000 0.0000 0.0000 0.0000 13.1334
#
#
#
# Elastic Compliance Matrix: (Units=1/GPa)
#
#
# Indices 1 2 3 4 5 6 
#
# 1 0.013680 -0.000092 -0.002614 0.000000 0.000000 0.000000
# 2 -0.000092 0.036161 -0.009522 0.000000 0.000000 0.000000
# 3 -0.002614 -0.009522 0.015884 0.000000 0.000000 0.000000
# 4 0.000000 0.000000 0.000000 -0.011979 0.000000 0.000000
# 5 0.000000 0.000000 0.000000 0.000000 0.136417 0.000000
# 6 0.000000 0.000000 0.000000 0.000000 0.000000 0.076142
#
#
# Mechanical properties :
#
#
# Convention : Reuss Voigt Hill
#
# Bulk Modulus (GPa) = 24.23046 29.55678 26.89362
# Shear Modulus (GPa) = 16.41948 -2.79408 6.81270
#
# Velocity S-wave (km/s) = 3.02232 -1.24675 1.94680
# Velocity P-wave (km/s) = 5.06548 3.79083 4.47378
#
# Compressibility (1/GPa) = 0.04127036
#
# Stress axis : x y z
#
# Youngs Moduli (GPa) = 73.10032 27.65436 62.95556
#
# Poissons Ratio (x) = 0.00254 0.16454
# Poissons Ratio (y) = 0.00672 0.59945
# Poissons Ratio (z) = 0.19105 0.26332
#
# Static dielectric constant tensor:
#      x y z
#    x 1.688170 0.000000 0.000000 
#    y 0.000000 1.611790 0.000000 
#    z 0.000000 0.000000 1.598540 
# 
# From -- ./inp_files/11326.got.cif
#   From: 2010.05.17/outbox.cif.g08.bks.cpg/sg46_6_cif.got.tgz:11326.got - 2010.06.03 19:58:25.
