data_PCOD9379659
_publ_section_title
;
Structure prediction by ZEFSAII (Michael W. Deem and Ramdas Pophale) SiO2 
 PCOD9379659
Probable space group: I M A 2
;
_chemical_formula_sum "Si O2"
_cell_formula_units_Z 64
_cell_length_a 8.672534
_cell_length_b 33.350582
_cell_length_c 12.073812
_cell_angle_alpha 90.000000
_cell_angle_beta 90.000000
_cell_angle_gamma 90.000000
_cell_volume 3492.157620
_symmetry_space_group_name_H-M "I M A 2"
_symmetry_group_IT_number 46
_symmetry_cell_setting 'orthorhombic'
loop_
_space_group_symop_operation_xyz
x,y,z
-x,-y,z
1/2-x,y,z
1/2+x,-y,z
1/2+x,1/2+y,1/2+z
1/2-x,1/2-y,1/2+z
-x,1/2+y,1/2+z
x,1/2-y,1/2+z
loop_
_atom_site_type_symbol
_atom_site_label
_atom_site_fract_x
_atom_site_fract_y
_atom_site_fract_z
Si Si1 0.567438 0.728134 0.847080
Si Si2 0.435188 0.954954 0.854613
Si Si3 0.073368 0.813956 0.547415
Si Si4 0.934798 0.621677 0.472715
Si Si5 0.933560 0.185314 0.800388
Si Si6 0.565048 0.851519 0.216323
Si Si7 0.936560 0.044517 0.603529
Si Si8 0.426646 0.602923 0.914728
O O1 0.750000 0.734152 0.831156
O O2 0.478181 0.769145 0.827797
O O3 0.513580 0.691741 0.765923
O O4 0.532983 0.713841 0.972068
O O5 0.250000 0.956541 0.860462
O O6 0.497673 0.921474 0.938145
O O7 0.479030 0.941825 0.728289
O O8 0.500000 0.000000 0.872115
O O9 0.250000 0.798089 0.549339
O O10 0.020865 0.820341 0.672385
O O11 0.077277 0.856499 0.486534
O O12 0.750000 0.618721 0.475393
O O13 0.989022 0.637456 0.593255
O O14 0.984916 0.654191 0.381559
O O15 0.750000 0.179125 0.809045
O O16 0.750000 0.849604 0.214642
O O17 0.514945 0.885566 0.303460
O O18 0.750000 0.045194 0.599675
O O19 0.993343 0.070430 0.499715
O O20 0.000000 0.000000 0.592899
O O21 0.250000 0.592090 0.886405
#
# Coordination Sequence:
#
# PCOD9379659 Si02
#       8
#     8   8   8   8   8   8   8   8
#     4  10  21  37  56  79 109 145 184 230 286 339
#     4  10  20  37  60  87 119 153 189 235 288 342
#     4   9  19  36  55  77 104 137 179 226 274 328
#     4  11  23  39  58  84 115 152 195 238 286 343
#     4  11  23  37  56  83 112 144 186 234 282 337
#     4   9  21  39  56  77 109 147 187 232 280 334
#     4   9  18  32  53  83 115 143 176 223 277 332
#     4   9  17  33  56  78 104 139 179 222 270 325
#
# _framework density 18.326778000000001
#
# number of rings (size 3 to 8) (size 9 to 14) (size 15 to 20)
#    0.000    2.250    0.000    2.250    1.750    5.500 
#    0.000    3.125    0.000    1.500    0.000    0.000 
#    0.000    0.000    0.000    0.000    0.000    0.000 
#
# Total GULP energy -178503.233175 kJ/mol
# GULP energy per Si atom -5578.226037 kJ/mol
# Density = 1.828507 g / cm^3
# Si number density = 18.326778 Si / 1000 Ang^3
#
#
#
# Elastic Constant Matrix: (Units=GPa)
#
#
# Indices 1 2 3 4 5 6 
#
# 1 20.6752 17.8144 25.6742 0.0000 0.0000 0.0000
# 2 17.8144 74.0552 56.1123 0.0002 0.0000 0.0000
# 3 25.6742 56.1123 140.5607 0.0002 0.0000 0.0000
# 4 0.0000 0.0002 0.0002 17.4723 0.0000 0.0000
# 5 0.0000 0.0000 0.0000 0.0000 24.6959 0.0000
# 6 0.0000 0.0000 0.0000 0.0000 0.0000 30.1687
#
#
#
# Elastic Compliance Matrix: (Units=1/GPa)
#
#
# Indices 1 2 3 4 5 6 
#
# 1 0.067215 -0.009844 -0.008347 0.000000 0.000000 0.000000
# 2 -0.009844 0.020801 -0.006506 0.000000 0.000000 0.000000
# 3 -0.008347 -0.006506 0.011236 0.000000 0.000000 0.000000
# 4 0.000000 0.000000 0.000000 0.057233 0.000000 0.000000
# 5 0.000000 0.000000 0.000000 0.000000 0.040493 0.000000
# 6 0.000000 0.000000 0.000000 0.000000 0.000000 0.033147
#
#
# Mechanical properties :
#
#
# Convention : Reuss Voigt Hill
#
# Bulk Modulus (GPa) = 20.05717 48.27698 34.16708
# Shear Modulus (GPa) = 16.88403 23.51340 20.19872
#
# Velocity S-wave (km/s) = 3.03855 3.58580 3.32345
# Velocity P-wave (km/s) = 4.82476 6.59874 5.78021
#
# Compressibility (1/GPa) = 0.04985747
#
# Stress axis : x y z
#
# Youngs Moduli (GPa) = 14.87773 48.07480 88.99822
#
# Poissons Ratio (x) = 0.47325 0.74290
# Poissons Ratio (y) = 0.14646 0.57900
# Poissons Ratio (z) = 0.12419 0.31276
#
# Static dielectric constant tensor:
#      x y z
#    x 1.638580 0.000000 0.000000 
#    y 0.000000 1.613680 0.000000 
#    z 0.000000 0.000000 1.638800 
# 
# From -- ./inp_files/9769.got.cif
#   From: 2010.05.17/outbox.cif.g08.bks.cpg/sg46_5_cif.got.tgz:9769.got - 2010.06.03 19:58:25.
