data_PCOD9379038
_publ_section_title
;
Structure prediction by ZEFSAII (Michael W. Deem and Ramdas Pophale) SiO2 
 PCOD9379038
Probable space group: I M A 2
;
_chemical_formula_sum "Si O2"
_cell_formula_units_Z 48
_cell_length_a 8.444181
_cell_length_b 31.847641
_cell_length_c 9.343004
_cell_angle_alpha 90.000000
_cell_angle_beta 90.000000
_cell_angle_gamma 90.000000
_cell_volume 2512.588326
_symmetry_space_group_name_H-M "I M A 2"
_symmetry_group_IT_number 46
_symmetry_cell_setting 'orthorhombic'
loop_
_space_group_symop_operation_xyz
x,y,z
-x,-y,z
1/2-x,y,z
1/2+x,-y,z
1/2+x,1/2+y,1/2+z
1/2-x,1/2-y,1/2+z
-x,1/2+y,1/2+z
x,1/2-y,1/2+z
loop_
_atom_site_type_symbol
_atom_site_label
_atom_site_fract_x
_atom_site_fract_y
_atom_site_fract_z
Si Si1 0.943297 0.791119 0.038170
Si Si2 0.060258 0.872987 0.539104
Si Si3 0.558403 0.873207 0.862494
Si Si4 0.560115 0.454294 0.863347
Si Si5 0.060047 0.045715 0.039650
Si Si6 0.058239 0.292114 0.868272
O O1 0.750000 0.791062 0.038716
O O2 0.994768 0.790907 0.203183
O O3 0.994133 0.833036 0.955276
O O4 0.993967 0.749438 0.953728
O O5 0.250000 0.872698 0.538862
O O6 0.006305 0.916326 0.464300
O O7 0.000162 0.870227 0.700893
O O8 0.999688 0.833636 0.447792
O O9 0.750000 0.872937 0.861228
O O10 0.506330 0.916291 0.938676
O O11 0.500000 0.500000 0.910981
O O12 0.750000 0.455115 0.860101
O O13 0.499449 0.447416 0.701637
O O14 0.250000 0.045110 0.042342
O O15 0.000000 0.000000 0.992225
O O16 0.250000 0.292394 0.868625
#
# Coordination Sequence:
#
# PCOD9379038 Si02
#       6
#     8   8   8   8   8   8
#     4   9  18  34  59  87 109 137 182 229 268 313
#     4  11  24  38  53  79 113 146 181 224 275 324
#     4  10  21  37  57  81 109 145 187 225 266 320
#     4  10  21  37  57  80 108 143 183 226 272 323
#     4  10  20  35  58  85 111 142 181 224 273 327
#     4  10  19  35  60  84 109 141 179 224 270 321
#
# _framework density 19.103804
#
# number of rings (size 3 to 8) (size 9 to 14) (size 15 to 20)
#    0.000    2.000    0.000    4.500    0.000    8.667 
#    0.000    7.500    0.000    0.000    0.000    0.000 
#    0.000    0.000    0.000    0.000    0.000    0.000 
#
# Total GULP energy -134085.958270 kJ/mol
# GULP energy per Si atom -5586.914928 kJ/mol
# Density = 1.906032 g / cm^3
# Si number density = 19.103804 Si / 1000 Ang^3
#
#
#
# Elastic Constant Matrix: (Units=GPa)
#
#
# Indices 1 2 3 4 5 6 
#
# 1 22.5481 29.5919 23.1662 -0.0002 -0.0001 0.0000
# 2 29.5919 214.0471 143.8847 -0.0002 -0.0002 0.0001
# 3 23.1662 143.8847 185.3805 -0.0003 -0.0002 0.0001
# 4 -0.0002 -0.0002 -0.0003 43.7412 -0.0002 0.0001
# 5 -0.0001 -0.0002 -0.0002 -0.0002 12.9649 -0.0001
# 6 0.0000 0.0001 0.0001 0.0001 -0.0001 23.7960
#
#
#
# Elastic Compliance Matrix: (Units=1/GPa)
#
#
# Indices 1 2 3 4 5 6 
#
# 1 0.054537 -0.006186 -0.002014 0.000000 0.000000 0.000000
# 2 -0.006186 0.010470 -0.007353 0.000000 0.000000 0.000000
# 3 -0.002014 -0.007353 0.011353 0.000000 0.000000 0.000000
# 4 0.000000 0.000000 0.000000 0.022862 0.000000 0.000000
# 5 0.000000 0.000000 0.000000 0.000000 0.077131 0.000000
# 6 0.000000 0.000000 0.000000 0.000000 0.000000 0.042024
#
#
# Mechanical properties :
#
#
# Convention : Reuss Voigt Hill
#
# Bulk Modulus (GPa) = 22.09754 90.58458 56.34106
# Shear Modulus (GPa) = 18.89867 31.12262 25.01064
#
# Velocity S-wave (km/s) = 3.14867 4.04063 3.62221
# Velocity P-wave (km/s) = 4.98106 8.32399 6.85930
#
# Compressibility (1/GPa) = 0.04525391
#
# Stress axis : x y z
#
# Youngs Moduli (GPa) = 18.33615 95.50971 88.07888
#
# Poissons Ratio (x) = 0.59081 0.17740
# Poissons Ratio (y) = 0.11342 0.64769
# Poissons Ratio (z) = 0.03693 0.70233
#
# Static dielectric constant tensor:
#      x y z
#    x 1.659170 0.000000 0.000000 
#    y 0.000000 1.652900 0.000000 
#    z 0.000000 0.000000 1.627390 
# 
# From -- ./inp_files/3919.got.cif
#   From: 2010.05.17/outbox.cif.g08.bks.cpg/sg46_2_cif.got.tgz:3919.got - 2010.06.03 19:58:25.
