data_PCOD9379737
_publ_section_title
;
Structure prediction by ZEFSAII (Michael W. Deem and Ramdas Pophale) SiO2 
 PCOD9379737
Probable space group: I M A 2
;
_chemical_formula_sum "Si O2"
_cell_formula_units_Z 44
_cell_length_a 9.536989
_cell_length_b 21.470434
_cell_length_c 11.497955
_cell_angle_alpha 90.000000
_cell_angle_beta 90.000000
_cell_angle_gamma 90.000000
_cell_volume 2354.359127
_symmetry_space_group_name_H-M "I M A 2"
_symmetry_group_IT_number 46
_symmetry_cell_setting 'orthorhombic'
loop_
_space_group_symop_operation_xyz
x,y,z
-x,-y,z
1/2-x,y,z
1/2+x,-y,z
1/2+x,1/2+y,1/2+z
1/2-x,1/2-y,1/2+z
-x,1/2+y,1/2+z
x,1/2-y,1/2+z
loop_
_atom_site_type_symbol
_atom_site_label
_atom_site_fract_x
_atom_site_fract_y
_atom_site_fract_z
Si Si1 0.590512 0.911531 0.743960
Si Si2 0.500000 0.500000 0.044071
Si Si3 0.412238 0.054455 0.992704
Si Si4 0.912677 0.659771 0.681098
Si Si5 0.079777 0.201297 0.595508
Si Si6 0.416058 0.624493 0.905562
O O1 0.750000 0.897304 0.776616
O O2 0.591341 0.960996 0.638398
O O3 0.531656 0.847693 0.693948
O O4 0.524671 0.933810 0.864056
O O5 0.438958 0.555571 0.963692
O O6 0.250000 0.034578 0.983795
O O7 0.418287 0.116207 0.068319
O O8 0.500000 0.000000 0.051277
O O9 0.750000 0.660279 0.723394
O O10 0.948810 0.729406 0.639559
O O11 0.012440 0.631628 0.779828
O O12 0.250000 0.195493 0.577708
O O13 0.997243 0.176180 0.483485
O O14 0.250000 0.635996 0.902137
#
# Coordination Sequence:
#
# PCOD9379737 Si02
#       6
#     8   4   8   8   8   8
#     4   9  17  33  59  85 110 142 189 243 291 348
#     4  10  20  38  58  82 120 158 200 238 302 358
#     4  10  21  37  58  87 115 149 194 242 296 354
#     4  10  23  40  62  87 119 161 203 244 295 365
#     4   9  20  39  64  88 114 152 199 247 299 360
#     4  11  24  39  61  90 123 158 200 254 307 355
#
# _framework density 18.688737
#
# number of rings (size 3 to 8) (size 9 to 14) (size 15 to 20)
#    0.000    2.182    0.909    1.091    3.818    3.636 
#    0.000    0.000    0.000    0.000    0.000    0.000 
#    0.000    0.000    0.000    0.000    0.000    0.000 
#
# Total GULP energy -122496.346781 kJ/mol
# GULP energy per Si atom -5568.015763 kJ/mol
# Density = 1.864620 g / cm^3
# Si number density = 18.688737 Si / 1000 Ang^3
#
#
#
# Elastic Constant Matrix: (Units=GPa)
#
#
# Indices 1 2 3 4 5 6 
#
# 1 71.0637 41.1949 44.0101 0.0000 0.0000 0.0000
# 2 41.1949 123.9390 43.7471 0.0001 0.0000 0.0000
# 3 44.0101 43.7471 91.5941 0.0004 -0.0001 0.0000
# 4 0.0000 0.0001 0.0004 16.6286 0.0000 0.0000
# 5 0.0000 0.0000 -0.0001 0.0000 25.4562 0.0000
# 6 0.0000 0.0000 0.0000 0.0000 0.0000 18.3729
#
#
#
# Elastic Compliance Matrix: (Units=1/GPa)
#
#
# Indices 1 2 3 4 5 6 
#
# 1 0.021755 -0.004259 -0.008419 0.000000 0.000000 0.000000
# 2 -0.004259 0.010538 -0.002987 0.000000 0.000000 0.000000
# 3 -0.008419 -0.002987 0.016389 0.000000 0.000000 0.000000
# 4 0.000000 0.000000 0.000000 0.060137 0.000000 0.000000
# 5 0.000000 0.000000 0.000000 0.000000 0.039283 0.000000
# 6 0.000000 0.000000 0.000000 0.000000 0.000000 0.054428
#
#
# Mechanical properties :
#
#
# Convention : Reuss Voigt Hill
#
# Bulk Modulus (GPa) = 57.62674 60.50011 59.06342
# Shear Modulus (GPa) = 20.86424 22.60120 21.73272
#
# Velocity S-wave (km/s) = 3.34489 3.48134 3.41380
# Velocity P-wave (km/s) = 6.76902 6.97154 6.87103
#
# Compressibility (1/GPa) = 0.01735306
#
# Stress axis : x y z
#
# Youngs Moduli (GPa) = 45.96726 94.89052 61.01520
#
# Poissons Ratio (x) = 0.40417 0.51366
# Poissons Ratio (y) = 0.19579 0.18224
# Poissons Ratio (z) = 0.38698 0.28342
#
# Static dielectric constant tensor:
#      x y z
#    x 1.645850 0.000000 0.000000 
#    y 0.000000 1.659600 0.000000 
#    z 0.000000 0.000000 1.688280 
# 
# From -- ./inp_files/9248.got.cif
#   From: 2010.05.17/outbox.cif.g08.bks.cpg/sg46_5_cif.got.tgz:9248.got - 2010.06.03 19:58:25.
