data_PCOD9379553
_publ_section_title
;
Structure prediction by ZEFSAII (Michael W. Deem and Ramdas Pophale) SiO2 
 PCOD9379553
Probable space group: I M A 2
;
_chemical_formula_sum "Si O2"
_cell_formula_units_Z 56
_cell_length_a 8.650620
_cell_length_b 14.978249
_cell_length_c 22.177779
_cell_angle_alpha 90.000000
_cell_angle_beta 90.000000
_cell_angle_gamma 90.000000
_cell_volume 2873.600116
_symmetry_space_group_name_H-M "I M A 2"
_symmetry_group_IT_number 46
_symmetry_cell_setting 'orthorhombic'
loop_
_space_group_symop_operation_xyz
x,y,z
-x,-y,z
1/2-x,y,z
1/2+x,-y,z
1/2+x,1/2+y,1/2+z
1/2-x,1/2-y,1/2+z
-x,1/2+y,1/2+z
x,1/2-y,1/2+z
loop_
_atom_site_type_symbol
_atom_site_label
_atom_site_fract_x
_atom_site_fract_y
_atom_site_fract_z
Si Si1 0.564514 0.093757 0.655840
Si Si2 0.064156 0.789067 0.414406
Si Si3 0.433731 0.400311 0.802827
Si Si4 0.436481 0.786139 0.193134
Si Si5 0.435059 0.095979 0.520548
Si Si6 0.563921 0.094781 0.942605
Si Si7 0.564100 0.404917 0.581899
O O1 0.750000 0.088606 0.650589
O O2 0.524186 0.181530 0.693838
O O3 0.495509 0.106143 0.588755
O O4 0.500000 0.000000 0.679668
O O5 0.250000 0.793516 0.415078
O O6 0.018092 0.685035 0.408389
O O7 0.999456 0.849595 0.361126
O O8 0.001081 0.828166 0.477144
O O9 0.500000 0.500000 0.799160
O O10 0.250000 0.404963 0.806625
O O11 0.485276 0.343646 0.744835
O O12 0.250000 0.794012 0.199102
O O13 0.480864 0.827564 0.128141
O O14 0.250000 0.094818 0.519549
O O15 0.500000 0.000000 0.498796
O O16 0.750000 0.089912 0.942265
O O17 0.500000 0.000000 0.920671
O O18 0.512520 0.106579 0.012678
O O19 0.500000 0.500000 0.603768
O O20 0.750000 0.408605 0.581216
#
# Coordination Sequence:
#
# PCOD9379553 Si02
#       7
#     8   8   8   8   8   8   8
#     4  10  20  36  58  85 118 152 189 234 283 336
#     4  11  22  39  60  82 112 151 193 236 286 337
#     4  12  26  43  62  85 113 145 186 234 283 339
#     4  10  21  38  59  82 112 151 192 234 281 332
#     4  11  21  34  55  85 119 153 190 233 284 340
#     4   9  19  35  57  84 115 148 182 226 276 329
#     4   9  17  31  52  81 113 144 179 219 270 327
#
# _framework density 19.487749000000001
#
# number of rings (size 3 to 8) (size 9 to 14) (size 15 to 20)
#    0.000    1.714    0.000    6.000    0.000    6.286 
#    0.000    3.571    0.000    0.000    0.000    0.000 
#    0.000    0.000    0.000    0.000    0.000    0.000 
#
# Total GULP energy -156456.555480 kJ/mol
# GULP energy per Si atom -5587.734124 kJ/mol
# Density = 1.944339 g / cm^3
# Si number density = 19.487749 Si / 1000 Ang^3
#
#
#
# Elastic Constant Matrix: (Units=GPa)
#
#
# Indices 1 2 3 4 5 6 
#
# 1 83.7695 66.3096 28.1429 0.0000 0.0000 0.0000
# 2 66.3096 197.9913 53.1002 0.0000 0.0000 0.0000
# 3 28.1429 53.1002 40.1796 0.0000 0.0000 0.0000
# 4 0.0000 0.0000 0.0000 31.9973 0.0000 0.0000
# 5 0.0000 0.0000 0.0000 0.0000 28.1055 0.0000
# 6 0.0000 0.0000 0.0000 0.0000 0.0000 33.2919
#
#
#
# Elastic Compliance Matrix: (Units=1/GPa)
#
#
# Indices 1 2 3 4 5 6 
#
# 1 0.017414 -0.003967 -0.006955 0.000000 0.000000 0.000000
# 2 -0.003967 0.008727 -0.008755 0.000000 0.000000 0.000000
# 3 -0.006955 -0.008755 0.041330 0.000000 0.000000 0.000000
# 4 0.000000 0.000000 0.000000 0.031253 0.000000 0.000000
# 5 0.000000 0.000000 0.000000 0.000000 0.035580 0.000000
# 6 0.000000 0.000000 0.000000 0.000000 0.000000 0.030037
#
#
# Mechanical properties :
#
#
# Convention : Reuss Voigt Hill
#
# Bulk Modulus (GPa) = 35.56458 68.56062 52.06260
# Shear Modulus (GPa) = 23.46661 30.30481 26.88571
#
# Velocity S-wave (km/s) = 3.47388 3.94772 3.71835
# Velocity P-wave (km/s) = 5.86343 7.48579 6.72372
#
# Compressibility (1/GPa) = 0.02811787
#
# Stress axis : x y z
#
# Youngs Moduli (GPa) = 57.42461 114.58094 24.19531
#
# Poissons Ratio (x) = 0.45454 0.16827
# Poissons Ratio (y) = 0.22780 0.21184
# Poissons Ratio (z) = 0.39937 1.00320
#
# Static dielectric constant tensor:
#      x y z
#    x 1.656470 0.000000 0.000000 
#    y 0.000000 1.679230 0.000000 
#    z 0.000000 0.000000 1.668460 
# 
# From -- ./inp_files/21116.got.cif
#   From: 2010.05.17/outbox.cif.g08.bks.cpg/sg46_11_cif.got.tgz:21116.got - 2010.06.03 19:58:25.
