data_PCOD9379563
_publ_section_title
;
Structure prediction by ZEFSAII (Michael W. Deem and Ramdas Pophale) SiO2 
 PCOD9379563
Probable space group: I M A 2
;
_chemical_formula_sum "Si O2"
_cell_formula_units_Z 56
_cell_length_a 29.961561
_cell_length_b 5.276563
_cell_length_c 14.896331
_cell_angle_alpha 90.000000
_cell_angle_beta 90.000000
_cell_angle_gamma 90.000000
_cell_volume 2355.021509
_symmetry_space_group_name_H-M "I M A 2"
_symmetry_group_IT_number 46
_symmetry_cell_setting 'orthorhombic'
loop_
_space_group_symop_operation_xyz
x,y,z
-x,-y,z
1/2-x,y,z
1/2+x,-y,z
1/2+x,1/2+y,1/2+z
1/2-x,1/2-y,1/2+z
-x,1/2+y,1/2+z
x,1/2-y,1/2+z
loop_
_atom_site_type_symbol
_atom_site_label
_atom_site_fract_x
_atom_site_fract_y
_atom_site_fract_z
Si Si1 0.299217 0.238282 0.654860
Si Si2 0.830858 0.698244 0.467478
Si Si3 0.101637 0.879299 0.056623
Si Si4 0.420732 0.480714 0.908194
Si Si5 0.296819 0.882050 0.815984
Si Si6 0.625103 0.101669 0.241189
Si Si7 0.472640 0.253252 0.048650
O O1 0.250000 0.367103 0.660055
O O2 0.308089 0.168874 0.551586
O O3 0.340192 0.397063 0.698642
O O4 0.295901 0.992367 0.716185
O O5 0.850710 0.445215 0.514192
O O6 0.874263 0.838639 0.430522
O O7 0.800610 0.612219 0.385802
O O8 0.108097 0.748559 0.153097
O O9 0.076072 0.145716 0.080109
O O10 0.077796 0.716953 0.978681
O O11 0.417036 0.524848 0.802369
O O12 0.461328 0.310812 0.944163
O O13 0.250000 0.743608 0.834718
O O14 0.343618 0.740449 0.814148
O O15 0.500000 0.500000 0.083805
O O16 0.500000 0.000000 0.063418
#
# Coordination Sequence:
#
# PCOD9379563 Si02
#       7
#     8   8   8   8   8   8   8
#     4  10  21  37  55  81 125 172 223 284 333 381
#     4  10  20  36  58  88 123 173 230 273 329 406
#     4  10  22  40  67  95 125 179 216 276 334 400
#     4  11  21  40  67  94 131 176 220 271 340 398
#     4  11  21  35  57  88 131 178 228 290 345 386
#     4  11  22  39  62  94 126 169 227 278 325 414
#     4  11  23  45  74 101 138 176 213 271 342 412
#
# _framework density 23.778977000000001
#
# number of rings (size 3 to 8) (size 9 to 14) (size 15 to 20)
#    0.000    1.429    4.286    1.714    0.000    0.000 
#    0.000    1.429    0.000    0.000    0.000    0.000 
#    0.000    0.000    0.000    0.000    0.000    0.000 
#
# Total GULP energy -155922.424914 kJ/mol
# GULP energy per Si atom -5568.658033 kJ/mol
# Density = 2.372485 g / cm^3
# Si number density = 23.778977 Si / 1000 Ang^3
#
#
#
# Elastic Constant Matrix: (Units=GPa)
#
#
# Indices 1 2 3 4 5 6 
#
# 1 58.5132 7.2873 -2.9780 0.0000 0.0000 0.0000
# 2 7.2873 58.2683 3.2940 0.0000 0.0000 0.0000
# 3 -2.9780 3.2940 111.2687 0.0000 0.0000 0.0000
# 4 0.0000 0.0000 0.0000 25.2341 0.0000 0.0000
# 5 0.0000 0.0000 0.0000 0.0000 74.3462 0.0000
# 6 0.0000 0.0000 0.0000 0.0000 0.0000 29.5603
#
#
#
# Elastic Compliance Matrix: (Units=1/GPa)
#
#
# Indices 1 2 3 4 5 6 
#
# 1 0.017392 -0.002205 0.000531 0.000000 0.000000 0.000000
# 2 -0.002205 0.017470 -0.000576 0.000000 0.000000 0.000000
# 3 0.000531 -0.000576 0.009019 0.000000 0.000000 0.000000
# 4 0.000000 0.000000 0.000000 0.039629 0.000000 0.000000
# 5 0.000000 0.000000 0.000000 0.000000 0.013451 0.000000
# 6 0.000000 0.000000 0.000000 0.000000 0.000000 0.033829
#
#
# Mechanical properties :
#
#
# Convention : Reuss Voigt Hill
#
# Bulk Modulus (GPa) = 25.39388 27.02853 26.21121
# Shear Modulus (GPa) = 33.68888 40.52459 37.10673
#
# Velocity S-wave (km/s) = 3.76806 4.13270 3.95458
# Velocity P-wave (km/s) = 5.44365 5.84495 5.64787
#
# Compressibility (1/GPa) = 0.03937956
#
# Stress axis : x y z
#
# Youngs Moduli (GPa) = 57.49837 57.23991 110.88299
#
# Poissons Ratio (x) = 0.12622 -0.05885
# Poissons Ratio (y) = 0.12679 0.06389
# Poissons Ratio (z) = -0.03052 0.03298
#
# Static dielectric constant tensor:
#      x y z
#    x 2.020960 0.000000 0.000000 
#    y 0.000000 2.026120 0.000000 
#    z 0.000000 0.000000 1.901880 
# 
# From -- ./inp_files/17671.got.cif
#   From: 2010.05.17/outbox.cif.g08.bks.cpg/sg46_9_cif.got.tgz:17671.got - 2010.06.03 19:58:25.
