data_PCOD9379031
_publ_section_title
;
Structure prediction by ZEFSAII (Michael W. Deem and Ramdas Pophale) SiO2 
 PCOD9379031
Probable space group: I M A 2
;
_chemical_formula_sum "Si O2"
_cell_formula_units_Z 48
_cell_length_a 8.890732
_cell_length_b 28.886320
_cell_length_c 10.425568
_cell_angle_alpha 90.000000
_cell_angle_beta 90.000000
_cell_angle_gamma 90.000000
_cell_volume 2677.499895
_symmetry_space_group_name_H-M "I M A 2"
_symmetry_group_IT_number 46
_symmetry_cell_setting 'orthorhombic'
loop_
_space_group_symop_operation_xyz
x,y,z
-x,-y,z
1/2-x,y,z
1/2+x,-y,z
1/2+x,1/2+y,1/2+z
1/2-x,1/2-y,1/2+z
-x,1/2+y,1/2+z
x,1/2-y,1/2+z
loop_
_atom_site_type_symbol
_atom_site_label
_atom_site_fract_x
_atom_site_fract_y
_atom_site_fract_z
Si Si1 0.570497 0.196867 0.072630
Si Si2 0.569737 0.950807 0.729650
Si Si3 0.570226 0.356589 0.309165
Si Si4 0.570267 0.798623 0.576125
Si Si5 0.569620 0.548636 0.927742
Si Si6 0.930827 0.645929 0.814293
O O1 0.750000 0.203258 0.080352
O O2 0.491413 0.246682 0.074793
O O3 0.512816 0.167173 0.192540
O O4 0.535363 0.170214 0.940655
O O5 0.750000 0.951837 0.740545
O O6 0.502370 0.907399 0.804564
O O7 0.530881 0.944118 0.578225
O O8 0.500000 0.000000 0.769047
O O9 0.750000 0.360354 0.296974
O O10 0.504772 0.327459 0.190509
O O11 0.750000 0.798794 0.594483
O O12 0.538005 0.823407 0.440635
O O13 0.500000 0.500000 0.885911
O O14 0.750000 0.545539 0.921467
O O15 0.522445 0.593399 0.847240
O O16 0.750000 0.646614 0.794153
#
# Coordination Sequence:
#
# PCOD9379031 Si02
#       6
#     8   8   8   8   8   8
#     4  11  25  40  55  83 119 153 193 237 287 344
#     4  10  19  35  59  88 118 148 190 239 287 340
#     4  11  23  39  59  86 119 154 194 238 286 341
#     4  11  22  39  62  86 112 149 197 241 286 342
#     4   9  18  34  56  86 115 142 184 232 280 335
#     4  10  21  39  60  85 115 150 193 235 282 344
#
# _framework density 17.927171000000001
#
# number of rings (size 3 to 8) (size 9 to 14) (size 15 to 20)
#    0.000    1.667    1.667    3.000    0.000    8.000 
#    0.000    0.833    0.000    2.000    0.000    0.000 
#    0.000    0.000    0.000    0.000    0.000    0.000 
#
# Total GULP energy -134110.474047 kJ/mol
# GULP energy per Si atom -5587.936419 kJ/mol
# Density = 1.788637 g / cm^3
# Si number density = 17.927171 Si / 1000 Ang^3
#
#
#
# Elastic Constant Matrix: (Units=GPa)
#
#
# Indices 1 2 3 4 5 6 
#
# 1 52.9161 56.2049 53.4939 -0.0003 0.0000 0.0000
# 2 56.2049 169.4502 59.0610 -0.0007 0.0000 0.0000
# 3 53.4939 59.0610 97.7223 -0.0006 -0.0001 0.0000
# 4 -0.0003 -0.0007 -0.0006 -36.6237 0.0001 0.0001
# 5 0.0000 0.0000 -0.0001 0.0001 27.3801 0.0000
# 6 0.0000 0.0000 0.0000 0.0001 0.0000 37.9383
#
#
#
# Elastic Compliance Matrix: (Units=1/GPa)
#
#
# Indices 1 2 3 4 5 6 
#
# 1 0.051622 -0.009214 -0.022689 0.000000 0.000000 0.000000
# 2 -0.009214 0.009121 -0.000469 0.000000 0.000000 0.000000
# 3 -0.022689 -0.000469 0.022937 0.000000 0.000000 0.000000
# 4 0.000000 0.000000 0.000000 -0.027305 0.000000 0.000000
# 5 0.000000 0.000000 0.000000 0.000000 0.036523 0.000000
# 6 0.000000 0.000000 0.000000 0.000000 0.000000 0.026359
#
#
# Mechanical properties :
#
#
# Convention : Reuss Voigt Hill
#
# Bulk Modulus (GPa) = 52.81178 73.06758 62.93968
# Shear Modulus (GPa) = 26.27270 15.82753 21.05012
#
# Velocity S-wave (km/s) = 3.83237 2.97455 3.43038
# Velocity P-wave (km/s) = 7.00755 7.25560 7.13266
#
# Compressibility (1/GPa) = 0.01893517
#
# Stress axis : x y z
#
# Youngs Moduli (GPa) = 19.37174 109.63687 43.59858
#
# Poissons Ratio (x) = 1.01021 0.98922
# Poissons Ratio (y) = 0.17849 0.02043
# Poissons Ratio (z) = 0.43953 0.05138
#
# Static dielectric constant tensor:
#      x y z
#    x 1.599680 0.000000 0.000000 
#    y 0.000000 1.606270 0.000000 
#    z 0.000000 0.000000 1.584960 
# 
# From -- ./inp_files/3904.got.cif
#   From: 2010.05.17/outbox.cif.g08.bks.cpg/sg46_2_cif.got.tgz:3904.got - 2010.06.03 19:58:25.
