data_PCOD9379331
_publ_section_title
;
Structure prediction by ZEFSAII (Michael W. Deem and Ramdas Pophale) SiO2 
 PCOD9379331
Probable space group: I M A 2
;
_chemical_formula_sum "Si O2"
_cell_formula_units_Z 56
_cell_length_a 8.960027
_cell_length_b 24.314682
_cell_length_c 13.451830
_cell_angle_alpha 90.000000
_cell_angle_beta 90.000000
_cell_angle_gamma 90.000000
_cell_volume 2930.618471
_symmetry_space_group_name_H-M "I M A 2"
_symmetry_group_IT_number 46
_symmetry_cell_setting 'orthorhombic'
loop_
_space_group_symop_operation_xyz
x,y,z
-x,-y,z
1/2-x,y,z
1/2+x,-y,z
1/2+x,1/2+y,1/2+z
1/2-x,1/2-y,1/2+z
-x,1/2+y,1/2+z
x,1/2-y,1/2+z
loop_
_atom_site_type_symbol
_atom_site_label
_atom_site_fract_x
_atom_site_fract_y
_atom_site_fract_z
Si Si1 0.573344 0.269387 0.518560
Si Si2 0.427434 0.440014 0.606277
Si Si3 0.927580 0.667228 0.924993
Si Si4 0.572738 0.338607 0.716980
Si Si5 0.074616 0.941532 0.744787
Si Si6 0.926599 0.869474 0.907344
Si Si7 0.925701 0.058243 0.507100
O O1 0.750000 0.262146 0.503648
O O2 0.490096 0.212401 0.501143
O O3 0.549084 0.295704 0.627132
O O4 0.509037 0.314300 0.441785
O O5 0.500000 0.500000 0.612670
O O6 0.250000 0.442788 0.624823
O O7 0.503820 0.396606 0.680864
O O8 0.449580 0.413917 0.496254
O O9 0.750000 0.667119 0.924444
O O10 0.992367 0.680792 0.816431
O O11 0.991443 0.607819 0.953704
O O12 0.750000 0.344407 0.732992
O O13 0.250000 0.942980 0.769193
O O14 0.059182 0.933953 0.626354
O O15 0.994093 0.894592 0.807544
O O16 0.000000 0.000000 0.770189
O O17 0.750000 0.859687 0.898474
O O18 0.750000 0.058009 0.483096
O O19 0.000000 0.000000 0.481633
#
# Coordination Sequence:
#
# PCOD9379331 Si02
#       7
#     8   8   8   8   8   8   8
#     4  10  22  41  63  86 115 151 192 238 286 338
#     4  10  20  34  54  83 118 155 196 240 289 342
#     4  12  25  41  64  90 117 151 189 232 285 343
#     4  10  22  41  63  86 115 150 191 239 287 338
#     4  10  20  34  55  83 117 156 197 242 290 342
#     4  10  20  34  55  84 119 156 195 241 290 343
#     4  10  22  41  62  86 117 151 192 240 287 338
#
# _framework density 19.108592999999999
#
# number of rings (size 3 to 8) (size 9 to 14) (size 15 to 20)
#    0.000    1.714    0.000    4.286    0.000    8.000 
#    0.000    4.286    0.000    0.000    0.000    0.000 
#    0.000    0.000    0.000    0.000    0.000    0.000 
#
# Total GULP energy -156557.447674 kJ/mol
# GULP energy per Si atom -5591.337417 kJ/mol
# Density = 1.906510 g / cm^3
# Si number density = 19.108593 Si / 1000 Ang^3
#
#
#
# Elastic Constant Matrix: (Units=GPa)
#
#
# Indices 1 2 3 4 5 6 
#
# 1 147.4795 73.2396 57.9917 0.0000 0.0000 0.0000
# 2 73.2396 109.3219 39.5775 0.0000 0.0000 0.0000
# 3 57.9917 39.5775 38.4720 0.0000 0.0000 0.0000
# 4 0.0000 0.0000 0.0000 15.6570 0.0000 0.0000
# 5 0.0000 0.0000 0.0000 0.0000 29.8911 0.0000
# 6 0.0000 0.0000 0.0000 0.0000 0.0000 39.1689
#
#
#
# Elastic Compliance Matrix: (Units=1/GPa)
#
#
# Indices 1 2 3 4 5 6 
#
# 1 0.017429 -0.003450 -0.022723 0.000000 0.000000 0.000000
# 2 -0.003450 0.015259 -0.010496 0.000000 0.000000 0.000000
# 3 -0.022723 -0.010496 0.071043 0.000000 0.000000 0.000000
# 4 0.000000 0.000000 0.000000 0.063869 0.000000 0.000000
# 5 0.000000 0.000000 0.000000 0.000000 0.033455 0.000000
# 6 0.000000 0.000000 0.000000 0.000000 0.000000 0.025530
#
#
# Mechanical properties :
#
#
# Convention : Reuss Voigt Hill
#
# Bulk Modulus (GPa) = 32.90370 70.76565 51.83468
# Shear Modulus (GPa) = 16.12621 25.24104 20.68363
#
# Velocity S-wave (km/s) = 2.90819 3.63840 3.29359
# Velocity P-wave (km/s) = 5.34167 7.40030 6.45360
#
# Compressibility (1/GPa) = 0.03039171
#
# Stress axis : x y z
#
# Youngs Moduli (GPa) = 57.37551 65.53615 14.07604
#
# Poissons Ratio (x) = 0.22612 0.31985
# Poissons Ratio (y) = 0.19796 0.14775
# Poissons Ratio (z) = 1.30373 0.68789
#
# Static dielectric constant tensor:
#      x y z
#    x 1.629520 0.000000 0.000000 
#    y 0.000000 1.636440 0.000000 
#    z 0.000000 0.000000 1.662970 
# 
# From -- ./inp_files/14207.got.cif
#   From: 2010.05.17/outbox.cif.g08.bks.cpg/sg46_8_cif.got.tgz:14207.got - 2010.06.03 19:58:25.
