data_PCOD9379440
_publ_section_title
;
Structure prediction by ZEFSAII (Michael W. Deem and Ramdas Pophale) SiO2 
 PCOD9379440
Probable space group: I M A 2
;
_chemical_formula_sum "Si O2"
_cell_formula_units_Z 64
_cell_length_a 8.764264
_cell_length_b 20.964932
_cell_length_c 19.874674
_cell_angle_alpha 90.000000
_cell_angle_beta 90.000000
_cell_angle_gamma 90.000000
_cell_volume 3651.816301
_symmetry_space_group_name_H-M "I M A 2"
_symmetry_group_IT_number 46
_symmetry_cell_setting 'orthorhombic'
loop_
_space_group_symop_operation_xyz
x,y,z
-x,-y,z
1/2-x,y,z
1/2+x,-y,z
1/2+x,1/2+y,1/2+z
1/2-x,1/2-y,1/2+z
-x,1/2+y,1/2+z
x,1/2-y,1/2+z
loop_
_atom_site_type_symbol
_atom_site_label
_atom_site_fract_x
_atom_site_fract_y
_atom_site_fract_z
Si Si1 0.567375 0.193791 0.851180
Si Si2 0.067667 0.736507 0.634065
Si Si3 0.432356 0.312762 0.768596
Si Si4 0.430778 0.567998 0.848685
Si Si5 0.569233 0.767081 0.989945
Si Si6 0.070133 0.113767 0.484424
Si Si7 0.933282 0.621091 0.136339
Si Si8 0.932157 0.434380 0.269573
O O1 0.750000 0.202704 0.850176
O O2 0.490867 0.250984 0.809459
O O3 0.505520 0.198126 0.926782
O O4 0.531598 0.126698 0.815712
O O5 0.250000 0.736412 0.637536
O O6 0.997770 0.694354 0.693555
O O7 0.009446 0.716368 0.560504
O O8 0.006732 0.808814 0.644152
O O9 0.250000 0.313074 0.768068
O O10 0.494535 0.375125 0.806008
O O11 0.500000 0.500000 0.829004
O O12 0.250000 0.568591 0.840067
O O13 0.473158 0.580890 0.926709
O O14 0.750000 0.779112 0.993515
O O15 0.550200 0.690540 0.979517
O O16 0.250000 0.100105 0.473393
O O17 0.029249 0.096582 0.561232
O O18 0.750000 0.627507 0.139810
O O19 0.995094 0.578425 0.196472
O O20 0.750000 0.438858 0.263295
O O21 0.000000 0.500000 0.297120
#
# Coordination Sequence:
#
# PCOD9379440 Si02
#       8
#     8   8   8   8   8   8   8   8
#     4  11  22  37  59  88 116 150 195 244 293 344
#     4  11  21  35  57  87 120 151 191 240 291 344
#     4  12  23  38  61  87 117 153 195 241 292 347
#     4  12  25  40  59  83 116 155 197 242 293 348
#     4  10  20  35  58  87 118 152 190 236 292 347
#     4   9  19  35  54  81 115 152 194 234 281 344
#     4  10  20  35  56  81 115 154 196 238 288 344
#     4  11  24  39  57  82 117 155 199 242 292 348
#
# _framework density 17.525524000000001
#
# number of rings (size 3 to 8) (size 9 to 14) (size 15 to 20)
#    0.000    1.250    2.500    5.625    0.000    4.500 
#    0.000    0.000    0.000    0.750    0.000    3.500 
#    0.000    0.000    0.000    0.000    0.000    0.000 
#
# Total GULP energy -178906.404840 kJ/mol
# GULP energy per Si atom -5590.825151 kJ/mol
# Density = 1.748564 g / cm^3
# Si number density = 17.525524 Si / 1000 Ang^3
#
#
#
# Elastic Constant Matrix: (Units=GPa)
#
#
# Indices 1 2 3 4 5 6 
#
# 1 126.3115 69.0996 63.9890 0.0000 0.0000 0.0000
# 2 69.0996 107.4839 63.6413 0.0000 0.0000 0.0000
# 3 63.9890 63.6413 120.9384 0.0000 0.0000 0.0000
# 4 0.0000 0.0000 0.0000 17.6805 0.0000 0.0000
# 5 0.0000 0.0000 0.0000 0.0000 68.8085 0.0000
# 6 0.0000 0.0000 0.0000 0.0000 0.0000 27.3334
#
#
#
# Elastic Compliance Matrix: (Units=1/GPa)
#
#
# Indices 1 2 3 4 5 6 
#
# 1 0.013246 -0.006342 -0.003671 0.000000 0.000000 0.000000
# 2 -0.006342 0.016551 -0.005354 0.000000 0.000000 0.000000
# 3 -0.003671 -0.005354 0.013029 0.000000 0.000000 0.000000
# 4 0.000000 0.000000 0.000000 0.056559 0.000000 0.000000
# 5 0.000000 0.000000 0.000000 0.000000 0.014533 0.000000
# 6 0.000000 0.000000 0.000000 0.000000 0.000000 0.036585
#
#
# Mechanical properties :
#
#
# Convention : Reuss Voigt Hill
#
# Bulk Modulus (GPa) = 82.70482 83.13262 82.91872
# Shear Modulus (GPa) = 26.98780 33.29807 30.14294
#
# Velocity S-wave (km/s) = 3.92843 4.36360 4.15172
# Velocity P-wave (km/s) = 8.23834 8.53968 8.39036
#
# Compressibility (1/GPa) = 0.01209119
#
# Stress axis : x y z
#
# Youngs Moduli (GPa) = 75.49316 60.41918 76.75401
#
# Poissons Ratio (x) = 0.38318 0.28179
# Poissons Ratio (y) = 0.47878 0.41095
# Poissons Ratio (z) = 0.27716 0.32349
#
# Static dielectric constant tensor:
#      x y z
#    x 1.577240 0.000000 0.000000 
#    y 0.000000 1.587580 0.000000 
#    z 0.000000 0.000000 1.597880 
# 
# From -- ./inp_files/18584.got.cif
#   From: 2010.05.17/outbox.cif.g08.bks.cpg/sg46_10_cif.got.tgz:18584.got - 2010.06.03 19:58:25.
