data_PCOD9379554
_publ_section_title
;
Structure prediction by ZEFSAII (Michael W. Deem and Ramdas Pophale) SiO2 
 PCOD9379554
Probable space group: I M A 2
;
_chemical_formula_sum "Si O2"
_cell_formula_units_Z 60
_cell_length_a 13.422149
_cell_length_b 12.190800
_cell_length_c 19.652808
_cell_angle_alpha 90.000000
_cell_angle_beta 90.000000
_cell_angle_gamma 90.000000
_cell_volume 3215.724788
_symmetry_space_group_name_H-M "I M A 2"
_symmetry_group_IT_number 46
_symmetry_cell_setting 'orthorhombic'
loop_
_space_group_symop_operation_xyz
x,y,z
-x,-y,z
1/2-x,y,z
1/2+x,-y,z
1/2+x,1/2+y,1/2+z
1/2-x,1/2-y,1/2+z
-x,1/2+y,1/2+z
x,1/2-y,1/2+z
loop_
_atom_site_type_symbol
_atom_site_label
_atom_site_fract_x
_atom_site_fract_y
_atom_site_fract_z
Si Si1 0.370949 0.812507 0.782410
Si Si2 0.000000 0.500000 0.222053
Si Si3 0.868454 0.411974 0.027698
Si Si4 0.954786 0.250404 0.926101
Si Si5 0.129991 0.773550 0.137509
Si Si6 0.368094 0.312351 0.508336
Si Si7 0.370091 0.935027 0.025907
Si Si8 0.868800 0.623524 0.111038
O O1 0.250000 0.821154 0.788096
O O2 0.419260 0.761309 0.849461
O O3 0.397933 0.741842 0.715358
O O4 0.423061 0.929207 0.766842
O O5 0.933484 0.580866 0.174383
O O6 0.750000 0.401212 0.018175
O O7 0.919333 0.362364 0.961596
O O8 0.895947 0.332482 0.091251
O O9 0.888727 0.535007 0.051080
O O10 0.070296 0.235698 0.945137
O O11 0.903106 0.149862 0.967642
O O12 0.250000 0.775148 0.137669
O O13 0.096195 0.880468 0.096853
O O14 0.250000 0.305923 0.497031
O O15 0.399016 0.439091 0.516507
O O16 0.388964 0.241239 0.576595
O O17 0.250000 0.934709 0.025672
O O18 0.750000 0.616805 0.127214
#
# Coordination Sequence:
#
# PCOD9379554 Si02
#       8
#     8   4   8   8   8   8   8   8
#     4  11  23  37  55  86 118 146 186 235 289 340
#     4  12  22  34  56  84 116 152 180 226 290 352
#     4   9  16  32  58  85 109 138 184 240 282 322
#     4  11  21  35  55  85 110 146 190 234 287 332
#     4   8  15  31  54  80 107 135 174 230 279 315
#     4  10  22  36  54  82 116 150 190 231 278 342
#     4   9  18  34  56  81 109 143 185 235 280 325
#     4  10  20  36  58  86 115 146 186 235 285 343
#
# _framework density 18.658313
#
# number of rings (size 3 to 8) (size 9 to 14) (size 15 to 20)
#    0.000    2.133    1.333    3.600    3.733    0.000 
#    0.000    0.667    0.000    3.200    0.000    5.600 
#    0.000    0.000    0.000    0.000    0.000    0.000 
#
# Total GULP energy -167418.929080 kJ/mol
# GULP energy per Si atom -5580.630969 kJ/mol
# Density = 1.861585 g / cm^3
# Si number density = 18.658313 Si / 1000 Ang^3
#
#
#
# Elastic Constant Matrix: (Units=GPa)
#
#
# Indices 1 2 3 4 5 6 
#
# 1 77.5313 1.6388 13.9380 0.0000 0.0000 0.0000
# 2 1.6388 49.4313 7.9064 0.0000 0.0000 0.0000
# 3 13.9380 7.9064 110.4651 0.0000 0.0000 0.0000
# 4 0.0000 0.0000 0.0000 20.5335 0.0000 0.0000
# 5 0.0000 0.0000 0.0000 0.0000 27.3443 0.0000
# 6 0.0000 0.0000 0.0000 0.0000 0.0000 28.5617
#
#
#
# Elastic Compliance Matrix: (Units=1/GPa)
#
#
# Indices 1 2 3 4 5 6 
#
# 1 0.013199 -0.000173 -0.001653 0.000000 0.000000 0.000000
# 2 -0.000173 0.020467 -0.001443 0.000000 0.000000 0.000000
# 3 -0.001653 -0.001443 0.009364 0.000000 0.000000 0.000000
# 4 0.000000 0.000000 0.000000 0.048701 0.000000 0.000000
# 5 0.000000 0.000000 0.000000 0.000000 0.036571 0.000000
# 6 0.000000 0.000000 0.000000 0.000000 0.000000 0.035012
#
#
# Mechanical properties :
#
#
# Convention : Reuss Voigt Hill
#
# Bulk Modulus (GPa) = 27.40359 31.59936 29.50147
# Shear Modulus (GPa) = 27.47013 29.55084 28.51049
#
# Velocity S-wave (km/s) = 3.84118 3.98400 3.91324
# Velocity P-wave (km/s) = 5.86446 6.17540 6.02194
#
# Compressibility (1/GPa) = 0.03649157
#
# Stress axis : x y z
#
# Youngs Moduli (GPa) = 75.76429 48.85995 106.78645
#
# Poissons Ratio (x) = 0.00846 0.17652
# Poissons Ratio (y) = 0.01312 0.15410
# Poissons Ratio (z) = 0.12524 0.07051
#
# Static dielectric constant tensor:
#      x y z
#    x 1.714400 0.000000 0.000000 
#    y 0.000000 1.660280 0.000000 
#    z 0.000000 0.000000 1.614140 
# 
# From -- ./inp_files/19606.got.cif
#   From: 2010.05.17/outbox.cif.g08.bks.cpg/sg46_10_cif.got.tgz:19606.got - 2010.06.03 19:58:25.
