data_PCOD9379308
_publ_section_title
;
Structure prediction by ZEFSAII (Michael W. Deem and Ramdas Pophale) SiO2 
 PCOD9379308
Probable space group: I M A 2
;
_chemical_formula_sum "Si O2"
_cell_formula_units_Z 64
_cell_length_a 18.918589
_cell_length_b 22.837536
_cell_length_c 8.059943
_cell_angle_alpha 90.000000
_cell_angle_beta 90.000000
_cell_angle_gamma 90.000000
_cell_volume 3482.330269
_symmetry_space_group_name_H-M "I M A 2"
_symmetry_group_IT_number 46
_symmetry_cell_setting 'orthorhombic'
loop_
_space_group_symop_operation_xyz
x,y,z
-x,-y,z
1/2-x,y,z
1/2+x,-y,z
1/2+x,1/2+y,1/2+z
1/2-x,1/2-y,1/2+z
-x,1/2+y,1/2+z
x,1/2-y,1/2+z
loop_
_atom_site_type_symbol
_atom_site_label
_atom_site_fract_x
_atom_site_fract_y
_atom_site_fract_z
Si Si1 0.529494 0.577840 0.317410
Si Si2 0.668171 0.003074 0.316338
Si Si3 0.476959 0.678391 0.818508
Si Si4 0.962022 0.557738 0.696197
Si Si5 0.022569 0.694806 0.211101
Si Si6 0.172017 0.642285 0.213154
Si Si7 0.327163 0.638302 0.807526
Si Si8 0.889183 0.022727 0.685645
O O1 0.512077 0.564260 0.507552
O O2 0.529251 0.646890 0.291354
O O3 0.465698 0.554927 0.199216
O O4 0.597637 0.538860 0.275700
O O5 0.750000 0.986178 0.321972
O O6 0.619871 0.959245 0.212151
O O7 0.664825 0.070454 0.255141
O O8 0.636827 0.007632 0.502251
O O9 0.518409 0.618833 0.780028
O O10 0.502118 0.739797 0.746777
O O11 0.396863 0.671071 0.750661
O O12 0.475659 0.685000 0.015371
O O13 0.000000 0.500000 0.770462
O O14 0.103584 0.679553 0.269893
O O15 0.250000 0.662587 0.267210
O O16 0.160512 0.573722 0.259894
O O17 0.172058 0.640757 0.010159
O O18 0.250000 0.659938 0.752791
#
# Coordination Sequence:
#
# PCOD9379308 Si02
#       8
#     8   8   8   8   8   8   8   8
#     4  10  20  34  52  83 113 147 191 244 290 335
#     4  10  20  34  55  84 115 151 189 235 294 354
#     4  11  21  35  55  80 108 154 195 242 288 345
#     4  12  22  35  58  85 114 150 195 243 296 345
#     4  10  21  35  53  77 114 145 196 241 285 347
#     4   8  15  28  47  72 106 150 185 219 268 331
#     4   8  15  28  47  73 107 143 184 226 268 325
#     4   9  16  30  53  79 111 144 191 236 283 330
#
# _framework density 18.378499000000001
#
# number of rings (size 3 to 8) (size 9 to 14) (size 15 to 20)
#    0.000    2.250    2.500    3.375    1.750    0.500 
#    0.000    1.250    0.000    6.750    0.000    8.750 
#    0.000    0.000    0.000    0.000    0.000    0.000 
#
# Total GULP energy -178308.301520 kJ/mol
# GULP energy per Si atom -5572.134423 kJ/mol
# Density = 1.833667 g / cm^3
# Si number density = 18.378499 Si / 1000 Ang^3
#
#
#
# Elastic Constant Matrix: (Units=GPa)
#
#
# Indices 1 2 3 4 5 6 
#
# 1 50.4575 25.5193 16.7718 0.0000 0.0000 0.0000
# 2 25.5193 124.7169 24.2827 0.0000 0.0000 0.0000
# 3 16.7718 24.2827 27.6617 0.0000 0.0000 0.0000
# 4 0.0000 0.0000 0.0000 12.6664 0.0000 0.0000
# 5 0.0000 0.0000 0.0000 0.0000 5.9913 0.0000
# 6 0.0000 0.0000 0.0000 0.0000 0.0000 18.9895
#
#
#
# Elastic Compliance Matrix: (Units=1/GPa)
#
#
# Indices 1 2 3 4 5 6 
#
# 1 0.025535 -0.002666 -0.013142 0.000000 0.000000 0.000000
# 2 -0.002666 0.009950 -0.007118 0.000000 0.000000 0.000000
# 3 -0.013142 -0.007118 0.050368 0.000000 0.000000 0.000000
# 4 0.000000 0.000000 0.000000 0.078949 0.000000 0.000000
# 5 0.000000 0.000000 0.000000 0.000000 0.166908 0.000000
# 6 0.000000 0.000000 0.000000 0.000000 0.000000 0.052661
#
#
# Mechanical properties :
#
#
# Convention : Reuss Voigt Hill
#
# Bulk Modulus (GPa) = 24.99952 37.33153 31.16552
# Shear Modulus (GPa) = 11.27256 16.61360 13.94308
#
# Velocity S-wave (km/s) = 2.47929 3.00987 2.75737
# Velocity P-wave (km/s) = 4.67204 5.69524 5.20883
#
# Compressibility (1/GPa) = 0.04000076
#
# Stress axis : x y z
#
# Youngs Moduli (GPa) = 39.16119 100.50723 19.85407
#
# Poissons Ratio (x) = 0.26797 0.26092
# Poissons Ratio (y) = 0.10441 0.14131
# Poissons Ratio (z) = 0.51466 0.71537
#
# Static dielectric constant tensor:
#      x y z
#    x 1.658380 0.000000 0.000000 
#    y 0.000000 1.671170 0.000000 
#    z 0.000000 0.000000 1.650640 
# 
# From -- ./inp_files/7029.got.cif
#   From: 2010.05.17/outbox.cif.g08.bks.cpg/sg46_4_cif.got.tgz:7029.got - 2010.06.03 19:58:25.
