data_PCOD9379669
_publ_section_title
;
Structure prediction by ZEFSAII (Michael W. Deem and Ramdas Pophale) SiO2 
 PCOD9379669
Probable space group: I M A 2
;
_chemical_formula_sum "Si O2"
_cell_formula_units_Z 24
_cell_length_a 11.627367
_cell_length_b 19.186000
_cell_length_c 5.040455
_cell_angle_alpha 90.000000
_cell_angle_beta 90.000000
_cell_angle_gamma 90.000000
_cell_volume 1124.438125
_symmetry_space_group_name_H-M "I M A 2"
_symmetry_group_IT_number 46
_symmetry_cell_setting 'orthorhombic'
loop_
_space_group_symop_operation_xyz
x,y,z
-x,-y,z
1/2-x,y,z
1/2+x,-y,z
1/2+x,1/2+y,1/2+z
1/2-x,1/2-y,1/2+z
-x,1/2+y,1/2+z
x,1/2-y,1/2+z
loop_
_atom_site_type_symbol
_atom_site_label
_atom_site_fract_x
_atom_site_fract_y
_atom_site_fract_z
Si Si1 0.383287 0.872055 0.694830
Si Si2 0.000000 0.000000 0.459410
Si Si3 0.250000 0.288073 0.492407
Si Si4 0.976139 0.639817 0.710892
O O1 0.250000 0.856801 0.653742
O O2 0.466867 0.832977 0.484325
O O3 0.411257 0.953715 0.629348
O O4 0.424926 0.858454 0.990427
O O5 0.056021 0.059692 0.279073
O O6 0.250000 0.281875 0.174926
O O7 0.135031 0.324281 0.594795
#
# Coordination Sequence:
#
# PCOD9379669 Si02
#       4
#     8   4   4   8
#     4  10  20  37  60  93 133 161 207 266 338 392
#     4   8  22  34  58 102 118 176 192 276 332 388
#     4  12  26  46  70  92 134 182 228 276 310 390
#     4  10  22  39  61  96 125 168 220 268 327 388
#
# _framework density 21.343996000000001
#
# number of rings (size 3 to 8) (size 9 to 14) (size 15 to 20)
#    2.000    0.000    0.000    4.000    2.333    0.000 
#    9.000    0.000    0.000   20.000    0.000    0.000 
#    0.000    0.000    0.000    0.000    0.000    0.000 
#
# Total GULP energy -66854.185184 kJ/mol
# GULP energy per Si atom -5571.182099 kJ/mol
# Density = 2.129542 g / cm^3
# Si number density = 21.343996 Si / 1000 Ang^3
#
#
#
# Elastic Constant Matrix: (Units=GPa)
#
#
# Indices 1 2 3 4 5 6 
#
# 1 95.0657 4.3227 -13.3159 -0.0001 -0.0001 -0.0001
# 2 4.3227 17.4831 -12.3749 -0.0001 -0.0001 -0.0001
# 3 -13.3159 -12.3749 76.9378 -0.0006 -0.0001 -0.0001
# 4 -0.0001 -0.0001 -0.0006 10.0123 -0.0001 0.0000
# 5 -0.0001 -0.0001 -0.0001 -0.0001 11.6444 0.0000
# 6 -0.0001 -0.0001 -0.0001 0.0000 0.0000 24.5963
#
#
#
# Elastic Compliance Matrix: (Units=1/GPa)
#
#
# Indices 1 2 3 4 5 6 
#
# 1 0.010816 -0.001523 0.001627 0.000000 0.000000 0.000000
# 2 -0.001523 0.064761 0.010153 0.000001 0.000000 0.000000
# 3 0.001627 0.010153 0.014912 0.000001 0.000000 0.000000
# 4 0.000000 0.000001 0.000001 0.099877 0.000001 0.000000
# 5 0.000000 0.000000 0.000000 0.000001 0.085878 0.000000
# 6 0.000000 0.000000 0.000000 0.000000 0.000000 0.040657
#
#
# Mechanical properties :
#
#
# Convention : Reuss Voigt Hill
#
# Bulk Modulus (GPa) = 9.00870 16.30561 12.65716
# Shear Modulus (GPa) = 14.99756 23.30758 19.15257
#
# Velocity S-wave (km/s) = 2.65365 3.30812 2.99879
# Velocity P-wave (km/s) = 3.69040 4.71674 4.23477
#
# Compressibility (1/GPa) = 0.11100375
#
# Stress axis : x y z
#
# Youngs Moduli (GPa) = 92.45408 15.44141 67.05950
#
# Poissons Ratio (x) = 0.02351 -0.10911
# Poissons Ratio (y) = 0.14077 -0.68084
# Poissons Ratio (z) = -0.15043 -0.15677
#
# Static dielectric constant tensor:
#      x y z
#    x 1.708620 0.000000 0.000000 
#    y 0.000000 1.835870 0.000000 
#    z 0.000000 0.000000 1.780650 
# 
# From -- ./inp_files/587.got.cif
#   From: 2010.05.17/outbox.cif.g08.bks.cpg/sg46_1_cif.got.tgz:587.got - 2010.06.03 19:58:25.
