data_PCOD9379439
_publ_section_title
;
Structure prediction by ZEFSAII (Michael W. Deem and Ramdas Pophale) SiO2 
 PCOD9379439
Probable space group: I M A 2
;
_chemical_formula_sum "Si O2"
_cell_formula_units_Z 64
_cell_length_a 8.080532
_cell_length_b 14.323375
_cell_length_c 25.262706
_cell_angle_alpha 90.000000
_cell_angle_beta 90.000000
_cell_angle_gamma 90.000000
_cell_volume 2923.917972
_symmetry_space_group_name_H-M "I M A 2"
_symmetry_group_IT_number 46
_symmetry_cell_setting 'orthorhombic'
loop_
_space_group_symop_operation_xyz
x,y,z
-x,-y,z
1/2-x,y,z
1/2+x,-y,z
1/2+x,1/2+y,1/2+z
1/2-x,1/2-y,1/2+z
-x,1/2+y,1/2+z
x,1/2-y,1/2+z
loop_
_atom_site_type_symbol
_atom_site_label
_atom_site_fract_x
_atom_site_fract_y
_atom_site_fract_z
Si Si1 0.950379 0.891490 0.480420
Si Si2 0.054851 0.287841 0.084337
Si Si3 0.555271 0.106429 0.250708
Si Si4 0.051690 0.390515 0.865676
Si Si5 0.950170 0.108219 0.803376
Si Si6 0.449468 0.786429 0.699062
Si Si7 0.051950 0.892807 0.033332
Si Si8 0.949682 0.390645 0.417268
O O1 0.750000 0.886185 0.479749
O O2 0.016011 0.840107 0.532574
O O3 0.007432 0.852905 0.422799
O O4 0.000000 0.000000 0.483249
O O5 0.250000 0.300388 0.083019
O O6 0.994782 0.321849 0.141224
O O7 0.013013 0.179137 0.076341
O O8 0.750000 0.104242 0.244485
O O9 0.519077 0.144089 0.310058
O O10 0.486941 0.180928 0.209066
O O11 0.500000 0.000000 0.245638
O O12 0.250000 0.384593 0.862893
O O13 0.000000 0.500000 0.866579
O O14 0.750000 0.114684 0.803840
O O15 0.011171 0.155690 0.749671
O O16 0.010014 0.147878 0.860568
O O17 0.000000 0.000000 0.801836
O O18 0.250000 0.785953 0.701563
O O19 0.250000 0.889478 0.033349
O O20 0.989004 0.858926 0.974996
O O21 0.000000 0.000000 0.041116
O O22 0.750000 0.383785 0.417823
O O23 0.000000 0.500000 0.416418
#
# Coordination Sequence:
#
# PCOD9379439 Si02
#       8
#     8   8   8   8   8   8   8   8
#     4   9  20  37  57  82 111 144 180 223 273 324
#     4  11  24  40  56  78 109 144 188 234 272 318
#     4  10  20  35  56  81 109 140 175 218 268 320
#     4   9  16  30  53  81 111 139 172 214 265 324
#     4   9  18  35  57  81 110 141 175 218 268 322
#     4  10  23  40  55  75 106 144 186 227 268 319
#     4  10  20  36  59  85 113 145 180 220 271 326
#     4   8  15  29  52  81 109 137 171 212 262 323
#
# _framework density 21.888439999999999
#
# number of rings (size 3 to 8) (size 9 to 14) (size 15 to 20)
#    0.000    2.500    0.000    2.250    0.000    5.500 
#    0.000    5.000    0.000    0.000    0.000    0.000 
#    0.000    0.000    0.000    0.000    0.000    0.000 
#
# Total GULP energy -178544.038601 kJ/mol
# GULP energy per Si atom -5579.501206 kJ/mol
# Density = 2.183862 g / cm^3
# Si number density = 21.888440 Si / 1000 Ang^3
#
#
#
# Elastic Constant Matrix: (Units=GPa)
#
#
# Indices 1 2 3 4 5 6 
#
# 1 19.7013 -9.7861 -1.7641 0.0000 0.0000 0.0000
# 2 -9.7861 36.8757 15.4933 0.0000 0.0000 0.0000
# 3 -1.7641 15.4933 108.9101 0.0000 0.0000 0.0000
# 4 0.0000 0.0000 0.0000 31.7572 0.0000 0.0000
# 5 0.0000 0.0000 0.0000 0.0000 50.0005 0.0000
# 6 0.0000 0.0000 0.0000 0.0000 0.0000 15.0400
#
#
#
# Elastic Compliance Matrix: (Units=1/GPa)
#
#
# Indices 1 2 3 4 5 6 
#
# 1 0.058649 0.016129 -0.001345 0.000000 0.000000 0.000000
# 2 0.016129 0.033278 -0.004473 0.000000 0.000000 0.000000
# 3 -0.001345 -0.004473 0.009796 0.000000 0.000000 0.000000
# 4 0.000000 0.000000 0.000000 0.031489 0.000000 0.000000
# 5 0.000000 0.000000 0.000000 0.000000 0.020000 0.000000
# 6 0.000000 0.000000 0.000000 0.000000 0.000000 0.066489
#
#
# Mechanical properties :
#
#
# Convention : Reuss Voigt Hill
#
# Bulk Modulus (GPa) = 8.17343 19.26369 13.71856
# Shear Modulus (GPa) = 20.84549 30.12913 25.48731
#
# Velocity S-wave (km/s) = 3.08937 3.71413 3.41606
# Velocity P-wave (km/s) = 4.05806 5.21660 4.67337
#
# Compressibility (1/GPa) = 0.12234760
#
# Stress axis : x y z
#
# Youngs Moduli (GPa) = 17.05049 30.05008 102.07844
#
# Poissons Ratio (x) = -0.48469 0.13724
# Poissons Ratio (y) = -0.27501 0.45657
# Poissons Ratio (z) = 0.02292 0.13441
#
# Static dielectric constant tensor:
#      x y z
#    x 1.726410 0.000000 0.000000 
#    y 0.000000 1.824510 0.000000 
#    z 0.000000 0.000000 1.844050 
# 
# From -- ./inp_files/23199.got.cif
#   From: 2010.05.17/outbox.cif.g08.bks.cpg/sg46_12_cif.got.tgz:23199.got - 2010.06.03 19:58:25.
