data_PCOD9379880
_publ_section_title
;
Structure prediction by ZEFSAII (Michael W. Deem and Ramdas Pophale) SiO2 
 PCOD9379880
Probable space group: I M A 2
;
_chemical_formula_sum "Si O2"
_cell_formula_units_Z 64
_cell_length_a 23.178377
_cell_length_b 9.345918
_cell_length_c 15.164713
_cell_angle_alpha 90.000000
_cell_angle_beta 90.000000
_cell_angle_gamma 90.000000
_cell_volume 3285.028821
_symmetry_space_group_name_H-M "I M A 2"
_symmetry_group_IT_number 46
_symmetry_cell_setting 'orthorhombic'
loop_
_space_group_symop_operation_xyz
x,y,z
-x,-y,z
1/2-x,y,z
1/2+x,-y,z
1/2+x,1/2+y,1/2+z
1/2-x,1/2-y,1/2+z
-x,1/2+y,1/2+z
x,1/2-y,1/2+z
loop_
_atom_site_type_symbol
_atom_site_label
_atom_site_fract_x
_atom_site_fract_y
_atom_site_fract_z
Si Si1 0.316447 0.396659 0.560490
Si Si2 0.814454 0.476573 0.929150
Si Si3 0.816328 0.420693 0.720418
Si Si4 0.944802 0.601293 0.184977
Si Si5 0.813225 0.156784 0.930216
Si Si6 0.607486 0.335510 0.265402
Si Si7 0.988718 0.672525 0.815682
Si Si8 0.086631 0.316163 0.990838
O O1 0.250000 0.337855 0.557867
O O2 0.331193 0.443684 0.659907
O O3 0.315112 0.543816 0.506919
O O4 0.367591 0.308012 0.515621
O O5 0.750000 0.533847 0.949742
O O6 0.818448 0.461975 0.823260
O O7 0.818834 0.316551 0.965842
O O8 0.869354 0.561301 0.960872
O O9 0.750000 0.383083 0.698970
O O10 0.857476 0.284237 0.710770
O O11 0.896823 0.485572 0.213535
O O12 0.948086 0.744729 0.244345
O O13 0.943018 0.642986 0.082873
O O14 0.000000 0.500000 0.201280
O O15 0.750000 0.150016 0.886436
O O16 0.859442 0.130515 0.855497
O O17 0.549016 0.254818 0.297398
O O18 0.000000 0.500000 0.805932
O O19 0.959489 0.702428 0.911535
#
# Coordination Sequence:
#
# PCOD9379880 Si02
#       8
#     8   8   8   8   8   8   8   8
#     4  10  22  38  59  93 129 159 205 260 310 372
#     4   9  19  36  60  87 119 161 206 252 305 372
#     4   9  19  37  63  93 124 166 211 251 314 385
#     4  10  25  43  59  90 124 157 208 265 303 372
#     4   9  18  36  61  89 119 157 204 250 305 368
#     4  10  20  40  64  87 125 160 204 259 311 361
#     4  11  24  43  64  87 124 166 211 258 318 377
#     4  12  24  39  64  88 126 161 208 252 321 369
#
# _framework density 19.482326
#
# number of rings (size 3 to 8) (size 9 to 14) (size 15 to 20)
#    0.000    2.000    0.000    4.125    5.250    0.000 
#    2.250    3.750    0.000    0.000    0.000    0.000 
#    0.000    0.000    0.000    0.000    0.000    0.000 
#
# Total GULP energy -178268.712423 kJ/mol
# GULP energy per Si atom -5570.897263 kJ/mol
# Density = 1.943798 g / cm^3
# Si number density = 19.482326 Si / 1000 Ang^3
#
#
#
# Elastic Constant Matrix: (Units=GPa)
#
#
# Indices 1 2 3 4 5 6 
#
# 1 47.7083 36.6534 22.7849 0.0000 0.0000 0.0000
# 2 36.6534 102.9458 55.6906 0.0000 0.0000 0.0000
# 3 22.7849 55.6906 77.8440 0.0000 0.0000 0.0000
# 4 0.0000 0.0000 0.0000 24.9519 0.0000 0.0000
# 5 0.0000 0.0000 0.0000 0.0000 29.4101 0.0000
# 6 0.0000 0.0000 0.0000 0.0000 0.0000 29.4093
#
#
#
# Elastic Compliance Matrix: (Units=1/GPa)
#
#
# Indices 1 2 3 4 5 6 
#
# 1 0.029007 -0.009355 -0.001797 0.000000 0.000000 0.000000
# 2 -0.009355 0.018864 -0.010757 0.000000 0.000000 0.000000
# 3 -0.001797 -0.010757 0.021068 0.000000 0.000000 0.000000
# 4 0.000000 0.000000 0.000000 0.040077 0.000000 0.000000
# 5 0.000000 0.000000 0.000000 0.000000 0.034002 0.000000
# 6 0.000000 0.000000 0.000000 0.000000 0.000000 0.034003
#
#
# Mechanical properties :
#
#
# Convention : Reuss Voigt Hill
#
# Bulk Modulus (GPa) = 39.81047 50.97287 45.39167
# Shear Modulus (GPa) = 21.81366 24.31220 23.06293
#
# Velocity S-wave (km/s) = 3.34977 3.53641 3.44435
# Velocity P-wave (km/s) = 5.95313 6.54946 6.25840
#
# Compressibility (1/GPa) = 0.02511902
#
# Stress axis : x y z
#
# Youngs Moduli (GPa) = 34.47482 53.01034 47.46486
#
# Poissons Ratio (x) = 0.49594 0.08530
# Poissons Ratio (y) = 0.32253 0.51060
# Poissons Ratio (z) = 0.06196 0.57025
#
# Static dielectric constant tensor:
#      x y z
#    x 1.739810 0.000000 0.000000 
#    y 0.000000 1.711930 0.000000 
#    z 0.000000 0.000000 1.676500 
# 
# From -- ./inp_files/17435.got.cif
#   From: 2010.05.17/outbox.cif.g08.bks.cpg/sg46_9_cif.got.tgz:17435.got - 2010.06.03 19:58:25.
