data_PCOD9379567
_publ_section_title
;
Structure prediction by ZEFSAII (Michael W. Deem and Ramdas Pophale) SiO2 
 PCOD9379567
Probable space group: I M A 2
;
_chemical_formula_sum "Si O2"
_cell_formula_units_Z 48
_cell_length_a 8.705197
_cell_length_b 15.520402
_cell_length_c 18.610926
_cell_angle_alpha 90.000000
_cell_angle_beta 90.000000
_cell_angle_gamma 90.000000
_cell_volume 2514.487911
_symmetry_space_group_name_H-M "I M A 2"
_symmetry_group_IT_number 46
_symmetry_cell_setting 'orthorhombic'
loop_
_space_group_symop_operation_xyz
x,y,z
-x,-y,z
1/2-x,y,z
1/2+x,-y,z
1/2+x,1/2+y,1/2+z
1/2-x,1/2-y,1/2+z
-x,1/2+y,1/2+z
x,1/2-y,1/2+z
loop_
_atom_site_type_symbol
_atom_site_label
_atom_site_fract_x
_atom_site_fract_y
_atom_site_fract_z
Si Si1 0.934079 0.092965 0.531750
Si Si2 0.565660 0.408041 0.748035
Si Si3 0.433537 0.265881 0.470263
Si Si4 0.564614 0.270318 0.317615
Si Si5 0.934951 0.092720 0.698124
Si Si6 0.434828 0.092749 0.088369
O O1 0.750000 0.090506 0.528056
O O2 0.981649 0.108104 0.615295
O O3 0.996211 0.172388 0.486320
O O4 0.000000 0.000000 0.510032
O O5 0.500000 0.500000 0.772308
O O6 0.750000 0.413039 0.744501
O O7 0.521908 0.327670 0.797612
O O8 0.502095 0.391462 0.667776
O O9 0.250000 0.260154 0.470396
O O10 0.492048 0.296403 0.392928
O O11 0.479701 0.332549 0.532928
O O12 0.750000 0.274066 0.322922
O O13 0.516072 0.332796 0.252627
O O14 0.750000 0.089249 0.698963
O O15 0.000000 0.000000 0.720026
O O16 0.250000 0.088446 0.092684
O O17 0.500000 0.000000 0.064738
#
# Coordination Sequence:
#
# PCOD9379567 Si02
#       6
#     8   8   8   8   8   8
#     4  10  20  37  61  85 111 144 182 227 275 324
#     4  10  20  36  59  84 108 139 181 226 273 325
#     4  11  24  38  54  81 114 148 186 226 272 326
#     4  10  22  38  55  78 111 149 183 219 271 330
#     4   9  19  36  58  83 108 139 181 225 272 325
#     4  10  21  37  58  83 110 143 184 229 275 324
#
# _framework density 19.089375
#
# number of rings (size 3 to 8) (size 9 to 14) (size 15 to 20)
#    0.000    2.000    0.000    4.000    0.000    8.000 
#    0.000    5.000    0.000    0.000    0.000    0.000 
#    0.000    0.000    0.000    0.000    0.000    0.000 
#
# Total GULP energy -134083.586768 kJ/mol
# GULP energy per Si atom -5586.816115 kJ/mol
# Density = 1.904593 g / cm^3
# Si number density = 19.089375 Si / 1000 Ang^3
#
#
#
# Elastic Constant Matrix: (Units=GPa)
#
#
# Indices 1 2 3 4 5 6 
#
# 1 29.0328 9.2434 3.6681 0.0000 0.0000 0.0000
# 2 9.2434 50.8209 6.8217 0.0000 0.0000 0.0000
# 3 3.6681 6.8217 17.8055 0.0000 0.0000 0.0000
# 4 0.0000 0.0000 0.0000 -9.8764 0.0000 0.0000
# 5 0.0000 0.0000 0.0000 0.0000 25.9663 0.0000
# 6 0.0000 0.0000 0.0000 0.0000 0.0000 29.8786
#
#
#
# Elastic Compliance Matrix: (Units=1/GPa)
#
#
# Indices 1 2 3 4 5 6 
#
# 1 0.037033 -0.006021 -0.005322 0.000000 0.000000 0.000000
# 2 -0.006021 0.021723 -0.007082 0.000000 0.000000 0.000000
# 3 -0.005322 -0.007082 0.059972 0.000000 0.000000 0.000000
# 4 0.000000 0.000000 0.000000 -0.101251 0.000000 0.000000
# 5 0.000000 0.000000 0.000000 0.000000 0.038511 0.000000
# 6 0.000000 0.000000 0.000000 0.000000 0.000000 0.033469
#
#
# Mechanical properties :
#
#
# Convention : Reuss Voigt Hill
#
# Bulk Modulus (GPa) = 12.21344 15.23618 13.72481
# Shear Modulus (GPa) = 32.55192 14.38877 23.47034
#
# Velocity S-wave (km/s) = 4.13393 2.74844 3.51022
# Velocity P-wave (km/s) = 5.40350 4.25097 4.86151
#
# Compressibility (1/GPa) = 0.08187701
#
# Stress axis : x y z
#
# Youngs Moduli (GPa) = 27.00271 46.03474 16.67436
#
# Poissons Ratio (x) = 0.27719 0.08875
# Poissons Ratio (y) = 0.16259 0.11809
# Poissons Ratio (z) = 0.14372 0.32602
#
# Static dielectric constant tensor:
#      x y z
#    x 1.641840 0.000000 0.000000 
#    y 0.000000 1.648730 0.000000 
#    z 0.000000 0.000000 1.649510 
# 
# From -- ./inp_files/13902.got.cif
#   From: 2010.05.17/outbox.cif.g08.bks.cpg/sg46_7_cif.got.tgz:13902.got - 2010.06.03 19:58:25.
