data_PCOD9379708
_publ_section_title
;
Structure prediction by ZEFSAII (Michael W. Deem and Ramdas Pophale) SiO2 
 PCOD9379708
Probable space group: I M A 2
;
_chemical_formula_sum "Si O2"
_cell_formula_units_Z 64
_cell_length_a 17.862963
_cell_length_b 18.729160
_cell_length_c 9.719996
_cell_angle_alpha 90.000000
_cell_angle_beta 90.000000
_cell_angle_gamma 90.000000
_cell_volume 3251.905261
_symmetry_space_group_name_H-M "I M A 2"
_symmetry_group_IT_number 46
_symmetry_cell_setting 'orthorhombic'
loop_
_space_group_symop_operation_xyz
x,y,z
-x,-y,z
1/2-x,y,z
1/2+x,-y,z
1/2+x,1/2+y,1/2+z
1/2-x,1/2-y,1/2+z
-x,1/2+y,1/2+z
x,1/2-y,1/2+z
loop_
_atom_site_type_symbol
_atom_site_label
_atom_site_fract_x
_atom_site_fract_y
_atom_site_fract_z
Si Si1 0.914819 0.819191 0.755180
Si Si2 0.101372 0.835886 0.054627
Si Si3 0.564207 0.892146 0.038972
Si Si4 0.340161 0.083996 0.525628
Si Si5 0.838830 0.674828 0.765251
Si Si6 0.585182 0.204656 0.736727
Si Si7 0.666260 0.480876 0.493392
Si Si8 0.661944 0.442464 0.172617
O O1 0.872776 0.859865 0.634180
O O2 0.867457 0.752434 0.810400
O O3 0.996383 0.792722 0.709149
O O4 0.929486 0.873611 0.878645
O O5 0.117810 0.774988 0.165423
O O6 0.159194 0.900908 0.050146
O O7 0.020442 0.873407 0.079971
O O8 0.097961 0.801243 0.901170
O O9 0.619147 0.841622 0.124526
O O10 0.600179 0.970376 0.053173
O O11 0.250000 0.084546 0.537053
O O12 0.359848 0.113743 0.375475
O O13 0.364715 0.004239 0.568379
O O14 0.750000 0.675374 0.749502
O O15 0.617599 0.131660 0.672228
O O16 0.750000 0.510240 0.520367
O O17 0.656348 0.473657 0.328180
O O18 0.750000 0.428326 0.147777
#
# Coordination Sequence:
#
# PCOD9379708 Si02
#       8
#     8   8   8   8   8   8   8   8
#     4  11  21  35  60  82 117 157 197 233 286 348
#     4  10  22  40  61  87 120 152 195 246 291 346
#     4  11  21  37  60  84 119 155 190 237 289 346
#     4  10  21  37  57  85 120 153 195 241 287 345
#     4  11  23  35  54  88 123 153 189 235 291 350
#     4  10  22  38  61  87 116 151 198 243 290 350
#     4  10  20  37  63  90 115 153 201 241 287 346
#     4   9  19  39  63  86 113 151 198 247 290 341
#
# _framework density 19.680769999999999
#
# number of rings (size 3 to 8) (size 9 to 14) (size 15 to 20)
#    0.000    1.750    2.500    1.875    1.750    3.500 
#    2.250    0.000    2.750    0.000    0.000    0.000 
#    0.000    0.000    0.000    0.000    0.000    0.000 
#
# Total GULP energy -178617.500680 kJ/mol
# GULP energy per Si atom -5581.796896 kJ/mol
# Density = 1.963598 g / cm^3
# Si number density = 19.680770 Si / 1000 Ang^3
#
#
#
# Elastic Constant Matrix: (Units=GPa)
#
#
# Indices 1 2 3 4 5 6 
#
# 1 43.9051 19.5434 12.1628 0.0000 0.0000 0.0000
# 2 19.5434 77.8458 8.3108 0.0000 0.0000 0.0000
# 3 12.1628 8.3108 16.2697 0.0000 0.0000 0.0000
# 4 0.0000 0.0000 0.0000 31.1442 0.0000 0.0000
# 5 0.0000 0.0000 0.0000 0.0000 18.2642 0.0000
# 6 0.0000 0.0000 0.0000 0.0000 0.0000 27.5576
#
#
#
# Elastic Compliance Matrix: (Units=1/GPa)
#
#
# Indices 1 2 3 4 5 6 
#
# 1 0.030866 -0.005590 -0.020219 0.000000 0.000000 0.000000
# 2 -0.005590 0.014599 -0.003278 0.000000 0.000000 0.000000
# 3 -0.020219 -0.003278 0.078254 0.000000 0.000000 0.000000
# 4 0.000000 0.000000 0.000000 0.032109 0.000000 0.000000
# 5 0.000000 0.000000 0.000000 0.000000 0.054752 0.000000
# 6 0.000000 0.000000 0.000000 0.000000 0.000000 0.036288
#
#
# Mechanical properties :
#
#
# Convention : Reuss Voigt Hill
#
# Bulk Modulus (GPa) = 15.25696 24.22828 19.74262
# Shear Modulus (GPa) = 15.29562 21.92678 18.61120
#
# Velocity S-wave (km/s) = 2.79083 3.34147 3.07849
# Velocity P-wave (km/s) = 4.26075 5.21772 4.76333
#
# Compressibility (1/GPa) = 0.06554387
#
# Stress axis : x y z
#
# Youngs Moduli (GPa) = 32.39813 68.49609 12.77891
#
# Poissons Ratio (x) = 0.38292 0.25838
# Poissons Ratio (y) = 0.18112 0.04189
# Poissons Ratio (z) = 0.65506 0.22455
#
# Static dielectric constant tensor:
#      x y z
#    x 1.678260 0.000000 0.000000 
#    y 0.000000 1.710120 0.000000 
#    z 0.000000 0.000000 1.670050 
# 
# From -- ./inp_files/7568.got.cif
#   From: 2010.05.17/outbox.cif.g08.bks.cpg/sg46_4_cif.got.tgz:7568.got - 2010.06.03 19:58:25.
