data_PCOD9379812
_publ_section_title
;
Structure prediction by ZEFSAII (Michael W. Deem and Ramdas Pophale) SiO2 
 PCOD9379812
Probable space group: I M A 2
;
_chemical_formula_sum "Si O2"
_cell_formula_units_Z 56
_cell_length_a 13.859660
_cell_length_b 8.053822
_cell_length_c 21.203015
_cell_angle_alpha 90.000000
_cell_angle_beta 90.000000
_cell_angle_gamma 90.000000
_cell_volume 2366.749118
_symmetry_space_group_name_H-M "I M A 2"
_symmetry_group_IT_number 46
_symmetry_cell_setting 'orthorhombic'
loop_
_space_group_symop_operation_xyz
x,y,z
-x,-y,z
1/2-x,y,z
1/2+x,-y,z
1/2+x,1/2+y,1/2+z
1/2-x,1/2-y,1/2+z
-x,1/2+y,1/2+z
x,1/2-y,1/2+z
loop_
_atom_site_type_symbol
_atom_site_label
_atom_site_fract_x
_atom_site_fract_y
_atom_site_fract_z
Si Si1 0.972013 0.184208 0.437990
Si Si2 0.854146 0.755763 0.738675
Si Si3 0.636474 0.266394 0.319295
Si Si4 0.101746 0.590214 0.693103
Si Si5 0.073950 0.735970 0.067356
Si Si6 0.866253 0.867365 0.604752
Si Si7 0.363936 0.359769 0.369495
O O1 0.913964 0.157898 0.373169
O O2 0.909939 0.269721 0.493566
O O3 0.065982 0.295093 0.423644
O O4 0.000000 0.000000 0.460797
O O5 0.750000 0.838278 0.750316
O O6 0.840793 0.568094 0.717036
O O7 0.893541 0.853528 0.678988
O O8 0.898726 0.758475 0.807347
O O9 0.750000 0.233956 0.319716
O O10 0.604748 0.229872 0.247400
O O11 0.620357 0.451959 0.346109
O O12 0.119533 0.652845 0.622593
O O13 0.000000 0.500000 0.691595
O O14 0.116471 0.553799 0.081898
O O15 0.955741 0.736263 0.074603
O O16 0.750000 0.823749 0.598037
O O17 0.250000 0.333849 0.384016
#
# Coordination Sequence:
#
# PCOD9379812 Si02
#       7
#     8   8   8   8   8   8   8
#     4  12  25  44  67  98 134 179 223 275 336 394
#     4  10  20  38  66 101 129 166 222 277 332 389
#     4  11  25  45  69 100 135 176 226 277 335 398
#     4  12  23  39  67  98 137 174 220 278 330 391
#     4  11  25  44  65  97 135 179 223 267 340 399
#     4  10  21  42  67  94 130 173 221 271 327 396
#     4  10  23  44  71  98 131 177 224 274 337 403
#
# _framework density 23.661148000000001
#
# number of rings (size 3 to 8) (size 9 to 14) (size 15 to 20)
#    0.000    1.143    2.857    3.857    0.000    6.286 
#    0.000    0.000    0.000    0.000    0.000    0.000 
#    0.000    0.000    0.000    0.000    0.000    0.000 
#
# Total GULP energy -156209.785796 kJ/mol
# GULP energy per Si atom -5578.920921 kJ/mol
# Density = 2.360729 g / cm^3
# Si number density = 23.661148 Si / 1000 Ang^3
#
#
#
# Elastic Constant Matrix: (Units=GPa)
#
#
# Indices 1 2 3 4 5 6 
#
# 1 20.0769 8.1626 -1.2637 0.0000 0.0000 0.0000
# 2 8.1626 64.0298 35.6093 0.0000 0.0000 0.0000
# 3 -1.2637 35.6093 153.3198 0.0000 0.0000 0.0000
# 4 0.0000 0.0000 0.0000 31.8386 0.0000 0.0000
# 5 0.0000 0.0000 0.0000 0.0000 69.1862 0.0000
# 6 0.0000 0.0000 0.0000 0.0000 0.0000 38.9290
#
#
#
# Elastic Compliance Matrix: (Units=1/GPa)
#
#
# Indices 1 2 3 4 5 6 
#
# 1 0.053236 -0.008073 0.002314 0.000000 0.000000 0.000000
# 2 -0.008073 0.019159 -0.004516 0.000000 0.000000 0.000000
# 3 0.002314 -0.004516 0.007590 0.000000 0.000000 0.000000
# 4 0.000000 0.000000 0.000000 0.031408 0.000000 0.000000
# 5 0.000000 0.000000 0.000000 0.000000 0.014454 0.000000
# 6 0.000000 0.000000 0.000000 0.000000 0.000000 0.025688
#
#
# Mechanical properties :
#
#
# Convention : Reuss Voigt Hill
#
# Bulk Modulus (GPa) = 16.82547 35.82701 26.32624
# Shear Modulus (GPa) = 26.05549 40.98531 33.52040
#
# Velocity S-wave (km/s) = 3.32202 4.16646 3.76797
# Velocity P-wave (km/s) = 4.67342 6.19035 5.48458
#
# Compressibility (1/GPa) = 0.05943370
#
# Stress axis : x y z
#
# Youngs Moduli (GPa) = 18.78413 52.19594 131.74707
#
# Poissons Ratio (x) = 0.42140 -0.30485
# Poissons Ratio (y) = 0.15165 0.59500
# Poissons Ratio (z) = -0.04346 0.23573
#
# Static dielectric constant tensor:
#      x y z
#    x 1.570530 0.000000 0.000000 
#    y 0.000000 1.945590 0.000000 
#    z 0.000000 0.000000 1.951760 
# 
# From -- ./inp_files/22014.got.cif
#   From: 2010.05.17/outbox.cif.g08.bks.cpg/sg46_12_cif.got.tgz:22014.got - 2010.06.03 19:58:25.
