data_PCOD9379497
_publ_section_title
;
Structure prediction by ZEFSAII (Michael W. Deem and Ramdas Pophale) SiO2 
 PCOD9379497
Probable space group: I M A 2
;
_chemical_formula_sum "Si O2"
_cell_formula_units_Z 52
_cell_length_a 14.803649
_cell_length_b 7.683636
_cell_length_c 21.781150
_cell_angle_alpha 90.000000
_cell_angle_beta 90.000000
_cell_angle_gamma 90.000000
_cell_volume 2477.515429
_symmetry_space_group_name_H-M "I M A 2"
_symmetry_group_IT_number 46
_symmetry_cell_setting 'orthorhombic'
loop_
_space_group_symop_operation_xyz
x,y,z
-x,-y,z
1/2-x,y,z
1/2+x,-y,z
1/2+x,1/2+y,1/2+z
1/2-x,1/2-y,1/2+z
-x,1/2+y,1/2+z
x,1/2-y,1/2+z
loop_
_atom_site_type_symbol
_atom_site_label
_atom_site_fract_x
_atom_site_fract_y
_atom_site_fract_z
Si Si1 0.607581 0.151082 0.750000
Si Si2 0.858802 0.872156 0.128519
Si Si3 0.500000 0.000000 0.428971
Si Si4 0.141168 0.737717 0.111029
Si Si5 0.600339 0.769157 0.763743
Si Si6 0.652291 0.060339 0.341305
Si Si7 0.359453 0.417079 0.027075
O O1 0.611606 0.162212 0.676550
O O2 0.504792 0.186821 0.769238
O O3 0.655985 0.308365 0.784125
O O4 0.643410 0.960562 0.767444
O O5 0.750000 0.879680 0.130802
O O6 0.888154 0.816300 0.196511
O O7 0.881576 0.725488 0.078931
O O8 0.892073 0.063624 0.109063
O O9 0.568801 0.106006 0.385367
O O10 0.572376 0.895592 0.470372
O O11 0.250000 0.741408 0.112215
O O12 0.118091 0.606311 0.056403
O O13 0.633860 0.630590 0.813217
O O14 0.750000 0.064716 0.373020
O O15 0.250000 0.407761 0.014974
#
# Coordination Sequence:
#
# PCOD9379497 Si02
#       7
#     8   8   4   8   8   8   8
#     4  11  22  37  63 100 137 167 206 263 331 394
#     4  10  20  35  60  97 133 163 202 258 329 393
#     4  12  26  48  66  90 120 178 234 266 306 378
#     4  10  20  35  60  97 133 163 202 258 329 393
#     4  11  22  37  63 100 137 167 206 263 331 394
#     4  12  25  45  69  94 131 173 216 273 323 383
#     4  10  23  43  65  90 129 171 212 265 319 381
#
# _framework density 20.988769000000001
#
# number of rings (size 3 to 8) (size 9 to 14) (size 15 to 20)
#    0.000    1.231    4.615    1.385    2.154    1.846 
#    0.000    3.077    0.000    3.692    0.000    0.000 
#    0.000    0.000    0.000    0.000    0.000    0.000 
#
# Total GULP energy -145176.681491 kJ/mol
# GULP energy per Si atom -5583.718519 kJ/mol
# Density = 2.094100 g / cm^3
# Si number density = 20.988769 Si / 1000 Ang^3
#
#
#
# Elastic Constant Matrix: (Units=GPa)
#
#
# Indices 1 2 3 4 5 6 
#
# 1 105.9300 20.2962 29.9639 0.0000 0.0000 0.0000
# 2 20.2962 129.4137 14.1924 0.0000 0.0000 0.0000
# 3 29.9639 14.1924 73.0050 0.0000 0.0000 0.0000
# 4 0.0000 0.0000 0.0000 -18.3178 0.0000 0.0000
# 5 0.0000 0.0000 0.0000 0.0000 28.4827 0.0000
# 6 0.0000 0.0000 0.0000 0.0000 0.0000 -9.8974
#
#
#
# Elastic Compliance Matrix: (Units=1/GPa)
#
#
# Indices 1 2 3 4 5 6 
#
# 1 0.010872 -0.001242 -0.004221 0.000000 0.000000 0.000000
# 2 -0.001242 0.008037 -0.001053 0.000000 0.000000 0.000000
# 3 -0.004221 -0.001053 0.015635 0.000000 0.000000 0.000000
# 4 0.000000 0.000000 0.000000 -0.054592 0.000000 0.000000
# 5 0.000000 0.000000 0.000000 0.000000 0.035109 0.000000
# 6 0.000000 0.000000 0.000000 0.000000 0.000000 -0.101037
#
#
# Mechanical properties :
#
#
# Convention : Reuss Voigt Hill
#
# Bulk Modulus (GPa) = 46.48377 48.58374 47.53376
# Shear Modulus (GPa) = -76.01892 16.31326 -29.85283
#
# Velocity S-wave (km/s) = -6.02474 2.79092 -3.77546
# Velocity P-wave (km/s) = 5.11875 5.79512 1.92117
#
# Compressibility (1/GPa) = 0.02151288
#
# Stress axis : x y z
#
# Youngs Moduli (GPa) = 91.97836 124.41809 63.96021
#
# Poissons Ratio (x) = 0.15455 0.26996
# Poissons Ratio (y) = 0.11426 0.06733
# Poissons Ratio (z) = 0.38822 0.13097
#
# Static dielectric constant tensor:
#      x y z
#    x 1.848880 0.000000 0.000000 
#    y 0.000000 1.850940 0.000000 
#    z 0.000000 0.000000 1.747030 
# 
# From -- ./inp_files/21968.got.cif
#   From: 2010.05.17/outbox.cif.g08.bks.cpg/sg46_11_cif.got.tgz:21968.got - 2010.06.03 19:58:25.
