data_PCOD9379622
_publ_section_title
;
Structure prediction by ZEFSAII (Michael W. Deem and Ramdas Pophale) SiO2 
 PCOD9379622
Probable space group: I M A 2
;
_chemical_formula_sum "Si O2"
_cell_formula_units_Z 44
_cell_length_a 7.835021
_cell_length_b 22.089087
_cell_length_c 11.841503
_cell_angle_alpha 90.000000
_cell_angle_beta 90.000000
_cell_angle_gamma 90.000000
_cell_volume 2049.390694
_symmetry_space_group_name_H-M "I M A 2"
_symmetry_group_IT_number 46
_symmetry_cell_setting 'orthorhombic'
loop_
_space_group_symop_operation_xyz
x,y,z
-x,-y,z
1/2-x,y,z
1/2+x,-y,z
1/2+x,1/2+y,1/2+z
1/2-x,1/2-y,1/2+z
-x,1/2+y,1/2+z
x,1/2-y,1/2+z
loop_
_atom_site_type_symbol
_atom_site_label
_atom_site_fract_x
_atom_site_fract_y
_atom_site_fract_z
Si Si1 0.454236 0.839825 0.692890
Si Si2 0.452244 0.613756 0.436584
Si Si3 0.000000 0.500000 0.571693
Si Si4 0.449404 0.413341 0.755642
Si Si5 0.546142 0.434476 0.010313
Si Si6 0.547775 0.796382 0.132174
O O1 0.250000 0.846900 0.696569
O O2 0.514756 0.863343 0.814835
O O3 0.519699 0.882237 0.592289
O O4 0.489685 0.770314 0.663876
O O5 0.250000 0.596782 0.431369
O O6 0.548866 0.554192 0.484619
O O7 0.470290 0.669971 0.523174
O O8 0.936618 0.452506 0.669560
O O9 0.250000 0.423840 0.721927
O O10 0.487560 0.343105 0.734211
O O11 0.471792 0.429863 0.884806
O O12 0.500000 0.500000 0.058417
O O13 0.750000 0.429563 0.999570
O O14 0.750000 0.794451 0.113566
#
# Coordination Sequence:
#
# PCOD9379622 Si02
#       6
#     8   8   4   8   8   8
#     4  10  24  43  62  89 124 165 207 248 302 367
#     4  10  22  41  65  91 124 164 205 251 305 366
#     4  10  20  36  66  94 122 152 208 248 304 352
#     4  10  21  38  61  91 123 155 200 251 303 361
#     4  11  24  40  62  90 122 159 202 249 303 362
#     4  10  23  41  63  93 123 156 203 255 308 360
#
# _framework density 21.469795999999999
#
# number of rings (size 3 to 8) (size 9 to 14) (size 15 to 20)
#    0.000    1.818    0.909    1.636    3.818    6.545 
#    0.000    0.000    0.000    0.000    0.000    0.000 
#    0.000    0.000    0.000    0.000    0.000    0.000 
#
# Total GULP energy -122565.511233 kJ/mol
# GULP energy per Si atom -5571.159602 kJ/mol
# Density = 2.142093 g / cm^3
# Si number density = 21.469796 Si / 1000 Ang^3
#
#
#
# Elastic Constant Matrix: (Units=GPa)
#
#
# Indices 1 2 3 4 5 6 
#
# 1 55.1759 7.1473 15.1276 0.0000 0.0000 0.0001
# 2 7.1473 206.5978 93.4878 0.0000 0.0000 0.0000
# 3 15.1276 93.4878 131.4401 -0.0002 -0.0001 0.0004
# 4 0.0000 0.0000 -0.0002 28.4903 0.0000 0.0001
# 5 0.0000 0.0000 -0.0001 0.0000 16.3969 0.0001
# 6 0.0001 0.0000 0.0004 0.0001 0.0001 0.9798
#
#
#
# Elastic Compliance Matrix: (Units=1/GPa)
#
#
# Indices 1 2 3 4 5 6 
#
# 1 0.018747 0.000483 -0.002501 0.000000 0.000000 -0.000001
# 2 0.000483 0.007150 -0.005141 0.000000 0.000000 0.000002
# 3 -0.002501 -0.005141 0.011553 0.000000 0.000000 -0.000005
# 4 0.000000 0.000000 0.000000 0.035100 0.000000 -0.000002
# 5 0.000000 0.000000 0.000000 0.000000 0.060987 -0.000004
# 6 -0.000001 0.000002 -0.000005 -0.000002 -0.000004 1.020643
#
#
# Mechanical properties :
#
#
# Convention : Reuss Voigt Hill
#
# Bulk Modulus (GPa) = 43.23150 69.41547 56.32349
# Shear Modulus (GPa) = 4.25095 27.67013 15.96054
#
# Velocity S-wave (km/s) = 1.40864 3.59387 2.72949
# Velocity P-wave (km/s) = 4.77759 7.04437 6.01866
#
# Compressibility (1/GPa) = 0.02313128
#
# Stress axis : x y z
#
# Youngs Moduli (GPa) = 53.34171 139.85964 86.56059
#
# Poissons Ratio (x) = -0.06760 0.21652
# Poissons Ratio (y) = -0.02578 0.44502
# Poissons Ratio (z) = 0.13343 0.71904
#
# Static dielectric constant tensor:
#      x y z
#    x 1.819880 0.000000 0.000000 
#    y 0.000000 1.783250 0.000000 
#    z 0.000000 0.000000 1.756050 
# 
# From -- ./inp_files/9243.got.cif
#   From: 2010.05.17/outbox.cif.g08.bks.cpg/sg46_5_cif.got.tgz:9243.got - 2010.06.03 19:58:25.
