data_PCOD9379099
_publ_section_title
;
Structure prediction by ZEFSAII (Michael W. Deem and Ramdas Pophale) SiO2 
 PCOD9379099
Probable space group: I M A 2
;
_chemical_formula_sum "Si O2"
_cell_formula_units_Z 64
_cell_length_a 8.580452
_cell_length_b 24.300557
_cell_length_c 15.864186
_cell_angle_alpha 90.000000
_cell_angle_beta 90.000000
_cell_angle_gamma 90.000000
_cell_volume 3307.837662
_symmetry_space_group_name_H-M "I M A 2"
_symmetry_group_IT_number 46
_symmetry_cell_setting 'orthorhombic'
loop_
_space_group_symop_operation_xyz
x,y,z
-x,-y,z
1/2-x,y,z
1/2+x,-y,z
1/2+x,1/2+y,1/2+z
1/2-x,1/2-y,1/2+z
-x,1/2+y,1/2+z
x,1/2-y,1/2+z
loop_
_atom_site_type_symbol
_atom_site_label
_atom_site_fract_x
_atom_site_fract_y
_atom_site_fract_z
Si Si1 0.064640 0.061649 0.342740
Si Si2 0.439451 0.631689 0.187519
Si Si3 0.437028 0.561638 0.348714
Si Si4 0.063669 0.367537 0.503848
Si Si5 0.436244 0.870122 0.499747
Si Si6 0.936289 0.753994 0.445610
Si Si7 0.438572 0.749811 0.755870
Si Si8 0.936521 0.369152 0.685776
O O1 0.250000 0.060704 0.336720
O O2 0.014412 0.094645 0.426304
O O3 0.996628 0.093250 0.261740
O O4 0.000000 0.000000 0.346198
O O5 0.250000 0.631047 0.187090
O O6 0.491689 0.592771 0.263700
O O7 0.489433 0.614410 0.094097
O O8 0.485530 0.694512 0.208009
O O9 0.500000 0.500000 0.351412
O O10 0.250000 0.560880 0.348168
O O11 0.493113 0.595809 0.429538
O O12 0.250000 0.370875 0.499556
O O13 0.018063 0.303835 0.487871
O O14 0.005874 0.385131 0.595703
O O15 0.250000 0.876855 0.493353
O O16 0.478551 0.806279 0.485469
O O17 0.750000 0.761047 0.452727
O O18 0.984361 0.751082 0.347678
O O19 0.250000 0.750429 0.766293
O O20 0.480682 0.694064 0.707136
O O21 0.750000 0.372273 0.682384
#
# Coordination Sequence:
#
# PCOD9379099 Si02
#       8
#     8   8   8   8   8   8   8   8
#     4  12  26  45  66  91 124 163 209 261 312 369
#     4   9  20  38  63  93 123 161 207 253 302 364
#     4  11  23  42  65  89 121 161 209 261 311 368
#     4  11  24  41  62  93 129 166 207 256 310 369
#     4  11  22  40  65  94 127 165 208 254 307 372
#     4  11  22  36  59  93 130 166 203 251 310 366
#     4  10  19  36  63  92 124 162 204 248 304 372
#     4  11  23  40  66  97 125 163 206 253 310 371
#
# _framework density 19.347987
#
# number of rings (size 3 to 8) (size 9 to 14) (size 15 to 20)
#    0.000    1.250    2.500    3.750    0.000    4.000 
#    0.000    7.500    0.000    0.000    0.000    0.000 
#    0.000    0.000    0.000    0.000    0.000    0.000 
#
# Total GULP energy -178956.932979 kJ/mol
# GULP energy per Si atom -5592.404156 kJ/mol
# Density = 1.930395 g / cm^3
# Si number density = 19.347987 Si / 1000 Ang^3
#
#
#
# Elastic Constant Matrix: (Units=GPa)
#
#
# Indices 1 2 3 4 5 6 
#
# 1 46.9159 33.3634 27.6633 0.0000 0.0001 0.0000
# 2 33.3634 141.3279 70.9813 0.0001 0.0000 0.0000
# 3 27.6633 70.9813 175.7854 0.0002 0.0002 -0.0001
# 4 0.0000 0.0001 0.0002 -4.0345 0.0000 0.0000
# 5 0.0001 0.0000 0.0002 0.0000 12.9793 0.0000
# 6 0.0000 0.0000 -0.0001 0.0000 0.0000 16.0793
#
#
#
# Elastic Compliance Matrix: (Units=1/GPa)
#
#
# Indices 1 2 3 4 5 6 
#
# 1 0.026184 -0.005158 -0.002038 0.000000 0.000000 0.000000
# 2 -0.005158 0.009892 -0.003183 0.000000 0.000000 0.000000
# 3 -0.002038 -0.003183 0.007295 0.000000 0.000000 0.000000
# 4 0.000000 0.000000 0.000000 -0.247862 -0.000001 0.000000
# 5 0.000000 0.000000 0.000000 -0.000001 0.077046 0.000000
# 6 0.000000 0.000000 0.000000 0.000000 0.000000 0.062192
#
#
# Mechanical properties :
#
#
# Convention : Reuss Voigt Hill
#
# Bulk Modulus (GPa) = 44.22037 69.78281 57.00159
# Shear Modulus (GPa) = -135.28270 20.47290 -57.40490
#
# Velocity S-wave (km/s) = -8.37094 3.25644 -5.45290
# Velocity P-wave (km/s) = 8.39793 7.09117 3.18124
#
# Compressibility (1/GPa) = 0.02261401
#
# Stress axis : x y z
#
# Youngs Moduli (GPa) = 38.19090 101.09402 137.08835
#
# Poissons Ratio (x) = 0.52142 0.27937
# Poissons Ratio (y) = 0.19698 0.43629
# Poissons Ratio (z) = 0.07783 0.32174
#
# Static dielectric constant tensor:
#      x y z
#    x 1.652190 0.000000 0.000000 
#    y 0.000000 1.652010 0.000000 
#    z 0.000000 0.000000 1.657560 
# 
# From -- ./inp_files/14493.got.cif
#   From: 2010.05.17/outbox.cif.g08.bks.cpg/sg46_8_cif.got.tgz:14493.got - 2010.06.03 19:58:25.
