data_PCOD9379921
_publ_section_title
;
Structure prediction by ZEFSAII (Michael W. Deem and Ramdas Pophale) SiO2 
 PCOD9379921
Probable space group: I M A 2
;
_chemical_formula_sum "Si O2"
_cell_formula_units_Z 48
_cell_length_a 9.813287
_cell_length_b 8.641685
_cell_length_c 28.217771
_cell_angle_alpha 90.000000
_cell_angle_beta 90.000000
_cell_angle_gamma 90.000000
_cell_volume 2392.961089
_symmetry_space_group_name_H-M "I M A 2"
_symmetry_group_IT_number 46
_symmetry_cell_setting 'orthorhombic'
loop_
_space_group_symop_operation_xyz
x,y,z
-x,-y,z
1/2-x,y,z
1/2+x,-y,z
1/2+x,1/2+y,1/2+z
1/2-x,1/2-y,1/2+z
-x,1/2+y,1/2+z
x,1/2-y,1/2+z
loop_
_atom_site_type_symbol
_atom_site_label
_atom_site_fract_x
_atom_site_fract_y
_atom_site_fract_z
Si Si1 0.523853 0.684261 0.236790
Si Si2 0.523556 0.317845 0.023096
Si Si3 0.088045 0.160557 0.842174
Si Si4 0.250000 0.805421 0.198961
Si Si5 0.750000 0.137303 0.597957
Si Si6 0.750000 0.836240 0.173341
Si Si7 0.911505 0.341958 0.425925
Si Si8 0.250000 0.227567 0.570422
O O1 0.500000 0.500000 0.232285
O O2 0.580699 0.724050 0.288847
O O3 0.380548 0.763995 0.229405
O O4 0.622088 0.747094 0.195966
O O5 0.500000 0.500000 0.015204
O O6 0.620702 0.302720 0.068537
O O7 0.380427 0.246590 0.038023
O O8 0.582086 0.246635 0.975471
O O9 0.250000 0.144715 0.853713
O O10 0.999443 0.240773 0.883856
O O11 0.000000 0.000000 0.837942
O O12 0.250000 0.699384 0.151297
O O13 0.250000 0.985240 0.187084
O O14 0.750000 0.950432 0.590805
O O15 0.750000 0.829087 0.117020
O O16 0.750000 0.363161 0.413960
O O17 0.000000 0.500000 0.433003
#
# Coordination Sequence:
#
# PCOD9379921 Si02
#       8
#     8   8   8   4   4   4   8   4
#     4  11  23  41  68  93 124 172 221 260 305 384
#     4  10  22  40  63  90 124 164 212 260 308 370
#     4  10  21  38  65  95 124 158 215 265 305 371
#     4  12  26  38  67  92 137 167 202 275 327 378
#     4  10  20  42  59  92 119 171 220 257 307 376
#     4  12  24  44  59 100 133 163 212 265 337 372
#     4  11  23  39  64  95 130 162 206 260 318 374
#     4  10  22  36  67  86 123 167 218 261 303 386
#
# _framework density 20.058828999999999
#
# number of rings (size 3 to 8) (size 9 to 14) (size 15 to 20)
#    0.000    1.333    1.667    5.000    7.000    2.667 
#    0.000    1.667    0.000    0.000    0.000    0.000 
#    0.000    0.000    0.000    0.000    0.000    0.000 
#
# Total GULP energy -133912.467695 kJ/mol
# GULP energy per Si atom -5579.686154 kJ/mol
# Density = 2.001317 g / cm^3
# Si number density = 20.058829 Si / 1000 Ang^3
#
#
#
# Elastic Constant Matrix: (Units=GPa)
#
#
# Indices 1 2 3 4 5 6 
#
# 1 188.5574 18.9409 36.4126 0.0000 0.0000 0.0000
# 2 18.9409 43.8830 16.5651 0.0000 0.0000 0.0000
# 3 36.4126 16.5651 94.4728 0.0000 0.0000 0.0000
# 4 0.0000 0.0000 0.0000 17.6047 0.0000 0.0000
# 5 0.0000 0.0000 0.0000 0.0000 42.9993 0.0000
# 6 0.0000 0.0000 0.0000 0.0000 0.0000 4.3647
#
#
#
# Elastic Compliance Matrix: (Units=1/GPa)
#
#
# Indices 1 2 3 4 5 6 
#
# 1 0.005859 -0.001795 -0.001943 0.000000 0.000000 0.000000
# 2 -0.001795 0.024953 -0.003683 0.000000 0.000000 0.000000
# 3 -0.001943 -0.003683 0.011980 0.000000 0.000000 0.000000
# 4 0.000000 0.000000 0.000000 0.056803 0.000000 0.000000
# 5 0.000000 0.000000 0.000000 0.000000 0.023256 0.000000
# 6 0.000000 0.000000 0.000000 0.000000 0.000000 0.229111
#
#
# Mechanical properties :
#
#
# Convention : Reuss Voigt Hill
#
# Bulk Modulus (GPa) = 35.78083 52.30561 44.04322
# Shear Modulus (GPa) = 13.29354 29.99337 21.64345
#
# Velocity S-wave (km/s) = 2.57714 3.87107 3.28838
# Velocity P-wave (km/s) = 5.17032 6.79065 6.03511
#
# Compressibility (1/GPa) = 0.02794793
#
# Stress axis : x y z
#
# Youngs Moduli (GPa) = 170.67555 40.07507 83.47263
#
# Poissons Ratio (x) = 0.07195 0.16223
# Poissons Ratio (y) = 0.30641 0.30746
# Poissons Ratio (z) = 0.33170 0.14761
#
# Static dielectric constant tensor:
#      x y z
#    x 1.748540 0.000000 0.000000 
#    y 0.000000 1.729090 0.000000 
#    z 0.000000 0.000000 1.718070 
# 
# From -- ./inp_files/25082.got.cif
#   From: 2010.05.17/outbox.cif.g08.bks.cpg/sg46_13_cif.got.tgz:25082.got - 2010.06.03 19:58:25.
