data_PCOD9379777
_publ_section_title
;
Structure prediction by ZEFSAII (Michael W. Deem and Ramdas Pophale) SiO2 
 PCOD9379777
Probable space group: I M A 2
;
_chemical_formula_sum "Si O2"
_cell_formula_units_Z 44
_cell_length_a 7.337331
_cell_length_b 34.021102
_cell_length_c 7.768552
_cell_angle_alpha 90.000000
_cell_angle_beta 90.000000
_cell_angle_gamma 90.000000
_cell_volume 1939.217695
_symmetry_space_group_name_H-M "I M A 2"
_symmetry_group_IT_number 46
_symmetry_cell_setting 'orthorhombic'
loop_
_space_group_symop_operation_xyz
x,y,z
-x,-y,z
1/2-x,y,z
1/2+x,-y,z
1/2+x,1/2+y,1/2+z
1/2-x,1/2-y,1/2+z
-x,1/2+y,1/2+z
x,1/2-y,1/2+z
loop_
_atom_site_type_symbol
_atom_site_label
_atom_site_fract_x
_atom_site_fract_y
_atom_site_fract_z
Si Si1 0.462269 0.822611 0.357050
Si Si2 0.029632 0.588775 0.962715
Si Si3 0.467393 0.545101 0.637102
Si Si4 0.472445 0.603906 0.341897
Si Si5 0.035224 0.691567 0.447298
Si Si6 0.750000 0.739572 0.932978
O O1 0.250000 0.817572 0.402131
O O2 0.509816 0.868023 0.387252
O O3 0.487528 0.812494 0.154947
O O4 0.591355 0.793808 0.460051
O O5 0.250000 0.585751 0.971153
O O6 0.965166 0.587698 0.158231
O O7 0.963391 0.556707 0.826584
O O8 0.500000 0.500000 0.592689
O O9 0.250000 0.550606 0.641444
O O10 0.535914 0.576033 0.496125
O O11 0.250000 0.603643 0.344378
O O12 0.520239 0.649509 0.368791
O O13 0.250000 0.698285 0.411196
O O14 0.908359 0.727202 0.393047
#
# Coordination Sequence:
#
# PCOD9379777 Si02
#       6
#     8   8   8   8   8   4
#     4  10  21  40  62  86 125 175 221 270 333 391
#     4   9  18  36  63  87 117 167 215 257 317 395
#     4  10  20  38  62  92 124 160 206 262 326 394
#     4   9  18  36  63  87 117 167 215 257 317 395
#     4  10  21  40  62  86 125 175 221 270 333 391
#     4  12  24  36  60 100 130 168 224 286 324 396
#
# _framework density 22.689561000000001
#
# number of rings (size 3 to 8) (size 9 to 14) (size 15 to 20)
#    0.000    2.182    1.818    1.091    0.000    3.636 
#    3.273    3.636    0.000    0.000    0.000    0.000 
#    0.000    0.000    0.000    0.000    0.000    0.000 
#
# Total GULP energy -122499.825081 kJ/mol
# GULP energy per Si atom -5568.173867 kJ/mol
# Density = 2.263792 g / cm^3
# Si number density = 22.689561 Si / 1000 Ang^3
#
#
#
# Elastic Constant Matrix: (Units=GPa)
#
#
# Indices 1 2 3 4 5 6 
#
# 1 90.4070 13.0328 9.2389 0.0003 -0.0001 0.0002
# 2 13.0328 72.8119 -9.4246 0.0034 0.0001 0.0025
# 3 9.2389 -9.4246 48.2030 0.0041 0.0010 0.0019
# 4 0.0003 0.0034 0.0041 86.8428 -0.0004 -0.0039
# 5 -0.0001 0.0001 0.0010 -0.0004 -22.5363 -0.0012
# 6 0.0002 0.0025 0.0019 -0.0039 -0.0012 -77.5427
#
#
#
# Elastic Compliance Matrix: (Units=1/GPa)
#
#
# Indices 1 2 3 4 5 6 
#
# 1 0.011691 -0.002445 -0.002719 0.000000 0.000000 0.000000
# 2 -0.002445 0.014602 0.003323 -0.000001 0.000000 0.000001
# 3 -0.002719 0.003323 0.021916 -0.000001 0.000001 0.000001
# 4 0.000000 -0.000001 -0.000001 0.011515 0.000000 -0.000001
# 5 0.000000 0.000000 0.000001 0.000000 -0.044373 0.000001
# 6 0.000000 0.000001 0.000001 -0.000001 0.000001 -0.012896
#
#
# Mechanical properties :
#
#
# Convention : Reuss Voigt Hill
#
# Bulk Modulus (GPa) = 22.45689 26.34625 24.40157
# Shear Modulus (GPa) = 238.33680 10.59109 124.46394
#
# Velocity S-wave (km/s) = 10.26014 2.16286 7.41446
# Velocity P-wave (km/s) = 12.25886 4.22778 9.16934
#
# Compressibility (1/GPa) = 0.04452975
#
# Stress axis : x y z
#
# Youngs Moduli (GPa) = 85.53345 68.48485 45.62774
#
# Poissons Ratio (x) = 0.16742 0.12405
# Poissons Ratio (y) = 0.20909 -0.15164
# Poissons Ratio (z) = 0.23255 -0.22761
#
# Static dielectric constant tensor:
#      x y z
#    x 1.875680 0.000000 0.000000 
#    y 0.000000 1.771530 0.000000 
#    z 0.000000 0.000000 1.889220 
# 
# From -- ./inp_files/3809.got.cif
#   From: 2010.05.17/outbox.cif.g08.bks.cpg/sg46_2_cif.got.tgz:3809.got - 2010.06.03 19:58:25.
