data_PCOD9379614
_publ_section_title
;
Structure prediction by ZEFSAII (Michael W. Deem and Ramdas Pophale) SiO2 
 PCOD9379614
Probable space group: I M A 2
;
_chemical_formula_sum "Si O2"
_cell_formula_units_Z 64
_cell_length_a 13.801403
_cell_length_b 9.599255
_cell_length_c 23.903424
_cell_angle_alpha 90.000000
_cell_angle_beta 90.000000
_cell_angle_gamma 90.000000
_cell_volume 3166.801786
_symmetry_space_group_name_H-M "I M A 2"
_symmetry_group_IT_number 46
_symmetry_cell_setting 'orthorhombic'
loop_
_space_group_symop_operation_xyz
x,y,z
-x,-y,z
1/2-x,y,z
1/2+x,-y,z
1/2+x,1/2+y,1/2+z
1/2-x,1/2-y,1/2+z
-x,1/2+y,1/2+z
x,1/2-y,1/2+z
loop_
_atom_site_type_symbol
_atom_site_label
_atom_site_fract_x
_atom_site_fract_y
_atom_site_fract_z
Si Si1 0.365915 0.887901 0.918410
Si Si2 0.638016 0.752319 0.527591
Si Si3 0.024793 0.338546 0.920090
Si Si4 0.137894 0.335125 0.342591
Si Si5 0.140469 0.070509 0.635827
Si Si6 0.017193 0.166251 0.731525
Si Si7 0.633235 0.249154 0.653148
Si Si8 0.633943 0.058015 0.049503
O O1 0.250000 0.860479 0.914584
O O2 0.434121 0.758764 0.901956
O O3 0.384958 0.024816 0.879720
O O4 0.390501 0.912428 0.984248
O O5 0.750000 0.736982 0.505803
O O6 0.561436 0.794156 0.481203
O O7 0.638358 0.869800 0.574224
O O8 0.611936 0.604955 0.555503
O O9 0.115527 0.294568 0.882255
O O10 0.000000 0.500000 0.917729
O O11 0.250000 0.347257 0.326391
O O12 0.071708 0.306014 0.288867
O O13 0.250000 0.065358 0.656859
O O14 0.085974 0.172807 0.677587
O O15 0.108537 0.909935 0.635083
O O16 0.923520 0.255060 0.712559
O O17 0.000000 0.000000 0.736185
O O18 0.750000 0.262822 0.660191
O O19 0.600566 0.349366 0.602261
O O20 0.750000 0.075873 0.051178
#
# Coordination Sequence:
#
# PCOD9379614 Si02
#       8
#     8   8   8   8   8   8   8   8
#     4  10  22  40  63  91 125 170 223 268 321 389
#     4  10  21  38  60  87 126 169 211 257 317 389
#     4  12  26  39  61  93 131 168 215 265 342 395
#     4  11  23  45  70  92 122 167 225 281 326 386
#     4   9  19  34  53  84 120 160 207 256 317 381
#     4  10  20  36  63  90 123 162 220 267 325 384
#     4   9  19  35  58  90 128 162 204 261 319 382
#     4   9  18  35  58  87 123 166 207 256 316 379
#
# _framework density 20.209662999999999
#
# number of rings (size 3 to 8) (size 9 to 14) (size 15 to 20)
#    0.000    2.000    1.250    1.875    3.500    2.000 
#    0.000    1.875    0.000    1.500    0.000    0.000 
#    0.000    0.000    0.000    0.000    0.000    0.000 
#
# Total GULP energy -178402.847690 kJ/mol
# GULP energy per Si atom -5575.088990 kJ/mol
# Density = 2.016367 g / cm^3
# Si number density = 20.209663 Si / 1000 Ang^3
#
#
#
# Elastic Constant Matrix: (Units=GPa)
#
#
# Indices 1 2 3 4 5 6 
#
# 1 79.8161 43.3102 50.2987 0.0000 0.0000 0.0000
# 2 43.3102 94.7842 35.7847 0.0000 0.0000 0.0000
# 3 50.2987 35.7847 101.9371 0.0000 0.0000 0.0000
# 4 0.0000 0.0000 0.0000 16.9395 0.0000 0.0000
# 5 0.0000 0.0000 0.0000 0.0000 41.1193 0.0000
# 6 0.0000 0.0000 0.0000 0.0000 0.0000 21.5124
#
#
#
# Elastic Compliance Matrix: (Units=1/GPa)
#
#
# Indices 1 2 3 4 5 6 
#
# 1 0.021279 -0.006639 -0.008169 0.000000 0.000000 0.000000
# 2 -0.006639 0.014234 -0.001721 0.000000 0.000000 0.000000
# 3 -0.008169 -0.001721 0.014445 0.000000 0.000000 0.000000
# 4 0.000000 0.000000 0.000000 0.059034 0.000000 0.000000
# 5 0.000000 0.000000 0.000000 0.000000 0.024319 0.000000
# 6 0.000000 0.000000 0.000000 0.000000 0.000000 0.046485
#
#
# Mechanical properties :
#
#
# Convention : Reuss Voigt Hill
#
# Bulk Modulus (GPa) = 59.17225 59.48052 59.32638
# Shear Modulus (GPa) = 22.88461 25.72382 24.30421
#
# Velocity S-wave (km/s) = 3.36871 3.57157 3.47162
# Velocity P-wave (km/s) = 6.66886 6.81937 6.74453
#
# Compressibility (1/GPa) = 0.01689981
#
# Stress axis : x y z
#
# Youngs Moduli (GPa) = 46.99366 70.25652 69.22826
#
# Poissons Ratio (x) = 0.46644 0.56554
# Poissons Ratio (y) = 0.31200 0.11912
# Poissons Ratio (z) = 0.38390 0.12089
#
# Static dielectric constant tensor:
#      x y z
#    x 1.833910 0.000000 0.000000 
#    y 0.000000 1.698440 0.000000 
#    z 0.000000 0.000000 1.733310 
# 
# From -- ./inp_files/23648.got.cif
#   From: 2010.05.17/outbox.cif.g08.bks.cpg/sg46_12_cif.got.tgz:23648.got - 2010.06.03 19:58:25.
