data_PCOD9379346
_publ_section_title
;
Structure prediction by ZEFSAII (Michael W. Deem and Ramdas Pophale) SiO2 
 PCOD9379346
Probable space group: I M A 2
;
_chemical_formula_sum "Si O2"
_cell_formula_units_Z 64
_cell_length_a 9.013729
_cell_length_b 28.238073
_cell_length_c 12.672305
_cell_angle_alpha 90.000000
_cell_angle_beta 90.000000
_cell_angle_gamma 90.000000
_cell_volume 3225.486069
_symmetry_space_group_name_H-M "I M A 2"
_symmetry_group_IT_number 46
_symmetry_cell_setting 'orthorhombic'
loop_
_space_group_symop_operation_xyz
x,y,z
-x,-y,z
1/2-x,y,z
1/2+x,-y,z
1/2+x,1/2+y,1/2+z
1/2-x,1/2-y,1/2+z
-x,1/2+y,1/2+z
x,1/2-y,1/2+z
loop_
_atom_site_type_symbol
_atom_site_label
_atom_site_fract_x
_atom_site_fract_y
_atom_site_fract_z
Si Si1 0.916548 0.178861 0.023800
Si Si2 0.427342 0.193334 0.811703
Si Si3 0.571270 0.585068 0.258287
Si Si4 0.081891 0.932499 0.973325
Si Si5 0.924965 0.620074 0.874637
Si Si6 0.076717 0.455224 0.691371
Si Si7 0.428190 0.550572 0.041098
Si Si8 0.928654 0.794709 0.238244
O O1 0.750000 0.197782 0.030730
O O2 0.998450 0.184666 0.133810
O O3 0.908646 0.123730 0.993268
O O4 0.005913 0.200902 0.927343
O O5 0.250000 0.193015 0.820416
O O6 0.467443 0.141485 0.766632
O O7 0.470932 0.239633 0.746380
O O8 0.750000 0.580487 0.250916
O O9 0.511056 0.561496 0.366220
O O10 0.491396 0.563130 0.157050
O O11 0.250000 0.951259 0.963589
O O12 0.000914 0.949731 0.078518
O O13 0.750000 0.619806 0.905030
O O14 0.939708 0.589879 0.766570
O O15 0.969535 0.673186 0.840082
O O16 0.017246 0.592324 0.962751
O O17 0.250000 0.464015 0.676534
O O18 0.000000 0.500000 0.745881
O O19 0.500000 0.500000 0.009957
O O20 0.250000 0.547148 0.041318
O O21 0.750000 0.798193 0.229837
#
# Coordination Sequence:
#
# PCOD9379346 Si02
#       8
#     8   8   8   8   8   8   8   8
#     4  10  20  34  55  82 117 154 189 242 304 357
#     4   9  20  37  60  88 119 161 207 252 301 360
#     4  10  21  40  64  89 121 159 204 253 305 363
#     4  10  20  36  58  85 116 151 192 240 298 359
#     4  10  22  40  62  88 120 159 205 254 303 361
#     4  11  22  36  57  86 117 152 191 241 295 353
#     4  12  26  44  66  90 122 164 210 261 318 379
#     4  10  20  37  61  88 119 160 209 253 299 362
#
# _framework density 19.841968999999999
#
# number of rings (size 3 to 8) (size 9 to 14) (size 15 to 20)
#    0.000    1.750    1.250    3.000    0.000    6.000 
#    0.000    7.500    0.000    0.000    0.000    0.000 
#    0.000    0.000    0.000    0.000    0.000    0.000 
#
# Total GULP energy -178674.637217 kJ/mol
# GULP energy per Si atom -5583.582413 kJ/mol
# Density = 1.979681 g / cm^3
# Si number density = 19.841969 Si / 1000 Ang^3
#
#
#
# Elastic Constant Matrix: (Units=GPa)
#
#
# Indices 1 2 3 4 5 6 
#
# 1 73.1970 24.6283 37.0302 0.0008 0.0001 -0.0002
# 2 24.6283 50.9750 6.5236 0.0000 0.0001 0.0000
# 3 37.0302 6.5236 89.0930 0.0014 -0.0001 -0.0008
# 4 0.0008 0.0000 0.0014 13.9432 0.0000 0.0003
# 5 0.0001 0.0001 -0.0001 0.0000 29.5715 0.0001
# 6 -0.0002 0.0000 -0.0008 0.0003 0.0001 15.9740
#
#
#
# Elastic Compliance Matrix: (Units=1/GPa)
#
#
# Indices 1 2 3 4 5 6 
#
# 1 0.020707 -0.008987 -0.007948 0.000000 0.000000 0.000000
# 2 -0.008987 0.023704 0.002000 0.000000 0.000000 0.000000
# 3 -0.007948 0.002000 0.014381 -0.000001 0.000000 0.000001
# 4 0.000000 0.000000 -0.000001 0.071720 0.000000 -0.000001
# 5 0.000000 0.000000 0.000000 0.000000 0.033816 0.000000
# 6 0.000000 0.000000 0.000001 -0.000001 0.000000 0.062602
#
#
# Mechanical properties :
#
#
# Convention : Reuss Voigt Hill
#
# Bulk Modulus (GPa) = 34.57792 38.84770 36.71281
# Shear Modulus (GPa) = 18.76589 21.56994 20.16792
#
# Velocity S-wave (km/s) = 3.07867 3.30068 3.19160
# Velocity P-wave (km/s) = 5.48654 5.84354 5.66785
#
# Compressibility (1/GPa) = 0.02892019
#
# Stress axis : x y z
#
# Youngs Moduli (GPa) = 48.29361 42.18766 69.53420
#
# Poissons Ratio (x) = 0.37915 0.55268
# Poissons Ratio (y) = 0.43402 -0.13905
# Poissons Ratio (z) = 0.38385 -0.08436
#
# Static dielectric constant tensor:
#      x y z
#    x 1.680660 0.000000 0.000000 
#    y 0.000000 1.832080 0.000000 
#    z 0.000000 0.000000 1.664320 
# 
# From -- ./inp_files/9674.got.cif
#   From: 2010.05.17/outbox.cif.g08.bks.cpg/sg46_5_cif.got.tgz:9674.got - 2010.06.03 19:58:25.
