data_PCOD9379127
_publ_section_title
;
Structure prediction by ZEFSAII (Michael W. Deem and Ramdas Pophale) SiO2 
 PCOD9379127
Probable space group: I M A 2
;
_chemical_formula_sum "Si O2"
_cell_formula_units_Z 24
_cell_length_a 10.876413
_cell_length_b 14.069280
_cell_length_c 6.122386
_cell_angle_alpha 90.000000
_cell_angle_beta 90.000000
_cell_angle_gamma 90.000000
_cell_volume 936.867709
_symmetry_space_group_name_H-M "I M A 2"
_symmetry_group_IT_number 46
_symmetry_cell_setting 'orthorhombic'
loop_
_space_group_symop_operation_xyz
x,y,z
-x,-y,z
1/2-x,y,z
1/2+x,-y,z
1/2+x,1/2+y,1/2+z
1/2-x,1/2-y,1/2+z
-x,1/2+y,1/2+z
x,1/2-y,1/2+z
loop_
_atom_site_type_symbol
_atom_site_label
_atom_site_fract_x
_atom_site_fract_y
_atom_site_fract_z
Si Si1 0.750000 0.408263 0.658241
Si Si2 0.250000 0.208139 0.817750
Si Si3 0.988751 0.891629 0.660472
Si Si4 0.250000 0.689923 0.118387
Si Si5 0.500000 0.500000 0.736173
O O1 0.750000 0.301671 0.560938
O O2 0.625509 0.466541 0.622190
O O3 0.750000 0.383250 0.914681
O O4 0.250000 0.261060 0.574793
O O5 0.123834 0.151865 0.786919
O O6 0.966431 0.910254 0.399027
O O7 0.112676 0.833311 0.701874
O O8 0.000000 0.000000 0.730746
#
# Coordination Sequence:
#
# PCOD9379127 Si02
#       5
#     4   4   8   4   4
#     4  10  19  37  63  87 131 177 236 294 365 438
#     4  12  28  48  76 114 152 196 252 317 377 442
#     4   9  20  42  71  99 147 197 247 301 372 446
#     4  10  21  35  67 101 129 179 246 299 356 434
#     4   8  18  36  66  88 136 190 236 296 368 440
#
# _framework density 25.617279
#
# number of rings (size 3 to 8) (size 9 to 14) (size 15 to 20)
#    1.000    1.333    0.000    2.000    9.333    0.000 
#    0.000    1.667   18.333    0.000    0.000    0.000 
#    0.000    0.000    0.000    0.000    0.000    0.000 
#
# Total GULP energy -66889.244039 kJ/mol
# GULP energy per Si atom -5574.103670 kJ/mol
# Density = 2.555897 g / cm^3
# Si number density = 25.617279 Si / 1000 Ang^3
#
#
#
# Elastic Constant Matrix: (Units=GPa)
#
#
# Indices 1 2 3 4 5 6 
#
# 1 256.2573 124.0315 58.4952 0.0000 0.0000 0.0000
# 2 124.0315 127.8536 37.9187 0.0000 0.0000 0.0000
# 3 58.4952 37.9187 84.2629 0.0000 0.0000 0.0000
# 4 0.0000 0.0000 0.0000 -54.8143 0.0000 0.0000
# 5 0.0000 0.0000 0.0000 0.0000 7.6905 0.0000
# 6 0.0000 0.0000 0.0000 0.0000 0.0000 61.0009
#
#
#
# Elastic Compliance Matrix: (Units=1/GPa)
#
#
# Indices 1 2 3 4 5 6 
#
# 1 0.007723 -0.006811 -0.002296 0.000000 0.000000 0.000000
# 2 -0.006811 0.015033 -0.002037 0.000000 0.000000 0.000000
# 3 -0.002296 -0.002037 0.014378 0.000000 0.000000 0.000000
# 4 0.000000 0.000000 0.000000 -0.018243 0.000000 0.000000
# 5 0.000000 0.000000 0.000000 0.000000 0.130030 0.000000
# 6 0.000000 0.000000 0.000000 0.000000 0.000000 0.016393
#
#
# Mechanical properties :
#
#
# Convention : Reuss Voigt Hill
#
# Bulk Modulus (GPa) = 67.35765 101.02942 84.19354
# Shear Modulus (GPa) = 25.96704 19.30398 22.63551
#
# Velocity S-wave (km/s) = 3.18725 2.74807 2.97577
# Velocity P-wave (km/s) = 6.31630 7.04222 6.68911
#
# Compressibility (1/GPa) = 0.01484612
#
# Stress axis : x y z
#
# Youngs Moduli (GPa) = 129.47862 66.51955 69.54965
#
# Poissons Ratio (x) = 0.45309 0.15971
# Poissons Ratio (y) = 0.88192 0.14164
# Poissons Ratio (z) = 0.29733 0.13547
#
# Static dielectric constant tensor:
#      x y z
#    x 1.914100 0.000000 0.000000 
#    y 0.000000 1.981210 0.000000 
#    z 0.000000 0.000000 2.344840 
# 
# From -- ./inp_files/578.got.cif
#   From: 2010.05.17/outbox.cif.g08.bks.cpg/sg46_1_cif.got.tgz:578.got - 2010.06.03 19:58:25.
