data_PCOD9379257
_publ_section_title
;
Structure prediction by ZEFSAII (Michael W. Deem and Ramdas Pophale) SiO2 
 PCOD9379257
Probable space group: I M A 2
;
_chemical_formula_sum "Si O2"
_cell_formula_units_Z 64
_cell_length_a 7.819717
_cell_length_b 25.846785
_cell_length_c 15.468847
_cell_angle_alpha 90.000000
_cell_angle_beta 90.000000
_cell_angle_gamma 90.000000
_cell_volume 3126.478959
_symmetry_space_group_name_H-M "I M A 2"
_symmetry_group_IT_number 46
_symmetry_cell_setting 'orthorhombic'
loop_
_space_group_symop_operation_xyz
x,y,z
-x,-y,z
1/2-x,y,z
1/2+x,-y,z
1/2+x,1/2+y,1/2+z
1/2-x,1/2-y,1/2+z
-x,1/2+y,1/2+z
x,1/2-y,1/2+z
loop_
_atom_site_type_symbol
_atom_site_label
_atom_site_fract_x
_atom_site_fract_y
_atom_site_fract_z
Si Si1 0.041966 0.233111 0.343000
Si Si2 0.048904 0.101212 0.565210
Si Si3 0.543529 0.636400 0.732584
Si Si4 0.543485 0.558067 0.244118
Si Si5 0.543753 0.560122 0.881738
Si Si6 0.547928 0.170237 0.051923
Si Si7 0.049015 0.784946 0.541147
Si Si8 0.047956 0.347707 0.358147
O O1 0.250000 0.233105 0.345518
O O2 0.986388 0.191186 0.273221
O O3 0.979469 0.291635 0.328302
O O4 0.981074 0.215572 0.437737
O O5 0.250000 0.089124 0.561702
O O6 0.977129 0.070995 0.647678
O O7 0.977000 0.084201 0.472066
O O8 0.031670 0.162833 0.577706
O O9 0.750000 0.635794 0.732429
O O10 0.482355 0.592109 0.798297
O O11 0.485697 0.634504 0.633958
O O12 0.500000 0.500000 0.270053
O O13 0.750000 0.561435 0.242011
O O14 0.477964 0.602555 0.308656
O O15 0.500000 0.500000 0.877204
O O16 0.750000 0.565629 0.882195
O O17 0.750000 0.175552 0.038441
O O18 0.480042 0.228726 0.070256
O O19 0.474419 0.150522 0.961421
O O20 0.250000 0.787654 0.559765
O O21 0.250000 0.346205 0.340176
#
# Coordination Sequence:
#
# PCOD9379257 Si02
#       8
#     8   8   8   8   8   8   8   8
#     4   9  17  33  56  81 110 144 183 227 275 327
#     4  10  20  36  57  82 114 150 189 230 269 332
#     4  10  20  35  57  84 112 148 190 230 275 332
#     4  10  22  38  59  85 112 145 190 236 282 333
#     4  10  21  37  56  82 113 148 189 228 274 329
#     4  10  22  37  54  82 117 150 184 230 286 337
#     4  10  20  33  51  81 117 150 183 221 276 335
#     4   9  19  37  59  83 108 144 191 233 278 335
#
# _framework density 20.470310999999999
#
# number of rings (size 3 to 8) (size 9 to 14) (size 15 to 20)
#    0.000    2.250    1.250    1.125    1.750    4.000 
#    0.000    0.625    0.000    0.000    0.000    0.000 
#    0.000    0.000    0.000    0.000    0.000    0.000 
#
# Total GULP energy -178645.553189 kJ/mol
# GULP energy per Si atom -5582.673537 kJ/mol
# Density = 2.042372 g / cm^3
# Si number density = 20.470311 Si / 1000 Ang^3
#
#
#
# Elastic Constant Matrix: (Units=GPa)
#
#
# Indices 1 2 3 4 5 6 
#
# 1 19.2131 -2.2534 -6.9390 0.0000 0.0000 0.0000
# 2 -2.2534 124.7267 54.4300 0.0001 0.0000 0.0000
# 3 -6.9390 54.4300 67.2755 0.0002 0.0001 0.0000
# 4 0.0000 0.0001 0.0002 30.7124 0.0000 0.0000
# 5 0.0000 0.0000 0.0001 0.0000 -21.6131 0.0000
# 6 0.0000 0.0000 0.0000 0.0000 0.0000 24.5629
#
#
#
# Elastic Compliance Matrix: (Units=1/GPa)
#
#
# Indices 1 2 3 4 5 6 
#
# 1 0.054474 -0.002269 0.007454 0.000000 0.000000 0.000000
# 2 -0.002269 0.012488 -0.010337 0.000000 0.000000 0.000000
# 3 0.007454 -0.010337 0.023997 0.000000 0.000000 0.000000
# 4 0.000000 0.000000 0.000000 0.032560 0.000000 0.000000
# 5 0.000000 0.000000 0.000000 0.000000 -0.046268 0.000000
# 6 0.000000 0.000000 0.000000 0.000000 0.000000 0.040712
#
#
# Mechanical properties :
#
#
# Convention : Reuss Voigt Hill
#
# Bulk Modulus (GPa) = 12.39860 33.52119 22.95989
# Shear Modulus (GPa) = 32.22680 17.79763 25.01222
#
# Velocity S-wave (km/s) = 3.97207 2.95182 3.49933
# Velocity P-wave (km/s) = 5.20639 5.29421 5.25049
#
# Compressibility (1/GPa) = 0.08065429
#
# Stress axis : x y z
#
# Youngs Moduli (GPa) = 18.35744 80.07890 41.67253
#
# Poissons Ratio (x) = 0.18168 -0.31064
# Poissons Ratio (y) = 0.04165 0.43078
# Poissons Ratio (z) = -0.13684 0.82780
#
# Static dielectric constant tensor:
#      x y z
#    x 1.755530 0.000000 0.000000 
#    y 0.000000 1.721850 0.000000 
#    z 0.000000 0.000000 1.725450 
# 
# From -- ./inp_files/14427.got.cif
#   From: 2010.05.17/outbox.cif.g08.bks.cpg/sg46_8_cif.got.tgz:14427.got - 2010.06.03 19:58:25.
