data_PCOD9379768
_publ_section_title
;
Structure prediction by ZEFSAII (Michael W. Deem and Ramdas Pophale) SiO2 
 PCOD9379768
Probable space group: I M A 2
;
_chemical_formula_sum "Si O2"
_cell_formula_units_Z 60
_cell_length_a 16.576139
_cell_length_b 7.919339
_cell_length_c 19.935142
_cell_angle_alpha 90.000000
_cell_angle_beta 90.000000
_cell_angle_gamma 90.000000
_cell_volume 2616.927238
_symmetry_space_group_name_H-M "I M A 2"
_symmetry_group_IT_number 46
_symmetry_cell_setting 'orthorhombic'
loop_
_space_group_symop_operation_xyz
x,y,z
-x,-y,z
1/2-x,y,z
1/2+x,-y,z
1/2+x,1/2+y,1/2+z
1/2-x,1/2-y,1/2+z
-x,1/2+y,1/2+z
x,1/2-y,1/2+z
loop_
_atom_site_type_symbol
_atom_site_label
_atom_site_fract_x
_atom_site_fract_y
_atom_site_fract_z
Si Si1 0.847453 0.411421 0.878220
Si Si2 0.923945 0.779709 0.556124
Si Si3 0.889618 0.172238 0.526859
Si Si4 0.042779 0.179285 0.197791
Si Si5 0.345172 0.212531 0.925149
Si Si6 0.122890 0.750348 0.735466
Si Si7 0.092272 0.433343 0.297851
Si Si8 0.750000 0.316294 0.624196
O O1 0.750000 0.404228 0.870725
O O2 0.872417 0.603747 0.896721
O O3 0.884049 0.343471 0.807912
O O4 0.872295 0.316477 0.946953
O O5 0.910006 0.704431 0.629404
O O6 0.880206 0.678768 0.497865
O O7 0.019248 0.770619 0.541612
O O8 0.891706 0.972378 0.548778
O O9 0.821553 0.265772 0.569661
O O10 0.091313 0.254471 0.259762
O O11 0.960912 0.288951 0.197054
O O12 0.000000 0.000000 0.206531
O O13 0.250000 0.219544 0.929765
O O14 0.373504 0.079346 0.871429
O O15 0.180724 0.659667 0.683964
O O16 0.147847 0.938880 0.755921
O O17 0.000000 0.500000 0.303402
#
# Coordination Sequence:
#
# PCOD9379768 Si02
#       8
#     8   8   8   8   8   8   8   4
#     4  10  20  38  61  96 129 171 218 267 323 388
#     4  10  22  40  63  93 126 173 220 264 325 396
#     4  10  21  37  65  94 130 170 220 269 320 390
#     4  11  23  42  65  92 130 171 217 272 335 399
#     4  10  23  43  66  93 131 170 222 275 328 398
#     4  11  23  38  66  95 133 171 216 271 328 398
#     4  10  24  42  64  96 127 168 217 272 335 403
#     4  12  20  36  64  96 130 168 216 272 324 378
#
# _framework density 22.927655000000001
#
# number of rings (size 3 to 8) (size 9 to 14) (size 15 to 20)
#    0.000    1.600    2.667    1.600    9.333    0.533 
#    0.000    0.000    4.400    0.000    0.000    0.000 
#    0.000    0.000    0.000    0.000    0.000    0.000 
#
# Total GULP energy -167021.593646 kJ/mol
# GULP energy per Si atom -5567.386455 kJ/mol
# Density = 2.287547 g / cm^3
# Si number density = 22.927655 Si / 1000 Ang^3
#
#
#
# Elastic Constant Matrix: (Units=GPa)
#
#
# Indices 1 2 3 4 5 6 
#
# 1 18.7480 -1.8998 29.4714 0.0000 0.0000 0.0000
# 2 -1.8998 50.1341 32.8679 0.0000 0.0000 0.0000
# 3 29.4714 32.8679 192.5893 0.0000 0.0000 0.0000
# 4 0.0000 0.0000 0.0000 24.0476 0.0000 0.0000
# 5 0.0000 0.0000 0.0000 0.0000 42.0210 0.0000
# 6 0.0000 0.0000 0.0000 0.0000 0.0000 10.9852
#
#
#
# Elastic Compliance Matrix: (Units=1/GPa)
#
#
# Indices 1 2 3 4 5 6 
#
# 1 0.075990 0.011826 -0.013647 0.000000 0.000000 0.000000
# 2 0.011826 0.024300 -0.005957 0.000000 0.000000 0.000000
# 3 -0.013647 -0.005957 0.008297 0.000000 0.000000 0.000000
# 4 0.000000 0.000000 0.000000 0.041584 0.000000 0.000000
# 5 0.000000 0.000000 0.000000 0.000000 0.023798 0.000000
# 6 0.000000 0.000000 0.000000 0.000000 0.000000 0.091032
#
#
# Mechanical properties :
#
#
# Convention : Reuss Voigt Hill
#
# Bulk Modulus (GPa) = 10.74892 42.48339 26.61615
# Shear Modulus (GPa) = 16.04794 28.81288 22.43041
#
# Velocity S-wave (km/s) = 2.64850 3.54882 3.13119
# Velocity P-wave (km/s) = 3.74848 5.94657 4.97056
#
# Compressibility (1/GPa) = 0.09303261
#
# Stress axis : x y z
#
# Youngs Moduli (GPa) = 13.15963 41.15235 120.52027
#
# Poissons Ratio (x) = -0.48668 1.64472
# Poissons Ratio (y) = -0.15563 0.71792
# Poissons Ratio (z) = 0.17959 0.24514
#
# Static dielectric constant tensor:
#      x y z
#    x 1.872120 0.000000 0.000000 
#    y 0.000000 2.004660 0.000000 
#    z 0.000000 0.000000 1.832870 
# 
# From -- ./inp_files/19963.got.cif
#   From: 2010.05.17/outbox.cif.g08.bks.cpg/sg46_10_cif.got.tgz:19963.got - 2010.06.03 19:58:25.
