data_PCOD9379422
_publ_section_title
;
Structure prediction by ZEFSAII (Michael W. Deem and Ramdas Pophale) SiO2 
 PCOD9379422
Probable space group: I M A 2
;
_chemical_formula_sum "Si O2"
_cell_formula_units_Z 64
_cell_length_a 8.648932
_cell_length_b 20.829371
_cell_length_c 20.158721
_cell_angle_alpha 90.000000
_cell_angle_beta 90.000000
_cell_angle_gamma 90.000000
_cell_volume 3631.630144
_symmetry_space_group_name_H-M "I M A 2"
_symmetry_group_IT_number 46
_symmetry_cell_setting 'orthorhombic'
loop_
_space_group_symop_operation_xyz
x,y,z
-x,-y,z
1/2-x,y,z
1/2+x,-y,z
1/2+x,1/2+y,1/2+z
1/2-x,1/2-y,1/2+z
-x,1/2+y,1/2+z
x,1/2-y,1/2+z
loop_
_atom_site_type_symbol
_atom_site_label
_atom_site_fract_x
_atom_site_fract_y
_atom_site_fract_z
Si Si1 0.934635 0.678892 0.627350
Si Si2 0.063476 0.930374 0.877027
Si Si3 0.435169 0.070122 0.374359
Si Si4 0.564078 0.319897 0.124056
Si Si5 0.064056 0.824403 0.274591
Si Si6 0.064248 0.570232 0.531011
Si Si7 0.935300 0.570276 0.028906
Si Si8 0.562393 0.178599 0.776645
O O1 0.750000 0.679960 0.628238
O O2 0.998055 0.749383 0.608263
O O3 0.997955 0.664124 0.701071
O O4 0.995354 0.625235 0.577104
O O5 0.250000 0.932308 0.874188
O O6 0.006663 0.874546 0.828228
O O7 0.020582 0.918490 0.953812
O O8 0.000000 0.000000 0.857607
O O9 0.250000 0.069447 0.369427
O O10 0.503092 0.124171 0.326692
O O11 0.477399 0.081830 0.451579
O O12 0.500000 0.000000 0.356247
O O13 0.750000 0.317143 0.121433
O O14 0.502946 0.374312 0.075135
O O15 0.517236 0.334396 0.200428
O O16 0.250000 0.826733 0.271473
O O17 0.016605 0.751534 0.293542
O O18 0.250000 0.570106 0.535907
O O19 0.000000 0.500000 0.549531
O O20 0.750000 0.569470 0.033905
O O21 0.000000 0.500000 0.047183
O O22 0.750000 0.177227 0.778277
#
# Coordination Sequence:
#
# PCOD9379422 Si02
#       8
#     8   8   8   8   8   8   8   8
#     4  11  22  37  56  79 109 142 179 224 272 323
#     4   9  18  34  54  77 106 138 173 214 260 310
#     4  10  21  37  56  80 109 141 178 221 269 322
#     4  10  20  36  57  80 109 144 183 225 270 322
#     4  10  20  36  57  80 107 140 179 221 267 320
#     4  10  20  35  55  79 107 140 178 220 267 320
#     4  10  21  37  56  80 111 145 183 226 272 324
#     4   8  17  34  54  77 105 138 175 215 260 313
#
# _framework density 17.622941000000001
#
# number of rings (size 3 to 8) (size 9 to 14) (size 15 to 20)
#    0.000    2.250    0.000    3.750    0.000    4.000 
#    0.000    8.750    0.000    0.000    0.000    0.000 
#    0.000    0.000    0.000    0.000    0.000    0.000 
#
# Total GULP energy -178625.987121 kJ/mol
# GULP energy per Si atom -5582.062098 kJ/mol
# Density = 1.758283 g / cm^3
# Si number density = 17.622941 Si / 1000 Ang^3
#
#
#
# Elastic Constant Matrix: (Units=GPa)
#
#
# Indices 1 2 3 4 5 6 
#
# 1 69.5481 60.8261 47.4185 0.0000 0.0000 0.0000
# 2 60.8261 194.7463 135.3309 0.0000 0.0000 0.0000
# 3 47.4185 135.3309 112.3451 0.0000 0.0000 0.0000
# 4 0.0000 0.0000 0.0000 44.8379 0.0000 0.0000
# 5 0.0000 0.0000 0.0000 0.0000 25.8063 0.0000
# 6 0.0000 0.0000 0.0000 0.0000 0.0000 34.6386
#
#
#
# Elastic Compliance Matrix: (Units=1/GPa)
#
#
# Indices 1 2 3 4 5 6 
#
# 1 0.020366 -0.002379 -0.005731 0.000000 0.000000 0.000000
# 2 -0.002379 0.031797 -0.037299 0.000000 0.000000 0.000000
# 3 -0.005731 -0.037299 0.056250 0.000000 0.000000 0.000000
# 4 0.000000 0.000000 0.000000 0.022303 0.000000 0.000000
# 5 0.000000 0.000000 0.000000 0.000000 0.038750 0.000000
# 6 0.000000 0.000000 0.000000 0.000000 0.000000 0.028870
#
#
# Mechanical properties :
#
#
# Convention : Reuss Voigt Hill
#
# Bulk Modulus (GPa) = 56.82802 95.97673 76.40238
# Shear Modulus (GPa) = 16.94816 29.92749 23.43783
#
# Velocity S-wave (km/s) = 3.10451 4.12541 3.65082
# Velocity P-wave (km/s) = 6.72066 8.79042 7.82428
#
# Compressibility (1/GPa) = 0.01759695
#
# Stress axis : x y z
#
# Youngs Moduli (GPa) = 49.10093 31.44943 17.77782
#
# Poissons Ratio (x) = 0.07481 0.10188
# Poissons Ratio (y) = 0.11681 0.66309
# Poissons Ratio (z) = 0.28137 1.17302
#
# Static dielectric constant tensor:
#      x y z
#    x 1.594660 0.000000 0.000000 
#    y 0.000000 1.571250 0.000000 
#    z 0.000000 0.000000 1.586590 
# 
# From -- ./inp_files/18544.got.cif
#   From: 2010.05.17/outbox.cif.g08.bks.cpg/sg46_10_cif.got.tgz:18544.got - 2010.06.03 19:58:25.
