data_PCOD9379451
_publ_section_title
;
Structure prediction by ZEFSAII (Michael W. Deem and Ramdas Pophale) SiO2 
 PCOD9379451
Probable space group: I M A 2
;
_chemical_formula_sum "Si O2"
_cell_formula_units_Z 40
_cell_length_a 19.855727
_cell_length_b 11.649176
_cell_length_c 6.816108
_cell_angle_alpha 90.000000
_cell_angle_beta 90.000000
_cell_angle_gamma 90.000000
_cell_volume 1576.585264
_symmetry_space_group_name_H-M "I M A 2"
_symmetry_group_IT_number 46
_symmetry_cell_setting 'orthorhombic'
loop_
_space_group_symop_operation_xyz
x,y,z
-x,-y,z
1/2-x,y,z
1/2+x,-y,z
1/2+x,1/2+y,1/2+z
1/2-x,1/2-y,1/2+z
-x,1/2+y,1/2+z
x,1/2-y,1/2+z
loop_
_atom_site_type_symbol
_atom_site_label
_atom_site_fract_x
_atom_site_fract_y
_atom_site_fract_z
Si Si1 0.325464 0.211501 0.705770
Si Si2 0.929541 0.035017 0.426741
Si Si3 0.546523 0.389149 0.499745
Si Si4 0.925375 0.773591 0.434388
Si Si5 0.826415 0.066068 0.735507
O O1 0.250000 0.261635 0.708110
O O2 0.342349 0.261629 0.457244
O O3 0.412124 0.219497 0.694683
O O4 0.320203 0.071981 0.712641
O O5 0.911302 0.905463 0.367615
O O6 0.871153 0.096602 0.545382
O O7 0.000000 0.000000 0.533790
O O8 0.943252 0.102145 0.230623
O O9 0.500000 0.500000 0.450881
O O10 0.499637 0.280713 0.455530
O O11 0.620065 0.401500 0.404032
O O12 0.750000 0.111505 0.751413
#
# Coordination Sequence:
#
# PCOD9379451 Si02
#       5
#     8   8   8   8   8
#     4  10  20  35  56  91 132 164 202 264 341 411
#     4  10  23  41  62  96 127 166 219 280 336 399
#     4  11  21  41  62  98 131 169 222 272 336 406
#     4  11  22  37  62  95 126 174 215 268 342 410
#     4  10  22  39  61  89 131 175 216 276 338 399
#
# _framework density 25.371288
#
# number of rings (size 3 to 8) (size 9 to 14) (size 15 to 20)
#    0.000    1.600    2.000    3.600    2.800    1.600 
#    0.000    0.000    0.000    1.200    0.000    0.000 
#    0.000    0.000    0.000    0.000    0.000    0.000 
#
# Total GULP energy -111367.860807 kJ/mol
# GULP energy per Si atom -5568.393040 kJ/mol
# Density = 2.531354 g / cm^3
# Si number density = 25.371288 Si / 1000 Ang^3
#
#
#
# Elastic Constant Matrix: (Units=GPa)
#
#
# Indices 1 2 3 4 5 6 
#
# 1 290.8789 36.4053 119.2974 0.0000 0.0000 0.0000
# 2 36.4053 47.4081 45.8699 0.0000 0.0000 0.0000
# 3 119.2974 45.8699 209.8639 0.0000 0.0000 0.0000
# 4 0.0000 0.0000 0.0000 29.9093 0.0000 0.0000
# 5 0.0000 0.0000 0.0000 0.0000 7.0782 0.0000
# 6 0.0000 0.0000 0.0000 0.0000 0.0000 27.3277
#
#
#
# Elastic Compliance Matrix: (Units=1/GPa)
#
#
# Indices 1 2 3 4 5 6 
#
# 1 0.004541 -0.001255 -0.002307 0.000000 0.000000 0.000000
# 2 -0.001255 0.027097 -0.005209 0.000000 0.000000 0.000000
# 3 -0.002307 -0.005209 0.007215 0.000000 0.000000 0.000000
# 4 0.000000 0.000000 0.000000 0.033434 0.000000 0.000000
# 5 0.000000 0.000000 0.000000 0.000000 0.141278 0.000000
# 6 0.000000 0.000000 0.000000 0.000000 0.000000 0.036593
#
#
# Mechanical properties :
#
#
# Convention : Reuss Voigt Hill
#
# Bulk Modulus (GPa) = 46.92431 105.69956 76.31193
# Shear Modulus (GPa) = 18.19468 35.96826 27.08147
#
# Velocity S-wave (km/s) = 2.68085 3.76929 3.27066
# Velocity P-wave (km/s) = 5.30262 7.79069 6.66381
#
# Compressibility (1/GPa) = 0.02131092
#
# Stress axis : x y z
#
# Youngs Moduli (GPa) = 220.20928 36.90387 138.59856
#
# Poissons Ratio (x) = 0.04631 0.31976
# Poissons Ratio (y) = 0.27635 0.72200
# Poissons Ratio (z) = 0.50805 0.19224
#
# Static dielectric constant tensor:
#      x y z
#    x 2.116230 0.000000 0.000000 
#    y 0.000000 2.005450 0.000000 
#    z 0.000000 0.000000 2.444770 
# 
# From -- ./inp_files/5420.got.cif
#   From: 2010.05.17/outbox.cif.g08.bks.cpg/sg46_3_cif.got.tgz:5420.got - 2010.06.03 19:58:25.
