data_PCOD9379979
_publ_section_title
;
Structure prediction by ZEFSAII (Michael W. Deem and Ramdas Pophale) SiO2 
 PCOD9379979
Probable space group: I M A 2
;
_chemical_formula_sum "Si O2"
_cell_formula_units_Z 64
_cell_length_a 30.630254
_cell_length_b 11.874708
_cell_length_c 8.602533
_cell_angle_alpha 90.000000
_cell_angle_beta 90.000000
_cell_angle_gamma 90.000000
_cell_volume 3128.959087
_symmetry_space_group_name_H-M "I M A 2"
_symmetry_group_IT_number 46
_symmetry_cell_setting 'orthorhombic'
loop_
_space_group_symop_operation_xyz
x,y,z
-x,-y,z
1/2-x,y,z
1/2+x,-y,z
1/2+x,1/2+y,1/2+z
1/2-x,1/2-y,1/2+z
-x,1/2+y,1/2+z
x,1/2-y,1/2+z
loop_
_atom_site_type_symbol
_atom_site_label
_atom_site_fract_x
_atom_site_fract_y
_atom_site_fract_z
Si Si1 0.964659 0.907555 0.630180
Si Si2 0.838102 0.111214 0.598296
Si Si3 0.018913 0.251015 0.403913
Si Si4 0.606290 0.652272 0.547412
Si Si5 0.130708 0.386316 0.210392
Si Si6 0.300749 0.811767 0.271774
Si Si7 0.416442 0.770955 0.431998
Si Si8 0.883274 0.092870 0.134300
O O1 0.964310 0.873318 0.449208
O O2 0.978586 0.797716 0.730179
O O3 0.917192 0.939612 0.684528
O O4 0.000000 0.000000 0.663354
O O5 0.810407 0.146866 0.446320
O O6 0.818940 0.186261 0.738085
O O7 0.886983 0.153930 0.550440
O O8 0.837792 0.978892 0.635470
O O9 0.056594 0.325732 0.488025
O O10 0.968222 0.244353 0.451519
O O11 0.635276 0.630523 0.393866
O O12 0.624810 0.763164 0.632551
O O13 0.606669 0.538356 0.645685
O O14 0.250000 0.818330 0.235900
O O15 0.332082 0.886663 0.162812
O O16 0.407398 0.833399 0.268419
O O17 0.397608 0.646516 0.469774
#
# Coordination Sequence:
#
# PCOD9379979 Si02
#       8
#     8   8   8   8   8   8   8   8
#     4  10  21  37  54  77 114 161 208 264 306 349
#     4  10  22  38  66  97 129 164 203 266 331 388
#     4  10  21  38  53  81 118 166 216 264 305 360
#     4  10  24  40  61  88 129 178 227 259 311 379
#     4  10  23  40  60  86 125 171 220 253 314 382
#     4  10  22  41  68 101 131 157 200 260 334 398
#     4  10  21  35  60  89 127 160 221 267 334 371
#     4  10  23  38  63  97 125 169 210 273 331 387
#
# _framework density 20.454086
#
# number of rings (size 3 to 8) (size 9 to 14) (size 15 to 20)
#    0.000    2.000    0.000    1.875   14.000    0.000 
#    4.500    0.000    0.000    1.500    0.000    0.000 
#    0.000    0.000    0.000    0.000    0.000    0.000 
#
# Total GULP energy -178321.283152 kJ/mol
# GULP energy per Si atom -5572.540098 kJ/mol
# Density = 2.040753 g / cm^3
# Si number density = 20.454086 Si / 1000 Ang^3
#
#
#
# Elastic Constant Matrix: (Units=GPa)
#
#
# Indices 1 2 3 4 5 6 
#
# 1 89.9291 26.0026 27.5666 0.0000 0.0000 0.0000
# 2 26.0026 104.1577 51.8539 0.0000 0.0000 0.0000
# 3 27.5666 51.8539 80.7250 0.0000 0.0000 0.0000
# 4 0.0000 0.0000 0.0000 4.4572 0.0000 0.0000
# 5 0.0000 0.0000 0.0000 0.0000 13.4374 0.0000
# 6 0.0000 0.0000 0.0000 0.0000 0.0000 9.2471
#
#
#
# Elastic Compliance Matrix: (Units=1/GPa)
#
#
# Indices 1 2 3 4 5 6 
#
# 1 0.012572 -0.001472 -0.003348 0.000000 0.000000 0.000000
# 2 -0.001472 0.014287 -0.008675 0.000000 0.000000 0.000000
# 3 -0.003348 -0.008675 0.019103 0.000000 0.000000 0.000000
# 4 0.000000 0.000000 0.000000 0.224356 0.000000 0.000000
# 5 0.000000 0.000000 0.000000 0.000000 0.074419 0.000000
# 6 0.000000 0.000000 0.000000 0.000000 0.000000 0.108142
#
#
# Mechanical properties :
#
#
# Convention : Reuss Voigt Hill
#
# Bulk Modulus (GPa) = 52.70534 53.96200 53.33367
# Shear Modulus (GPa) = 10.28402 16.72091 13.50246
#
# Velocity S-wave (km/s) = 2.24472 2.86227 2.57210
# Velocity P-wave (km/s) = 5.70455 6.11251 5.91205
#
# Compressibility (1/GPa) = 0.01897341
#
# Stress axis : x y z
#
# Youngs Moduli (GPa) = 79.54422 69.99456 52.34778
#
# Poissons Ratio (x) = 0.10303 0.17524
# Poissons Ratio (y) = 0.11708 0.45409
# Poissons Ratio (z) = 0.26628 0.60717
#
# Static dielectric constant tensor:
#      x y z
#    x 1.705500 0.000000 0.000000 
#    y 0.000000 1.775560 0.000000 
#    z 0.000000 0.000000 1.816370 
# 
# From -- ./inp_files/8498.got.cif
#   From: 2010.05.17/outbox.cif.g08.bks.cpg/sg46_5_cif.got.tgz:8498.got - 2010.06.03 19:58:25.
