data_PCOD9379124
_publ_section_title
;
Structure prediction by ZEFSAII (Michael W. Deem and Ramdas Pophale) SiO2 
 PCOD9379124
Probable space group: I M A 2
;
_chemical_formula_sum "Si O2"
_cell_formula_units_Z 48
_cell_length_a 8.522475
_cell_length_b 31.435405
_cell_length_c 9.328481
_cell_angle_alpha 90.000000
_cell_angle_beta 90.000000
_cell_angle_gamma 90.000000
_cell_volume 2499.169587
_symmetry_space_group_name_H-M "I M A 2"
_symmetry_group_IT_number 46
_symmetry_cell_setting 'orthorhombic'
loop_
_space_group_symop_operation_xyz
x,y,z
-x,-y,z
1/2-x,y,z
1/2+x,-y,z
1/2+x,1/2+y,1/2+z
1/2-x,1/2-y,1/2+z
-x,1/2+y,1/2+z
x,1/2-y,1/2+z
loop_
_atom_site_type_symbol
_atom_site_label
_atom_site_fract_x
_atom_site_fract_y
_atom_site_fract_z
Si Si1 0.562593 0.452871 0.601280
Si Si2 0.563196 0.625846 0.780875
Si Si3 0.559111 0.291390 0.274618
Si Si4 0.563079 0.546510 0.281688
Si Si5 0.938343 0.375374 0.101940
Si Si6 0.440614 0.793464 0.106132
O O1 0.500000 0.500000 0.636191
O O2 0.750000 0.452380 0.608405
O O3 0.492810 0.417477 0.705428
O O4 0.509589 0.443630 0.437957
O O5 0.750000 0.625998 0.793141
O O6 0.507031 0.665161 0.683827
O O7 0.487940 0.629570 0.937729
O O8 0.750000 0.291198 0.274025
O O9 0.509622 0.333988 0.192225
O O10 0.509750 0.249032 0.190558
O O11 0.509737 0.291368 0.440173
O O12 0.500000 0.500000 0.238767
O O13 0.750000 0.544663 0.295433
O O14 0.512320 0.582632 0.171223
O O15 0.750000 0.378406 0.111381
O O16 0.250000 0.795643 0.109789
#
# Coordination Sequence:
#
# PCOD9379124 Si02
#       6
#     8   8   8   8   8   8
#     4  11  22  40  64  90 118 155 198 245 296 355
#     4  12  25  40  57  85 120 158 200 249 302 356
#     4   9  19  35  62  91 117 150 196 244 294 355
#     4  11  22  39  62  91 123 158 197 243 293 351
#     4  11  22  39  61  88 119 158 202 248 297 354
#     4  10  19  37  62  89 117 153 196 243 295 357
#
# _framework density 19.206378999999998
#
# number of rings (size 3 to 8) (size 9 to 14) (size 15 to 20)
#    0.000    1.333    0.000    8.000    0.000    4.667 
#    0.000    8.333    0.000    0.000    0.000    0.000 
#    0.000    0.000    0.000    0.000    0.000    0.000 
#
# Total GULP energy -134245.135242 kJ/mol
# GULP energy per Si atom -5593.547302 kJ/mol
# Density = 1.916266 g / cm^3
# Si number density = 19.206379 Si / 1000 Ang^3
#
#
#
# Elastic Constant Matrix: (Units=GPa)
#
#
# Indices 1 2 3 4 5 6 
#
# 1 50.0801 -4.2658 -14.2543 0.0002 0.0001 0.0000
# 2 -4.2658 102.1495 74.9594 0.0001 0.0001 0.0000
# 3 -14.2543 74.9594 122.2259 -0.0002 0.0002 0.0002
# 4 0.0002 0.0001 -0.0002 43.8822 0.0001 0.0001
# 5 0.0001 0.0001 0.0002 0.0001 16.1693 -0.0001
# 6 0.0000 0.0000 0.0002 0.0001 -0.0001 27.7843
#
#
#
# Elastic Compliance Matrix: (Units=1/GPa)
#
#
# Indices 1 2 3 4 5 6 
#
# 1 0.020807 -0.001658 0.003443 0.000000 0.000000 0.000000
# 2 -0.001658 0.017933 -0.011191 0.000000 0.000000 0.000000
# 3 0.003443 -0.011191 0.015447 0.000000 0.000000 0.000000
# 4 0.000000 0.000000 0.000000 0.022788 0.000000 0.000000
# 5 0.000000 0.000000 0.000000 0.000000 0.061846 0.000000
# 6 0.000000 0.000000 0.000000 0.000000 0.000000 0.035992
#
#
# Mechanical properties :
#
#
# Convention : Reuss Voigt Hill
#
# Bulk Modulus (GPa) = 28.26890 43.03712 35.65301
# Shear Modulus (GPa) = 24.34102 32.10157 28.22130
#
# Velocity S-wave (km/s) = 3.56383 4.09271 3.83740
# Velocity P-wave (km/s) = 5.62894 6.69254 6.18365
#
# Compressibility (1/GPa) = 0.03537456
#
# Stress axis : x y z
#
# Youngs Moduli (GPa) = 48.06106 55.76409 64.73937
#
# Poissons Ratio (x) = 0.09245 -0.22292
# Poissons Ratio (y) = 0.07968 0.72451
# Poissons Ratio (z) = -0.16549 0.62407
#
# Static dielectric constant tensor:
#      x y z
#    x 1.653500 0.000000 0.000000 
#    y 0.000000 1.639190 0.000000 
#    z 0.000000 0.000000 1.636280 
# 
# From -- ./inp_files/3920.got.cif
#   From: 2010.05.17/outbox.cif.g08.bks.cpg/sg46_2_cif.got.tgz:3920.got - 2010.06.03 19:58:25.
