data_PCOD9379517
_publ_section_title
;
Structure prediction by ZEFSAII (Michael W. Deem and Ramdas Pophale) SiO2 
 PCOD9379517
Probable space group: I M A 2
;
_chemical_formula_sum "Si O2"
_cell_formula_units_Z 64
_cell_length_a 8.792134
_cell_length_b 32.992616
_cell_length_c 12.067380
_cell_angle_alpha 90.000000
_cell_angle_beta 90.000000
_cell_angle_gamma 90.000000
_cell_volume 3500.451298
_symmetry_space_group_name_H-M "I M A 2"
_symmetry_group_IT_number 46
_symmetry_cell_setting 'orthorhombic'
loop_
_space_group_symop_operation_xyz
x,y,z
-x,-y,z
1/2-x,y,z
1/2+x,-y,z
1/2+x,1/2+y,1/2+z
1/2-x,1/2-y,1/2+z
-x,1/2+y,1/2+z
x,1/2-y,1/2+z
loop_
_atom_site_type_symbol
_atom_site_label
_atom_site_fract_x
_atom_site_fract_y
_atom_site_fract_z
Si Si1 0.566890 0.723101 0.816950
Si Si2 0.432270 0.954596 0.807358
Si Si3 0.077562 0.817889 0.521186
Si Si4 0.934094 0.619125 0.436752
Si Si5 0.066697 0.186410 0.756781
Si Si6 0.566540 0.857963 0.187859
Si Si7 0.069174 0.044630 0.574346
Si Si8 0.423081 0.597773 0.888339
O O1 0.750000 0.723045 0.818795
O O2 0.515159 0.767710 0.782281
O O3 0.519915 0.686702 0.733434
O O4 0.507866 0.712692 0.939260
O O5 0.250000 0.956813 0.804986
O O6 0.490485 0.922937 0.898856
O O7 0.493976 0.938905 0.687890
O O8 0.500000 0.000000 0.822715
O O9 0.250000 0.804357 0.540838
O O10 0.080997 0.859951 0.454807
O O11 0.993994 0.824533 0.636331
O O12 0.750000 0.614778 0.431583
O O13 0.980317 0.654151 0.349842
O O14 0.974275 0.633125 0.560962
O O15 0.250000 0.186415 0.754962
O O16 0.750000 0.859941 0.197203
O O17 0.493842 0.890983 0.270009
O O18 0.250000 0.043476 0.588657
O O19 0.023008 0.068880 0.465091
O O20 0.000000 0.000000 0.563084
O O21 0.250000 0.582471 0.878389
#
# Coordination Sequence:
#
# PCOD9379517 Si02
#       8
#     8   8   8   8   8   8   8   8
#     4   9  19  35  57  80 106 143 189 235 281 331
#     4  11  22  38  60  86 117 152 189 234 288 344
#     4  10  21  35  52  76 108 143 179 224 277 331
#     4  10  21  37  57  85 116 150 193 240 287 340
#     4  10  21  34  56  83 110 144 187 236 280 331
#     4   9  19  36  57  80 110 149 193 238 283 333
#     4  11  21  35  58  87 117 146 181 227 282 336
#     4  10  20  36  56  79 110 145 184 226 276 334
#
# _framework density 18.283356999999999
#
# number of rings (size 3 to 8) (size 9 to 14) (size 15 to 20)
#    0.000    2.000    0.000    4.500    1.750    5.000 
#    0.000    0.625    0.000    3.000    0.000    0.000 
#    0.000    0.000    0.000    0.000    0.000    0.000 
#
# Total GULP energy -178618.663927 kJ/mol
# GULP energy per Si atom -5581.833248 kJ/mol
# Density = 1.824174 g / cm^3
# Si number density = 18.283357 Si / 1000 Ang^3
#
#
#
# Elastic Constant Matrix: (Units=GPa)
#
#
# Indices 1 2 3 4 5 6 
#
# 1 66.7705 35.4079 43.9016 0.0000 0.0000 0.0000
# 2 35.4079 70.4862 55.8449 0.0001 0.0000 0.0000
# 3 43.9016 55.8449 157.8697 0.0004 0.0001 0.0000
# 4 0.0000 0.0001 0.0004 12.3247 0.0001 0.0000
# 5 0.0000 0.0000 0.0001 0.0001 16.7053 0.0000
# 6 0.0000 0.0000 0.0000 0.0000 0.0000 18.4907
#
#
#
# Elastic Compliance Matrix: (Units=1/GPa)
#
#
# Indices 1 2 3 4 5 6 
#
# 1 0.021380 -0.008377 -0.002982 0.000000 0.000000 0.000000
# 2 -0.008377 0.022994 -0.005804 0.000000 0.000000 0.000000
# 3 -0.002982 -0.005804 0.009217 0.000000 0.000000 0.000000
# 4 0.000000 0.000000 0.000000 0.081138 0.000000 0.000000
# 5 0.000000 0.000000 0.000000 0.000000 0.059861 0.000000
# 6 0.000000 0.000000 0.000000 0.000000 0.000000 0.054081
#
#
# Mechanical properties :
#
#
# Convention : Reuss Voigt Hill
#
# Bulk Modulus (GPa) = 51.91195 62.82612 57.36903
# Shear Modulus (GPa) = 17.27597 20.16895 18.72246
#
# Velocity S-wave (km/s) = 3.07726 3.32495 3.20350
# Velocity P-wave (km/s) = 6.40942 7.01266 6.71782
#
# Compressibility (1/GPa) = 0.01926339
#
# Stress axis : x y z
#
# Youngs Moduli (GPa) = 46.77321 43.48960 108.49709
#
# Poissons Ratio (x) = 0.36432 0.32355
# Poissons Ratio (y) = 0.39183 0.62975
# Poissons Ratio (z) = 0.13948 0.25243
#
# Static dielectric constant tensor:
#      x y z
#    x 1.626140 0.000000 0.000000 
#    y 0.000000 1.657750 0.000000 
#    z 0.000000 0.000000 1.611310 
# 
# From -- ./inp_files/9768.got.cif
#   From: 2010.05.17/outbox.cif.g08.bks.cpg/sg46_5_cif.got.tgz:9768.got - 2010.06.03 19:58:25.
