data_PCOD9379808
_publ_section_title
;
Structure prediction by ZEFSAII (Michael W. Deem and Ramdas Pophale) SiO2 
 PCOD9379808
Probable space group: I M A 2
;
_chemical_formula_sum "Si O2"
_cell_formula_units_Z 60
_cell_length_a 9.704113
_cell_length_b 19.320217
_cell_length_c 15.801946
_cell_angle_alpha 90.000000
_cell_angle_beta 90.000000
_cell_angle_gamma 90.000000
_cell_volume 2962.636836
_symmetry_space_group_name_H-M "I M A 2"
_symmetry_group_IT_number 46
_symmetry_cell_setting 'orthorhombic'
loop_
_space_group_symop_operation_xyz
x,y,z
-x,-y,z
1/2-x,y,z
1/2+x,-y,z
1/2+x,1/2+y,1/2+z
1/2-x,1/2-y,1/2+z
-x,1/2+y,1/2+z
x,1/2-y,1/2+z
loop_
_atom_site_type_symbol
_atom_site_label
_atom_site_fract_x
_atom_site_fract_y
_atom_site_fract_z
Si Si1 0.973941 0.096772 0.161580
Si Si2 0.412570 0.345849 0.832348
Si Si3 0.591763 0.932900 0.500449
Si Si4 0.913583 0.569167 0.351515
Si Si5 0.406594 0.756159 0.093116
Si Si6 0.409767 0.147976 0.677259
Si Si7 0.250000 0.474149 0.633842
Si Si8 0.586486 0.715101 0.431761
O O1 0.908610 0.164424 0.120585
O O2 0.870049 0.033264 0.152236
O O3 0.003279 0.116776 0.259256
O O4 0.124581 0.082539 0.121264
O O5 0.250000 0.354817 0.811764
O O6 0.439276 0.383223 0.921659
O O7 0.437192 0.264685 0.850362
O O8 0.750000 0.954148 0.491099
O O9 0.578650 0.894679 0.590010
O O10 0.500000 0.000000 0.497982
O O11 0.750000 0.554246 0.359737
O O12 0.939492 0.598197 0.256694
O O13 0.945306 0.635288 0.410663
O O14 0.000000 0.500000 0.369337
O O15 0.250000 0.731623 0.081096
O O16 0.485994 0.710795 0.163077
O O17 0.495218 0.755863 0.007393
O O18 0.250000 0.171582 0.686619
O O19 0.750000 0.721575 0.451254
#
# Coordination Sequence:
#
# PCOD9379808 Si02
#       8
#     8   8   8   8   8   8   4   8
#     4  11  23  42  62  92 122 169 206 257 309 377
#     4  10  20  38  65  92 124 163 209 251 304 377
#     4  10  21  35  57  91 126 164 202 249 302 368
#     4  10  22  41  67  96 125 167 214 262 318 378
#     4  12  25  42  62  94 126 161 214 269 318 366
#     4  10  21  41  67  89 123 167 213 254 312 384
#     4  10  24  42  62  88 128 160 212 254 312 370
#     4  10  22  43  65  91 124 166 216 258 311 387
#
# _framework density 20.252229
#
# number of rings (size 3 to 8) (size 9 to 14) (size 15 to 20)
#    0.000    1.600    2.667    1.600    3.733    2.667 
#    3.600    0.000    0.000    0.000    0.000    0.000 
#    0.000    0.000    0.000    0.000    0.000    0.000 
#
# Total GULP energy -167078.617303 kJ/mol
# GULP energy per Si atom -5569.287243 kJ/mol
# Density = 2.020613 g / cm^3
# Si number density = 20.252229 Si / 1000 Ang^3
#
#
#
# Elastic Constant Matrix: (Units=GPa)
#
#
# Indices 1 2 3 4 5 6 
#
# 1 105.1286 49.8843 12.2920 0.0000 0.0000 0.0000
# 2 49.8843 83.2969 -10.1036 0.0000 0.0000 0.0000
# 3 12.2920 -10.1036 29.9634 0.0000 0.0000 0.0000
# 4 0.0000 0.0000 0.0000 7.6537 0.0000 0.0000
# 5 0.0000 0.0000 0.0000 0.0000 18.5599 0.0000
# 6 0.0000 0.0000 0.0000 0.0000 0.0000 43.7456
#
#
#
# Elastic Compliance Matrix: (Units=1/GPa)
#
#
# Indices 1 2 3 4 5 6 
#
# 1 0.015737 -0.010643 -0.010044 0.000000 0.000000 0.000000
# 2 -0.010643 0.019715 0.011014 0.000000 0.000000 0.000000
# 3 -0.010044 0.011014 0.041208 0.000000 0.000000 0.000000
# 4 0.000000 0.000000 0.000000 0.130656 0.000000 0.000000
# 5 0.000000 0.000000 0.000000 0.000000 0.053880 0.000000
# 6 0.000000 0.000000 0.000000 0.000000 0.000000 0.022859
#
#
# Mechanical properties :
#
#
# Convention : Reuss Voigt Hill
#
# Bulk Modulus (GPa) = 17.44795 35.83714 26.64255
# Shear Modulus (GPa) = 15.50360 25.07958 20.29159
#
# Velocity S-wave (km/s) = 2.76982 3.52285 3.16878
# Velocity P-wave (km/s) = 4.34318 5.85501 5.15482
#
# Compressibility (1/GPa) = 0.05731331
#
# Stress axis : x y z
#
# Youngs Moduli (GPa) = 63.54636 50.72354 24.26692
#
# Poissons Ratio (x) = 0.53983 0.24374
# Poissons Ratio (y) = 0.67629 -0.26727
# Poissons Ratio (z) = 0.63828 -0.55865
#
# Static dielectric constant tensor:
#      x y z
#    x 1.693650 0.000000 0.000000 
#    y 0.000000 1.772580 0.000000 
#    z 0.000000 0.000000 1.745230 
# 
# From -- ./inp_files/18367.got.cif
#   From: 2010.05.17/outbox.cif.g08.bks.cpg/sg46_10_cif.got.tgz:18367.got - 2010.06.03 19:58:25.
