data_PCOD9379120
_publ_section_title
;
Structure prediction by ZEFSAII (Michael W. Deem and Ramdas Pophale) SiO2 
 PCOD9379120
Probable space group: I M A 2
;
_chemical_formula_sum "Si O2"
_cell_formula_units_Z 56
_cell_length_a 18.709383
_cell_length_b 8.641488
_cell_length_c 14.136314
_cell_angle_alpha 90.000000
_cell_angle_beta 90.000000
_cell_angle_gamma 90.000000
_cell_volume 2285.515548
_symmetry_space_group_name_H-M "I M A 2"
_symmetry_group_IT_number 46
_symmetry_cell_setting 'orthorhombic'
loop_
_space_group_symop_operation_xyz
x,y,z
-x,-y,z
1/2-x,y,z
1/2+x,-y,z
1/2+x,1/2+y,1/2+z
1/2-x,1/2-y,1/2+z
-x,1/2+y,1/2+z
x,1/2-y,1/2+z
loop_
_atom_site_type_symbol
_atom_site_label
_atom_site_fract_x
_atom_site_fract_y
_atom_site_fract_z
Si Si1 0.332111 0.663738 0.686570
Si Si2 0.331261 0.319348 0.719125
Si Si3 0.332737 0.656049 0.456414
Si Si4 0.937103 0.405053 0.147223
Si Si5 0.031217 0.830042 0.445365
Si Si6 0.830639 0.631867 0.036514
Si Si7 0.399777 0.337738 0.381174
O O1 0.250000 0.701462 0.711882
O O2 0.352132 0.497301 0.727817
O O3 0.333791 0.651593 0.571446
O O4 0.390078 0.792998 0.710552
O O5 0.250000 0.300112 0.754254
O O6 0.329723 0.275696 0.609069
O O7 0.380132 0.199426 0.773837
O O8 0.250000 0.671899 0.427741
O O9 0.385688 0.794921 0.426163
O O10 0.367025 0.498213 0.416414
O O11 0.976693 0.316679 0.060085
O O12 0.881209 0.509470 0.088048
O O13 0.000000 0.500000 0.195761
O O14 0.982177 0.697177 0.401160
O O15 0.000000 0.000000 0.419413
O O16 0.750000 0.570586 0.027416
O O17 0.860154 0.699873 0.939830
#
# Coordination Sequence:
#
# PCOD9379120 Si02
#       7
#     8   8   8   8   8   8   8
#     4   9  18  35  60  92 129 171 222 279 337 405
#     4  10  22  39  62  99 134 169 229 284 334 411
#     4  10  20  37  66  98 131 179 227 275 342 413
#     4  10  19  37  61  88 128 171 219 278 339 403
#     4  10  21  40  62  93 137 172 223 286 337 406
#     4  11  21  38  65  91 122 173 223 278 340 400
#     4  12  21  40  67  95 135 179 222 285 351 404
#
# _framework density 24.502129
#
# number of rings (size 3 to 8) (size 9 to 14) (size 15 to 20)
#    0.000    1.714    4.286    2.143    0.000    0.571 
#    0.000    5.000    0.000    1.714    0.000    0.000 
#    0.000    0.000    0.000    0.000    0.000    0.000 
#
# Total GULP energy -156709.761060 kJ/mol
# GULP energy per Si atom -5596.777181 kJ/mol
# Density = 2.444636 g / cm^3
# Si number density = 24.502129 Si / 1000 Ang^3
#
#
#
# Elastic Constant Matrix: (Units=GPa)
#
#
# Indices 1 2 3 4 5 6 
#
# 1 171.1376 75.7042 8.6219 0.0000 0.0000 0.0000
# 2 75.7042 113.5004 9.0835 0.0000 0.0000 0.0000
# 3 8.6219 9.0835 71.3333 0.0000 0.0000 0.0000
# 4 0.0000 0.0000 0.0000 30.9729 0.0000 0.0000
# 5 0.0000 0.0000 0.0000 0.0000 15.6290 0.0000
# 6 0.0000 0.0000 0.0000 0.0000 0.0000 45.8052
#
#
#
# Elastic Compliance Matrix: (Units=1/GPa)
#
#
# Indices 1 2 3 4 5 6 
#
# 1 0.008295 -0.005509 -0.000301 0.000000 0.000000 0.000000
# 2 -0.005509 0.012560 -0.000933 0.000000 0.000000 0.000000
# 3 -0.000301 -0.000933 0.014174 0.000000 0.000000 0.000000
# 4 0.000000 0.000000 0.000000 0.032286 0.000000 0.000000
# 5 0.000000 0.000000 0.000000 0.000000 0.063984 0.000000
# 6 0.000000 0.000000 0.000000 0.000000 0.000000 0.021832
#
#
# Mechanical properties :
#
#
# Convention : Reuss Voigt Hill
#
# Bulk Modulus (GPa) = 46.42101 60.31004 53.36552
# Shear Modulus (GPa) = 28.76906 35.98554 32.37730
#
# Velocity S-wave (km/s) = 3.43030 3.83648 3.63906
# Velocity P-wave (km/s) = 5.88864 6.65525 6.28365
#
# Compressibility (1/GPa) = 0.02154197
#
# Stress axis : x y z
#
# Youngs Moduli (GPa) = 120.55019 79.62031 70.55186
#
# Poissons Ratio (x) = 0.43861 0.02125
# Poissons Ratio (y) = 0.66409 0.06586
# Poissons Ratio (z) = 0.03630 0.07432
#
# Static dielectric constant tensor:
#      x y z
#    x 1.951140 0.000000 0.000000 
#    y 0.000000 1.929070 0.000000 
#    z 0.000000 0.000000 1.947920 
# 
# From -- ./inp_files/17123.got.cif
#   From: 2010.05.17/outbox.cif.g08.bks.cpg/sg46_9_cif.got.tgz:17123.got - 2010.06.03 19:58:25.
