data_PCOD9379235
_publ_section_title
;
Structure prediction by ZEFSAII (Michael W. Deem and Ramdas Pophale) SiO2 
 PCOD9379235
Probable space group: I M A 2
;
_chemical_formula_sum "Si O2"
_cell_formula_units_Z 56
_cell_length_a 8.600400
_cell_length_b 24.484353
_cell_length_c 14.217479
_cell_angle_alpha 90.000000
_cell_angle_beta 90.000000
_cell_angle_gamma 90.000000
_cell_volume 2993.848904
_symmetry_space_group_name_H-M "I M A 2"
_symmetry_group_IT_number 46
_symmetry_cell_setting 'orthorhombic'
loop_
_space_group_symop_operation_xyz
x,y,z
-x,-y,z
1/2-x,y,z
1/2+x,-y,z
1/2+x,1/2+y,1/2+z
1/2-x,1/2-y,1/2+z
-x,1/2+y,1/2+z
x,1/2-y,1/2+z
loop_
_atom_site_type_symbol
_atom_site_label
_atom_site_fract_x
_atom_site_fract_y
_atom_site_fract_z
Si Si1 0.937726 0.381913 0.543400
Si Si2 0.061986 0.667188 0.050723
Si Si3 0.435883 0.331232 0.258119
Si Si4 0.062323 0.939835 0.229021
Si Si5 0.562312 0.227294 0.936421
Si Si6 0.435982 0.058831 0.864311
Si Si7 0.937771 0.059843 0.444149
O O1 0.750000 0.384304 0.540297
O O2 0.988320 0.397829 0.648324
O O3 0.984419 0.322036 0.506783
O O4 0.002703 0.424817 0.467661
O O5 0.250000 0.667339 0.052608
O O6 0.001872 0.678053 0.154961
O O7 0.012667 0.715163 0.979678
O O8 0.009746 0.608309 0.012197
O O9 0.250000 0.330118 0.256074
O O10 0.495606 0.288005 0.334893
O O11 0.485569 0.391239 0.296628
O O12 0.250000 0.941279 0.228473
O O13 0.013538 0.927627 0.336164
O O14 0.000000 0.000000 0.205232
O O15 0.750000 0.227100 0.929903
O O16 0.250000 0.057082 0.866051
O O17 0.500000 0.000000 0.835799
O O18 0.750000 0.058119 0.445837
O O19 0.000000 0.000000 0.469124
#
# Coordination Sequence:
#
# PCOD9379235 Si02
#       7
#     8   8   8   8   8   8   8
#     4   9  17  30  50  76 105 136 170 213 263 313
#     4  10  21  37  59  82 104 137 178 219 263 313
#     4  10  22  38  55  78 109 141 174 218 267 316
#     4   9  17  29  46  70 101 134 168 207 253 305
#     4   9  19  36  57  80 105 135 174 219 264 313
#     4  10  20  33  50  74 105 141 179 219 264 312
#     4   9  19  35  53  76 106 138 174 217 262 310
#
# _framework density 18.705017000000002
#
# number of rings (size 3 to 8) (size 9 to 14) (size 15 to 20)
#    0.000    2.571    0.000    1.286    0.000    6.286 
#    0.000    7.143    0.000    3.429    0.000    0.000 
#    0.000    0.000    0.000    0.000    0.000    0.000 
#
# Total GULP energy -156224.405519 kJ/mol
# GULP energy per Si atom -5579.443054 kJ/mol
# Density = 1.866244 g / cm^3
# Si number density = 18.705017 Si / 1000 Ang^3
#
#
#
# Elastic Constant Matrix: (Units=GPa)
#
#
# Indices 1 2 3 4 5 6 
#
# 1 7.9857 25.3259 23.3037 0.0000 0.0000 0.0000
# 2 25.3259 120.5228 89.2826 0.0000 0.0000 0.0000
# 3 23.3037 89.2826 135.0485 -0.0001 0.0000 0.0000
# 4 0.0000 0.0000 -0.0001 19.3818 0.0000 0.0000
# 5 0.0000 0.0000 0.0000 0.0000 15.3765 0.0000
# 6 0.0000 0.0000 0.0000 0.0000 0.0000 22.4768
#
#
#
# Elastic Compliance Matrix: (Units=1/GPa)
#
#
# Indices 1 2 3 4 5 6 
#
# 1 0.422929 -0.068219 -0.027879 0.000000 0.000000 0.000000
# 2 -0.068219 0.027265 -0.006253 0.000000 0.000000 0.000000
# 3 -0.027879 -0.006253 0.016350 0.000000 0.000000 0.000000
# 4 0.000000 0.000000 0.000000 0.051595 0.000000 0.000000
# 5 0.000000 0.000000 0.000000 0.000000 0.065034 0.000000
# 6 0.000000 0.000000 0.000000 0.000000 0.000000 0.044490
#
#
# Mechanical properties :
#
#
# Convention : Reuss Voigt Hill
#
# Bulk Modulus (GPa) = 3.81912 59.93128 31.87520
# Shear Modulus (GPa) = 5.43687 19.82334 12.63011
#
# Velocity S-wave (km/s) = 1.70674 3.25897 2.60133
# Velocity P-wave (km/s) = 2.43518 6.80228 5.10887
#
# Compressibility (1/GPa) = 0.26184028
#
# Stress axis : x y z
#
# Youngs Moduli (GPa) = 2.36446 36.67724 61.16293
#
# Poissons Ratio (x) = 2.50209 1.70517
# Poissons Ratio (y) = 0.16130 0.38248
# Poissons Ratio (z) = 0.06592 0.22936
#
# Static dielectric constant tensor:
#      x y z
#    x 1.636250 0.000000 0.000000 
#    y 0.000000 1.642900 0.000000 
#    z 0.000000 0.000000 1.635050 
# 
# From -- ./inp_files/14157.got.cif
#   From: 2010.05.17/outbox.cif.g08.bks.cpg/sg46_8_cif.got.tgz:14157.got - 2010.06.03 19:58:25.
