data_PCOD9379236
_publ_section_title
;
Structure prediction by ZEFSAII (Michael W. Deem and Ramdas Pophale) SiO2 
 PCOD9379236
Probable space group: I M A 2
;
_chemical_formula_sum "Si O2"
_cell_formula_units_Z 64
_cell_length_a 7.730123
_cell_length_b 17.070579
_cell_length_c 23.290707
_cell_angle_alpha 90.000000
_cell_angle_beta 90.000000
_cell_angle_gamma 90.000000
_cell_volume 3073.387553
_symmetry_space_group_name_H-M "I M A 2"
_symmetry_group_IT_number 46
_symmetry_cell_setting 'orthorhombic'
loop_
_space_group_symop_operation_xyz
x,y,z
-x,-y,z
1/2-x,y,z
1/2+x,-y,z
1/2+x,1/2+y,1/2+z
1/2-x,1/2-y,1/2+z
-x,1/2+y,1/2+z
x,1/2-y,1/2+z
loop_
_atom_site_type_symbol
_atom_site_label
_atom_site_fract_x
_atom_site_fract_y
_atom_site_fract_z
Si Si1 0.457471 0.232397 0.740910
Si Si2 0.456107 0.588740 0.774976
Si Si3 0.541515 0.912927 0.820217
Si Si4 0.547779 0.717521 0.991617
Si Si5 0.961488 0.882366 0.948376
Si Si6 0.961678 0.750772 0.615838
Si Si7 0.543670 0.582143 0.575124
Si Si8 0.954959 0.085563 0.405397
O O1 0.250000 0.225031 0.742352
O O2 0.490866 0.325799 0.750457
O O3 0.521001 0.164837 0.785356
O O4 0.522517 0.215795 0.676268
O O5 0.500000 0.500000 0.752448
O O6 0.250000 0.589984 0.775361
O O7 0.525642 0.591564 0.840650
O O8 0.750000 0.907163 0.822152
O O9 0.476155 0.910905 0.886498
O O10 0.500000 0.000000 0.796332
O O11 0.750000 0.734798 0.999866
O O12 0.481222 0.792800 0.957437
O O13 0.528048 0.645604 0.950398
O O14 0.478990 0.709552 0.056329
O O15 0.750000 0.888671 0.947176
O O16 0.022126 0.918479 0.009070
O O17 0.750000 0.752959 0.618544
O O18 0.016108 0.659865 0.607527
O O19 0.500000 0.500000 0.603500
O O20 0.750000 0.588515 0.572093
O O21 0.750000 0.096829 0.402256
O O22 0.000000 0.000000 0.426580
#
# Coordination Sequence:
#
# PCOD9379236 Si02
#       8
#     8   8   8   8   8   8   8   8
#     4  10  20  36  56  76 103 141 182 220 260 309
#     4  10  21  36  55  81 111 141 174 216 267 323
#     4  10  20  33  51  74 100 132 171 213 256 304
#     4   9  16  31  54  74  97 130 166 205 254 310
#     4   8  15  28  47  71  96 125 158 193 243 303
#     4   8  17  33  51  71  97 132 170 207 249 300
#     4   9  16  28  46  68  96 125 154 191 237 291
#     4  10  20  33  50  75 104 130 162 207 260 316
#
# _framework density 20.823927000000001
#
# number of rings (size 3 to 8) (size 9 to 14) (size 15 to 20)
#    0.000    2.750    0.000    3.375    0.000    3.500 
#    0.000    6.250    0.000    1.500    0.000    0.000 
#    0.000    0.000    0.000    0.000    0.000    0.000 
#
# Total GULP energy -178193.066006 kJ/mol
# GULP energy per Si atom -5568.533313 kJ/mol
# Density = 2.077653 g / cm^3
# Si number density = 20.823927 Si / 1000 Ang^3
#
#
#
# Elastic Constant Matrix: (Units=GPa)
#
#
# Indices 1 2 3 4 5 6 
#
# 1 31.0697 -7.3894 4.7290 0.0000 0.0000 0.0000
# 2 -7.3894 102.0273 50.9364 0.0000 0.0000 0.0000
# 3 4.7290 50.9364 97.0590 0.0000 0.0000 0.0000
# 4 0.0000 0.0000 0.0000 1.5633 0.0000 0.0000
# 5 0.0000 0.0000 0.0000 0.0000 2.5164 0.0000
# 6 0.0000 0.0000 0.0000 0.0000 0.0000 24.5916
#
#
#
# Elastic Compliance Matrix: (Units=1/GPa)
#
#
# Indices 1 2 3 4 5 6 
#
# 1 0.033846 0.004437 -0.003978 0.000000 0.000000 0.000000
# 2 0.004437 0.013863 -0.007491 0.000000 0.000000 0.000000
# 3 -0.003978 -0.007491 0.014428 0.000000 0.000000 0.000000
# 4 0.000000 0.000000 0.000000 0.639669 0.000000 0.000000
# 5 0.000000 0.000000 0.000000 0.000000 0.397394 0.000000
# 6 0.000000 0.000000 0.000000 0.000000 0.000000 0.040664
#
#
# Mechanical properties :
#
#
# Convention : Reuss Voigt Hill
#
# Bulk Modulus (GPa) = 20.80142 36.30090 28.55116
# Shear Modulus (GPa) = 4.27368 17.85959 11.06663
#
# Velocity S-wave (km/s) = 1.43414 2.93174 2.30780
# Velocity P-wave (km/s) = 3.57116 5.37869 4.56528
#
# Compressibility (1/GPa) = 0.04807364
#
# Stress axis : x y z
#
# Youngs Moduli (GPa) = 29.54525 72.13633 69.30856
#
# Poissons Ratio (x) = -0.32008 0.27569
# Poissons Ratio (y) = -0.13110 0.51921
# Poissons Ratio (z) = 0.11752 0.54039
#
# Static dielectric constant tensor:
#      x y z
#    x 1.774540 0.000000 0.000000 
#    y 0.000000 1.779670 0.000000 
#    z 0.000000 0.000000 1.774200 
# 
# From -- ./inp_files/23153.got.cif
#   From: 2010.05.17/outbox.cif.g08.bks.cpg/sg46_12_cif.got.tgz:23153.got - 2010.06.03 19:58:25.
