data_PCOD9379345
_publ_section_title
;
Structure prediction by ZEFSAII (Michael W. Deem and Ramdas Pophale) SiO2 
 PCOD9379345
Probable space group: I M A 2
;
_chemical_formula_sum "Si O2"
_cell_formula_units_Z 48
_cell_length_a 8.677313
_cell_length_b 9.557660
_cell_length_c 31.832072
_cell_angle_alpha 90.000000
_cell_angle_beta 90.000000
_cell_angle_gamma 90.000000
_cell_volume 2639.986759
_symmetry_space_group_name_H-M "I M A 2"
_symmetry_group_IT_number 46
_symmetry_cell_setting 'orthorhombic'
loop_
_space_group_symop_operation_xyz
x,y,z
-x,-y,z
1/2-x,y,z
1/2+x,-y,z
1/2+x,1/2+y,1/2+z
1/2-x,1/2-y,1/2+z
-x,1/2+y,1/2+z
x,1/2-y,1/2+z
loop_
_atom_site_type_symbol
_atom_site_label
_atom_site_fract_x
_atom_site_fract_y
_atom_site_fract_z
Si Si1 0.565616 0.158572 0.997670
Si Si2 0.434241 0.343408 0.677418
Si Si3 0.933925 0.345420 0.250967
Si Si4 0.064746 0.656451 0.347423
Si Si5 0.564936 0.658128 0.584976
Si Si6 0.065504 0.343190 0.921728
O O1 0.750000 0.152435 0.996045
O O2 0.499828 0.253782 0.960669
O O3 0.500000 0.000000 0.993599
O O4 0.510668 0.217979 0.042899
O O5 0.500000 0.500000 0.679575
O O6 0.250000 0.349983 0.679758
O O7 0.498902 0.255418 0.715819
O O8 0.473512 0.281675 0.631036
O O9 0.750000 0.348610 0.247699
O O10 0.972803 0.304958 0.299080
O O11 0.000000 0.500000 0.244342
O O12 0.250000 0.654412 0.352275
O O13 0.000000 0.500000 0.354999
O O14 0.990971 0.763838 0.379882
O O15 0.500000 0.500000 0.586586
O O16 0.750000 0.655336 0.580164
O O17 0.250000 0.345945 0.923299
O O18 0.000000 0.500000 0.922812
#
# Coordination Sequence:
#
# PCOD9379345 Si02
#       6
#     8   8   8   8   8   8
#     4  11  21  36  59  85 112 146 186 228 271 323
#     4  10  20  34  55  82 114 148 186 229 275 325
#     4  10  21  37  58  82 112 146 184 228 275 326
#     4  10  21  39  61  85 110 143 185 228 272 324
#     4   9  17  31  52  80 110 143 184 230 273 319
#     4  12  25  41  59  82 113 146 180 225 277 331
#
# _framework density 18.181909000000001
#
# number of rings (size 3 to 8) (size 9 to 14) (size 15 to 20)
#    0.000    1.667    0.000    6.500    0.000    4.667 
#    0.000    0.833    0.000    4.000    0.000    0.000 
#    0.000    0.000    0.000    0.000    0.000    0.000 
#
# Total GULP energy -134019.858656 kJ/mol
# GULP energy per Si atom -5584.160777 kJ/mol
# Density = 1.814053 g / cm^3
# Si number density = 18.181909 Si / 1000 Ang^3
#
#
#
# Elastic Constant Matrix: (Units=GPa)
#
#
# Indices 1 2 3 4 5 6 
#
# 1 134.9107 57.6046 90.1825 0.0000 0.0000 0.0000
# 2 57.6046 92.1249 105.2726 0.0000 0.0000 0.0000
# 3 90.1825 105.2726 193.8169 0.0000 0.0000 0.0000
# 4 0.0000 0.0000 0.0000 28.0484 0.0000 0.0000
# 5 0.0000 0.0000 0.0000 0.0000 34.8523 0.0000
# 6 0.0000 0.0000 0.0000 0.0000 0.0000 32.5888
#
#
#
# Elastic Compliance Matrix: (Units=1/GPa)
#
#
# Indices 1 2 3 4 5 6 
#
# 1 0.011011 -0.002716 -0.003648 0.000000 0.000000 0.000000
# 2 -0.002716 0.029286 -0.014643 0.000000 0.000000 0.000000
# 3 -0.003648 -0.014643 0.014810 0.000000 0.000000 0.000000
# 4 0.000000 0.000000 0.000000 0.035653 0.000000 0.000000
# 5 0.000000 0.000000 0.000000 0.000000 0.028693 0.000000
# 6 0.000000 0.000000 0.000000 0.000000 0.000000 0.030685
#
#
# Mechanical properties :
#
#
# Convention : Reuss Voigt Hill
#
# Bulk Modulus (GPa) = 76.37897 102.99685 89.68791
# Shear Modulus (GPa) = 25.44323 30.28408 27.86365
#
# Velocity S-wave (km/s) = 3.74487 4.08562 3.91895
# Velocity P-wave (km/s) = 7.79732 8.88974 8.36139
#
# Compressibility (1/GPa) = 0.01309261
#
# Stress axis : x y z
#
# Youngs Moduli (GPa) = 90.82199 34.14586 67.52115
#
# Poissons Ratio (x) = 0.09276 0.24630
# Poissons Ratio (y) = 0.24671 0.98871
# Poissons Ratio (z) = 0.33129 0.50000
#
# Static dielectric constant tensor:
#      x y z
#    x 1.605060 0.000000 0.000000 
#    y 0.000000 1.589920 0.000000 
#    z 0.000000 0.000000 1.654240 
# 
# From -- ./inp_files/24979.got.cif
#   From: 2010.05.17/outbox.cif.g08.bks.cpg/sg46_13_cif.got.tgz:24979.got - 2010.06.03 19:58:25.
