data_PCOD9379958
_publ_section_title
;
Structure prediction by ZEFSAII (Michael W. Deem and Ramdas Pophale) SiO2 
 PCOD9379958
Probable space group: I M A 2
;
_chemical_formula_sum "Si O2"
_cell_formula_units_Z 40
_cell_length_a 14.226092
_cell_length_b 15.066346
_cell_length_c 7.520103
_cell_angle_alpha 90.000000
_cell_angle_beta 90.000000
_cell_angle_gamma 90.000000
_cell_volume 1611.822963
_symmetry_space_group_name_H-M "I M A 2"
_symmetry_group_IT_number 46
_symmetry_cell_setting 'orthorhombic'
loop_
_space_group_symop_operation_xyz
x,y,z
-x,-y,z
1/2-x,y,z
1/2+x,-y,z
1/2+x,1/2+y,1/2+z
1/2-x,1/2-y,1/2+z
-x,1/2+y,1/2+z
x,1/2-y,1/2+z
loop_
_atom_site_type_symbol
_atom_site_label
_atom_site_fract_x
_atom_site_fract_y
_atom_site_fract_z
Si Si1 0.558615 0.320898 0.093440
Si Si2 0.636682 0.554589 0.586367
Si Si3 0.137754 0.636925 0.714303
Si Si4 0.855165 0.857881 0.448892
Si Si5 0.103942 0.996721 0.701425
O O1 0.590892 0.221810 0.126223
O O2 0.445549 0.318723 0.054064
O O3 0.606854 0.390611 0.235647
O O4 0.608791 0.356095 0.917769
O O5 0.750000 0.553768 0.583205
O O6 0.602725 0.457441 0.644645
O O7 0.608709 0.556554 0.379215
O O8 0.615202 0.623957 0.743886
O O9 0.250000 0.640880 0.692087
O O10 0.750000 0.814028 0.454645
O O11 0.841591 0.952773 0.547534
O O12 0.000000 0.000000 0.625182
#
# Coordination Sequence:
#
# PCOD9379958 Si02
#       5
#     8   8   8   8   8
#     4  11  23  40  61  96 133 177 218 278 345 405
#     4  10  21  37  63  93 123 165 212 268 334 399
#     4  11  23  38  61  92 129 168 212 270 338 404
#     4  10  22  42  64  92 129 174 224 276 329 398
#     4  10  21  34  61  93 126 165 212 273 327 394
#
# _framework density 24.816621999999999
#
# number of rings (size 3 to 8) (size 9 to 14) (size 15 to 20)
#    0.000    1.600    2.000    2.400    2.800    4.000 
#    0.000    1.000    0.000    0.000    0.000    0.000 
#    0.000    0.000    0.000    0.000    0.000    0.000 
#
# Total GULP energy -111531.336625 kJ/mol
# GULP energy per Si atom -5576.566831 kJ/mol
# Density = 2.476014 g / cm^3
# Si number density = 24.816622 Si / 1000 Ang^3
#
#
#
# Elastic Constant Matrix: (Units=GPa)
#
#
# Indices 1 2 3 4 5 6 
#
# 1 125.7377 34.1781 15.5897 0.0000 0.0000 0.0000
# 2 34.1781 46.4284 10.5703 0.0000 0.0000 0.0000
# 3 15.5897 10.5703 110.0447 0.0000 0.0000 0.0000
# 4 0.0000 0.0000 0.0000 17.0944 0.0000 0.0000
# 5 0.0000 0.0000 0.0000 0.0000 37.7602 0.0000
# 6 0.0000 0.0000 0.0000 0.0000 0.0000 28.8427
#
#
#
# Elastic Compliance Matrix: (Units=1/GPa)
#
#
# Indices 1 2 3 4 5 6 
#
# 1 0.009999 -0.007196 -0.000725 0.000000 0.000000 0.000000
# 2 -0.007196 0.027198 -0.001593 0.000000 0.000000 0.000000
# 3 -0.000725 -0.001593 0.009343 0.000000 0.000000 0.000000
# 4 0.000000 0.000000 0.000000 0.058499 0.000000 0.000000
# 5 0.000000 0.000000 0.000000 0.000000 0.026483 0.000000
# 6 0.000000 0.000000 0.000000 0.000000 0.000000 0.034671
#
#
# Mechanical properties :
#
#
# Convention : Reuss Voigt Hill
#
# Bulk Modulus (GPa) = 36.34769 44.76523 40.55646
# Shear Modulus (GPa) = 25.72134 31.53098 28.62616
#
# Velocity S-wave (km/s) = 3.22290 3.56836 3.40002
# Velocity P-wave (km/s) = 5.34113 5.92074 5.63839
#
# Compressibility (1/GPa) = 0.02751207
#
# Stress axis : x y z
#
# Youngs Moduli (GPa) = 100.01117 36.76717 107.03198
#
# Poissons Ratio (x) = 0.26456 0.07764
# Poissons Ratio (y) = 0.71963 0.17052
# Poissons Ratio (z) = 0.07254 0.05858
#
# Static dielectric constant tensor:
#      x y z
#    x 1.942450 0.000000 0.000000 
#    y 0.000000 2.199700 0.000000 
#    z 0.000000 0.000000 2.014830 
# 
# From -- ./inp_files/5416.got.cif
#   From: 2010.05.17/outbox.cif.g08.bks.cpg/sg46_3_cif.got.tgz:5416.got - 2010.06.03 19:58:25.
