data_PCOD9379170
_publ_section_title
;
Structure prediction by ZEFSAII (Michael W. Deem and Ramdas Pophale) SiO2 
 PCOD9379170
Probable space group: I M A 2
;
_chemical_formula_sum "Si O2"
_cell_formula_units_Z 36
_cell_length_a 16.707547
_cell_length_b 7.565627
_cell_length_c 15.294908
_cell_angle_alpha 90.000000
_cell_angle_beta 90.000000
_cell_angle_gamma 90.000000
_cell_volume 1933.323306
_symmetry_space_group_name_H-M "I M A 2"
_symmetry_group_IT_number 46
_symmetry_cell_setting 'orthorhombic'
loop_
_space_group_symop_operation_xyz
x,y,z
-x,-y,z
1/2-x,y,z
1/2+x,-y,z
1/2+x,1/2+y,1/2+z
1/2-x,1/2-y,1/2+z
-x,1/2+y,1/2+z
x,1/2-y,1/2+z
loop_
_atom_site_type_symbol
_atom_site_label
_atom_site_fract_x
_atom_site_fract_y
_atom_site_fract_z
Si Si1 0.000000 0.000000 0.354430
Si Si2 0.841230 0.045606 0.966976
Si Si3 0.070068 0.194735 0.516676
Si Si4 0.890395 0.150351 0.592666
Si Si5 0.071198 0.646617 0.286604
O O1 0.039126 0.845480 0.299010
O O2 0.943339 0.891057 0.420958
O O3 0.750000 0.988039 0.954118
O O4 0.880048 0.100515 0.874343
O O5 0.843946 0.209599 0.033955
O O6 0.893781 0.887111 0.006827
O O7 0.983925 0.192211 0.565812
O O8 0.124565 0.051503 0.564811
O O9 0.880833 0.153897 0.696203
O O10 0.000000 0.500000 0.278437
#
# Coordination Sequence:
#
# PCOD9379170 Si02
#       5
#     4   8   8   8   8
#     4  10  20  34  66  90 112 150 208 270 286 340
#     4  12  25  40  59  89 135 168 192 240 311 384
#     4  10  19  40  62  92 113 160 211 258 298 335
#     4  10  22  39  67  91 115 156 214 264 295 345
#     4  12  21  39  69  94 117 154 213 261 300 346
#
# _framework density 18.620787
#
# number of rings (size 3 to 8) (size 9 to 14) (size 15 to 20)
#    0.000    1.333    8.889    0.667    3.111    1.778 
#    0.000    0.000    0.000    0.000    0.000    0.000 
#    0.000    0.000    0.000    0.000    0.000    0.000 
#
# Total GULP energy -100392.538961 kJ/mol
# GULP energy per Si atom -5577.363276 kJ/mol
# Density = 1.857840 g / cm^3
# Si number density = 18.620787 Si / 1000 Ang^3
#
#
#
# Elastic Constant Matrix: (Units=GPa)
#
#
# Indices 1 2 3 4 5 6 
#
# 1 42.3051 16.7022 3.9157 0.0000 0.0000 0.0000
# 2 16.7022 92.4254 30.2369 0.0000 0.0000 0.0000
# 3 3.9157 30.2369 123.3362 0.0000 0.0000 0.0000
# 4 0.0000 0.0000 0.0000 -10.9254 0.0000 0.0000
# 5 0.0000 0.0000 0.0000 0.0000 -23.6061 0.0000
# 6 0.0000 0.0000 0.0000 0.0000 0.0000 7.7009
#
#
#
# Elastic Compliance Matrix: (Units=1/GPa)
#
#
# Indices 1 2 3 4 5 6 
#
# 1 0.025467 -0.004716 0.000348 0.000000 0.000000 0.000000
# 2 -0.004716 0.012636 -0.002948 0.000000 0.000000 0.000000
# 3 0.000348 -0.002948 0.008820 0.000000 0.000000 0.000000
# 4 0.000000 0.000000 0.000000 -0.091530 0.000000 0.000000
# 5 0.000000 0.000000 0.000000 0.000000 -0.042362 0.000000
# 6 0.000000 0.000000 0.000000 0.000000 0.000000 0.129856
#
#
# Mechanical properties :
#
#
# Convention : Reuss Voigt Hill
#
# Bulk Modulus (GPa) = 30.96896 39.97514 35.47205
# Shear Modulus (GPa) = 73.22379 8.44799 40.83589
#
# Velocity S-wave (km/s) = 6.27766 2.13230 4.68806
# Velocity P-wave (km/s) = 8.31943 5.25137 6.95664
#
# Compressibility (1/GPa) = 0.03229040
#
# Stress axis : x y z
#
# Youngs Moduli (GPa) = 39.26573 79.13748 113.38317
#
# Poissons Ratio (x) = 0.37321 -0.03941
# Poissons Ratio (y) = 0.18518 0.33427
# Poissons Ratio (z) = -0.01365 0.23331
#
# Static dielectric constant tensor:
#      x y z
#    x 1.660230 0.000000 0.000000 
#    y 0.000000 1.659120 0.000000 
#    z 0.000000 0.000000 1.664490 
# 
# From -- ./inp_files/16346.got.cif
#   From: 2010.05.17/outbox.cif.g08.bks.cpg/sg46_9_cif.got.tgz:16346.got - 2010.06.03 19:58:25.
