data_PCOD9379800
_publ_section_title
;
Structure prediction by ZEFSAII (Michael W. Deem and Ramdas Pophale) SiO2 
 PCOD9379800
Probable space group: I M A 2
;
_chemical_formula_sum "Si O2"
_cell_formula_units_Z 64
_cell_length_a 30.181199
_cell_length_b 8.110426
_cell_length_c 12.063887
_cell_angle_alpha 90.000000
_cell_angle_beta 90.000000
_cell_angle_gamma 90.000000
_cell_volume 2953.026985
_symmetry_space_group_name_H-M "I M A 2"
_symmetry_group_IT_number 46
_symmetry_cell_setting 'orthorhombic'
loop_
_space_group_symop_operation_xyz
x,y,z
-x,-y,z
1/2-x,y,z
1/2+x,-y,z
1/2+x,1/2+y,1/2+z
1/2-x,1/2-y,1/2+z
-x,1/2+y,1/2+z
x,1/2-y,1/2+z
loop_
_atom_site_type_symbol
_atom_site_label
_atom_site_fract_x
_atom_site_fract_y
_atom_site_fract_z
Si Si1 0.087543 0.180599 0.299520
Si Si2 0.951750 0.535529 0.586459
Si Si3 0.880369 0.286467 0.554540
Si Si4 0.540539 0.887514 0.502176
Si Si5 0.334376 0.986330 0.401851
Si Si6 0.107334 0.006439 0.690790
Si Si7 0.298773 0.128512 0.626152
Si Si8 0.700261 0.477163 0.659541
O O1 0.082331 0.100787 0.179313
O O2 0.051023 0.092332 0.374209
O O3 0.085548 0.378537 0.284327
O O4 0.132678 0.128700 0.358289
O O5 0.924282 0.391215 0.526468
O O6 0.964334 0.692276 0.512676
O O7 0.000000 0.500000 0.637438
O O8 0.862861 0.161733 0.458888
O O9 0.837782 0.394035 0.586526
O O10 0.893739 0.187782 0.668370
O O11 0.582012 0.932463 0.579653
O O12 0.500000 0.000000 0.539170
O O13 0.305083 0.064220 0.500198
O O14 0.308594 0.938873 0.289750
O O15 0.159028 0.053662 0.688972
O O16 0.250000 0.077751 0.666570
O O17 0.301720 0.325824 0.638393
O O18 0.750000 0.421148 0.630122
#
# Coordination Sequence:
#
# PCOD9379800 Si02
#       8
#     8   8   8   8   8   8   8   8
#     4  11  21  41  67  90 118 172 219 266 316 387
#     4  11  24  42  63  94 134 167 212 272 335 394
#     4  11  23  40  64  98 133 177 211 273 339 412
#     4  11  22  41  67  92 125 170 220 272 322 387
#     4  11  22  41  69  90 127 174 222 268 331 395
#     4  10  21  39  64  91 124 168 213 267 323 389
#     4  10  20  38  64  92 122 166 222 269 321 394
#     4  11  23  42  64  94 134 169 213 276 338 398
#
# _framework density 21.672675999999999
#
# number of rings (size 3 to 8) (size 9 to 14) (size 15 to 20)
#    0.000    1.250    5.000    2.250    0.000    3.500 
#    0.000    2.500    0.000    0.000    0.000    0.000 
#    0.000    0.000    0.000    0.000    0.000    0.000 
#
# Total GULP energy -178331.745901 kJ/mol
# GULP energy per Si atom -5572.867059 kJ/mol
# Density = 2.162335 g / cm^3
# Si number density = 21.672676 Si / 1000 Ang^3
#
#
#
# Elastic Constant Matrix: (Units=GPa)
#
#
# Indices 1 2 3 4 5 6 
#
# 1 115.0716 44.9118 19.6890 0.0000 0.0000 0.0000
# 2 44.9118 85.4877 7.8419 0.0000 0.0000 0.0000
# 3 19.6890 7.8419 49.2354 0.0000 0.0000 0.0000
# 4 0.0000 0.0000 0.0000 21.1556 0.0000 0.0000
# 5 0.0000 0.0000 0.0000 0.0000 5.5974 0.0000
# 6 0.0000 0.0000 0.0000 0.0000 0.0000 29.9501
#
#
#
# Elastic Compliance Matrix: (Units=1/GPa)
#
#
# Indices 1 2 3 4 5 6 
#
# 1 0.011563 -0.005734 -0.003711 0.000000 0.000000 0.000000
# 2 -0.005734 0.014715 -0.000050 0.000000 0.000000 0.000000
# 3 -0.003711 -0.000050 0.021803 0.000000 0.000000 0.000000
# 4 0.000000 0.000000 0.000000 0.047269 0.000000 0.000000
# 5 0.000000 0.000000 0.000000 0.000000 0.178653 0.000000
# 6 0.000000 0.000000 0.000000 0.000000 0.000000 0.033389
#
#
# Mechanical properties :
#
#
# Convention : Reuss Voigt Hill
#
# Bulk Modulus (GPa) = 34.37694 43.85332 39.11513
# Shear Modulus (GPa) = 14.87742 23.16410 19.02076
#
# Velocity S-wave (km/s) = 2.62288 3.27282 2.96571
# Velocity P-wave (km/s) = 5.00689 5.87879 5.46027
#
# Compressibility (1/GPa) = 0.02908926
#
# Stress axis : x y z
#
# Youngs Moduli (GPa) = 86.48054 67.95835 45.86621
#
# Poissons Ratio (x) = 0.38971 0.17020
# Poissons Ratio (y) = 0.49592 0.00232
# Poissons Ratio (z) = 0.32091 0.00343
#
# Static dielectric constant tensor:
#      x y z
#    x 1.853860 0.000000 0.000000 
#    y 0.000000 1.876360 0.000000 
#    z 0.000000 0.000000 1.799930 
# 
# From -- ./inp_files/13191.got.cif
#   From: 2010.05.17/outbox.cif.g08.bks.cpg/sg46_7_cif.got.tgz:13191.got - 2010.06.03 19:58:25.
