data_PCOD9379044
_publ_section_title
;
Structure prediction by ZEFSAII (Michael W. Deem and Ramdas Pophale) SiO2 
 PCOD9379044
Probable space group: I M A 2
;
_chemical_formula_sum "Si O2"
_cell_formula_units_Z 64
_cell_length_a 8.639929
_cell_length_b 25.748472
_cell_length_c 15.263389
_cell_angle_alpha 90.000000
_cell_angle_beta 90.000000
_cell_angle_gamma 90.000000
_cell_volume 3395.569375
_symmetry_space_group_name_H-M "I M A 2"
_symmetry_group_IT_number 46
_symmetry_cell_setting 'orthorhombic'
loop_
_space_group_symop_operation_xyz
x,y,z
-x,-y,z
1/2-x,y,z
1/2+x,-y,z
1/2+x,1/2+y,1/2+z
1/2-x,1/2-y,1/2+z
-x,1/2+y,1/2+z
x,1/2-y,1/2+z
loop_
_atom_site_type_symbol
_atom_site_label
_atom_site_fract_x
_atom_site_fract_y
_atom_site_fract_z
Si Si1 0.068312 0.261955 0.737060
Si Si2 0.564248 0.943304 0.655981
Si Si3 0.065706 0.639518 0.640925
Si Si4 0.565399 0.150414 0.770876
Si Si5 0.567563 0.781423 0.444738
Si Si6 0.064227 0.942553 0.289504
Si Si7 0.063981 0.166535 0.963044
Si Si8 0.562403 0.603964 0.970059
O O1 0.250000 0.261700 0.714424
O O2 0.053521 0.278656 0.839221
O O3 0.982159 0.304756 0.680211
O O4 0.002351 0.203926 0.730746
O O5 0.750000 0.943070 0.661983
O O6 0.496923 0.898864 0.718313
O O7 0.520373 0.928204 0.556216
O O8 0.500000 0.000000 0.677599
O O9 0.250000 0.636850 0.630900
O O10 0.016211 0.596328 0.711590
O O11 0.986211 0.633858 0.546782
O O12 0.750000 0.152363 0.768828
O O13 0.506828 0.148486 0.871252
O O14 0.750000 0.781680 0.466561
O O15 0.506344 0.726197 0.477929
O O16 0.504500 0.836335 0.477377
O O17 0.250000 0.943751 0.292461
O O18 0.002550 0.920882 0.381760
O O19 0.000000 0.000000 0.275071
O O20 0.250000 0.167650 0.954165
O O21 0.750000 0.605005 0.963479
#
# Coordination Sequence:
#
# PCOD9379044 Si02
#       8
#     8   8   8   8   8   8   8   8
#     4  10  19  35  60  87 120 161 203 242 294 366
#     4  11  24  41  63  89 120 159 207 257 307 366
#     4  11  23  38  57  90 126 159 202 255 309 359
#     4  11  23  41  63  89 123 158 201 258 313 362
#     4   8  16  32  55  86 118 154 197 237 284 351
#     4  11  24  40  60  86 122 162 205 250 299 359
#     4  10  21  38  62  90 122 162 205 247 303 369
#     4  10  20  37  61  89 122 159 200 246 297 357
#
# _framework density 18.848091
#
# number of rings (size 3 to 8) (size 9 to 14) (size 15 to 20)
#    0.000    1.750    1.250    4.125    1.750    3.500 
#    0.000    1.250    0.000    1.500    0.000    0.000 
#    0.000    0.000    0.000    0.000    0.000    0.000 
#
# Total GULP energy -178793.979707 kJ/mol
# GULP energy per Si atom -5587.311866 kJ/mol
# Density = 1.880519 g / cm^3
# Si number density = 18.848091 Si / 1000 Ang^3
#
#
#
# Elastic Constant Matrix: (Units=GPa)
#
#
# Indices 1 2 3 4 5 6 
#
# 1 45.7460 26.8483 17.7679 0.0000 0.0000 0.0000
# 2 26.8483 134.2007 63.3126 0.0000 0.0000 0.0000
# 3 17.7679 63.3126 84.3952 0.0001 0.0000 0.0000
# 4 0.0000 0.0000 0.0001 22.4933 0.0000 0.0000
# 5 0.0000 0.0000 0.0000 0.0000 24.6849 0.0000
# 6 0.0000 0.0000 0.0000 0.0000 0.0000 24.8470
#
#
#
# Elastic Compliance Matrix: (Units=1/GPa)
#
#
# Indices 1 2 3 4 5 6 
#
# 1 0.025064 -0.003908 -0.002345 0.000000 0.000000 0.000000
# 2 -0.003908 0.012143 -0.008287 0.000000 0.000000 0.000000
# 3 -0.002345 -0.008287 0.018559 0.000000 0.000000 0.000000
# 4 0.000000 0.000000 0.000000 0.044458 0.000000 0.000000
# 5 0.000000 0.000000 0.000000 0.000000 0.040511 0.000000
# 6 0.000000 0.000000 0.000000 0.000000 0.000000 0.040246
#
#
# Mechanical properties :
#
#
# Convention : Reuss Voigt Hill
#
# Bulk Modulus (GPa) = 37.47158 53.35548 45.41353
# Shear Modulus (GPa) = 22.83562 24.83258 23.83410
#
# Velocity S-wave (km/s) = 3.48452 3.63369 3.55989
# Velocity P-wave (km/s) = 6.00943 6.78046 6.40655
#
# Compressibility (1/GPa) = 0.02668689
#
# Stress axis : x y z
#
# Youngs Moduli (GPa) = 39.89741 82.35322 53.88127
#
# Poissons Ratio (x) = 0.32184 0.12635
# Poissons Ratio (y) = 0.15592 0.44650
# Poissons Ratio (z) = 0.09356 0.68243
#
# Static dielectric constant tensor:
#      x y z
#    x 1.637270 0.000000 0.000000 
#    y 0.000000 1.643950 0.000000 
#    z 0.000000 0.000000 1.649580 
# 
# From -- ./inp_files/14457.got.cif
#   From: 2010.05.17/outbox.cif.g08.bks.cpg/sg46_8_cif.got.tgz:14457.got - 2010.06.03 19:58:25.
