data_PCOD9379893
_publ_section_title
;
Structure prediction by ZEFSAII (Michael W. Deem and Ramdas Pophale) SiO2 
 PCOD9379893
Probable space group: I M A 2
;
_chemical_formula_sum "Si O2"
_cell_formula_units_Z 64
_cell_length_a 18.418533
_cell_length_b 11.652563
_cell_length_c 14.319502
_cell_angle_alpha 90.000000
_cell_angle_beta 90.000000
_cell_angle_gamma 90.000000
_cell_volume 3073.296141
_symmetry_space_group_name_H-M "I M A 2"
_symmetry_group_IT_number 46
_symmetry_cell_setting 'orthorhombic'
loop_
_space_group_symop_operation_xyz
x,y,z
-x,-y,z
1/2-x,y,z
1/2+x,-y,z
1/2+x,1/2+y,1/2+z
1/2-x,1/2-y,1/2+z
-x,1/2+y,1/2+z
x,1/2-y,1/2+z
loop_
_atom_site_type_symbol
_atom_site_label
_atom_site_fract_x
_atom_site_fract_y
_atom_site_fract_z
Si Si1 0.574025 0.059466 0.233560
Si Si2 0.419033 0.208940 0.506459
Si Si3 0.973873 0.184597 0.675306
Si Si4 0.333242 0.494954 0.907477
Si Si5 0.484621 0.628196 0.378634
Si Si6 0.833170 0.921076 0.081569
Si Si7 0.329996 0.867281 0.952318
Si Si8 0.829119 0.157915 0.586992
O O1 0.548384 0.182056 0.193331
O O2 0.500000 0.000000 0.266140
O O3 0.628483 0.058897 0.321095
O O4 0.612715 0.980906 0.155125
O O5 0.471019 0.166553 0.590147
O O6 0.379425 0.113257 0.444409
O O7 0.471218 0.282950 0.440163
O O8 0.361449 0.296201 0.552964
O O9 0.006348 0.138863 0.771227
O O10 0.896915 0.127748 0.650462
O O11 0.250000 0.463063 0.883624
O O12 0.330684 0.579440 0.995563
O O13 0.500000 0.500000 0.413722
O O14 0.399059 0.653980 0.388274
O O15 0.750000 0.918300 0.116624
O O16 0.833260 0.003440 0.990889
O O17 0.250000 0.844560 0.911320
O O18 0.336213 0.785663 0.043570
O O19 0.750000 0.147980 0.632815
#
# Coordination Sequence:
#
# PCOD9379893 Si02
#       8
#     8   8   8   8   8   8   8   8
#     4  12  23  41  69 104 132 170 236 293 337 400
#     4  12  25  45  70  97 139 182 224 278 337 419
#     4  12  26  40  68 102 133 177 226 287 347 398
#     4  11  27  46  67  98 142 187 227 278 347 417
#     4  12  25  43  65 100 134 174 227 281 336 402
#     4  11  22  40  69  98 130 177 227 281 339 400
#     4  10  20  40  67  95 128 171 221 276 340 398
#     4  10  22  41  65  94 132 177 219 270 341 408
#
# _framework density 20.824546000000002
#
# number of rings (size 3 to 8) (size 9 to 14) (size 15 to 20)
#    0.000    0.750    5.000    2.250    3.500    1.000 
#    0.000    0.000    0.000    0.000    0.000    0.000 
#    0.000    0.000    0.000    0.000    0.000    0.000 
#
# Total GULP energy -178892.479143 kJ/mol
# GULP energy per Si atom -5590.389973 kJ/mol
# Density = 2.077715 g / cm^3
# Si number density = 20.824546 Si / 1000 Ang^3
#
#
#
# Elastic Constant Matrix: (Units=GPa)
#
#
# Indices 1 2 3 4 5 6 
#
# 1 124.8713 14.7751 21.7241 0.0000 0.0000 0.0000
# 2 14.7751 37.5206 -19.8791 0.0000 0.0000 0.0000
# 3 21.7241 -19.8791 49.1826 0.0000 0.0000 0.0000
# 4 0.0000 0.0000 0.0000 23.3689 0.0000 0.0000
# 5 0.0000 0.0000 0.0000 0.0000 -123.9177 0.0000
# 6 0.0000 0.0000 0.0000 0.0000 0.0000 17.5705
#
#
#
# Elastic Compliance Matrix: (Units=1/GPa)
#
#
# Indices 1 2 3 4 5 6 
#
# 1 0.010367 -0.008282 -0.007927 0.000000 0.000000 0.000000
# 2 -0.008282 0.040531 0.020041 0.000000 0.000000 0.000000
# 3 -0.007927 0.020041 0.031934 0.000000 0.000000 0.000000
# 4 0.000000 0.000000 0.000000 0.042792 0.000000 0.000000
# 5 0.000000 0.000000 0.000000 0.000000 -0.008070 0.000000
# 6 0.000000 0.000000 0.000000 0.000000 0.000000 0.056914
#
#
# Mechanical properties :
#
#
# Convention : Reuss Voigt Hill
#
# Bulk Modulus (GPa) = 11.05024 27.20162 19.12593
# Shear Modulus (GPa) = 25.38449 -3.59871 10.89289
#
# Velocity S-wave (km/s) = 3.49516 -1.31600 2.28957
# Velocity P-wave (km/s) = 4.64823 3.28352 4.02415
#
# Compressibility (1/GPa) = 0.09049581
#
# Stress axis : x y z
#
# Youngs Moduli (GPa) = 96.45719 24.67220 31.31459
#
# Poissons Ratio (x) = 0.20434 0.24823
# Poissons Ratio (y) = 0.79889 -0.62757
# Poissons Ratio (z) = 0.76461 -0.49445
#
# Static dielectric constant tensor:
#      x y z
#    x 1.936580 0.000000 0.000000 
#    y 0.000000 1.770040 0.000000 
#    z 0.000000 0.000000 1.726070 
# 
# From -- ./inp_files/16801.got.cif
#   From: 2010.05.17/outbox.cif.g08.bks.cpg/sg46_9_cif.got.tgz:16801.got - 2010.06.03 19:58:25.
