data_PCOD9379122
_publ_section_title
;
Structure prediction by ZEFSAII (Michael W. Deem and Ramdas Pophale) SiO2 
 PCOD9379122
Probable space group: I M A 2
;
_chemical_formula_sum "Si O2"
_cell_formula_units_Z 44
_cell_length_a 30.989990
_cell_length_b 7.801857
_cell_length_c 7.211471
_cell_angle_alpha 90.000000
_cell_angle_beta 90.000000
_cell_angle_gamma 90.000000
_cell_volume 1743.585639
_symmetry_space_group_name_H-M "I M A 2"
_symmetry_group_IT_number 46
_symmetry_cell_setting 'orthorhombic'
loop_
_space_group_symop_operation_xyz
x,y,z
-x,-y,z
1/2-x,y,z
1/2+x,-y,z
1/2+x,1/2+y,1/2+z
1/2-x,1/2-y,1/2+z
-x,1/2+y,1/2+z
x,1/2-y,1/2+z
loop_
_atom_site_type_symbol
_atom_site_label
_atom_site_fract_x
_atom_site_fract_y
_atom_site_fract_z
Si Si1 0.563411 0.880835 0.875000
Si Si2 0.156618 0.608700 0.875517
Si Si3 0.750000 0.995332 0.799142
Si Si4 0.250000 0.602642 0.869442
Si Si5 0.841983 0.503933 0.301149
Si Si6 0.500000 0.500000 0.053360
Si Si7 0.561925 0.007654 0.274468
O O1 0.537016 0.950475 0.701791
O O2 0.558158 0.677629 0.871280
O O3 0.614885 0.902836 0.857862
O O4 0.549658 0.975606 0.062690
O O5 0.203010 0.557234 0.785909
O O6 0.157417 0.814411 0.889553
O O7 0.111424 0.565136 0.780727
O O8 0.155595 0.528429 0.080214
O O9 0.750000 0.189431 0.880261
O O10 0.750000 0.029071 0.577561
O O11 0.704237 0.911426 0.846911
O O12 0.471096 0.613268 0.904211
#
# Coordination Sequence:
#
# PCOD9379122 Si02
#       7
#     8   8   4   4   8   4   8
#     4  12  25  47  69  94 128 169 209 266 325 381
#     4  10  19  37  61  97 131 170 213 260 313 375
#     4   8  16  30  57  88 131 168 206 255 307 367
#     4   8  16  30  57  88 131 168 206 255 307 367
#     4  10  19  37  61  97 131 170 213 260 313 375
#     4  12  26  48  68  94 124 164 218 258 332 380
#     4  12  25  47  69  94 128 169 209 266 325 381
#
# _framework density 25.235354999999998
#
# number of rings (size 3 to 8) (size 9 to 14) (size 15 to 20)
#    0.000    1.455    3.636    1.636    0.000    2.909 
#    6.545    0.909    0.000    0.000    0.000    0.000 
#    0.000    0.000    0.000    0.000    0.000    0.000 
#
# Total GULP energy -122865.373614 kJ/mol
# GULP energy per Si atom -5584.789710 kJ/mol
# Density = 2.517792 g / cm^3
# Si number density = 25.235355 Si / 1000 Ang^3
#
#
#
# Elastic Constant Matrix: (Units=GPa)
#
#
# Indices 1 2 3 4 5 6 
#
# 1 279.1426 29.7341 62.7522 0.0000 0.0000 0.0000
# 2 29.7341 25.9723 10.7185 0.0000 0.0000 0.0000
# 3 62.7522 10.7185 153.7115 0.0000 0.0000 0.0000
# 4 0.0000 0.0000 0.0000 -13.4838 0.0000 0.0000
# 5 0.0000 0.0000 0.0000 0.0000 13.9618 0.0000
# 6 0.0000 0.0000 0.0000 0.0000 0.0000 33.8734
#
#
#
# Elastic Compliance Matrix: (Units=1/GPa)
#
#
# Indices 1 2 3 4 5 6 
#
# 1 0.004385 -0.004409 -0.001483 0.000000 0.000000 0.000000
# 2 -0.004409 0.044075 -0.001274 0.000000 0.000000 0.000000
# 3 -0.001483 -0.001274 0.007200 0.000000 0.000000 0.000000
# 4 0.000000 0.000000 0.000000 -0.074163 0.000000 0.000000
# 5 0.000000 0.000000 0.000000 0.000000 0.071624 0.000000
# 6 0.000000 0.000000 0.000000 0.000000 0.000000 0.029522
#
#
# Mechanical properties :
#
#
# Convention : Reuss Voigt Hill
#
# Bulk Modulus (GPa) = 24.19533 73.91512 49.05522
# Shear Modulus (GPa) = 45.14651 30.57836 37.86244
#
# Velocity S-wave (km/s) = 4.23427 3.48476 3.87767
# Velocity P-wave (km/s) = 5.78913 6.74873 6.28726
#
# Compressibility (1/GPa) = 0.04133029
#
# Stress axis : x y z
#
# Youngs Moduli (GPa) = 228.03178 22.68847 138.89092
#
# Poissons Ratio (x) = 0.10002 0.20596
# Poissons Ratio (y) = 1.00529 0.17690
# Poissons Ratio (z) = 0.33815 0.02890
#
# Static dielectric constant tensor:
#      x y z
#    x 2.177670 0.000000 0.000000 
#    y 0.000000 2.214800 0.000000 
#    z 0.000000 0.000000 1.972210 
# 
# From -- ./inp_files/8365.got.cif
#   From: 2010.05.17/outbox.cif.g08.bks.cpg/sg46_5_cif.got.tgz:8365.got - 2010.06.03 19:58:25.
