data_PCOD9379079
_publ_section_title
;
Structure prediction by ZEFSAII (Michael W. Deem and Ramdas Pophale) SiO2 
 PCOD9379079
Probable space group: I M A 2
;
_chemical_formula_sum "Si O2"
_cell_formula_units_Z 56
_cell_length_a 9.079531
_cell_length_b 15.820294
_cell_length_c 19.955815
_cell_angle_alpha 90.000000
_cell_angle_beta 90.000000
_cell_angle_gamma 90.000000
_cell_volume 2866.470225
_symmetry_space_group_name_H-M "I M A 2"
_symmetry_group_IT_number 46
_symmetry_cell_setting 'orthorhombic'
loop_
_space_group_symop_operation_xyz
x,y,z
-x,-y,z
1/2-x,y,z
1/2+x,-y,z
1/2+x,1/2+y,1/2+z
1/2-x,1/2-y,1/2+z
-x,1/2+y,1/2+z
x,1/2-y,1/2+z
loop_
_atom_site_type_symbol
_atom_site_label
_atom_site_fract_x
_atom_site_fract_y
_atom_site_fract_z
Si Si1 0.917016 0.418302 0.618160
Si Si2 0.921194 0.272877 0.811218
Si Si3 0.926475 0.693026 0.952630
Si Si4 0.420523 0.634239 0.472970
Si Si5 0.417358 0.925749 0.833941
Si Si6 0.926020 0.757610 0.172158
Si Si7 0.427653 0.091713 0.587363
O O1 0.750000 0.412434 0.643757
O O2 0.911102 0.422848 0.537796
O O3 0.000000 0.500000 0.645737
O O4 0.004000 0.332181 0.629079
O O5 0.750000 0.299984 0.805661
O O6 0.920943 0.170219 0.810348
O O7 0.992230 0.309543 0.879885
O O8 0.018316 0.286289 0.745531
O O9 0.750000 0.692175 0.942895
O O10 0.981228 0.782859 0.981420
O O11 0.962835 0.625529 0.011492
O O12 0.250000 0.661693 0.457326
O O13 0.480663 0.586182 0.408496
O O14 0.250000 0.953966 0.838478
O O15 0.500000 0.000000 0.795591
O O16 0.750000 0.758532 0.169975
O O17 0.972057 0.666069 0.140686
O O18 0.250000 0.083945 0.591400
O O19 0.500000 0.000000 0.599102
#
# Coordination Sequence:
#
# PCOD9379079 Si02
#       7
#     8   8   8   8   8   8   8
#     4  11  22  36  58  87 119 156 194 240 299 359
#     4  10  22  39  58  83 115 158 205 252 312 376
#     4  10  19  36  60  88 118 154 200 252 304 360
#     4   9  18  32  52  81 115 151 187 229 286 347
#     4   9  18  31  48  75 111 145 186 232 281 348
#     4  11  23  42  62  88 123 161 207 259 312 377
#     4  10  23  40  63  94 127 165 213 262 318 377
#
# _framework density 19.536223
#
# number of rings (size 3 to 8) (size 9 to 14) (size 15 to 20)
#    0.000    2.000    1.429    3.000    0.000    6.286 
#    0.000    3.571    0.000    1.714    0.000    0.000 
#    0.000    0.000    0.000    0.000    0.000    0.000 
#
# Total GULP energy -155880.339122 kJ/mol
# GULP energy per Si atom -5567.154969 kJ/mol
# Density = 1.949176 g / cm^3
# Si number density = 19.536223 Si / 1000 Ang^3
#
#
#
# Elastic Constant Matrix: (Units=GPa)
#
#
# Indices 1 2 3 4 5 6 
#
# 1 76.7737 29.2738 30.5823 0.0000 0.0000 0.0000
# 2 29.2738 70.4064 7.3020 0.0000 0.0000 0.0000
# 3 30.5823 7.3020 72.6141 0.0000 0.0000 0.0000
# 4 0.0000 0.0000 0.0000 2.3325 0.0000 0.0000
# 5 0.0000 0.0000 0.0000 0.0000 20.3326 0.0000
# 6 0.0000 0.0000 0.0000 0.0000 0.0000 31.5415
#
#
#
# Elastic Compliance Matrix: (Units=1/GPa)
#
#
# Indices 1 2 3 4 5 6 
#
# 1 0.018504 -0.006958 -0.007093 0.000000 0.000000 0.000000
# 2 -0.006958 0.016969 0.001224 0.000000 0.000000 0.000000
# 3 -0.007093 0.001224 0.016636 0.000000 0.000000 0.000000
# 4 0.000000 0.000000 0.000000 0.428721 0.000000 0.000000
# 5 0.000000 0.000000 0.000000 0.000000 0.049182 0.000000
# 6 0.000000 0.000000 0.000000 0.000000 0.000000 0.031704
#
#
# Mechanical properties :
#
#
# Convention : Reuss Voigt Hill
#
# Bulk Modulus (GPa) = 37.80107 39.34559 38.57333
# Shear Modulus (GPa) = 8.38659 21.01707 14.70183
#
# Velocity S-wave (km/s) = 2.07416 3.28350 2.74623
# Velocity P-wave (km/s) = 5.01273 5.87866 5.46288
#
# Compressibility (1/GPa) = 0.02645428
#
# Stress axis : x y z
#
# Youngs Moduli (GPa) = 54.04239 58.92990 60.11115
#
# Poissons Ratio (x) = 0.41003 0.42640
# Poissons Ratio (y) = 0.37603 -0.07358
# Poissons Ratio (z) = 0.38335 -0.07213
#
# Static dielectric constant tensor:
#      x y z
#    x 1.687920 0.000000 0.000000 
#    y 0.000000 1.825560 0.000000 
#    z 0.000000 0.000000 1.779380 
# 
# From -- ./inp_files/21033.got.cif
#   From: 2010.05.17/outbox.cif.g08.bks.cpg/sg46_11_cif.got.tgz:21033.got - 2010.06.03 19:58:25.
