data_PCOD9379487
_publ_section_title
;
Structure prediction by ZEFSAII (Michael W. Deem and Ramdas Pophale) SiO2 
 PCOD9379487
Probable space group: I M A 2
;
_chemical_formula_sum "Si O2"
_cell_formula_units_Z 48
_cell_length_a 12.007060
_cell_length_b 11.055972
_cell_length_c 20.328407
_cell_angle_alpha 90.000000
_cell_angle_beta 90.000000
_cell_angle_gamma 90.000000
_cell_volume 2698.590320
_symmetry_space_group_name_H-M "I M A 2"
_symmetry_group_IT_number 46
_symmetry_cell_setting 'orthorhombic'
loop_
_space_group_symop_operation_xyz
x,y,z
-x,-y,z
1/2-x,y,z
1/2+x,-y,z
1/2+x,1/2+y,1/2+z
1/2-x,1/2-y,1/2+z
-x,1/2+y,1/2+z
x,1/2-y,1/2+z
loop_
_atom_site_type_symbol
_atom_site_label
_atom_site_fract_x
_atom_site_fract_y
_atom_site_fract_z
Si Si1 0.877481 0.568112 0.822920
Si Si2 0.500000 0.500000 0.099129
Si Si3 0.120978 0.307155 0.410430
Si Si4 0.545783 0.633645 0.682860
Si Si5 0.500000 0.000000 0.820097
Si Si6 0.620990 0.148614 0.709104
Si Si7 0.380912 0.266778 0.051272
O O1 0.750000 0.512082 0.831404
O O2 0.884230 0.676354 0.875485
O O3 0.879911 0.619550 0.748255
O O4 0.000000 0.500000 0.828041
O O5 0.410900 0.564449 0.147054
O O6 0.443136 0.393990 0.058519
O O7 0.250000 0.343720 0.412890
O O8 0.057795 0.401631 0.365544
O O9 0.078347 0.298974 0.485180
O O10 0.500000 0.500000 0.667724
O O11 0.449421 0.728497 0.702988
O O12 0.600839 0.690821 0.618007
O O13 0.415970 0.928318 0.772357
O O14 0.750000 0.176289 0.710536
O O15 0.250000 0.289337 0.043009
#
# Coordination Sequence:
#
# PCOD9379487 Si02
#       7
#     8   4   8   8   4   8   8
#     4  10  21  39  61  88 117 151 194 243 294 348
#     4   9  20  36  58  84 111 144 186 240 287 344
#     4  10  22  38  58  83 114 151 191 235 290 349
#     4  10  21  37  57  86 114 152 188 242 284 344
#     4  11  20  38  58  82 113 148 190 236 291 340
#     4  10  20  35  59  87 113 145 189 241 292 343
#     4  10  21  37  58  82 111 152 189 230 289 346
#
# _framework density 17.787064000000001
#
# number of rings (size 3 to 8) (size 9 to 14) (size 15 to 20)
#    0.000    2.000    1.667    1.500    2.333    3.333 
#    0.000    0.000    0.000    3.000    0.000    0.000 
#    0.000    0.000    0.000    0.000    0.000    0.000 
#
# Total GULP energy -133749.537738 kJ/mol
# GULP energy per Si atom -5572.897406 kJ/mol
# Density = 1.774658 g / cm^3
# Si number density = 17.787064 Si / 1000 Ang^3
#
#
#
# Elastic Constant Matrix: (Units=GPa)
#
#
# Indices 1 2 3 4 5 6 
#
# 1 102.1556 25.1836 27.6090 0.0000 0.0000 0.0000
# 2 25.1836 52.7867 13.4491 0.0000 0.0000 0.0000
# 3 27.6090 13.4491 78.1843 0.0000 0.0000 0.0000
# 4 0.0000 0.0000 0.0000 -44.7850 0.0000 0.0000
# 5 0.0000 0.0000 0.0000 0.0000 21.0639 0.0000
# 6 0.0000 0.0000 0.0000 0.0000 0.0000 15.2505
#
#
#
# Elastic Compliance Matrix: (Units=1/GPa)
#
#
# Indices 1 2 3 4 5 6 
#
# 1 0.011886 -0.004812 -0.003369 0.000000 0.000000 0.000000
# 2 -0.004812 0.021761 -0.002044 0.000000 0.000000 0.000000
# 3 -0.003369 -0.002044 0.014332 0.000000 0.000000 0.000000
# 4 0.000000 0.000000 0.000000 -0.022329 0.000000 0.000000
# 5 0.000000 0.000000 0.000000 0.000000 0.047475 0.000000
# 6 0.000000 0.000000 0.000000 0.000000 0.000000 0.065572
#
#
# Mechanical properties :
#
#
# Convention : Reuss Voigt Hill
#
# Bulk Modulus (GPa) = 36.32756 40.62334 38.47545
# Shear Modulus (GPa) = 29.70485 9.43152 19.56819
#
# Velocity S-wave (km/s) = 4.09103 2.30521 3.32043
# Velocity P-wave (km/s) = 6.54089 5.47481 6.03145
#
# Compressibility (1/GPa) = 0.02752731
#
# Stress axis : x y z
#
# Youngs Moduli (GPa) = 84.13316 45.95447 69.77520
#
# Poissons Ratio (x) = 0.22114 0.23511
# Poissons Ratio (y) = 0.40485 0.14262
# Poissons Ratio (z) = 0.28348 0.09393
#
# Static dielectric constant tensor:
#      x y z
#    x 1.612370 0.000000 0.000000 
#    y 0.000000 1.607710 0.000000 
#    z 0.000000 0.000000 1.605820 
# 
# From -- ./inp_files/18917.got.cif
#   From: 2010.05.17/outbox.cif.g08.bks.cpg/sg46_10_cif.got.tgz:18917.got - 2010.06.03 19:58:25.
