data_PCOD9379537
_publ_section_title
;
Structure prediction by ZEFSAII (Michael W. Deem and Ramdas Pophale) SiO2 
 PCOD9379537
Probable space group: I M A 2
;
_chemical_formula_sum "Si O2"
_cell_formula_units_Z 48
_cell_length_a 24.931784
_cell_length_b 11.441750
_cell_length_c 8.898850
_cell_angle_alpha 90.000000
_cell_angle_beta 90.000000
_cell_angle_gamma 90.000000
_cell_volume 2538.514780
_symmetry_space_group_name_H-M "I M A 2"
_symmetry_group_IT_number 46
_symmetry_cell_setting 'orthorhombic'
loop_
_space_group_symop_operation_xyz
x,y,z
-x,-y,z
1/2-x,y,z
1/2+x,-y,z
1/2+x,1/2+y,1/2+z
1/2-x,1/2-y,1/2+z
-x,1/2+y,1/2+z
x,1/2-y,1/2+z
loop_
_atom_site_type_symbol
_atom_site_label
_atom_site_fract_x
_atom_site_fract_y
_atom_site_fract_z
Si Si1 0.537542 0.711288 0.744140
Si Si2 0.936911 0.004254 0.089913
Si Si3 0.861864 0.296920 0.560093
Si Si4 0.311729 0.601156 0.269427
Si Si5 0.583513 0.531883 0.248060
Si Si6 0.962912 0.154882 0.520187
O O1 0.576862 0.621521 0.659577
O O2 0.569094 0.832713 0.766402
O O3 0.489599 0.755870 0.638111
O O4 0.507441 0.655331 0.888557
O O5 0.895794 0.102045 0.145232
O O6 0.934642 0.019140 0.909645
O O7 0.000000 0.000000 0.128862
O O8 0.823833 0.358700 0.439636
O O9 0.829567 0.210637 0.667124
O O10 0.907238 0.217756 0.476691
O O11 0.250000 0.571436 0.246985
O O12 0.353876 0.498042 0.233512
O O13 0.553885 0.462016 0.112622
#
# Coordination Sequence:
#
# PCOD9379537 Si02
#       6
#     8   8   8   8   8   8
#     4  12  21  36  56  86 126 164 194 231 295 369
#     4  11  20  35  55  82 130 160 187 236 291 370
#     4  10  20  36  57  87 116 145 197 242 298 364
#     4  10  21  39  64  82 110 151 201 263 310 339
#     4  10  22  39  55  86 120 157 205 244 295 361
#     4  11  21  36  59  85 126 163 190 238 296 368
#
# _framework density 18.908695000000002
#
# number of rings (size 3 to 8) (size 9 to 14) (size 15 to 20)
#    0.000    1.333    3.333    5.000    0.000    1.333 
#    3.000    0.000    0.000    5.000    0.000    0.000 
#    0.000    0.000    0.000    0.000    0.000    0.000 
#
# Total GULP energy -133763.299178 kJ/mol
# GULP energy per Si atom -5573.470799 kJ/mol
# Density = 1.886566 g / cm^3
# Si number density = 18.908695 Si / 1000 Ang^3
#
#
#
# Elastic Constant Matrix: (Units=GPa)
#
#
# Indices 1 2 3 4 5 6 
#
# 1 131.7498 46.2269 33.2764 0.0000 0.0000 0.0000
# 2 46.2269 78.6625 43.3317 0.0000 0.0000 0.0000
# 3 33.2764 43.3317 83.8562 0.0000 0.0000 0.0000
# 4 0.0000 0.0000 0.0000 30.7008 0.0000 0.0000
# 5 0.0000 0.0000 0.0000 0.0000 21.2836 0.0000
# 6 0.0000 0.0000 0.0000 0.0000 0.0000 21.7433
#
#
#
# Elastic Compliance Matrix: (Units=1/GPa)
#
#
# Indices 1 2 3 4 5 6 
#
# 1 0.009656 -0.004982 -0.001257 0.000000 0.000000 0.000000
# 2 -0.004982 0.020341 -0.008534 0.000000 0.000000 0.000000
# 3 -0.001257 -0.008534 0.016834 0.000000 0.000000 0.000000
# 4 0.000000 0.000000 0.000000 0.032572 0.000000 0.000000
# 5 0.000000 0.000000 0.000000 0.000000 0.046985 0.000000
# 6 0.000000 0.000000 0.000000 0.000000 0.000000 0.045991
#
#
# Mechanical properties :
#
#
# Convention : Reuss Voigt Hill
#
# Bulk Modulus (GPa) = 57.85560 59.99317 58.92439
# Shear Modulus (GPa) = 24.07469 26.17444 25.12456
#
# Velocity S-wave (km/s) = 3.57207 3.72459 3.64913
# Velocity P-wave (km/s) = 6.90483 7.09179 6.99894
#
# Compressibility (1/GPa) = 0.01728441
#
# Stress axis : x y z
#
# Youngs Moduli (GPa) = 103.56663 49.16137 59.40313
#
# Poissons Ratio (x) = 0.24490 0.07470
# Poissons Ratio (y) = 0.51592 0.50696
# Poissons Ratio (z) = 0.13023 0.41956
#
# Static dielectric constant tensor:
#      x y z
#    x 1.651920 0.000000 0.000000 
#    y 0.000000 1.759540 0.000000 
#    z 0.000000 0.000000 1.727840 
# 
# From -- ./inp_files/7822.got.cif
#   From: 2010.05.17/outbox.cif.g08.bks.cpg/sg46_4_cif.got.tgz:7822.got - 2010.06.03 19:58:25.
