data_PCOD9379637
_publ_section_title
;
Structure prediction by ZEFSAII (Michael W. Deem and Ramdas Pophale) SiO2 
 PCOD9379637
Probable space group: I M A 2
;
_chemical_formula_sum "Si O2"
_cell_formula_units_Z 48
_cell_length_a 8.691365
_cell_length_b 19.566077
_cell_length_c 15.316047
_cell_angle_alpha 90.000000
_cell_angle_beta 90.000000
_cell_angle_gamma 90.000000
_cell_volume 2604.584415
_symmetry_space_group_name_H-M "I M A 2"
_symmetry_group_IT_number 46
_symmetry_cell_setting 'orthorhombic'
loop_
_space_group_symop_operation_xyz
x,y,z
-x,-y,z
1/2-x,y,z
1/2+x,-y,z
1/2+x,1/2+y,1/2+z
1/2-x,1/2-y,1/2+z
-x,1/2+y,1/2+z
x,1/2-y,1/2+z
loop_
_atom_site_type_symbol
_atom_site_label
_atom_site_fract_x
_atom_site_fract_y
_atom_site_fract_z
Si Si1 0.435252 0.171889 0.879600
Si Si2 0.433519 0.925923 0.734088
Si Si3 0.935284 0.574424 0.538929
Si Si4 0.065417 0.574551 0.030664
Si Si5 0.064987 0.330223 0.882244
Si Si6 0.434157 0.925061 0.231298
O O1 0.250000 0.169738 0.873821
O O2 0.502766 0.132103 0.797068
O O3 0.482287 0.250882 0.882707
O O4 0.478744 0.130391 0.966916
O O5 0.250000 0.928700 0.740309
O O6 0.474739 0.913799 0.632479
O O7 0.500000 0.000000 0.759507
O O8 0.750000 0.570739 0.545322
O O9 0.000000 0.500000 0.512969
O O10 0.004319 0.590246 0.634030
O O11 0.250000 0.573998 0.021953
O O12 0.000000 0.500000 0.006162
O O13 0.993748 0.631222 0.968342
O O14 0.250000 0.333887 0.878261
O O15 0.994569 0.370004 0.799949
O O16 0.250000 0.927766 0.231326
O O17 0.500000 0.000000 0.254960
#
# Coordination Sequence:
#
# PCOD9379637 Si02
#       6
#     8   8   8   8   8   8
#     4  10  23  39  57  82 115 152 188 226 277 333
#     4  10  21  37  60  86 114 147 187 232 278 327
#     4  10  20  37  59  85 112 144 186 231 276 327
#     4  10  21  38  59  85 112 144 186 232 278 329
#     4  11  23  39  57  81 114 152 187 227 278 334
#     4  11  22  38  60  85 111 145 186 232 280 330
#
# _framework density 18.429043
#
# number of rings (size 3 to 8) (size 9 to 14) (size 15 to 20)
#    0.000    1.667    0.000    5.500    0.000    7.333 
#    0.000    5.000    0.000    0.000    0.000    0.000 
#    0.000    0.000    0.000    0.000    0.000    0.000 
#
# Total GULP energy -134160.850181 kJ/mol
# GULP energy per Si atom -5590.035424 kJ/mol
# Density = 1.838710 g / cm^3
# Si number density = 18.429043 Si / 1000 Ang^3
#
#
#
# Elastic Constant Matrix: (Units=GPa)
#
#
# Indices 1 2 3 4 5 6 
#
# 1 74.9305 64.1005 52.9780 0.0000 0.0000 0.0000
# 2 64.1005 194.4453 125.4960 0.0000 0.0000 0.0000
# 3 52.9780 125.4960 120.1164 -0.0002 0.0000 0.0000
# 4 0.0000 0.0000 -0.0002 22.7379 0.0000 0.0000
# 5 0.0000 0.0000 0.0000 0.0000 34.7399 0.0000
# 6 0.0000 0.0000 0.0000 0.0000 0.0000 31.7418
#
#
#
# Elastic Compliance Matrix: (Units=1/GPa)
#
#
# Indices 1 2 3 4 5 6 
#
# 1 0.019859 -0.002744 -0.005892 0.000000 0.000000 0.000000
# 2 -0.002744 0.016170 -0.015684 0.000000 0.000000 0.000000
# 3 -0.005892 -0.015684 0.027310 0.000000 0.000000 0.000000
# 4 0.000000 0.000000 0.000000 0.043979 0.000000 0.000000
# 5 0.000000 0.000000 0.000000 0.000000 0.028785 0.000000
# 6 0.000000 0.000000 0.000000 0.000000 0.000000 0.031504
#
#
# Mechanical properties :
#
#
# Convention : Reuss Voigt Hill
#
# Bulk Modulus (GPa) = 68.03024 97.18234 82.60629
# Shear Modulus (GPa) = 22.60940 27.63843 25.12392
#
# Velocity S-wave (km/s) = 3.50642 3.87682 3.69627
# Velocity P-wave (km/s) = 7.30672 8.53741 7.94593
#
# Compressibility (1/GPa) = 0.01469935
#
# Stress axis : x y z
#
# Youngs Moduli (GPa) = 50.35541 61.84403 36.61639
#
# Poissons Ratio (x) = 0.16969 0.21575
# Poissons Ratio (y) = 0.13816 0.57428
# Poissons Ratio (z) = 0.29670 0.96994
#
# Static dielectric constant tensor:
#      x y z
#    x 1.618960 0.000000 0.000000 
#    y 0.000000 1.602510 0.000000 
#    z 0.000000 0.000000 1.624840 
# 
# From -- ./inp_files/13903.got.cif
#   From: 2010.05.17/outbox.cif.g08.bks.cpg/sg46_7_cif.got.tgz:13903.got - 2010.06.03 19:58:25.
