data_PCOD9379598
_publ_section_title
;
Structure prediction by ZEFSAII (Michael W. Deem and Ramdas Pophale) SiO2 
 PCOD9379598
Probable space group: I M A 2
;
_chemical_formula_sum "Si O2"
_cell_formula_units_Z 64
_cell_length_a 32.978052
_cell_length_b 8.732999
_cell_length_c 10.405105
_cell_angle_alpha 90.000000
_cell_angle_beta 90.000000
_cell_angle_gamma 90.000000
_cell_volume 2996.642096
_symmetry_space_group_name_H-M "I M A 2"
_symmetry_group_IT_number 46
_symmetry_cell_setting 'orthorhombic'
loop_
_space_group_symop_operation_xyz
x,y,z
-x,-y,z
1/2-x,y,z
1/2+x,-y,z
1/2+x,1/2+y,1/2+z
1/2-x,1/2-y,1/2+z
-x,1/2+y,1/2+z
x,1/2-y,1/2+z
loop_
_atom_site_type_symbol
_atom_site_label
_atom_site_fract_x
_atom_site_fract_y
_atom_site_fract_z
Si Si1 0.002475 0.678028 0.991170
Si Si2 0.427777 0.606650 0.525847
Si Si3 0.796860 0.635593 0.767116
Si Si4 0.422326 0.203437 0.131656
Si Si5 0.337574 0.635085 0.434508
Si Si6 0.837122 0.718772 0.506600
Si Si7 0.203007 0.722466 0.691085
Si Si8 0.466023 0.104976 0.803157
O O1 0.992803 0.754983 0.854453
O O2 0.000000 0.500000 0.971453
O O3 0.965038 0.740557 0.074492
O O4 0.043689 0.748244 0.048366
O O5 0.422164 0.481958 0.641074
O O6 0.384731 0.656978 0.469871
O O7 0.450911 0.504374 0.418703
O O8 0.750000 0.675807 0.789019
O O9 0.813720 0.725933 0.642832
O O10 0.799553 0.456195 0.732209
O O11 0.821842 0.670644 0.895384
O O12 0.384112 0.239911 0.043104
O O13 0.424521 0.316133 0.252973
O O14 0.330304 0.453900 0.454405
O O15 0.312304 0.725534 0.544106
O O16 0.324232 0.686075 0.293091
O O17 0.250000 0.771014 0.699659
O O18 0.500000 0.000000 0.731080
#
# Coordination Sequence:
#
# PCOD9379598 Si02
#       8
#     8   8   8   8   8   8   8   8
#     4  10  21  37  56  86 120 164 208 253 313 370
#     4   9  21  41  58  85 129 161 207 267 316 373
#     4  10  22  41  62  93 127 160 205 260 314 383
#     4  10  20  36  61  83 120 160 207 258 312 364
#     4  10  22  43  63  93 126 166 210 265 314 375
#     4  10  23  38  66  93 126 165 206 259 319 377
#     4  10  22  42  66  91 125 164 210 260 318 384
#     4   9  19  38  60  84 120 164 206 260 312 376
#
# _framework density 21.357239
#
# number of rings (size 3 to 8) (size 9 to 14) (size 15 to 20)
#    0.000    2.250    0.000    2.250    5.250    4.500 
#   11.250    0.000    0.000    0.000    0.000    0.000 
#    0.000    0.000    0.000    0.000    0.000    0.000 
#
# Total GULP energy -178467.957721 kJ/mol
# GULP energy per Si atom -5577.123679 kJ/mol
# Density = 2.130863 g / cm^3
# Si number density = 21.357239 Si / 1000 Ang^3
#
#
#
# Elastic Constant Matrix: (Units=GPa)
#
#
# Indices 1 2 3 4 5 6 
#
# 1 77.8421 12.4054 -12.9395 0.0000 0.0000 0.0000
# 2 12.4054 46.5339 3.2997 0.0000 0.0000 0.0000
# 3 -12.9395 3.2997 38.4397 0.0000 0.0000 0.0000
# 4 0.0000 0.0000 0.0000 25.7041 0.0000 0.0000
# 5 0.0000 0.0000 0.0000 0.0000 22.4703 0.0000
# 6 0.0000 0.0000 0.0000 0.0000 0.0000 29.7661
#
#
#
# Elastic Compliance Matrix: (Units=1/GPa)
#
#
# Indices 1 2 3 4 5 6 
#
# 1 0.014381 -0.004203 0.005202 0.000000 0.000000 0.000000
# 2 -0.004203 0.022849 -0.003376 0.000000 0.000000 0.000000
# 3 0.005202 -0.003376 0.028056 0.000000 0.000000 0.000000
# 4 0.000000 0.000000 0.000000 0.038904 0.000000 0.000000
# 5 0.000000 0.000000 0.000000 0.000000 0.044503 0.000000
# 6 0.000000 0.000000 0.000000 0.000000 0.000000 0.033595
#
#
# Mechanical properties :
#
#
# Convention : Reuss Voigt Hill
#
# Bulk Modulus (GPa) = 16.52023 18.70520 17.61272
# Shear Modulus (GPa) = 24.12895 26.25813 25.19354
#
# Velocity S-wave (km/s) = 3.36486 3.51019 3.43829
# Velocity P-wave (km/s) = 4.78000 5.02054 4.90175
#
# Compressibility (1/GPa) = 0.06053183
#
# Stress axis : x y z
#
# Youngs Moduli (GPa) = 69.53658 43.76468 35.64354
#
# Poissons Ratio (x) = 0.18393 -0.18540
# Poissons Ratio (y) = 0.29224 0.12034
# Poissons Ratio (z) = -0.36170 0.14775
#
# Static dielectric constant tensor:
#      x y z
#    x 1.773110 0.000000 0.000000 
#    y 0.000000 1.842860 0.000000 
#    z 0.000000 0.000000 1.982670 
# 
# From -- ./inp_files/13196.got.cif
#   From: 2010.05.17/outbox.cif.g08.bks.cpg/sg46_7_cif.got.tgz:13196.got - 2010.06.03 19:58:25.
