data_PCOD9379611
_publ_section_title
;
Structure prediction by ZEFSAII (Michael W. Deem and Ramdas Pophale) SiO2 
 PCOD9379611
Probable space group: I M A 2
;
_chemical_formula_sum "Si O2"
_cell_formula_units_Z 40
_cell_length_a 17.834314
_cell_length_b 4.727192
_cell_length_c 19.219585
_cell_angle_alpha 90.000000
_cell_angle_beta 90.000000
_cell_angle_gamma 90.000000
_cell_volume 1620.330686
_symmetry_space_group_name_H-M "I M A 2"
_symmetry_group_IT_number 46
_symmetry_cell_setting 'orthorhombic'
loop_
_space_group_symop_operation_xyz
x,y,z
-x,-y,z
1/2-x,y,z
1/2+x,-y,z
1/2+x,1/2+y,1/2+z
1/2-x,1/2-y,1/2+z
-x,1/2+y,1/2+z
x,1/2-y,1/2+z
loop_
_atom_site_type_symbol
_atom_site_label
_atom_site_fract_x
_atom_site_fract_y
_atom_site_fract_z
Si Si1 0.164125 0.831713 0.130050
Si Si2 0.129753 0.614281 0.363308
Si Si3 0.750000 0.723487 0.945135
Si Si4 0.122020 0.152948 0.539186
Si Si5 0.663058 0.635278 0.771081
Si Si6 0.500000 0.500000 0.459979
O O1 0.250000 0.729120 0.140894
O O2 0.114229 0.581868 0.098851
O O3 0.138087 0.979230 0.201155
O O4 0.164160 0.079512 0.073406
O O5 0.185915 0.431041 0.409752
O O6 0.162676 0.899608 0.331521
O O7 0.056768 0.662993 0.409235
O O8 0.116530 0.402616 0.297502
O O9 0.682732 0.540948 0.984058
O O10 0.047504 0.282129 0.506183
O O11 0.750000 0.727457 0.761090
#
# Coordination Sequence:
#
# PCOD9379611 Si02
#       6
#     8   8   4   8   8   4
#     4  11  22  40  68 100 130 168 224 283 337 397
#     4  11  23  41  65  96 134 176 219 281 330 411
#     4  10  20  36  62  92 124 176 212 266 332 384
#     4  11  23  41  65  96 134 176 219 281 330 411
#     4  11  22  40  68 100 130 168 224 283 337 397
#     4  10  28  44  64  96 140 180 232 266 348 412
#
# _framework density 24.686319000000001
#
# number of rings (size 3 to 8) (size 9 to 14) (size 15 to 20)
#    0.000    1.200    4.000    1.200    0.000   14.400 
#    0.000    4.000    0.000    0.000    0.000    0.000 
#    0.000    0.000    0.000    0.000    0.000    0.000 
#
# Total GULP energy -111550.200877 kJ/mol
# GULP energy per Si atom -5577.510044 kJ/mol
# Density = 2.463013 g / cm^3
# Si number density = 24.686319 Si / 1000 Ang^3
#
#
#
# Elastic Constant Matrix: (Units=GPa)
#
#
# Indices 1 2 3 4 5 6 
#
# 1 115.1232 25.0692 44.3758 0.0000 0.0000 0.0000
# 2 25.0692 119.6170 43.5112 0.0000 0.0000 0.0000
# 3 44.3758 43.5112 115.3230 0.0000 0.0000 0.0000
# 4 0.0000 0.0000 0.0000 50.5853 0.0000 0.0000
# 5 0.0000 0.0000 0.0000 0.0000 27.9401 0.0000
# 6 0.0000 0.0000 0.0000 0.0000 0.0000 31.6545
#
#
#
# Elastic Compliance Matrix: (Units=1/GPa)
#
#
# Indices 1 2 3 4 5 6 
#
# 1 0.010269 -0.000829 -0.003639 0.000000 0.000000 0.000000
# 2 -0.000829 0.009757 -0.003362 0.000000 0.000000 0.000000
# 3 -0.003639 -0.003362 0.011340 0.000000 0.000000 0.000000
# 4 0.000000 0.000000 0.000000 0.019769 0.000000 0.000000
# 5 0.000000 0.000000 0.000000 0.000000 0.035791 0.000000
# 6 0.000000 0.000000 0.000000 0.000000 0.000000 0.031591
#
#
# Mechanical properties :
#
#
# Convention : Reuss Voigt Hill
#
# Bulk Modulus (GPa) = 63.66796 63.99728 63.83262
# Shear Modulus (GPa) = 35.86481 37.84311 36.85396
#
# Velocity S-wave (km/s) = 3.81572 3.91955 3.86799
# Velocity P-wave (km/s) = 6.72754 6.81647 6.77215
#
# Compressibility (1/GPa) = 0.01570649
#
# Stress axis : x y z
#
# Youngs Moduli (GPa) = 97.37578 102.49324 88.18177
#
# Poissons Ratio (x) = 0.08492 0.32090
# Poissons Ratio (y) = 0.08068 0.29650
# Poissons Ratio (z) = 0.35435 0.34462
#
# Static dielectric constant tensor:
#      x y z
#    x 1.971300 0.000000 0.000000 
#    y 0.000000 1.955680 0.000000 
#    z 0.000000 0.000000 2.114500 
# 
# From -- ./inp_files/19796.got.cif
#   From: 2010.05.17/outbox.cif.g08.bks.cpg/sg46_10_cif.got.tgz:19796.got - 2010.06.03 19:58:25.
