data_PCOD9379185
_publ_section_title
;
Structure prediction by ZEFSAII (Michael W. Deem and Ramdas Pophale) SiO2 
 PCOD9379185
Probable space group: I M A 2
;
_chemical_formula_sum "Si O2"
_cell_formula_units_Z 64
_cell_length_a 8.765514
_cell_length_b 30.769085
_cell_length_c 14.763312
_cell_angle_alpha 90.000000
_cell_angle_beta 90.000000
_cell_angle_gamma 90.000000
_cell_volume 3981.766306
_symmetry_space_group_name_H-M "I M A 2"
_symmetry_group_IT_number 46
_symmetry_cell_setting 'orthorhombic'
loop_
_space_group_symop_operation_xyz
x,y,z
-x,-y,z
1/2-x,y,z
1/2+x,-y,z
1/2+x,1/2+y,1/2+z
1/2-x,1/2-y,1/2+z
-x,1/2+y,1/2+z
x,1/2-y,1/2+z
loop_
_atom_site_type_symbol
_atom_site_label
_atom_site_fract_x
_atom_site_fract_y
_atom_site_fract_z
Si Si1 0.434446 0.209970 0.500000
Si Si2 0.071020 0.369808 0.875050
Si Si3 0.432832 0.296906 0.388691
Si Si4 0.423220 0.673080 0.708539
Si Si5 0.429652 0.870592 0.013164
Si Si6 0.068379 0.953129 0.299429
Si Si7 0.067626 0.452942 0.599302
Si Si8 0.927312 0.276943 0.197129
O O1 0.250000 0.210823 0.502730
O O2 0.480828 0.165705 0.448739
O O3 0.483185 0.252817 0.442518
O O4 0.499118 0.211270 0.601028
O O5 0.250000 0.378406 0.887535
O O6 0.041782 0.346205 0.779103
O O7 0.982141 0.415060 0.867091
O O8 0.250000 0.298108 0.392376
O O9 0.500762 0.338984 0.438136
O O10 0.488025 0.294910 0.285363
O O11 0.250000 0.660850 0.737688
O O12 0.446273 0.654707 0.608553
O O13 0.434360 0.724732 0.705361
O O14 0.250000 0.877691 0.997233
O O15 0.514125 0.916077 0.029702
O O16 0.250000 0.955822 0.292318
O O17 0.000000 0.000000 0.324822
O O18 0.000962 0.942701 0.199260
O O19 0.250000 0.454745 0.605925
O O20 0.000000 0.500000 0.574752
O O21 0.750000 0.289924 0.198609
#
# Coordination Sequence:
#
# PCOD9379185 Si02
#       8
#     8   8   8   8   8   8   8   8
#     4  10  22  36  52  75 104 139 178 218 262 312
#     4  11  21  34  52  76 104 140 179 218 261 315
#     4  11  22  36  53  76 105 141 180 220 263 313
#     4  10  20  31  48  73 105 140 176 218 260 306
#     4  11  21  35  52  77 107 141 180 219 261 314
#     4  11  21  34  51  75 105 139 174 216 262 315
#     4  11  21  34  52  76 105 140 175 216 263 315
#     4  11  22  36  53  74 103 140 180 225 266 305
#
# _framework density 16.073269
#
# number of rings (size 3 to 8) (size 9 to 14) (size 15 to 20)
#    0.000    1.250    3.750    4.500    0.000    2.500 
#    0.000    0.000    0.000    0.000    0.000    0.875 
#    0.000    4.000    0.000    0.000    0.000    0.000 
#
# Total GULP energy -178719.367933 kJ/mol
# GULP energy per Si atom -5584.980248 kJ/mol
# Density = 1.603669 g / cm^3
# Si number density = 16.073269 Si / 1000 Ang^3
#
#
#
# Elastic Constant Matrix: (Units=GPa)
#
#
# Indices 1 2 3 4 5 6 
#
# 1 91.4407 50.3177 40.8178 0.0000 0.0000 0.0000
# 2 50.3177 113.2209 51.6896 0.0000 0.0000 0.0000
# 3 40.8178 51.6896 89.1508 0.0001 0.0000 0.0000
# 4 0.0000 0.0000 0.0001 24.9830 0.0000 0.0000
# 5 0.0000 0.0000 0.0000 0.0000 23.8053 0.0000
# 6 0.0000 0.0000 0.0000 0.0000 0.0000 26.9026
#
#
#
# Elastic Compliance Matrix: (Units=1/GPa)
#
#
# Indices 1 2 3 4 5 6 
#
# 1 0.015571 -0.004985 -0.004239 0.000000 0.000000 0.000000
# 2 -0.004985 0.013608 -0.005607 0.000000 0.000000 0.000000
# 3 -0.004239 -0.005607 0.016409 0.000000 0.000000 0.000000
# 4 0.000000 0.000000 0.000000 0.040027 0.000000 0.000000
# 5 0.000000 0.000000 0.000000 0.000000 0.042008 0.000000
# 6 0.000000 0.000000 0.000000 0.000000 0.000000 0.037171
#
#
# Mechanical properties :
#
#
# Convention : Reuss Voigt Hill
#
# Bulk Modulus (GPa) = 62.79348 64.38473 63.58911
# Shear Modulus (GPa) = 25.02938 25.20400 25.11669
#
# Velocity S-wave (km/s) = 3.95043 3.96418 3.95731
# Velocity P-wave (km/s) = 7.74336 7.81645 7.77999
#
# Compressibility (1/GPa) = 0.01592522
#
# Stress axis : x y z
#
# Youngs Moduli (GPa) = 64.22012 73.48796 60.94223
#
# Poissons Ratio (x) = 0.36633 0.25834
# Poissons Ratio (y) = 0.32013 0.34172
# Poissons Ratio (z) = 0.27224 0.41207
#
# Static dielectric constant tensor:
#      x y z
#    x 1.550530 0.000000 0.000000 
#    y 0.000000 1.548930 0.000000 
#    z 0.000000 0.000000 1.507510 
# 
# From -- ./inp_files/9675.got.cif
#   From: 2010.05.17/outbox.cif.g08.bks.cpg/sg46_5_cif.got.tgz:9675.got - 2010.06.03 19:58:25.
