data_PCOD9379113
_publ_section_title
;
Structure prediction by ZEFSAII (Michael W. Deem and Ramdas Pophale) SiO2 
 PCOD9379113
Probable space group: I M A 2
;
_chemical_formula_sum "Si O2"
_cell_formula_units_Z 56
_cell_length_a 15.481923
_cell_length_b 5.202567
_cell_length_c 30.727600
_cell_angle_alpha 90.000000
_cell_angle_beta 90.000000
_cell_angle_gamma 90.000000
_cell_volume 2474.977333
_symmetry_space_group_name_H-M "I M A 2"
_symmetry_group_IT_number 46
_symmetry_cell_setting 'orthorhombic'
loop_
_space_group_symop_operation_xyz
x,y,z
-x,-y,z
1/2-x,y,z
1/2+x,-y,z
1/2+x,1/2+y,1/2+z
1/2-x,1/2-y,1/2+z
-x,1/2+y,1/2+z
x,1/2-y,1/2+z
loop_
_atom_site_type_symbol
_atom_site_label
_atom_site_fract_x
_atom_site_fract_y
_atom_site_fract_z
Si Si1 0.647131 0.848939 0.815530
Si Si2 0.902272 0.285569 0.965596
Si Si3 0.945806 0.735313 0.230284
Si Si4 0.400798 0.964500 0.097709
Si Si5 0.401125 0.203622 0.001194
Si Si6 0.644240 0.354459 0.867475
Si Si7 0.845760 0.549664 0.145614
O O1 0.750000 0.865821 0.817524
O O2 0.625729 0.742518 0.767396
O O3 0.617118 0.624730 0.847368
O O4 0.617248 0.123269 0.834963
O O5 0.862763 0.513746 0.994918
O O6 0.897329 0.342629 0.915067
O O7 0.000088 0.247714 0.984185
O O8 0.858456 0.009070 0.970958
O O9 0.907071 0.610170 0.186366
O O10 0.000000 0.500000 0.249627
O O11 0.000000 0.000000 0.223692
O O12 0.344546 0.175890 0.122070
O O13 0.500000 0.000000 0.111654
O O14 0.376355 0.675670 0.112403
O O15 0.398356 0.065817 0.048010
O O16 0.750000 0.349049 0.871920
O O17 0.750000 0.476536 0.160772
#
# Coordination Sequence:
#
# PCOD9379113 Si02
#       7
#     8   8   8   8   8   8   8
#     4  10  22  43  66  93 137 181 217 271 343 405
#     4  10  19  37  58  92 123 169 225 266 329 407
#     4  12  25  46  69 104 135 171 229 283 339 411
#     4  12  23  43  73  98 133 176 229 287 342 418
#     4  10  21  37  61  88 127 167 219 273 347 385
#     4  10  21  39  63  92 131 180 222 267 334 405
#     4  12  27  45  69 101 137 180 223 277 354 423
#
# _framework density 22.626470999999999
#
# number of rings (size 3 to 8) (size 9 to 14) (size 15 to 20)
#    0.000    1.143    1.429    6.000    2.000    0.000 
#   15.429    8.571    0.000    0.000    0.000    0.000 
#    0.000    0.000    0.000    0.000    0.000    0.000 
#
# Total GULP energy -156141.673112 kJ/mol
# GULP energy per Si atom -5576.488325 kJ/mol
# Density = 2.257497 g / cm^3
# Si number density = 22.626471 Si / 1000 Ang^3
#
#
#
# Elastic Constant Matrix: (Units=GPa)
#
#
# Indices 1 2 3 4 5 6 
#
# 1 43.1267 12.1789 0.4395 0.0000 0.0000 0.0000
# 2 12.1789 156.8321 6.3571 0.0000 0.0000 0.0000
# 3 0.4395 6.3571 89.9226 0.0000 0.0000 0.0000
# 4 0.0000 0.0000 0.0000 46.0604 0.0000 0.0000
# 5 0.0000 0.0000 0.0000 0.0000 54.7786 0.0000
# 6 0.0000 0.0000 0.0000 0.0000 0.0000 5.2423
#
#
#
# Elastic Compliance Matrix: (Units=1/GPa)
#
#
# Indices 1 2 3 4 5 6 
#
# 1 0.023707 -0.001842 0.000014 0.000000 0.000000 0.000000
# 2 -0.001842 0.006538 -0.000453 0.000000 0.000000 0.000000
# 3 0.000014 -0.000453 0.011153 0.000000 0.000000 0.000000
# 4 0.000000 0.000000 0.000000 0.021711 0.000000 0.000000
# 5 0.000000 0.000000 0.000000 0.000000 0.018255 0.000000
# 6 0.000000 0.000000 0.000000 0.000000 0.000000 0.190757
#
#
# Mechanical properties :
#
#
# Convention : Reuss Voigt Hill
#
# Bulk Modulus (GPa) = 27.14675 36.42580 31.78628
# Shear Modulus (GPa) = 17.30342 39.27665 28.29003
#
# Velocity S-wave (km/s) = 2.76840 4.17090 3.53980
# Velocity P-wave (km/s) = 4.71620 6.27128 5.54849
#
# Compressibility (1/GPa) = 0.03683682
#
# Stress axis : x y z
#
# Youngs Moduli (GPa) = 42.18087 152.96080 89.66483
#
# Poissons Ratio (x) = 0.28169 -0.00128
# Poissons Ratio (y) = 0.07768 0.04063
# Poissons Ratio (z) = -0.00060 0.06932
#
# Static dielectric constant tensor:
#      x y z
#    x 1.104290 0.000000 0.000000 
#    y 0.000000 1.823910 0.000000 
#    z 0.000000 0.000000 1.871600 
# 
# From -- ./inp_files/25400.got.cif
#   From: 2010.05.17/outbox.cif.g08.bks.cpg/sg46_13_cif.got.tgz:25400.got - 2010.06.03 19:58:25.
