data_PCOD9379424
_publ_section_title
;
Structure prediction by ZEFSAII (Michael W. Deem and Ramdas Pophale) SiO2 
 PCOD9379424
Probable space group: I M A 2
;
_chemical_formula_sum "Si O2"
_cell_formula_units_Z 64
_cell_length_a 8.686613
_cell_length_b 20.275161
_cell_length_c 20.579107
_cell_angle_alpha 90.000000
_cell_angle_beta 90.000000
_cell_angle_gamma 90.000000
_cell_volume 3624.443302
_symmetry_space_group_name_H-M "I M A 2"
_symmetry_group_IT_number 46
_symmetry_cell_setting 'orthorhombic'
loop_
_space_group_symop_operation_xyz
x,y,z
-x,-y,z
1/2-x,y,z
1/2+x,-y,z
1/2+x,1/2+y,1/2+z
1/2-x,1/2-y,1/2+z
-x,1/2+y,1/2+z
x,1/2-y,1/2+z
loop_
_atom_site_type_symbol
_atom_site_label
_atom_site_fract_x
_atom_site_fract_y
_atom_site_fract_z
Si Si1 0.566092 0.072679 0.826200
Si Si2 0.065658 0.673847 0.575205
Si Si3 0.064999 0.427569 0.679024
Si Si4 0.564642 0.571784 0.828520
Si Si5 0.565778 0.828967 0.933064
Si Si6 0.435648 0.175598 0.437053
Si Si7 0.066215 0.672295 0.078725
Si Si8 0.066185 0.427368 0.184180
O O1 0.750000 0.069534 0.823210
O O2 0.511584 0.124331 0.880089
O O3 0.500451 0.090761 0.755103
O O4 0.500000 0.000000 0.841560
O O5 0.250000 0.668763 0.570655
O O6 0.026723 0.750476 0.589473
O O7 0.002377 0.626367 0.630675
O O8 0.992546 0.655724 0.505679
O O9 0.250000 0.428371 0.674918
O O10 0.019674 0.413426 0.753997
O O11 0.000000 0.500000 0.662933
O O12 0.500000 0.500000 0.845723
O O13 0.750000 0.568841 0.830044
O O14 0.514815 0.627144 0.879480
O O15 0.750000 0.836272 0.929882
O O16 0.526721 0.751819 0.921768
O O17 0.250000 0.171596 0.444016
O O18 0.511423 0.157002 0.505561
O O19 0.250000 0.664988 0.083605
O O20 0.986217 0.625075 0.130611
O O21 0.250000 0.430938 0.187809
O O22 0.000000 0.500000 0.168376
#
# Coordination Sequence:
#
# PCOD9379424 Si02
#       8
#     8   8   8   8   8   8   8   8
#     4  11  22  38  58  82 112 143 179 223 272 325
#     4  10  21  37  56  80 110 143 181 226 273 322
#     4  10  20  35  55  79 108 142 180 223 271 323
#     4   9  19  35  54  78 107 139 176 218 263 313
#     4  10  20  36  57  81 109 143 182 223 269 321
#     4   9  19  36  56  79 109 144 182 223 267 318
#     4  10  21  37  56  81 112 144 180 223 271 323
#     4  11  22  38  59  82 110 144 183 225 271 323
#
# _framework density 17.657883999999999
#
# number of rings (size 3 to 8) (size 9 to 14) (size 15 to 20)
#    0.000    2.000    0.000    4.500    0.000    5.000 
#    0.000    5.000    0.000    0.000    0.000    0.000 
#    0.000    0.000    0.000    0.000    0.000    0.000 
#
# Total GULP energy -178715.767859 kJ/mol
# GULP energy per Si atom -5584.867746 kJ/mol
# Density = 1.761769 g / cm^3
# Si number density = 17.657884 Si / 1000 Ang^3
#
#
#
# Elastic Constant Matrix: (Units=GPa)
#
#
# Indices 1 2 3 4 5 6 
#
# 1 95.7537 59.9870 66.9790 0.0000 0.0000 0.0000
# 2 59.9870 117.2419 121.5884 0.0000 0.0000 0.0000
# 3 66.9790 121.5884 148.2434 0.0000 0.0000 0.0000
# 4 0.0000 0.0000 0.0000 43.9156 0.0000 0.0000
# 5 0.0000 0.0000 0.0000 0.0000 31.8218 0.0000
# 6 0.0000 0.0000 0.0000 0.0000 0.0000 30.1326
#
#
#
# Elastic Compliance Matrix: (Units=1/GPa)
#
#
# Indices 1 2 3 4 5 6 
#
# 1 0.015617 -0.004503 -0.003362 0.000000 0.000000 0.000000
# 2 -0.004503 0.058390 -0.045856 0.000000 0.000000 0.000000
# 3 -0.003362 -0.045856 0.045876 0.000000 0.000000 0.000000
# 4 0.000000 0.000000 0.000000 0.022771 0.000000 0.000000
# 5 0.000000 0.000000 0.000000 0.000000 0.031425 0.000000
# 6 0.000000 0.000000 0.000000 0.000000 0.000000 0.033187
#
#
# Mechanical properties :
#
#
# Convention : Reuss Voigt Hill
#
# Bulk Modulus (GPa) = 80.39581 95.37195 87.88388
# Shear Modulus (GPa) = 15.68110 28.68631 22.18371
#
# Velocity S-wave (km/s) = 2.98325 4.03496 3.54829
# Velocity P-wave (km/s) = 7.58254 8.70839 8.16489
#
# Compressibility (1/GPa) = 0.01243846
#
# Stress axis : x y z
#
# Youngs Moduli (GPa) = 64.03472 17.12622 21.79794
#
# Poissons Ratio (x) = 0.07713 0.07329
# Poissons Ratio (y) = 0.28838 0.99958
# Poissons Ratio (z) = 0.21529 0.78535
#
# Static dielectric constant tensor:
#      x y z
#    x 1.592970 0.000000 0.000000 
#    y 0.000000 1.579320 0.000000 
#    z 0.000000 0.000000 1.574950 
# 
# From -- ./inp_files/18583.got.cif
#   From: 2010.05.17/outbox.cif.g08.bks.cpg/sg46_10_cif.got.tgz:18583.got - 2010.06.03 19:58:25.
