data_PCOD9379431
_publ_section_title
;
Structure prediction by ZEFSAII (Michael W. Deem and Ramdas Pophale) SiO2 
 PCOD9379431
Probable space group: I M A 2
;
_chemical_formula_sum "Si O2"
_cell_formula_units_Z 64
_cell_length_a 16.032117
_cell_length_b 9.041882
_cell_length_c 22.584445
_cell_angle_alpha 90.000000
_cell_angle_beta 90.000000
_cell_angle_gamma 90.000000
_cell_volume 3273.852668
_symmetry_space_group_name_H-M "I M A 2"
_symmetry_group_IT_number 46
_symmetry_cell_setting 'orthorhombic'
loop_
_space_group_symop_operation_xyz
x,y,z
-x,-y,z
1/2-x,y,z
1/2+x,-y,z
1/2+x,1/2+y,1/2+z
1/2-x,1/2-y,1/2+z
-x,1/2+y,1/2+z
x,1/2-y,1/2+z
loop_
_atom_site_type_symbol
_atom_site_label
_atom_site_fract_x
_atom_site_fract_y
_atom_site_fract_z
Si Si1 0.559429 0.856118 0.161840
Si Si2 0.055917 0.696199 0.244371
Si Si3 0.653371 0.480038 0.762981
Si Si4 0.504927 0.666735 0.974828
Si Si5 0.347277 0.007974 0.828813
Si Si6 0.152940 0.338926 0.538198
Si Si7 0.930732 0.685866 0.843402
Si Si8 0.153591 0.865822 0.958365
O O1 0.500743 0.719911 0.185151
O O2 0.619744 0.902566 0.215427
O O3 0.616800 0.840325 0.104648
O O4 0.500000 0.000000 0.153039
O O5 0.096267 0.549482 0.273515
O O6 0.998133 0.761498 0.295973
O O7 0.128887 0.818072 0.240590
O O8 0.750000 0.491310 0.771292
O O9 0.608514 0.531545 0.822863
O O10 0.500000 0.500000 0.996926
O O11 0.527517 0.669796 0.906019
O O12 0.417304 0.752894 0.979847
O O13 0.584138 0.742521 0.004930
O O14 0.250000 0.983833 0.815343
O O15 0.364330 0.180026 0.842204
O O16 0.366115 0.922100 0.890934
O O17 0.250000 0.289550 0.536603
O O18 0.150902 0.496204 0.503856
O O19 0.250000 0.810796 0.957595
#
# Coordination Sequence:
#
# PCOD9379431 Si02
#       8
#     8   8   8   8   8   8   8   8
#     4   9  19  37  62  88 118 161 213 260 316 377
#     4  10  20  35  57  84 116 157 197 248 311 378
#     4  10  20  35  55  83 118 155 200 251 304 367
#     4  12  24  39  60  89 131 170 211 263 333 392
#     4  11  21  35  56  88 122 156 202 257 314 380
#     4  11  23  41  67  94 121 165 225 275 323 385
#     4  11  21  35  54  81 119 163 199 240 309 389
#     4  10  22  39  62  91 123 167 216 265 322 387
#
# _framework density 19.548835
#
# number of rings (size 3 to 8) (size 9 to 14) (size 15 to 20)
#    0.000    1.500    2.500    4.500    0.000    1.000 
#    0.000    2.500    0.000    0.750    0.000    1.750 
#    0.000    0.000    0.000    0.000    0.000    0.000 
#
# Total GULP energy -178464.679961 kJ/mol
# GULP energy per Si atom -5577.021249 kJ/mol
# Density = 1.950434 g / cm^3
# Si number density = 19.548835 Si / 1000 Ang^3
#
#
#
# Elastic Constant Matrix: (Units=GPa)
#
#
# Indices 1 2 3 4 5 6 
#
# 1 127.7194 38.1608 41.1363 0.0000 0.0000 0.0000
# 2 38.1608 70.2979 13.6312 0.0000 0.0000 0.0000
# 3 41.1363 13.6312 73.5961 0.0000 0.0000 0.0000
# 4 0.0000 0.0000 0.0000 7.2945 0.0000 0.0000
# 5 0.0000 0.0000 0.0000 0.0000 33.2030 0.0000
# 6 0.0000 0.0000 0.0000 0.0000 0.0000 20.2711
#
#
#
# Elastic Compliance Matrix: (Units=1/GPa)
#
#
# Indices 1 2 3 4 5 6 
#
# 1 0.010993 -0.004954 -0.005227 0.000000 0.000000 0.000000
# 2 -0.004954 0.016988 -0.000377 0.000000 0.000000 0.000000
# 3 -0.005227 -0.000377 0.016579 0.000000 0.000000 0.000000
# 4 0.000000 0.000000 0.000000 0.137089 0.000000 0.000000
# 5 0.000000 0.000000 0.000000 0.000000 0.030118 0.000000
# 6 0.000000 0.000000 0.000000 0.000000 0.000000 0.049331
#
#
# Mechanical properties :
#
#
# Convention : Reuss Voigt Hill
#
# Bulk Modulus (GPa) = 42.65635 50.83001 46.74318
# Shear Modulus (GPa) = 17.23958 24.06605 20.65282
#
# Velocity S-wave (km/s) = 2.97286 3.51247 3.25387
# Velocity P-wave (km/s) = 5.80100 6.51981 6.17088
#
# Compressibility (1/GPa) = 0.02344317
#
# Stress axis : x y z
#
# Youngs Moduli (GPa) = 90.96293 58.86624 60.31629
#
# Poissons Ratio (x) = 0.29163 0.31528
# Poissons Ratio (y) = 0.45065 0.02276
# Poissons Ratio (z) = 0.47548 0.02221
#
# Static dielectric constant tensor:
#      x y z
#    x 1.685310 0.000000 0.000000 
#    y 0.000000 1.788740 0.000000 
#    z 0.000000 0.000000 1.726730 
# 
# From -- ./inp_files/23672.got.cif
#   From: 2010.05.17/outbox.cif.g08.bks.cpg/sg46_12_cif.got.tgz:23672.got - 2010.06.03 19:58:25.
