data_PCOD9379351
_publ_section_title
;
Structure prediction by ZEFSAII (Michael W. Deem and Ramdas Pophale) SiO2 
 PCOD9379351
Probable space group: I M A 2
;
_chemical_formula_sum "Si O2"
_cell_formula_units_Z 64
_cell_length_a 14.906336
_cell_length_b 24.564059
_cell_length_c 9.524872
_cell_angle_alpha 90.000000
_cell_angle_beta 90.000000
_cell_angle_gamma 90.000000
_cell_volume 3487.628246
_symmetry_space_group_name_H-M "I M A 2"
_symmetry_group_IT_number 46
_symmetry_cell_setting 'orthorhombic'
loop_
_space_group_symop_operation_xyz
x,y,z
-x,-y,z
1/2-x,y,z
1/2+x,-y,z
1/2+x,1/2+y,1/2+z
1/2-x,1/2-y,1/2+z
-x,1/2+y,1/2+z
x,1/2-y,1/2+z
loop_
_atom_site_type_symbol
_atom_site_label
_atom_site_fract_x
_atom_site_fract_y
_atom_site_fract_z
Si Si1 0.851317 0.489797 0.603450
Si Si2 0.355157 0.817640 0.231833
Si Si3 0.354912 0.969862 0.420449
Si Si4 0.534090 0.132121 0.479578
Si Si5 0.945189 0.946098 0.861363
Si Si6 0.147313 0.414722 0.076522
Si Si7 0.847239 0.192098 0.692091
Si Si8 0.890889 0.377966 0.451122
O O1 0.750000 0.508885 0.624904
O O2 0.887301 0.477334 0.759178
O O3 0.901746 0.533022 0.506687
O O4 0.851450 0.433632 0.515729
O O5 0.250000 0.833963 0.254325
O O6 0.425834 0.847590 0.331963
O O7 0.359809 0.752791 0.249996
O O8 0.381837 0.834216 0.074419
O O9 0.250000 0.951779 0.418178
O O10 0.416331 0.926119 0.499190
O O11 0.357795 0.027664 0.496116
O O12 0.429091 0.122869 0.505784
O O13 0.574118 0.174730 0.589559
O O14 0.879460 0.927202 0.738071
O O15 0.000000 0.000000 0.810452
O O16 0.011270 0.897029 0.900456
O O17 0.250000 0.394825 0.067011
O O18 0.750000 0.191298 0.617370
O O19 0.845860 0.148341 0.816170
#
# Coordination Sequence:
#
# PCOD9379351 Si02
#       8
#     8   8   8   8   8   8   8   8
#     4  10  20  34  55  85 120 155 192 232 280 344
#     4  11  23  39  60  90 124 152 188 238 291 355
#     4  10  21  35  57  89 122 156 192 234 289 354
#     4  12  22  38  62  86 118 160 195 237 293 350
#     4  10  21  36  55  85 115 158 195 236 288 344
#     4  11  24  40  58  84 118 156 203 250 286 335
#     4  11  23  38  59  89 121 154 193 235 287 356
#     4  11  21  36  57  84 119 156 188 229 288 347
#
# _framework density 18.350579
#
# number of rings (size 3 to 8) (size 9 to 14) (size 15 to 20)
#    0.000    1.250    2.500    4.500    3.500    3.000 
#    0.000    0.000    0.000    0.750    0.000    0.000 
#    0.000    0.000    0.000    0.000    0.000    0.000 
#
# Total GULP energy -178633.707067 kJ/mol
# GULP energy per Si atom -5582.303346 kJ/mol
# Density = 1.830881 g / cm^3
# Si number density = 18.350579 Si / 1000 Ang^3
#
#
#
# Elastic Constant Matrix: (Units=GPa)
#
#
# Indices 1 2 3 4 5 6 
#
# 1 124.1978 37.3080 24.2118 0.0000 0.0000 0.0002
# 2 37.3080 54.4134 3.2124 0.0000 -0.0001 0.0005
# 3 24.2118 3.2124 52.3561 0.0003 -0.0002 0.0011
# 4 0.0000 0.0000 0.0003 25.6555 0.0000 0.0011
# 5 0.0000 -0.0001 -0.0002 0.0000 25.2058 0.0002
# 6 0.0002 0.0005 0.0011 0.0011 0.0002 21.4258
#
#
#
# Elastic Compliance Matrix: (Units=1/GPa)
#
#
# Indices 1 2 3 4 5 6 
#
# 1 0.011194 -0.007396 -0.004723 0.000000 0.000000 0.000000
# 2 -0.007396 0.023332 0.001989 0.000000 0.000000 -0.000001
# 3 -0.004723 0.001989 0.021162 0.000000 0.000000 -0.000001
# 4 0.000000 0.000000 0.000000 0.038978 0.000000 -0.000002
# 5 0.000000 0.000000 0.000000 0.000000 0.039673 0.000000
# 6 0.000000 -0.000001 -0.000001 -0.000002 0.000000 0.046673
#
#
# Mechanical properties :
#
#
# Convention : Reuss Voigt Hill
#
# Bulk Modulus (GPa) = 28.22699 40.04795 34.13747
# Shear Modulus (GPa) = 23.46518 25.53977 24.50248
#
# Velocity S-wave (km/s) = 3.57979 3.73469 3.65806
# Velocity P-wave (km/s) = 5.70105 6.36148 6.04030
#
# Compressibility (1/GPa) = 0.03542709
#
# Stress axis : x y z
#
# Youngs Moduli (GPa) = 89.33219 42.86022 47.25448
#
# Poissons Ratio (x) = 0.31701 0.22318
# Poissons Ratio (y) = 0.66073 -0.09398
# Poissons Ratio (z) = 0.42190 -0.08524
#
# Static dielectric constant tensor:
#      x y z
#    x 1.669950 0.000000 0.000000 
#    y 0.000000 1.611010 0.000000 
#    z 0.000000 0.000000 1.655170 
# 
# From -- ./inp_files/6071.got.cif
#   From: 2010.05.17/outbox.cif.g08.bks.cpg/sg46_4_cif.got.tgz:6071.got - 2010.06.03 19:58:25.
