data_PCOD9379174
_publ_section_title
;
Structure prediction by ZEFSAII (Michael W. Deem and Ramdas Pophale) SiO2 
 PCOD9379174
Probable space group: I M A 2
;
_chemical_formula_sum "Si O2"
_cell_formula_units_Z 48
_cell_length_a 21.567959
_cell_length_b 24.477963
_cell_length_c 4.923746
_cell_angle_alpha 90.000000
_cell_angle_beta 90.000000
_cell_angle_gamma 90.000000
_cell_volume 2599.440998
_symmetry_space_group_name_H-M "I M A 2"
_symmetry_group_IT_number 46
_symmetry_cell_setting 'orthorhombic'
loop_
_space_group_symop_operation_xyz
x,y,z
-x,-y,z
1/2-x,y,z
1/2+x,-y,z
1/2+x,1/2+y,1/2+z
1/2-x,1/2-y,1/2+z
-x,1/2+y,1/2+z
x,1/2-y,1/2+z
loop_
_atom_site_type_symbol
_atom_site_label
_atom_site_fract_x
_atom_site_fract_y
_atom_site_fract_z
Si Si1 0.495454 0.214685 0.103700
Si Si2 0.063026 0.964086 0.782696
Si Si3 0.653248 0.715301 0.659612
Si Si4 0.027436 0.903777 0.293927
Si Si5 0.888231 0.557918 0.933313
Si Si6 0.180582 0.400740 0.426715
O O1 0.510970 0.264435 0.305328
O O2 0.525137 0.157589 0.188133
O O3 0.421111 0.207361 0.134136
O O4 0.053521 0.911324 0.594422
O O5 0.109646 0.003087 0.617228
O O6 0.066078 0.942641 0.089032
O O7 0.000000 0.000000 0.777533
O O8 0.669737 0.735116 0.958431
O O9 0.681248 0.658915 0.561308
O O10 0.956475 0.926082 0.321457
O O11 0.845776 0.560337 0.666279
O O12 0.863437 0.600106 0.161765
O O13 0.250000 0.416735 0.344407
#
# Coordination Sequence:
#
# PCOD9379174 Si02
#       6
#     8   8   8   8   8   8
#     4  10  20  30  47  71  97 131 163 200 255 302
#     4  10  20  31  52  75  92 121 157 205 264 302
#     4  10  21  34  50  65  91 131 178 227 270 295
#     4  11  19  33  52  73  97 124 163 205 253 304
#     4  11  22  37  53  72 103 125 166 226 260 312
#     4  12  24  37  53  71  96 137 178 222 276 306
#
# _framework density 18.465509999999998
#
# number of rings (size 3 to 8) (size 9 to 14) (size 15 to 20)
#    0.000    1.333    1.667    7.000    4.667    0.667 
#    0.000    0.000    0.000    0.000    0.000    0.000 
#    0.000    0.000    0.000    0.000    0.000  210.000 
#
# Total GULP energy -133949.023861 kJ/mol
# GULP energy per Si atom -5581.209328 kJ/mol
# Density = 1.842348 g / cm^3
# Si number density = 18.465510 Si / 1000 Ang^3
#
#
#
# Elastic Constant Matrix: (Units=GPa)
#
#
# Indices 1 2 3 4 5 6 
#
# 1 19.3113 13.7237 9.0303 0.0000 0.0000 0.0000
# 2 13.7237 63.1192 7.4166 0.0000 0.0000 0.0000
# 3 9.0303 7.4166 90.0960 0.0000 0.0000 0.0000
# 4 0.0000 0.0000 0.0000 34.7127 0.0000 0.0000
# 5 0.0000 0.0000 0.0000 0.0000 5.6437 0.0000
# 6 0.0000 0.0000 0.0000 0.0000 0.0000 3.9130
#
#
#
# Elastic Compliance Matrix: (Units=1/GPa)
#
#
# Indices 1 2 3 4 5 6 
#
# 1 0.063651 -0.013217 -0.005292 0.000000 0.000000 0.000000
# 2 -0.013217 0.018742 -0.000218 0.000000 0.000000 0.000000
# 3 -0.005292 -0.000218 0.011648 0.000000 0.000000 0.000000
# 4 0.000000 0.000000 0.000000 0.028808 0.000000 0.000000
# 5 0.000000 0.000000 0.000000 0.000000 0.177190 0.000000
# 6 0.000000 0.000000 0.000000 0.000000 0.000000 0.255559
#
#
# Mechanical properties :
#
#
# Convention : Reuss Voigt Hill
#
# Bulk Modulus (GPa) = 17.67209 25.87419 21.77314
# Shear Modulus (GPa) = 8.17107 18.34427 13.25767
#
# Velocity S-wave (km/s) = 2.10586 3.15530 2.68240
# Velocity P-wave (km/s) = 3.93751 5.22658 4.62715
#
# Compressibility (1/GPa) = 0.05658641
#
# Stress axis : x y z
#
# Youngs Moduli (GPa) = 15.71074 53.35478 85.85452
#
# Poissons Ratio (x) = 0.70521 0.45431
# Poissons Ratio (y) = 0.20766 0.01872
# Poissons Ratio (z) = 0.08314 0.01164
#
# Static dielectric constant tensor:
#      x y z
#    x 1.658480 0.000000 0.000000 
#    y 0.000000 1.674760 0.000000 
#    z 0.000000 0.000000 1.653540 
# 
# From -- ./inp_files/2116.got.cif
#   From: 2010.05.17/outbox.cif.g08.bks.cpg/sg46_2_cif.got.tgz:2116.got - 2010.06.03 19:58:25.
