data_PCOD9379725
_publ_section_title
;
Structure prediction by ZEFSAII (Michael W. Deem and Ramdas Pophale) SiO2 
 PCOD9379725
Probable space group: I M A 2
;
_chemical_formula_sum "Si O2"
_cell_formula_units_Z 32
_cell_length_a 13.898758
_cell_length_b 11.512236
_cell_length_c 7.448065
_cell_angle_alpha 90.000000
_cell_angle_beta 90.000000
_cell_angle_gamma 90.000000
_cell_volume 1191.733466
_symmetry_space_group_name_H-M "I M A 2"
_symmetry_group_IT_number 46
_symmetry_cell_setting 'orthorhombic'
loop_
_space_group_symop_operation_xyz
x,y,z
-x,-y,z
1/2-x,y,z
1/2+x,-y,z
1/2+x,1/2+y,1/2+z
1/2-x,1/2-y,1/2+z
-x,1/2+y,1/2+z
x,1/2-y,1/2+z
loop_
_atom_site_type_symbol
_atom_site_label
_atom_site_fract_x
_atom_site_fract_y
_atom_site_fract_z
Si Si1 0.139768 0.445966 0.851650
Si Si2 0.140321 0.287846 0.494925
Si Si3 0.134629 0.654873 0.620214
Si Si4 0.533034 0.379318 0.260236
O O1 0.250000 0.480064 0.892008
O O2 0.136812 0.362794 0.675591
O O3 0.096949 0.567194 0.777240
O O4 0.118350 0.349949 0.003260
O O5 0.250000 0.298741 0.426223
O O6 0.059294 0.335788 0.367256
O O7 0.250000 0.668684 0.633165
O O8 0.108664 0.601681 0.426150
O O9 0.082045 0.778347 0.643510
O O10 0.500000 0.500000 0.173176
#
# Coordination Sequence:
#
# PCOD9379725 Si02
#       4
#     8   8   8   8
#     4   9  19  39  66  93 133 182 225 282 352 418
#     4  10  20  37  64  98 136 177 229 293 353 414
#     4  11  25  48  71 102 145 191 238 297 364 433
#     4  12  25  43  72 104 137 190 241 296 360 433
#
# _framework density 26.851641000000001
#
# number of rings (size 3 to 8) (size 9 to 14) (size 15 to 20)
#    0.000    1.500    2.500    2.250    0.000    1.000 
#    9.000    0.000    0.000    0.000    0.000    0.000 
#    0.000    0.000    0.000    0.000    0.000    0.000 
#
# Total GULP energy -89506.799952 kJ/mol
# GULP energy per Si atom -5594.174997 kJ/mol
# Density = 2.679053 g / cm^3
# Si number density = 26.851641 Si / 1000 Ang^3
#
#
#
# Elastic Constant Matrix: (Units=GPa)
#
#
# Indices 1 2 3 4 5 6 
#
# 1 151.7993 53.1987 9.2203 0.0000 0.0000 0.0000
# 2 53.1987 175.4917 12.2707 0.0000 0.0000 0.0000
# 3 9.2203 12.2707 50.2797 0.0000 0.0000 0.0000
# 4 0.0000 0.0000 0.0000 51.8979 0.0000 0.0000
# 5 0.0000 0.0000 0.0000 0.0000 14.4141 0.0000
# 6 0.0000 0.0000 0.0000 0.0000 0.0000 47.2966
#
#
#
# Elastic Compliance Matrix: (Units=1/GPa)
#
#
# Indices 1 2 3 4 5 6 
#
# 1 0.007404 -0.002187 -0.000824 0.000000 0.000000 0.000000
# 2 -0.002187 0.006443 -0.001171 0.000000 0.000000 0.000000
# 3 -0.000824 -0.001171 0.020326 0.000000 0.000000 0.000000
# 4 0.000000 0.000000 0.000000 0.019269 0.000000 0.000000
# 5 0.000000 0.000000 0.000000 0.000000 0.069377 0.000000
# 6 0.000000 0.000000 0.000000 0.000000 0.000000 0.021143
#
#
# Mechanical properties :
#
#
# Convention : Reuss Voigt Hill
#
# Bulk Modulus (GPa) = 38.74727 58.55002 48.64864
# Shear Modulus (GPa) = 31.06962 42.91378 36.99170
#
# Velocity S-wave (km/s) = 3.40529 4.00206 3.71567
# Velocity P-wave (km/s) = 5.47017 6.57325 6.04692
#
# Compressibility (1/GPa) = 0.02580827
#
# Stress axis : x y z
#
# Youngs Moduli (GPa) = 135.06043 155.20458 49.19872
#
# Poissons Ratio (x) = 0.33941 0.04054
# Poissons Ratio (y) = 0.29536 0.05763
# Poissons Ratio (z) = 0.11130 0.18181
#
# Static dielectric constant tensor:
#      x y z
#    x 2.096420 0.000000 0.000000 
#    y 0.000000 2.114380 0.000000 
#    z 0.000000 0.000000 2.204960 
# 
# From -- ./inp_files/5208.got.cif
#   From: 2010.05.17/outbox.cif.g08.bks.cpg/sg46_3_cif.got.tgz:5208.got - 2010.06.03 19:58:25.
