data_PCOD9379919
_publ_section_title
;
Structure prediction by ZEFSAII (Michael W. Deem and Ramdas Pophale) SiO2 
 PCOD9379919
Probable space group: I M A 2
;
_chemical_formula_sum "Si O2"
_cell_formula_units_Z 32
_cell_length_a 23.894133
_cell_length_b 6.971674
_cell_length_c 9.153542
_cell_angle_alpha 90.000000
_cell_angle_beta 90.000000
_cell_angle_gamma 90.000000
_cell_volume 1524.816302
_symmetry_space_group_name_H-M "I M A 2"
_symmetry_group_IT_number 46
_symmetry_cell_setting 'orthorhombic'
loop_
_space_group_symop_operation_xyz
x,y,z
-x,-y,z
1/2-x,y,z
1/2+x,-y,z
1/2+x,1/2+y,1/2+z
1/2-x,1/2-y,1/2+z
-x,1/2+y,1/2+z
x,1/2-y,1/2+z
loop_
_atom_site_type_symbol
_atom_site_label
_atom_site_fract_x
_atom_site_fract_y
_atom_site_fract_z
Si Si1 0.411191 0.054870 0.784170
Si Si2 0.628964 0.141491 0.291155
Si Si3 0.185317 0.565936 0.101505
Si Si4 0.054261 0.133785 0.101533
O O1 0.350394 0.074520 0.706294
O O2 0.453338 0.157882 0.673024
O O3 0.413214 0.824607 0.807273
O O4 0.419055 0.146090 0.941831
O O5 0.676363 0.230288 0.184514
O O6 0.654844 0.084716 0.445880
O O7 0.596349 0.974963 0.210399
O O8 0.250000 0.517428 0.087697
O O9 0.000000 0.000000 0.090378
#
# Coordination Sequence:
#
# PCOD9379919 Si02
#       4
#     8   8   8   8
#     4  10  24  44  63  99 132 163 232 272 317 412
#     4  10  21  42  66  96 133 165 225 272 320 407
#     4  10  20  41  71  94 132 175 209 273 338 387
#     4  12  26  42  68  93 132 182 216 277 338 389
#
# _framework density 20.986135000000001
#
# number of rings (size 3 to 8) (size 9 to 14) (size 15 to 20)
#    1.500    0.000    2.500    2.250    3.500    0.000 
#    0.000    6.250    0.000    0.000    0.000    0.000 
#    0.000    0.000    0.000    0.000    0.000    0.000 
#
# Total GULP energy -89198.187435 kJ/mol
# GULP energy per Si atom -5574.886715 kJ/mol
# Density = 2.093837 g / cm^3
# Si number density = 20.986135 Si / 1000 Ang^3
#
#
#
# Elastic Constant Matrix: (Units=GPa)
#
#
# Indices 1 2 3 4 5 6 
#
# 1 117.8375 47.1669 81.9333 0.0000 0.0000 0.0000
# 2 47.1669 81.4204 50.4939 0.0000 0.0000 0.0000
# 3 81.9333 50.4939 203.3248 0.0000 0.0000 0.0000
# 4 0.0000 0.0000 0.0000 19.0294 0.0000 0.0000
# 5 0.0000 0.0000 0.0000 0.0000 -20.9737 0.0000
# 6 0.0000 0.0000 0.0000 0.0000 0.0000 24.0630
#
#
#
# Elastic Compliance Matrix: (Units=1/GPa)
#
#
# Indices 1 2 3 4 5 6 
#
# 1 0.013445 -0.005235 -0.004118 0.000000 0.000000 0.000000
# 2 -0.005235 0.016556 -0.002002 0.000000 0.000000 0.000000
# 3 -0.004118 -0.002002 0.007075 0.000000 0.000000 0.000000
# 4 0.000000 0.000000 0.000000 0.052550 0.000000 0.000000
# 5 0.000000 0.000000 0.000000 0.000000 -0.047679 0.000000
# 6 0.000000 0.000000 0.000000 0.000000 0.000000 0.041558
#
#
# Mechanical properties :
#
#
# Convention : Reuss Voigt Hill
#
# Bulk Modulus (GPa) = 69.60787 84.64121 77.12454
# Shear Modulus (GPa) = 45.04383 19.28964 32.16673
#
# Velocity S-wave (km/s) = 4.63791 3.03506 3.91930
# Velocity P-wave (km/s) = 7.86898 7.25959 7.57042
#
# Compressibility (1/GPa) = 0.01436619
#
# Stress axis : x y z
#
# Youngs Moduli (GPa) = 74.37851 60.40067 141.34756
#
# Poissons Ratio (x) = 0.31619 0.58204
# Poissons Ratio (y) = 0.38936 0.28299
# Poissons Ratio (z) = 0.30627 0.12093
#
# Static dielectric constant tensor:
#      x y z
#    x 1.758910 0.000000 0.000000 
#    y 0.000000 1.798510 0.000000 
#    z 0.000000 0.000000 1.717300 
# 
# From -- ./inp_files/7102.got.cif
#   From: 2010.05.17/outbox.cif.g08.bks.cpg/sg46_4_cif.got.tgz:7102.got - 2010.06.03 19:58:25.
