data_PCOD9379028
_publ_section_title
;
Structure prediction by ZEFSAII (Michael W. Deem and Ramdas Pophale) SiO2 
 PCOD9379028
Probable space group: I M A 2
;
_chemical_formula_sum "Si O2"
_cell_formula_units_Z 48
_cell_length_a 8.618669
_cell_length_b 29.095848
_cell_length_c 10.583783
_cell_angle_alpha 90.000000
_cell_angle_beta 90.000000
_cell_angle_gamma 90.000000
_cell_volume 2654.068626
_symmetry_space_group_name_H-M "I M A 2"
_symmetry_group_IT_number 46
_symmetry_cell_setting 'orthorhombic'
loop_
_space_group_symop_operation_xyz
x,y,z
-x,-y,z
1/2-x,y,z
1/2+x,-y,z
1/2+x,1/2+y,1/2+z
1/2-x,1/2-y,1/2+z
-x,1/2+y,1/2+z
x,1/2-y,1/2+z
loop_
_atom_site_type_symbol
_atom_site_label
_atom_site_fract_x
_atom_site_fract_y
_atom_site_fract_z
Si Si1 0.560912 0.145090 0.458730
Si Si2 0.937746 0.299853 0.209562
Si Si3 0.934548 0.855441 0.949401
Si Si4 0.063321 0.549087 0.065199
Si Si5 0.437939 0.692718 0.699701
Si Si6 0.435980 0.549619 0.360812
O O1 0.750000 0.145082 0.457581
O O2 0.514712 0.176082 0.578493
O O3 0.509886 0.092964 0.485439
O O4 0.510297 0.166430 0.326385
O O5 0.750000 0.302713 0.218387
O O6 0.981578 0.246343 0.208639
O O7 0.006046 0.326907 0.328201
O O8 0.750000 0.856512 0.949321
O O9 0.998955 0.907173 0.936543
O O10 0.995766 0.830905 0.075241
O O11 0.250000 0.547761 0.061887
O O12 0.018277 0.555684 0.212638
O O13 0.000000 0.500000 0.022374
O O14 0.250000 0.690932 0.693279
O O15 0.500000 0.500000 0.401654
O O16 0.250000 0.549570 0.367154
#
# Coordination Sequence:
#
# PCOD9379028 Si02
#       6
#     8   8   8   8   8   8
#     4   9  17  33  56  83 109 138 181 237 288 331
#     4  10  19  37  62  85 107 143 197 245 285 333
#     4  12  24  37  55  84 122 157 190 230 285 345
#     4   9  17  31  53  80 110 137 175 229 278 328
#     4  10  21  37  60  83 110 150 194 238 285 337
#     4  10  19  35  59  85 114 145 189 241 287 338
#
# _framework density 18.085440999999999
#
# number of rings (size 3 to 8) (size 9 to 14) (size 15 to 20)
#    0.000    2.000    1.667    3.000    0.000    4.000 
#    0.000    2.500    0.000    2.000    0.000    0.000 
#    0.000    0.000    0.000    0.000    0.000    0.000 
#
# Total GULP energy -134013.952694 kJ/mol
# GULP energy per Si atom -5583.914696 kJ/mol
# Density = 1.804428 g / cm^3
# Si number density = 18.085441 Si / 1000 Ang^3
#
#
#
# Elastic Constant Matrix: (Units=GPa)
#
#
# Indices 1 2 3 4 5 6 
#
# 1 29.7096 43.5054 30.2798 0.0000 0.0000 0.0000
# 2 43.5054 195.2126 90.1901 0.0002 0.0000 0.0000
# 3 30.2798 90.1901 135.3731 0.0008 -0.0001 -0.0001
# 4 0.0000 0.0002 0.0008 0.0406 0.0000 0.0000
# 5 0.0000 0.0000 -0.0001 0.0000 10.9955 0.0000
# 6 0.0000 0.0000 -0.0001 0.0000 0.0000 28.4819
#
#
#
# Elastic Compliance Matrix: (Units=1/GPa)
#
#
# Indices 1 2 3 4 5 6 
#
# 1 0.052888 -0.009132 -0.005746 0.000147 0.000000 0.000000
# 2 -0.009132 0.008977 -0.003938 0.000037 0.000000 0.000000
# 3 -0.005746 -0.003938 0.011296 -0.000197 0.000000 0.000000
# 4 0.000147 0.000037 -0.000197 24.617581 0.000042 0.000008
# 5 0.000000 0.000000 0.000000 0.000042 0.090946 0.000000
# 6 0.000000 0.000000 0.000000 0.000008 0.000000 0.035110
#
#
# Mechanical properties :
#
#
# Convention : Reuss Voigt Hill
#
# Bulk Modulus (GPa) = 28.14613 76.47179 52.30896
# Shear Modulus (GPa) = 0.20108 20.99160 10.59634
#
# Velocity S-wave (km/s) = 0.33380 3.41059 2.42317
# Velocity P-wave (km/s) = 3.96802 7.60821 6.06754
#
# Compressibility (1/GPa) = 0.03552886
#
# Stress axis : x y z
#
# Youngs Moduli (GPa) = 18.90799 111.39083 88.52646
#
# Poissons Ratio (x) = 1.01723 0.50864
# Poissons Ratio (y) = 0.17267 0.34865
# Poissons Ratio (z) = 0.10864 0.43870
#
# Static dielectric constant tensor:
#      x y z
#    x 1.613110 0.000000 0.000000 
#    y 0.000000 1.611490 0.000000 
#    z 0.000000 0.000000 1.591040 
# 
# From -- ./inp_files/3901.got.cif
#   From: 2010.05.17/outbox.cif.g08.bks.cpg/sg46_2_cif.got.tgz:3901.got - 2010.06.03 19:58:25.
