data_PCOD9379846
_publ_section_title
;
Structure prediction by ZEFSAII (Michael W. Deem and Ramdas Pophale) SiO2 
 PCOD9379846
Probable space group: I M A 2
;
_chemical_formula_sum "Si O2"
_cell_formula_units_Z 56
_cell_length_a 14.256787
_cell_length_b 11.627727
_cell_length_c 15.781751
_cell_angle_alpha 90.000000
_cell_angle_beta 90.000000
_cell_angle_gamma 90.000000
_cell_volume 2616.204418
_symmetry_space_group_name_H-M "I M A 2"
_symmetry_group_IT_number 46
_symmetry_cell_setting 'orthorhombic'
loop_
_space_group_symop_operation_xyz
x,y,z
-x,-y,z
1/2-x,y,z
1/2+x,-y,z
1/2+x,1/2+y,1/2+z
1/2-x,1/2-y,1/2+z
-x,1/2+y,1/2+z
x,1/2-y,1/2+z
loop_
_atom_site_type_symbol
_atom_site_label
_atom_site_fract_x
_atom_site_fract_y
_atom_site_fract_z
Si Si1 0.908183 0.579233 0.458820
Si Si2 0.635025 0.609693 0.781324
Si Si3 0.459409 0.343821 0.952166
Si Si4 0.139154 0.374557 0.272392
Si Si5 0.859089 0.521749 0.100481
Si Si6 0.855536 0.046078 0.122859
Si Si7 0.358461 0.773621 0.531393
O O1 0.915564 0.716763 0.461252
O O2 0.875894 0.563568 0.362023
O O3 0.852786 0.537956 0.541536
O O4 0.000000 0.500000 0.465401
O O5 0.750000 0.604527 0.791499
O O6 0.581865 0.591420 0.870171
O O7 0.606059 0.742510 0.764028
O O8 0.608130 0.524505 0.704259
O O9 0.423298 0.416477 0.031520
O O10 0.570067 0.312240 0.957147
O O11 0.250000 0.365186 0.263826
O O12 0.105216 0.445309 0.192663
O O13 0.750000 0.560171 0.087656
O O14 0.857457 0.385392 0.089793
O O15 0.750000 0.079940 0.147269
O O16 0.897494 0.164340 0.084439
O O17 0.250000 0.749512 0.504129
#
# Coordination Sequence:
#
# PCOD9379846 Si02
#       7
#     8   8   8   8   8   8   8
#     4  11  21  35  58  92 127 164 217 269 329 397
#     4   9  19  36  64 100 127 158 213 272 335 396
#     4  11  21  38  65  94 130 168 215 278 331 389
#     4   9  19  36  59  91 121 154 204 267 331 388
#     4  10  21  39  65  92 122 162 215 274 332 394
#     4  10  20  39  63  90 131 173 212 271 335 405
#     4  10  22  40  63  91 127 176 223 262 326 409
#
# _framework density 21.405055000000001
#
# number of rings (size 3 to 8) (size 9 to 14) (size 15 to 20)
#    0.000    2.000    1.429    2.143    0.000    4.000 
#    0.000    2.857    6.286    5.143    0.000    2.000 
#    0.000    0.000    0.000    0.000    0.000    0.000 
#
# Total GULP energy -156007.091476 kJ/mol
# GULP energy per Si atom -5571.681838 kJ/mol
# Density = 2.135634 g / cm^3
# Si number density = 21.405055 Si / 1000 Ang^3
#
#
#
# Elastic Constant Matrix: (Units=GPa)
#
#
# Indices 1 2 3 4 5 6 
#
# 1 72.6281 21.4158 42.4645 0.0000 0.0000 0.0000
# 2 21.4158 86.7659 53.8149 0.0000 0.0000 0.0000
# 3 42.4645 53.8149 162.8643 0.0000 0.0000 0.0000
# 4 0.0000 0.0000 0.0000-1408.3481 0.0000 0.0000
# 5 0.0000 0.0000 0.0000 0.0000 50.6092 0.0000
# 6 0.0000 0.0000 0.0000 0.0000 0.0000 24.2825
#
#
#
# Elastic Compliance Matrix: (Units=1/GPa)
#
#
# Indices 1 2 3 4 5 6 
#
# 1 0.016457 -0.001762 -0.003709 0.000000 0.000000 0.000000
# 2 -0.001762 0.014685 -0.004393 0.000000 0.000000 0.000000
# 3 -0.003709 -0.004393 0.008559 0.000000 0.000000 0.000000
# 4 0.000000 0.000000 0.000000 -0.000710 0.000000 0.000000
# 5 0.000000 0.000000 0.000000 0.000000 0.019759 0.000000
# 6 0.000000 0.000000 0.000000 0.000000 0.000000 0.041182
#
#
# Mechanical properties :
#
#
# Convention : Reuss Voigt Hill
#
# Bulk Modulus (GPa) = 50.06648 61.96097 56.01373
# Shear Modulus (GPa) = 39.58344 -253.05373 -106.73515
#
# Velocity S-wave (km/s) = 4.30496 -10.88477 -7.06914
# Velocity P-wave (km/s) = 6.93910 11.35610 6.35649
#
# Compressibility (1/GPa) = 0.01997344
#
# Stress axis : x y z
#
# Youngs Moduli (GPa) = 60.76558 68.09810 116.84115
#
# Poissons Ratio (x) = 0.11996 0.43334
# Poissons Ratio (y) = 0.10704 0.51327
# Poissons Ratio (z) = 0.22536 0.29915
#
# Static dielectric constant tensor:
#      x y z
#    x 1.860810 0.000000 0.000000 
#    y 0.000000 1.781090 0.000000 
#    z 0.000000 0.000000 1.791720 
# 
# From -- ./inp_files/15964.got.cif
#   From: 2010.05.17/outbox.cif.g08.bks.cpg/sg46_8_cif.got.tgz:15964.got - 2010.06.03 19:58:25.
