data_PCOD9379605
_publ_section_title
;
Structure prediction by ZEFSAII (Michael W. Deem and Ramdas Pophale) SiO2 
 PCOD9379605
Probable space group: I M A 2
;
_chemical_formula_sum "Si O2"
_cell_formula_units_Z 64
_cell_length_a 14.403392
_cell_length_b 19.156282
_cell_length_c 10.192300
_cell_angle_alpha 90.000000
_cell_angle_beta 90.000000
_cell_angle_gamma 90.000000
_cell_volume 2812.212928
_symmetry_space_group_name_H-M "I M A 2"
_symmetry_group_IT_number 46
_symmetry_cell_setting 'orthorhombic'
loop_
_space_group_symop_operation_xyz
x,y,z
-x,-y,z
1/2-x,y,z
1/2+x,-y,z
1/2+x,1/2+y,1/2+z
1/2-x,1/2-y,1/2+z
-x,1/2+y,1/2+z
x,1/2-y,1/2+z
loop_
_atom_site_type_symbol
_atom_site_label
_atom_site_fract_x
_atom_site_fract_y
_atom_site_fract_z
Si Si1 0.137037 0.690220 0.697140
Si Si2 0.100285 0.536443 0.781299
Si Si3 0.144979 0.039853 0.532415
Si Si4 0.136660 0.814585 0.892905
Si Si5 0.363340 0.314585 0.916790
Si Si6 0.637037 0.690220 0.612555
Si Si7 0.600285 0.536443 0.528397
Si Si8 0.355021 0.539853 0.277281
O O1 0.250000 0.685374 0.699926
O O2 0.098286 0.617977 0.753824
O O3 0.110222 0.753824 0.791867
O O4 0.108792 0.697560 0.544348
O O5 0.148761 0.515156 0.914650
O O6 0.145812 0.500000 0.654848
O O7 0.000000 0.500000 0.791283
O O8 0.250000 0.059479 0.573835
O O9 0.102740 0.111028 0.473989
O O10 0.101280 0.000000 0.654848
O O11 0.250000 0.817115 0.896502
O O12 0.102740 0.888972 0.835706
O O13 0.250000 0.317115 0.913193
O O14 0.391208 0.302440 0.765347
O O15 0.389778 0.253824 0.017828
O O16 0.750000 0.685374 0.609770
O O17 0.598286 0.617977 0.555872
O O18 0.500000 0.500000 0.518413
O O19 0.648761 0.515156 0.395046
O O20 0.250000 0.559479 0.235861
#
# Coordination Sequence:
#
# PCOD9379605 Si02
#       8
#     8   8   8   8   8   8   8   8
#     4  10  20  36  61  90 122 157 199 251 309 361
#     4  11  23  39  60  82 120 164 207 251 293 358
#     4  10  21  37  61  90 120 155 204 258 310 360
#     4   9  19  34  56  90 123 152 194 250 306 365
#     4   9  19  34  56  90 123 152 194 250 306 365
#     4  10  20  36  61  90 122 157 199 251 309 361
#     4  11  23  39  60  82 120 164 207 251 293 358
#     4  10  21  37  61  90 120 155 204 258 310 360
#
# _framework density 22.75788
#
# number of rings (size 3 to 8) (size 9 to 14) (size 15 to 20)
#    0.000    2.000    2.500    0.750    3.500    1.500 
#    0.000    1.250    0.000    0.000    0.000    0.000 
#    0.000    0.000    0.000    0.000    0.000    0.000 
#
# Total GULP energy -178858.272184 kJ/mol
# GULP energy per Si atom -5589.321006 kJ/mol
# Density = 2.270608 g / cm^3
# Si number density = 22.757880 Si / 1000 Ang^3
#
#
#
# Elastic Constant Matrix: (Units=GPa)
#
#
# Indices 1 2 3 4 5 6 
#
# 1 78.0104 16.6405 16.3666 0.0000 0.0000 0.0000
# 2 16.6405 215.4504 150.7716 0.0000 0.0000 0.0000
# 3 16.3666 150.7716 219.4005 0.0000 0.0000 0.0000
# 4 0.0000 0.0000 0.0000 47.7299 0.0000 0.0000
# 5 0.0000 0.0000 0.0000 0.0000 -2.3360 0.0000
# 6 0.0000 0.0000 0.0000 0.0000 0.0000 24.6046
#
#
#
# Elastic Compliance Matrix: (Units=1/GPa)
#
#
# Indices 1 2 3 4 5 6 
#
# 1 0.013067 -0.000630 -0.000542 0.000000 0.000000 0.000000
# 2 -0.000630 0.008972 -0.006118 0.000000 0.000000 0.000000
# 3 -0.000542 -0.006118 0.008803 0.000000 0.000000 0.000000
# 4 0.000000 0.000000 0.000000 0.020951 0.000000 0.000000
# 5 0.000000 0.000000 0.000000 0.000000 -0.428082 0.000000
# 6 0.000000 0.000000 0.000000 0.000000 0.000000 0.040643
#
#
# Mechanical properties :
#
#
# Convention : Reuss Voigt Hill
#
# Bulk Modulus (GPa) = 61.49686 97.82430 79.66058
# Shear Modulus (GPa) = -15.84055 35.93853 10.04899
#
# Velocity S-wave (km/s) = -2.64113 3.97819 2.10361
# Velocity P-wave (km/s) = 4.21665 8.01121 6.40154
#
# Compressibility (1/GPa) = 0.01626099
#
# Stress axis : x y z
#
# Youngs Moduli (GPa) = 76.52936 111.46168 113.60040
#
# Poissons Ratio (x) = 0.07024 0.06154
# Poissons Ratio (y) = 0.04822 0.69504
# Poissons Ratio (z) = 0.04146 0.68196
#
# Static dielectric constant tensor:
#      x y z
#    x 1.947670 0.000000 0.000000 
#    y 0.000000 1.802670 0.000000 
#    z 0.000000 0.000000 1.851000 
# 
# From -- ./inp_files/7577.got.cif
#   From: 2010.05.17/outbox.cif.g08.bks.cpg/sg46_4_cif.got.tgz:7577.got - 2010.06.03 19:58:25.
