data_PCOD9379050
_publ_section_title
;
Structure prediction by ZEFSAII (Michael W. Deem and Ramdas Pophale) SiO2 
 PCOD9379050
Probable space group: I M A 2
;
_chemical_formula_sum "Si O2"
_cell_formula_units_Z 48
_cell_length_a 15.628945
_cell_length_b 9.922240
_cell_length_c 14.537782
_cell_angle_alpha 90.000000
_cell_angle_beta 90.000000
_cell_angle_gamma 90.000000
_cell_volume 2254.434088
_symmetry_space_group_name_H-M "I M A 2"
_symmetry_group_IT_number 46
_symmetry_cell_setting 'orthorhombic'
loop_
_space_group_symop_operation_xyz
x,y,z
-x,-y,z
1/2-x,y,z
1/2+x,-y,z
1/2+x,1/2+y,1/2+z
1/2-x,1/2-y,1/2+z
-x,1/2+y,1/2+z
x,1/2-y,1/2+z
loop_
_atom_site_type_symbol
_atom_site_label
_atom_site_fract_x
_atom_site_fract_y
_atom_site_fract_z
Si Si1 0.093497 0.433209 0.311510
Si Si2 0.899085 0.525768 0.105422
Si Si3 0.349220 0.672089 0.428593
Si Si4 0.149077 0.787449 0.121279
Si Si5 0.355077 0.588923 0.809296
Si Si6 0.147659 0.173938 0.415643
O O1 0.118296 0.405755 0.205244
O O2 0.148340 0.552548 0.356404
O O3 0.101262 0.308278 0.380592
O O4 0.000000 0.500000 0.308957
O O5 0.860757 0.374070 0.112033
O O6 0.000000 0.500000 0.095993
O O7 0.869592 0.613308 0.017642
O O8 0.250000 0.703875 0.445907
O O9 0.387379 0.645660 0.528642
O O10 0.387876 0.805712 0.384944
O O11 0.250000 0.815844 0.128680
O O12 0.111780 0.853718 0.212878
O O13 0.250000 0.593277 0.809733
O O14 0.377863 0.441259 0.842396
O O15 0.250000 0.197979 0.409309
#
# Coordination Sequence:
#
# PCOD9379050 Si02
#       6
#     8   8   8   8   8   8
#     4  11  26  43  62  92 136 175 217 267 336 402
#     4  11  24  41  64  92 132 178 222 264 338 401
#     4  10  19  35  62  91 118 164 215 263 318 385
#     4  10  19  35  65  96 124 162 218 272 317 394
#     4   9  18  34  61  94 122 156 213 269 318 375
#     4  11  24  42  68 102 132 173 225 281 334 391
#
# _framework density 21.291374999999999
#
# number of rings (size 3 to 8) (size 9 to 14) (size 15 to 20)
#    0.000    1.667    3.333    1.000    2.333    3.333 
#    0.000    1.667    0.000    0.000    0.000    0.000 
#    0.000    0.000    0.000    0.000    0.000    0.000 
#
# Total GULP energy -133890.069979 kJ/mol
# GULP energy per Si atom -5578.752916 kJ/mol
# Density = 2.124291 g / cm^3
# Si number density = 21.291375 Si / 1000 Ang^3
#
#
#
# Elastic Constant Matrix: (Units=GPa)
#
#
# Indices 1 2 3 4 5 6 
#
# 1 23.3741 5.5119 21.1332 0.0000 0.0000 0.0000
# 2 5.5119 94.8316 37.8467 0.0000 0.0000 0.0000
# 3 21.1332 37.8467 145.6353 0.0000 0.0000 0.0000
# 4 0.0000 0.0000 0.0000 34.2810 0.0000 0.0000
# 5 0.0000 0.0000 0.0000 0.0000 24.5706 0.0000
# 6 0.0000 0.0000 0.0000 0.0000 0.0000 12.9841
#
#
#
# Elastic Compliance Matrix: (Units=1/GPa)
#
#
# Indices 1 2 3 4 5 6 
#
# 1 0.049243 -0.000012 -0.007143 0.000000 0.000000 0.000000
# 2 -0.000012 0.011765 -0.003056 0.000000 0.000000 0.000000
# 3 -0.007143 -0.003056 0.008697 0.000000 0.000000 0.000000
# 4 0.000000 0.000000 0.000000 0.029171 0.000000 0.000000
# 5 0.000000 0.000000 0.000000 0.000000 0.040699 0.000000
# 6 0.000000 0.000000 0.000000 0.000000 0.000000 0.077017
#
#
# Mechanical properties :
#
#
# Convention : Reuss Voigt Hill
#
# Bulk Modulus (GPa) = 20.29002 43.64717 31.96860
# Shear Modulus (GPa) = 19.72849 27.65709 23.69279
#
# Velocity S-wave (km/s) = 3.04731 3.60805 3.33947
# Velocity P-wave (km/s) = 4.68314 6.15644 5.46962
#
# Compressibility (1/GPa) = 0.04928531
#
# Stress axis : x y z
#
# Youngs Moduli (GPa) = 20.30745 84.99624 114.98142
#
# Poissons Ratio (x) = 0.00098 0.82127
# Poissons Ratio (y) = 0.00023 0.35136
# Poissons Ratio (z) = 0.14505 0.25973
#
# Static dielectric constant tensor:
#      x y z
#    x 1.775620 0.000000 0.000000 
#    y 0.000000 1.740860 0.000000 
#    z 0.000000 0.000000 1.858980 
# 
# From -- ./inp_files/16511.got.cif
#   From: 2010.05.17/outbox.cif.g08.bks.cpg/sg46_9_cif.got.tgz:16511.got - 2010.06.03 19:58:25.
