data_PCOD9379701
_publ_section_title
;
Structure prediction by ZEFSAII (Michael W. Deem and Ramdas Pophale) SiO2 
 PCOD9379701
Probable space group: I M A 2
;
_chemical_formula_sum "Si O2"
_cell_formula_units_Z 64
_cell_length_a 8.783245
_cell_length_b 15.772764
_cell_length_c 24.235124
_cell_angle_alpha 90.000000
_cell_angle_beta 90.000000
_cell_angle_gamma 90.000000
_cell_volume 3357.438363
_symmetry_space_group_name_H-M "I M A 2"
_symmetry_group_IT_number 46
_symmetry_cell_setting 'orthorhombic'
loop_
_space_group_symop_operation_xyz
x,y,z
-x,-y,z
1/2-x,y,z
1/2+x,-y,z
1/2+x,1/2+y,1/2+z
1/2-x,1/2-y,1/2+z
-x,1/2+y,1/2+z
x,1/2-y,1/2+z
loop_
_atom_site_type_symbol
_atom_site_label
_atom_site_fract_x
_atom_site_fract_y
_atom_site_fract_z
Si Si1 0.931561 0.089237 0.610250
Si Si2 0.568227 0.409637 0.376901
Si Si3 0.931786 0.648822 0.995775
Si Si4 0.433543 0.749861 0.184807
Si Si5 0.067487 0.589307 0.608601
Si Si6 0.068375 0.351203 0.492701
Si Si7 0.566727 0.910732 0.374959
Si Si8 0.432695 0.255901 0.306465
O O1 0.750000 0.084053 0.610529
O O2 0.977834 0.167534 0.649057
O O3 0.987151 0.109273 0.548447
O O4 0.000000 0.000000 0.628794
O O5 0.500000 0.500000 0.359502
O O6 0.750000 0.412562 0.376228
O O7 0.509215 0.389836 0.438655
O O8 0.507907 0.334884 0.337763
O O9 0.750000 0.636119 0.001378
O O10 0.958891 0.749868 0.993462
O O11 0.982260 0.608382 0.937925
O O12 0.250000 0.748230 0.192166
O O13 0.471569 0.833806 0.149728
O O14 0.513882 0.748277 0.243586
O O15 0.250000 0.584328 0.604355
O O16 0.000000 0.500000 0.627974
O O17 0.998556 0.609944 0.548577
O O18 0.250000 0.365417 0.489998
O O19 0.750000 0.915139 0.374664
O O20 0.521955 0.830973 0.337498
O O21 0.500000 0.000000 0.356146
O O22 0.250000 0.263858 0.310323
#
# Coordination Sequence:
#
# PCOD9379701 Si02
#       8
#     8   8   8   8   8   8   8   8
#     4  11  23  40  62  91 125 159 203 250 303 366
#     4  12  25  42  66  94 127 165 206 252 311 372
#     4  10  20  37  62  91 126 161 199 247 304 364
#     4  10  24  44  63  87 122 162 210 260 308 368
#     4  11  23  41  63  92 127 164 209 256 309 370
#     4  11  21  38  64  94 129 163 203 252 310 373
#     4  10  22  40  61  91 125 160 201 248 302 363
#     4  11  24  44  66  90 123 162 210 261 311 366
#
# _framework density 19.062152999999999
#
# number of rings (size 3 to 8) (size 9 to 14) (size 15 to 20)
#    0.000    1.250    2.500    3.375    0.000    6.000 
#    0.000    3.750    0.000    0.000    0.000    0.000 
#    0.000    0.000    0.000    0.000    0.000    0.000 
#
# Total GULP energy -178998.927336 kJ/mol
# GULP energy per Si atom -5593.716479 kJ/mol
# Density = 1.901877 g / cm^3
# Si number density = 19.062153 Si / 1000 Ang^3
#
#
#
# Elastic Constant Matrix: (Units=GPa)
#
#
# Indices 1 2 3 4 5 6 
#
# 1 71.3042 75.0747 52.6030 0.0000 0.0000 0.0000
# 2 75.0747 195.4191 87.5801 0.0000 0.0000 0.0000
# 3 52.6030 87.5801 135.9829 0.0000 0.0000 0.0000
# 4 0.0000 0.0000 0.0000 -3.5733 0.0000 0.0000
# 5 0.0000 0.0000 0.0000 0.0000 1.7221 0.0000
# 6 0.0000 0.0000 0.0000 0.0000 0.0000 34.0545
#
#
#
# Elastic Compliance Matrix: (Units=1/GPa)
#
#
# Indices 1 2 3 4 5 6 
#
# 1 0.025808 -0.007648 -0.005058 0.000000 0.000000 0.000000
# 2 -0.007648 0.009460 -0.003134 0.000000 0.000000 0.000000
# 3 -0.005058 -0.003134 0.011329 0.000000 0.000000 0.000000
# 4 0.000000 0.000000 0.000000 -0.279855 0.000000 0.000000
# 5 0.000000 0.000000 0.000000 0.000000 0.580674 0.000000
# 6 0.000000 0.000000 0.000000 0.000000 0.000000 0.029365
#
#
# Mechanical properties :
#
#
# Convention : Reuss Voigt Hill
#
# Bulk Modulus (GPa) = 67.03720 92.58022 79.80871
# Shear Modulus (GPa) = 12.09383 18.93723 15.51553
#
# Velocity S-wave (km/s) = 2.52155 3.15532 2.85607
# Velocity P-wave (km/s) = 6.61223 7.87069 7.26875
#
# Compressibility (1/GPa) = 0.01491709
#
# Stress axis : x y z
#
# Youngs Moduli (GPa) = 38.74747 105.70782 88.26926
#
# Poissons Ratio (x) = 0.80846 0.44644
# Poissons Ratio (y) = 0.29634 0.27665
# Poissons Ratio (z) = 0.19597 0.33131
#
# Static dielectric constant tensor:
#      x y z
#    x 1.639220 0.000000 0.000000 
#    y 0.000000 1.659460 0.000000 
#    z 0.000000 0.000000 1.625050 
# 
# From -- ./inp_files/23162.got.cif
#   From: 2010.05.17/outbox.cif.g08.bks.cpg/sg46_12_cif.got.tgz:23162.got - 2010.06.03 19:58:25.
