data_PCOD9379962
_publ_section_title
;
Structure prediction by ZEFSAII (Michael W. Deem and Ramdas Pophale) SiO2 
 PCOD9379962
Probable space group: I M A 2
;
_chemical_formula_sum "Si O2"
_cell_formula_units_Z 64
_cell_length_a 31.021070
_cell_length_b 13.384885
_cell_length_c 8.226418
_cell_angle_alpha 90.000000
_cell_angle_beta 90.000000
_cell_angle_gamma 90.000000
_cell_volume 3415.719436
_symmetry_space_group_name_H-M "I M A 2"
_symmetry_group_IT_number 46
_symmetry_cell_setting 'orthorhombic'
loop_
_space_group_symop_operation_xyz
x,y,z
-x,-y,z
1/2-x,y,z
1/2+x,-y,z
1/2+x,1/2+y,1/2+z
1/2-x,1/2-y,1/2+z
-x,1/2+y,1/2+z
x,1/2-y,1/2+z
loop_
_atom_site_type_symbol
_atom_site_label
_atom_site_fract_x
_atom_site_fract_y
_atom_site_fract_z
Si Si1 0.298041 0.587154 0.104860
Si Si2 0.952067 0.959940 0.404337
Si Si3 0.932522 0.141779 0.215890
Si Si4 0.110644 0.703769 0.400285
Si Si5 0.110117 0.980303 0.693034
Si Si6 0.702740 0.268706 0.410940
Si Si7 0.037633 0.413532 0.373458
Si Si8 0.525418 0.715980 0.704516
O O1 0.250000 0.541114 0.116301
O O2 0.338504 0.516928 0.151563
O O3 0.298393 0.680797 0.232647
O O4 0.300745 0.649008 0.935501
O O5 0.917784 0.989207 0.538969
O O6 0.949691 0.847134 0.342710
O O7 0.941073 0.026863 0.246178
O O8 0.000000 0.000000 0.451896
O O9 0.897083 0.185000 0.338457
O O10 0.976043 0.199821 0.255540
O O11 0.922215 0.168139 0.033422
O O12 0.104778 0.635382 0.242157
O O13 0.157783 0.689601 0.477878
O O14 0.085281 0.038774 0.840102
O O15 0.750000 0.297654 0.477095
O O16 0.032719 0.344019 0.535060
O O17 0.032818 0.333729 0.224149
O O18 0.000000 0.500000 0.372090
#
# Coordination Sequence:
#
# PCOD9379962 Si02
#       8
#     8   8   8   8   8   8   8   8
#     4   9  18  32  50  75 107 144 185 228 277 334
#     4  10  21  35  52  75 106 144 187 230 277 332
#     4  11  20  32  49  74 106 143 185 230 277 328
#     4  11  20  30  48  74 106 145 188 230 276 331
#     4  11  21  33  51  76 106 144 186 229 276 333
#     4   9  17  29  45  68 102 141 180 222 272 331
#     4  12  24  40  59  83 115 152 192 233 282 336
#     4  11  23  39  57  79 110 147 186 234 283 331
#
# _framework density 18.736901
#
# number of rings (size 3 to 8) (size 9 to 14) (size 15 to 20)
#    0.000    1.500    0.000    8.250    0.000    3.000 
#    0.000    0.625    0.000    0.000    0.000    3.500 
#    0.000    0.000    0.000    0.000    0.000    0.000 
#
# Total GULP energy -178142.545156 kJ/mol
# GULP energy per Si atom -5566.954536 kJ/mol
# Density = 1.869425 g / cm^3
# Si number density = 18.736901 Si / 1000 Ang^3
#
#
#
# Elastic Constant Matrix: (Units=GPa)
#
#
# Indices 1 2 3 4 5 6 
#
# 1 118.0774 43.1051 33.3369 0.0000 0.0000 0.0000
# 2 43.1051 92.1989 20.8542 0.0000 0.0000 0.0000
# 3 33.3369 20.8542 64.3342 0.0000 0.0000 0.0000
# 4 0.0000 0.0000 0.0000 36.5232 0.0000 0.0000
# 5 0.0000 0.0000 0.0000 0.0000 21.9142 0.0000
# 6 0.0000 0.0000 0.0000 0.0000 0.0000 23.6452
#
#
#
# Elastic Compliance Matrix: (Units=1/GPa)
#
#
# Indices 1 2 3 4 5 6 
#
# 1 0.011288 -0.004267 -0.004466 0.000000 0.000000 0.000000
# 2 -0.004267 0.013317 -0.002106 0.000000 0.000000 0.000000
# 3 -0.004466 -0.002106 0.018541 0.000000 0.000000 0.000000
# 4 0.000000 0.000000 0.000000 0.027380 0.000000 0.000000
# 5 0.000000 0.000000 0.000000 0.000000 0.045633 0.000000
# 6 0.000000 0.000000 0.000000 0.000000 0.000000 0.042292
#
#
# Mechanical properties :
#
#
# Convention : Reuss Voigt Hill
#
# Bulk Modulus (GPa) = 46.58066 52.13366 49.35716
# Shear Modulus (GPa) = 26.69751 28.23746 27.46749
#
# Velocity S-wave (km/s) = 3.77883 3.88629 3.83294
# Velocity P-wave (km/s) = 6.62976 6.92980 6.78144
#
# Compressibility (1/GPa) = 0.02146814
#
# Stress axis : x y z
#
# Youngs Moduli (GPa) = 88.59281 75.08985 53.93587
#
# Poissons Ratio (x) = 0.32042 0.24087
# Poissons Ratio (y) = 0.37803 0.11358
# Poissons Ratio (z) = 0.39564 0.15812
#
# Static dielectric constant tensor:
#      x y z
#    x 1.685230 0.000000 0.000000 
#    y 0.000000 1.685340 0.000000 
#    z 0.000000 0.000000 1.757260 
# 
# From -- ./inp_files/8485.got.cif
#   From: 2010.05.17/outbox.cif.g08.bks.cpg/sg46_5_cif.got.tgz:8485.got - 2010.06.03 19:58:25.
