data_PCOD9379403
_publ_section_title
;
Structure prediction by ZEFSAII (Michael W. Deem and Ramdas Pophale) SiO2 
 PCOD9379403
Probable space group: I M A 2
;
_chemical_formula_sum "Si O2"
_cell_formula_units_Z 40
_cell_length_a 8.770862
_cell_length_b 21.280735
_cell_length_c 12.811176
_cell_angle_alpha 90.000000
_cell_angle_beta 90.000000
_cell_angle_gamma 90.000000
_cell_volume 2391.210996
_symmetry_space_group_name_H-M "I M A 2"
_symmetry_group_IT_number 46
_symmetry_cell_setting 'orthorhombic'
loop_
_space_group_symop_operation_xyz
x,y,z
-x,-y,z
1/2-x,y,z
1/2+x,-y,z
1/2+x,1/2+y,1/2+z
1/2-x,1/2-y,1/2+z
-x,1/2+y,1/2+z
x,1/2-y,1/2+z
loop_
_atom_site_type_symbol
_atom_site_label
_atom_site_fract_x
_atom_site_fract_y
_atom_site_fract_z
Si Si1 0.432298 0.340929 0.798020
Si Si2 0.932186 0.430376 0.623279
Si Si3 0.068955 0.799609 0.508844
Si Si4 0.069012 0.197769 0.725729
Si Si5 0.932916 0.663148 0.456523
O O1 0.250000 0.348999 0.799049
O O2 0.509293 0.391867 0.723931
O O3 0.497162 0.339955 0.915098
O O4 0.463945 0.271137 0.751641
O O5 0.750000 0.432105 0.622103
O O6 0.000000 0.500000 0.624142
O O7 0.993964 0.392058 0.523359
O O8 0.250000 0.796607 0.497394
O O9 0.022156 0.822238 0.623766
O O10 0.998475 0.729713 0.496139
O O11 0.250000 0.193142 0.705001
O O12 0.035042 0.160862 0.832667
O O13 0.750000 0.663927 0.470878
#
# Coordination Sequence:
#
# PCOD9379403 Si02
#       5
#     8   8   8   8   8
#     4  10  20  35  54  76 108 144 182 222 270 323
#     4  12  24  38  57  80 109 144 184 226 269 322
#     4  11  20  30  51  81 113 142 176 223 273 324
#     4   9  18  32  53  77 108 144 176 218 274 326
#     4  10  20  35  53  76 108 144 183 222 270 322
#
# _framework density 16.727926
#
# number of rings (size 3 to 8) (size 9 to 14) (size 15 to 20)
#    0.000    1.600    2.000    6.000    0.000    4.000 
#    0.000    0.000    0.000    1.200    0.000    2.800 
#    0.000    0.000    0.000    0.000    0.000    0.000 
#
# Total GULP energy -111698.303877 kJ/mol
# GULP energy per Si atom -5584.915194 kJ/mol
# Density = 1.668985 g / cm^3
# Si number density = 16.727926 Si / 1000 Ang^3
#
#
#
# Elastic Constant Matrix: (Units=GPa)
#
#
# Indices 1 2 3 4 5 6 
#
# 1 123.8848 56.2535 87.0748 0.0000 0.0000 0.0000
# 2 56.2535 96.3883 65.9559 0.0000 0.0000 0.0000
# 3 87.0748 65.9559 153.0522 -0.0001 0.0001 0.0000
# 4 0.0000 0.0000 -0.0001 17.9081 0.0000 0.0000
# 5 0.0000 0.0000 0.0001 0.0000 23.2930 0.0000
# 6 0.0000 0.0000 0.0000 0.0000 0.0000 24.4179
#
#
#
# Elastic Compliance Matrix: (Units=1/GPa)
#
#
# Indices 1 2 3 4 5 6 
#
# 1 0.014454 -0.003983 -0.006507 0.000000 0.000000 0.000000
# 2 -0.003983 0.015811 -0.004547 0.000000 0.000000 0.000000
# 3 -0.006507 -0.004547 0.012195 0.000000 0.000000 0.000000
# 4 0.000000 0.000000 0.000000 0.055841 0.000000 0.000000
# 5 0.000000 0.000000 0.000000 0.000000 0.042931 0.000000
# 6 0.000000 0.000000 0.000000 0.000000 0.000000 0.040954
#
#
# Mechanical properties :
#
#
# Convention : Reuss Voigt Hill
#
# Bulk Modulus (GPa) = 80.73907 87.98818 84.36363
# Shear Modulus (GPa) = 23.10650 24.05987 23.58318
#
# Velocity S-wave (km/s) = 3.72063 3.79661 3.75882
# Velocity P-wave (km/s) = 8.17486 8.48132 8.32950
#
# Compressibility (1/GPa) = 0.01238558
#
# Stress axis : x y z
#
# Youngs Moduli (GPa) = 69.18451 63.24692 81.99950
#
# Poissons Ratio (x) = 0.25193 0.53355
# Poissons Ratio (y) = 0.27558 0.37289
# Poissons Ratio (z) = 0.45017 0.28761
#
# Static dielectric constant tensor:
#      x y z
#    x 1.551960 0.000000 0.000000 
#    y 0.000000 1.527490 0.000000 
#    z 0.000000 0.000000 1.584410 
# 
# From -- ./inp_files/9040.got.cif
#   From: 2010.05.17/outbox.cif.g08.bks.cpg/sg46_5_cif.got.tgz:9040.got - 2010.06.03 19:58:25.
