data_PCOD9379908
_publ_section_title
;
Structure prediction by ZEFSAII (Michael W. Deem and Ramdas Pophale) SiO2 
 PCOD9379908
Probable space group: I M A 2
;
_chemical_formula_sum "Si O2"
_cell_formula_units_Z 56
_cell_length_a 19.490348
_cell_length_b 15.100466
_cell_length_c 9.979333
_cell_angle_alpha 90.000000
_cell_angle_beta 90.000000
_cell_angle_gamma 90.000000
_cell_volume 2937.050799
_symmetry_space_group_name_H-M "I M A 2"
_symmetry_group_IT_number 46
_symmetry_cell_setting 'orthorhombic'
loop_
_space_group_symop_operation_xyz
x,y,z
-x,-y,z
1/2-x,y,z
1/2+x,-y,z
1/2+x,1/2+y,1/2+z
1/2-x,1/2-y,1/2+z
-x,1/2+y,1/2+z
x,1/2-y,1/2+z
loop_
_atom_site_type_symbol
_atom_site_label
_atom_site_fract_x
_atom_site_fract_y
_atom_site_fract_z
Si Si1 0.597368 0.257459 0.057600
Si Si2 0.575886 0.988193 0.229381
Si Si3 0.870507 0.720075 0.074611
Si Si4 0.509820 0.600495 0.172898
Si Si5 0.973905 0.872883 0.988081
Si Si6 0.822055 0.841164 0.306975
Si Si7 0.332036 0.661697 0.790806
O O1 0.550663 0.335704 0.120086
O O2 0.544975 0.173644 0.037445
O O3 0.653532 0.226234 0.165013
O O4 0.632496 0.292851 0.921328
O O5 0.558468 0.952494 0.077924
O O6 0.614211 0.905844 0.294073
O O7 0.500000 0.000000 0.289252
O O8 0.624921 0.072138 0.254768
O O9 0.919654 0.640925 0.118778
O O10 0.918989 0.794654 0.007860
O O11 0.834709 0.762081 0.203312
O O12 0.821019 0.691202 0.957737
O O13 0.500000 0.500000 0.129654
O O14 0.514818 0.603805 0.334166
O O15 0.750000 0.886126 0.270979
O O16 0.250000 0.647073 0.809087
#
# Coordination Sequence:
#
# PCOD9379908 Si02
#       7
#     8   8   8   8   8   8   8
#     4  11  24  42  66  96 134 180 224 275 341 407
#     4  11  24  39  69  99 129 166 221 275 328 392
#     4  10  22  38  62  92 124 169 209 262 323 387
#     4  11  23  37  64  98 129 162 218 278 329 378
#     4  10  20  41  65  97 127 166 220 275 327 386
#     4  11  23  41  63  90 130 170 210 262 325 392
#     4  12  26  45  68  99 138 182 226 279 345 417
#
# _framework density 19.066745999999998
#
# number of rings (size 3 to 8) (size 9 to 14) (size 15 to 20)
#    0.000    1.143    4.286    1.714    6.000    0.000 
#    0.000    0.000    0.000    0.000    0.000    0.000 
#    0.000    0.000    0.000    0.000    0.000    0.000 
#
# Total GULP energy -156198.446238 kJ/mol
# GULP energy per Si atom -5578.515937 kJ/mol
# Density = 1.902335 g / cm^3
# Si number density = 19.066746 Si / 1000 Ang^3
#
#
#
# Elastic Constant Matrix: (Units=GPa)
#
#
# Indices 1 2 3 4 5 6 
#
# 1 146.3353 40.9520 51.8216 0.0000 0.0000 0.0000
# 2 40.9520 92.1867 54.6461 0.0000 0.0000 0.0000
# 3 51.8216 54.6461 137.2329 0.0000 0.0000 0.0000
# 4 0.0000 0.0000 0.0000 17.0230 0.0000 0.0000
# 5 0.0000 0.0000 0.0000 0.0000 -39.7243 0.0000
# 6 0.0000 0.0000 0.0000 0.0000 0.0000 16.4017
#
#
#
# Elastic Compliance Matrix: (Units=1/GPa)
#
#
# Indices 1 2 3 4 5 6 
#
# 1 0.008271 -0.002386 -0.002173 0.000000 0.000000 0.000000
# 2 -0.002386 0.014887 -0.005027 0.000000 0.000000 0.000000
# 3 -0.002173 -0.005027 0.010109 0.000000 0.000000 0.000000
# 4 0.000000 0.000000 0.000000 0.058744 0.000000 0.000000
# 5 0.000000 0.000000 0.000000 0.000000 -0.025174 0.000000
# 6 0.000000 0.000000 0.000000 0.000000 0.000000 0.060969
#
#
# Mechanical properties :
#
#
# Convention : Reuss Voigt Hill
#
# Bulk Modulus (GPa) = 70.94685 74.51049 72.72867
# Shear Modulus (GPa) = 32.96450 13.96245 23.46347
#
# Velocity S-wave (km/s) = 4.16252 2.70903 3.51179
# Velocity P-wave (km/s) = 7.77126 6.99634 7.39396
#
# Compressibility (1/GPa) = 0.01409506
#
# Stress axis : x y z
#
# Youngs Moduli (GPa) = 120.90563 67.17053 98.91852
#
# Poissons Ratio (x) = 0.16027 0.21496
# Poissons Ratio (y) = 0.28848 0.49728
# Poissons Ratio (z) = 0.26275 0.33768
#
# Static dielectric constant tensor:
#      x y z
#    x 1.657710 0.000000 0.000000 
#    y 0.000000 1.672810 0.000000 
#    z 0.000000 0.000000 1.670970 
# 
# From -- ./inp_files/7421.got.cif
#   From: 2010.05.17/outbox.cif.g08.bks.cpg/sg46_4_cif.got.tgz:7421.got - 2010.06.03 19:58:25.
