data_PCOD9379168
_publ_section_title
;
Structure prediction by ZEFSAII (Michael W. Deem and Ramdas Pophale) SiO2 
 PCOD9379168
Probable space group: I M A 2
;
_chemical_formula_sum "Si O2"
_cell_formula_units_Z 52
_cell_length_a 21.321578
_cell_length_b 9.662077
_cell_length_c 13.452894
_cell_angle_alpha 90.000000
_cell_angle_beta 90.000000
_cell_angle_gamma 90.000000
_cell_volume 2771.440492
_symmetry_space_group_name_H-M "I M A 2"
_symmetry_group_IT_number 46
_symmetry_cell_setting 'orthorhombic'
loop_
_space_group_symop_operation_xyz
x,y,z
-x,-y,z
1/2-x,y,z
1/2+x,-y,z
1/2+x,1/2+y,1/2+z
1/2-x,1/2-y,1/2+z
-x,1/2+y,1/2+z
x,1/2-y,1/2+z
loop_
_atom_site_type_symbol
_atom_site_label
_atom_site_fract_x
_atom_site_fract_y
_atom_site_fract_z
Si Si1 0.750000 0.570237 0.573241
Si Si2 0.750000 0.750753 0.393747
Si Si3 0.411463 0.722502 0.940319
Si Si4 0.969832 0.143868 0.239266
Si Si5 0.114670 0.973417 0.062944
Si Si6 0.039473 0.244315 0.564872
Si Si7 0.250000 0.129567 0.669602
Si Si8 0.652992 0.946561 0.511071
O O1 0.750000 0.610710 0.458101
O O2 0.684788 0.501084 0.599161
O O3 0.750000 0.720853 0.619491
O O4 0.750000 0.682980 0.283570
O O5 0.691466 0.849494 0.431012
O O6 0.432794 0.715231 0.826933
O O7 0.382577 0.868892 0.971289
O O8 0.476223 0.716419 0.003669
O O9 0.364779 0.596759 0.968089
O O10 0.923268 0.097319 0.151951
O O11 0.021000 0.236426 0.181025
O O12 0.000000 0.000000 0.277989
O O13 0.075264 0.111797 0.037878
O O14 0.088182 0.126465 0.538685
O O15 0.308252 0.052156 0.615315
#
# Coordination Sequence:
#
# PCOD9379168 Si02
#       8
#     4   4   8   8   8   8   4   8
#     4  10  20  42  62  82 112 159 202 239 285 360
#     4  10  22  39  63  92 113 160 205 242 301 359
#     4  11  22  36  58  91 122 150 194 252 305 348
#     4   9  20  35  59  88 113 156 202 230 293 369
#     4  10  21  41  60  81 121 158 193 244 293 359
#     4  10  19  40  59  81 119 163 193 238 292 365
#     4  10  22  39  61  90 117 155 207 249 294 357
#     4  10  21  38  60  88 123 153 196 259 294 339
#
# _framework density 18.762806000000001
#
# number of rings (size 3 to 8) (size 9 to 14) (size 15 to 20)
#    0.000    2.154    3.077    2.769    2.154    2.462 
#    5.538    3.846    0.000    0.000    0.000    0.000 
#    0.000    0.000    0.000    0.000    0.000    0.000 
#
# Total GULP energy -144735.547012 kJ/mol
# GULP energy per Si atom -5566.751808 kJ/mol
# Density = 1.872010 g / cm^3
# Si number density = 18.762806 Si / 1000 Ang^3
#
#
#
# Elastic Constant Matrix: (Units=GPa)
#
#
# Indices 1 2 3 4 5 6 
#
# 1 74.6437 5.5156 -14.9303 0.0000 0.0000 0.0000
# 2 5.5156 54.0577 14.0341 0.0000 0.0000 0.0000
# 3 -14.9303 14.0341 67.5953 0.0000 0.0000 0.0000
# 4 0.0000 0.0000 0.0000 6.6788 0.0000 0.0000
# 5 0.0000 0.0000 0.0000 0.0000 -384.3685 0.0000
# 6 0.0000 0.0000 0.0000 0.0000 0.0000 11.7956
#
#
#
# Elastic Compliance Matrix: (Units=1/GPa)
#
#
# Indices 1 2 3 4 5 6 
#
# 1 0.014307 -0.002410 0.003661 0.000000 0.000000 0.000000
# 2 -0.002410 0.019959 -0.004676 0.000000 0.000000 0.000000
# 3 0.003661 -0.004676 0.016573 0.000000 0.000000 0.000000
# 4 0.000000 0.000000 0.000000 0.149728 0.000000 0.000000
# 5 0.000000 0.000000 0.000000 0.000000 -0.002602 0.000000
# 6 0.000000 0.000000 0.000000 0.000000 0.000000 0.084778
#
#
# Mechanical properties :
#
#
# Convention : Reuss Voigt Hill
#
# Bulk Modulus (GPa) = 22.73359 22.83728 22.78543
# Shear Modulus (GPa) = 16.43348 -60.40035 -21.98344
#
# Velocity S-wave (km/s) = 2.96269 -5.67991 -3.42665
# Velocity P-wave (km/s) = 4.88324 5.55133 1.86698
#
# Compressibility (1/GPa) = 0.04398777
#
# Stress axis : x y z
#
# Youngs Moduli (GPa) = 69.89461 50.10357 60.33795
#
# Poissons Ratio (x) = 0.12076 -0.22087
# Poissons Ratio (y) = 0.16845 0.28215
# Poissons Ratio (z) = -0.25585 0.23429
#
# Static dielectric constant tensor:
#      x y z
#    x 2.481280 0.000000 0.000000 
#    y 0.000000 1.657810 0.000000 
#    z 0.000000 0.000000 1.713270 
# 
# From -- ./inp_files/17071.got.cif
#   From: 2010.05.17/outbox.cif.g08.bks.cpg/sg46_9_cif.got.tgz:17071.got - 2010.06.03 19:58:25.
