data_PCOD9379329
_publ_section_title
;
Structure prediction by ZEFSAII (Michael W. Deem and Ramdas Pophale) SiO2 
 PCOD9379329
Probable space group: I M A 2
;
_chemical_formula_sum "Si O2"
_cell_formula_units_Z 48
_cell_length_a 14.327651
_cell_length_b 13.791840
_cell_length_c 12.367251
_cell_angle_alpha 90.000000
_cell_angle_beta 90.000000
_cell_angle_gamma 90.000000
_cell_volume 2443.826555
_symmetry_space_group_name_H-M "I M A 2"
_symmetry_group_IT_number 46
_symmetry_cell_setting 'orthorhombic'
loop_
_space_group_symop_operation_xyz
x,y,z
-x,-y,z
1/2-x,y,z
1/2+x,-y,z
1/2+x,1/2+y,1/2+z
1/2-x,1/2-y,1/2+z
-x,1/2+y,1/2+z
x,1/2-y,1/2+z
loop_
_atom_site_type_symbol
_atom_site_label
_atom_site_fract_x
_atom_site_fract_y
_atom_site_fract_z
Si Si1 0.857842 0.708299 0.906800
Si Si2 0.998115 0.200096 0.047808
Si Si3 0.851168 0.483377 0.927203
Si Si4 0.641407 0.325426 0.348702
Si Si5 0.430926 0.908630 0.636143
Si Si6 0.533755 0.353794 0.772502
O O1 0.750000 0.729446 0.876464
O O2 0.859679 0.597747 0.950865
O O3 0.937986 0.696907 0.815243
O O4 0.901521 0.785093 0.990853
O O5 0.977233 0.306612 0.099932
O O6 0.985714 0.127181 0.147307
O O7 0.923409 0.174724 0.954825
O O8 0.750000 0.469134 0.875836
O O9 0.928212 0.439848 0.847391
O O10 0.858026 0.428305 0.040444
O O11 0.750000 0.333208 0.375028
O O12 0.611227 0.400988 0.255842
O O13 0.616474 0.223897 0.290466
O O14 0.500000 0.000000 0.631359
#
# Coordination Sequence:
#
# PCOD9379329 Si02
#       6
#     8   8   8   8   8   8
#     4  10  20  35  56  83 109 147 197 238 280 335
#     4  10  21  36  56  80 114 150 185 232 285 340
#     4  11  19  32  58  86 113 145 189 239 284 338
#     4  10  21  34  54  85 115 148 185 231 289 340
#     4  11  19  35  56  78 118 150 189 229 277 339
#     4  10  20  34  54  82 116 150 181 237 289 339
#
# _framework density 19.641328999999999
#
# number of rings (size 3 to 8) (size 9 to 14) (size 15 to 20)
#    0.000    1.667    5.000    1.500    0.000    4.000 
#    0.000    1.667    0.000    1.000    0.000    0.000 
#    0.000    0.000    0.000    0.000    0.000    0.000 
#
# Total GULP energy -133645.108551 kJ/mol
# GULP energy per Si atom -5568.546190 kJ/mol
# Density = 1.959662 g / cm^3
# Si number density = 19.641329 Si / 1000 Ang^3
#
#
#
# Elastic Constant Matrix: (Units=GPa)
#
#
# Indices 1 2 3 4 5 6 
#
# 1 143.0098 20.1910 60.1475 0.0000 0.0000 0.0000
# 2 20.1910 30.5292 20.5075 0.0000 0.0000 0.0000
# 3 60.1475 20.5075 129.2912 0.0000 0.0000 0.0000
# 4 0.0000 0.0000 0.0000 1.3471 0.0000 0.0000
# 5 0.0000 0.0000 0.0000 0.0000 12.2213 0.0000
# 6 0.0000 0.0000 0.0000 0.0000 0.0000 15.1068
#
#
#
# Elastic Compliance Matrix: (Units=1/GPa)
#
#
# Indices 1 2 3 4 5 6 
#
# 1 0.009020 -0.003522 -0.003637 0.000000 0.000000 0.000000
# 2 -0.003522 0.038037 -0.004395 0.000000 0.000000 0.000000
# 3 -0.003637 -0.004395 0.010124 0.000000 0.000000 0.000000
# 4 0.000000 0.000000 0.000000 0.742310 0.000000 0.000000
# 5 0.000000 0.000000 0.000000 0.000000 0.081824 0.000000
# 6 0.000000 0.000000 0.000000 0.000000 0.000000 0.066195
#
#
# Mechanical properties :
#
#
# Convention : Reuss Voigt Hill
#
# Bulk Modulus (GPa) = 29.34957 56.05802 42.70379
# Shear Modulus (GPa) = 5.09178 19.20067 12.14622
#
# Velocity S-wave (km/s) = 1.61183 3.12999 2.48947
# Velocity P-wave (km/s) = 4.29409 6.45487 5.48199
#
# Compressibility (1/GPa) = 0.03407205
#
# Stress axis : x y z
#
# Youngs Moduli (GPa) = 110.86983 26.29026 98.77808
#
# Poissons Ratio (x) = 0.09259 0.35929
# Poissons Ratio (y) = 0.39047 0.43411
# Poissons Ratio (z) = 0.40328 0.11554
#
# Static dielectric constant tensor:
#      x y z
#    x 1.717120 0.000000 0.000000 
#    y 0.000000 1.744460 0.000000 
#    z 0.000000 0.000000 1.719460 
# 
# From -- ./inp_files/11096.got.cif
#   From: 2010.05.17/outbox.cif.g08.bks.cpg/sg46_6_cif.got.tgz:11096.got - 2010.06.03 19:58:25.
