data_PCOD9379709
_publ_section_title
;
Structure prediction by ZEFSAII (Michael W. Deem and Ramdas Pophale) SiO2 
 PCOD9379709
Probable space group: I M A 2
;
_chemical_formula_sum "Si O2"
_cell_formula_units_Z 48
_cell_length_a 9.131662
_cell_length_b 27.970904
_cell_length_c 9.750500
_cell_angle_alpha 90.000000
_cell_angle_beta 90.000000
_cell_angle_gamma 90.000000
_cell_volume 2490.480912
_symmetry_space_group_name_H-M "I M A 2"
_symmetry_group_IT_number 46
_symmetry_cell_setting 'orthorhombic'
loop_
_space_group_symop_operation_xyz
x,y,z
-x,-y,z
1/2-x,y,z
1/2+x,-y,z
1/2+x,1/2+y,1/2+z
1/2-x,1/2-y,1/2+z
-x,1/2+y,1/2+z
x,1/2-y,1/2+z
loop_
_atom_site_type_symbol
_atom_site_label
_atom_site_fract_x
_atom_site_fract_y
_atom_site_fract_z
Si Si1 0.072388 0.715620 0.071970
Si Si2 0.923295 0.413132 0.435380
Si Si3 0.081935 0.044711 0.678911
Si Si4 0.927626 0.304134 0.386573
Si Si5 0.578914 0.623923 0.948065
Si Si6 0.076365 0.949020 0.244878
O O1 0.250000 0.711964 0.067118
O O2 0.027571 0.710306 0.231692
O O3 0.002498 0.672876 0.984225
O O4 0.027886 0.765323 0.000249
O O5 0.750000 0.414001 0.403235
O O6 0.973869 0.357917 0.423771
O O7 0.942704 0.434435 0.586014
O O8 0.007498 0.443394 0.322533
O O9 0.250000 0.031851 0.698442
O O10 0.071971 0.090973 0.583708
O O11 0.000000 0.000000 0.612143
O O12 0.750000 0.304111 0.386634
O O13 0.750000 0.631476 0.913971
O O14 0.497631 0.592810 0.833313
O O15 0.250000 0.952112 0.274725
O O16 0.000000 0.000000 0.269886
#
# Coordination Sequence:
#
# PCOD9379709 Si02
#       6
#     8   8   8   8   8   8
#     4  10  20  37  63  90 121 157 200 250 301 356
#     4  10  21  39  62  90 122 157 199 246 298 359
#     4  11  23  38  60  87 117 154 198 246 299 360
#     4   9  19  35  61  93 120 153 198 246 296 357
#     4  11  24  41  60  87 123 160 205 249 299 361
#     4  11  24  40  62  89 123 161 205 251 302 361
#
# _framework density 19.273385999999999
#
# number of rings (size 3 to 8) (size 9 to 14) (size 15 to 20)
#    0.000    1.667    1.667    2.500    2.333    6.000 
#    0.000    1.667    0.000    0.000    0.000    0.000 
#    0.000    0.000    0.000    0.000    0.000    0.000 
#
# Total GULP energy -134094.174477 kJ/mol
# GULP energy per Si atom -5587.257270 kJ/mol
# Density = 1.922952 g / cm^3
# Si number density = 19.273386 Si / 1000 Ang^3
#
#
#
# Elastic Constant Matrix: (Units=GPa)
#
#
# Indices 1 2 3 4 5 6 
#
# 1 60.7595 18.2754 36.1635 0.0004 -0.0001 0.0000
# 2 18.2754 98.1621 7.8989 0.0008 -0.0002 0.0000
# 3 36.1635 7.8989 57.0757 -0.0002 0.0042 -0.0006
# 4 0.0004 0.0008 -0.0002 41.8033 -0.0008 0.0001
# 5 -0.0001 -0.0002 0.0042 -0.0008 33.2164 0.0007
# 6 0.0000 0.0000 -0.0006 0.0001 0.0007 28.6676
#
#
#
# Elastic Compliance Matrix: (Units=1/GPa)
#
#
# Indices 1 2 3 4 5 6 
#
# 1 0.027753 -0.003794 -0.017060 0.000000 0.000002 0.000000
# 2 -0.003794 0.010821 0.000907 0.000000 0.000000 0.000000
# 3 -0.017060 0.000907 0.028204 0.000000 -0.000004 0.000001
# 4 0.000000 0.000000 0.000000 0.023922 0.000001 0.000000
# 5 0.000002 0.000000 -0.000004 0.000001 0.030106 -0.000001
# 6 0.000000 0.000000 0.000001 0.000000 -0.000001 0.034883
#
#
# Mechanical properties :
#
#
# Convention : Reuss Voigt Hill
#
# Bulk Modulus (GPa) = 37.19733 37.85252 37.52493
# Shear Modulus (GPa) = 24.44467 30.98141 27.71304
#
# Velocity S-wave (km/s) = 3.56520 4.01368 3.79607
# Velocity P-wave (km/s) = 6.02406 6.41575 6.22299
#
# Compressibility (1/GPa) = 0.02688365
#
# Stress axis : x y z
#
# Youngs Moduli (GPa) = 36.03184 92.41569 35.45576
#
# Poissons Ratio (x) = 0.35065 0.60486
# Poissons Ratio (y) = 0.13671 -0.03214
# Poissons Ratio (z) = 0.61469 -0.08378
#
# Static dielectric constant tensor:
#      x y z
#    x 1.648880 0.000000 0.000000 
#    y 0.000000 1.634050 0.000000 
#    z 0.000000 0.000000 1.657850 
# 
# From -- ./inp_files/3893.got.cif
#   From: 2010.05.17/outbox.cif.g08.bks.cpg/sg46_2_cif.got.tgz:3893.got - 2010.06.03 19:58:25.
