data_PCOD9379952
_publ_section_title
;
Structure prediction by ZEFSAII (Michael W. Deem and Ramdas Pophale) SiO2 
 PCOD9379952
Probable space group: I M A 2
;
_chemical_formula_sum "Si O2"
_cell_formula_units_Z 48
_cell_length_a 14.495801
_cell_length_b 5.013955
_cell_length_c 29.298635
_cell_angle_alpha 90.000000
_cell_angle_beta 90.000000
_cell_angle_gamma 90.000000
_cell_volume 2129.462701
_symmetry_space_group_name_H-M "I M A 2"
_symmetry_group_IT_number 46
_symmetry_cell_setting 'orthorhombic'
loop_
_space_group_symop_operation_xyz
x,y,z
-x,-y,z
1/2-x,y,z
1/2+x,-y,z
1/2+x,1/2+y,1/2+z
1/2-x,1/2-y,1/2+z
-x,1/2+y,1/2+z
x,1/2-y,1/2+z
loop_
_atom_site_type_symbol
_atom_site_label
_atom_site_fract_x
_atom_site_fract_y
_atom_site_fract_z
Si Si1 0.355586 0.518775 0.763620
Si Si2 0.250000 0.155572 0.530635
Si Si3 0.856941 0.960934 0.823829
Si Si4 0.560999 0.227238 0.914451
Si Si5 0.392958 0.993123 0.158312
Si Si6 0.888885 0.983708 0.605946
Si Si7 0.250000 0.669612 0.468480
O O1 0.250000 0.423859 0.759421
O O2 0.356627 0.804030 0.787163
O O3 0.387968 0.555146 0.712111
O O4 0.398275 0.299557 0.798396
O O5 0.159933 0.153443 0.562854
O O6 0.250000 0.859194 0.511476
O O7 0.250000 0.370249 0.489521
O O8 0.750000 0.903803 0.838342
O O9 0.909256 0.086212 0.866836
O O10 0.500000 0.500000 0.910300
O O11 0.658255 0.249045 0.940389
O O12 0.500000 0.000000 0.939019
O O13 0.361323 0.288899 0.147419
O O14 0.500000 0.000000 0.146739
O O15 0.354890 0.770948 0.123848
O O16 0.000000 0.000000 0.599231
#
# Coordination Sequence:
#
# PCOD9379952 Si02
#       7
#     8   4   8   8   8   8   4
#     4  10  21  33  60  93 130 179 225 272 326 380
#     4  12  26  44  76  95 128 183 210 286 368 412
#     4  10  21  41  60  93 138 176 223 283 326 391
#     4  12  26  46  75 103 136 187 228 283 362 424
#     4  10  21  38  58  89 135 175 216 280 325 383
#     4  10  23  41  63  95 130 170 224 273 334 409
#     4  12  28  50  70 107 140 163 232 298 348 438
#
# _framework density 22.540896
#
# number of rings (size 3 to 8) (size 9 to 14) (size 15 to 20)
#    0.000    1.333    0.833    4.000    2.333    4.000 
#    0.000    0.000    0.000    0.000    0.000    0.000 
#    0.000    0.000    0.000    0.000    0.000    0.000 
#
# Total GULP energy -133879.937132 kJ/mol
# GULP energy per Si atom -5578.330714 kJ/mol
# Density = 2.248959 g / cm^3
# Si number density = 22.540896 Si / 1000 Ang^3
#
#
#
# Elastic Constant Matrix: (Units=GPa)
#
#
# Indices 1 2 3 4 5 6 
#
# 1 121.2385 22.0987 19.5426 0.0000 0.0000 0.0000
# 2 22.0987 98.8906 -4.2958 0.0000 0.0000 0.0000
# 3 19.5426 -4.2958 49.1446 0.0000 0.0000 0.0000
# 4 0.0000 0.0000 0.0000 34.8146 0.0000 0.0000
# 5 0.0000 0.0000 0.0000 0.0000 248.2970 0.0000
# 6 0.0000 0.0000 0.0000 0.0000 0.0000 23.5980
#
#
#
# Elastic Compliance Matrix: (Units=1/GPa)
#
#
# Indices 1 2 3 4 5 6 
#
# 1 0.009284 -0.002244 -0.003888 0.000000 0.000000 0.000000
# 2 -0.002244 0.010693 0.001827 0.000000 0.000000 0.000000
# 3 -0.003888 0.001827 0.022054 0.000000 0.000000 0.000000
# 4 0.000000 0.000000 0.000000 0.028724 0.000000 0.000000
# 5 0.000000 0.000000 0.000000 0.000000 0.004027 0.000000
# 6 0.000000 0.000000 0.000000 0.000000 0.000000 0.042376
#
#
# Mechanical properties :
#
#
# Convention : Reuss Voigt Hill
#
# Bulk Modulus (GPa) = 29.92093 38.21831 34.06962
# Shear Modulus (GPa) = 36.52100 76.80381 56.66241
#
# Velocity S-wave (km/s) = 4.02955 5.84355 5.01918
# Velocity P-wave (km/s) = 5.91207 7.90704 6.98119
#
# Compressibility (1/GPa) = 0.03342142
#
# Stress axis : x y z
#
# Youngs Moduli (GPa) = 107.71415 93.52007 45.34362
#
# Poissons Ratio (x) = 0.20981 0.17629
# Poissons Ratio (y) = 0.24166 -0.08283
# Poissons Ratio (z) = 0.41878 -0.17084
#
# Static dielectric constant tensor:
#      x y z
#    x 0.519830 0.000000 0.000000 
#    y 0.000000 1.824880 0.000000 
#    z 0.000000 0.000000 1.823150 
# 
# From -- ./inp_files/24603.got.cif
#   From: 2010.05.17/outbox.cif.g08.bks.cpg/sg46_13_cif.got.tgz:24603.got - 2010.06.03 19:58:25.
