data_PCOD9379070
_publ_section_title
;
Structure prediction by ZEFSAII (Michael W. Deem and Ramdas Pophale) SiO2 
 PCOD9379070
Probable space group: I M A 2
;
_chemical_formula_sum "Si O2"
_cell_formula_units_Z 64
_cell_length_a 15.931952
_cell_length_b 24.024546
_cell_length_c 9.032010
_cell_angle_alpha 90.000000
_cell_angle_beta 90.000000
_cell_angle_gamma 90.000000
_cell_volume 3457.073304
_symmetry_space_group_name_H-M "I M A 2"
_symmetry_group_IT_number 46
_symmetry_cell_setting 'orthorhombic'
loop_
_space_group_symop_operation_xyz
x,y,z
-x,-y,z
1/2-x,y,z
1/2+x,-y,z
1/2+x,1/2+y,1/2+z
1/2-x,1/2-y,1/2+z
-x,1/2+y,1/2+z
x,1/2-y,1/2+z
loop_
_atom_site_type_symbol
_atom_site_label
_atom_site_fract_x
_atom_site_fract_y
_atom_site_fract_z
Si Si1 0.500623 0.562552 0.818970
Si Si2 0.848698 0.935932 0.084697
Si Si3 0.477855 0.677027 0.940433
Si Si4 0.649167 0.326621 0.428014
Si Si5 0.349601 0.937088 0.084845
Si Si6 0.849876 0.223389 0.615590
Si Si7 0.436202 0.249407 0.195744
Si Si8 0.348403 0.179464 0.949464
O O1 0.500000 0.500000 0.880929
O O2 0.583239 0.568226 0.715802
O O3 0.501405 0.612862 0.933401
O O4 0.416138 0.568494 0.718708
O O5 0.750000 0.928833 0.130372
O O6 0.856553 0.999411 0.027663
O O7 0.868144 0.885812 0.972286
O O8 0.507241 0.706720 0.790577
O O9 0.380350 0.684609 0.980444
O O10 0.519945 0.711776 0.073414
O O11 0.750000 0.325853 0.420846
O O12 0.625549 0.389442 0.467547
O O13 0.624252 0.285037 0.560515
O O14 0.618986 0.301176 0.272384
O O15 0.250000 0.928781 0.124700
O O16 0.750000 0.224167 0.624683
O O17 0.395311 0.290205 0.316073
O O18 0.372917 0.211132 0.101141
O O19 0.250000 0.184806 0.923623
#
# Coordination Sequence:
#
# PCOD9379070 Si02
#       8
#     8   8   8   8   8   8   8   8
#     4  10  21  37  56  80 110 145 187 230 274 330
#     4   9  18  35  57  82 109 142 185 229 273 324
#     4  11  22  37  54  79 111 147 181 229 276 331
#     4   9  19  34  51  77 110 146 186 226 272 325
#     4   9  19  34  57  83 109 144 186 231 272 324
#     4  10  21  34  51  77 111 150 186 223 271 323
#     4  10  22  35  54  82 114 141 177 222 283 331
#     4  10  19  36  59  84 110 141 179 224 276 336
#
# _framework density 18.512768999999999
#
# number of rings (size 3 to 8) (size 9 to 14) (size 15 to 20)
#    0.000    2.250    1.250    1.125    3.500    1.500 
#    0.000    1.875    0.000    0.000    0.000    0.000 
#    0.000    0.000    0.000    0.000    0.000    0.000 
#
# Total GULP energy -178309.088498 kJ/mol
# GULP energy per Si atom -5572.159016 kJ/mol
# Density = 1.847063 g / cm^3
# Si number density = 18.512769 Si / 1000 Ang^3
#
#
#
# Elastic Constant Matrix: (Units=GPa)
#
#
# Indices 1 2 3 4 5 6 
#
# 1 47.3812 29.3993 17.0503 0.0000 0.0000 0.0000
# 2 29.3993 148.2204 43.7470 0.0000 0.0000 0.0000
# 3 17.0503 43.7470 60.7495 0.0000 0.0001 0.0000
# 4 0.0000 0.0000 0.0000 25.2991 0.0000 0.0000
# 5 0.0000 0.0000 0.0001 0.0000 24.5198 0.0000
# 6 0.0000 0.0000 0.0000 0.0000 0.0000 25.1334
#
#
#
# Elastic Compliance Matrix: (Units=1/GPa)
#
#
# Indices 1 2 3 4 5 6 
#
# 1 0.024947 -0.003659 -0.004367 0.000000 0.000000 0.000000
# 2 -0.003659 0.009105 -0.005529 0.000000 0.000000 0.000000
# 3 -0.004367 -0.005529 0.021668 0.000000 0.000000 0.000000
# 4 0.000000 0.000000 0.000000 0.039527 0.000000 0.000000
# 5 0.000000 0.000000 0.000000 0.000000 0.040783 0.000000
# 6 0.000000 0.000000 0.000000 0.000000 0.000000 0.039788
#
#
# Mechanical properties :
#
#
# Convention : Reuss Voigt Hill
#
# Bulk Modulus (GPa) = 34.95336 48.52716 41.74026
# Shear Modulus (GPa) = 23.53321 26.06743 24.80032
#
# Velocity S-wave (km/s) = 3.56924 3.75651 3.66407
# Velocity P-wave (km/s) = 5.99230 6.71452 6.36367
#
# Compressibility (1/GPa) = 0.02860955
#
# Stress axis : x y z
#
# Youngs Moduli (GPa) = 40.08427 109.83563 46.15031
#
# Poissons Ratio (x) = 0.40194 0.20152
# Poissons Ratio (y) = 0.14669 0.25518
# Poissons Ratio (z) = 0.17503 0.60731
#
# Static dielectric constant tensor:
#      x y z
#    x 1.711140 0.000000 0.000000 
#    y 0.000000 1.652340 0.000000 
#    z 0.000000 0.000000 1.618030 
# 
# From -- ./inp_files/6125.got.cif
#   From: 2010.05.17/outbox.cif.g08.bks.cpg/sg46_4_cif.got.tgz:6125.got - 2010.06.03 19:58:25.
