data_PCOD9379586
_publ_section_title
;
Structure prediction by ZEFSAII (Michael W. Deem and Ramdas Pophale) SiO2 
 PCOD9379586
Probable space group: I M A 2
;
_chemical_formula_sum "Si O2"
_cell_formula_units_Z 48
_cell_length_a 30.691771
_cell_length_b 13.930788
_cell_length_c 4.910193
_cell_angle_alpha 90.000000
_cell_angle_beta 90.000000
_cell_angle_gamma 90.000000
_cell_volume 2099.404845
_symmetry_space_group_name_H-M "I M A 2"
_symmetry_group_IT_number 46
_symmetry_cell_setting 'orthorhombic'
loop_
_space_group_symop_operation_xyz
x,y,z
-x,-y,z
1/2-x,y,z
1/2+x,-y,z
1/2+x,1/2+y,1/2+z
1/2-x,1/2-y,1/2+z
-x,1/2+y,1/2+z
x,1/2-y,1/2+z
loop_
_atom_site_type_symbol
_atom_site_label
_atom_site_fract_x
_atom_site_fract_y
_atom_site_fract_z
Si Si1 0.529117 0.809719 0.186590
Si Si2 0.091785 0.523012 0.268879
Si Si3 0.000000 0.000000 0.488347
Si Si4 0.701098 0.684299 0.565133
Si Si5 0.156786 0.815406 0.604826
Si Si6 0.116146 0.411370 0.768882
Si Si7 0.250000 0.817460 0.734151
O O1 0.517675 0.720721 0.382718
O O2 0.581017 0.828007 0.212932
O O3 0.507962 0.906422 0.301543
O O4 0.098292 0.499147 0.584501
O O5 0.116583 0.618970 0.185191
O O6 0.114170 0.440104 0.083460
O O7 0.042039 0.518299 0.175245
O O8 0.750000 0.645723 0.604985
O O9 0.696804 0.721729 0.258075
O O10 0.663398 0.614547 0.661536
O O11 0.155834 0.721305 0.797012
O O12 0.203655 0.865351 0.667437
O O13 0.250000 0.777618 0.040195
#
# Coordination Sequence:
#
# PCOD9379586 Si02
#       7
#     8   8   4   8   8   8   4
#     4  11  23  40  66  91 119 168 212 253 325 386
#     4  11  24  40  61  86 124 168 197 266 328 365
#     4  10  26  44  62  94 134 158 216 284 316 378
#     4  10  20  36  60  87 119 157 197 247 301 358
#     4  10  20  38  61  87 117 158 208 255 313 387
#     4  11  22  40  59  89 125 158 209 252 308 381
#     4   8  16  32  56  82 112 146 192 250 304 370
#
# _framework density 22.863621999999999
#
# number of rings (size 3 to 8) (size 9 to 14) (size 15 to 20)
#    0.000    1.667    0.000    5.000    0.000    7.333 
#    3.000    0.000    0.000    0.000    0.000    0.000 
#    0.000    0.000    0.000    0.000    0.000    0.000 
#
# Total GULP energy -134269.076200 kJ/mol
# GULP energy per Si atom -5594.544842 kJ/mol
# Density = 2.281158 g / cm^3
# Si number density = 22.863622 Si / 1000 Ang^3
#
#
#
# Elastic Constant Matrix: (Units=GPa)
#
#
# Indices 1 2 3 4 5 6 
#
# 1 138.2565 41.9580 0.7637 -0.0001 0.0001 0.0000
# 2 41.9580 46.1600 0.3214 0.0000 0.0002 0.0000
# 3 0.7637 0.3214 72.9318 -0.0004 0.0007 -0.0004
# 4 -0.0001 0.0000 -0.0004 30.2202 0.0002 0.0000
# 5 0.0001 0.0002 0.0007 0.0002 24.5975 -0.0001
# 6 0.0000 0.0000 -0.0004 0.0000 -0.0001 25.7696
#
#
#
# Elastic Compliance Matrix: (Units=1/GPa)
#
#
# Indices 1 2 3 4 5 6 
#
# 1 0.009989 -0.009079 -0.000065 0.000000 0.000000 0.000000
# 2 -0.009079 0.029916 -0.000037 0.000000 0.000000 0.000000
# 3 -0.000065 -0.000037 0.013712 0.000000 0.000000 0.000000
# 4 0.000000 0.000000 0.000000 0.033090 0.000000 0.000000
# 5 0.000000 0.000000 0.000000 0.000000 0.040655 0.000000
# 6 0.000000 0.000000 0.000000 0.000000 0.000000 0.038805
#
#
# Mechanical properties :
#
#
# Convention : Reuss Voigt Hill
#
# Bulk Modulus (GPa) = 28.36328 38.15938 33.26133
# Shear Modulus (GPa) = 25.47380 30.40448 27.93914
#
# Velocity S-wave (km/s) = 3.34153 3.65062 3.49949
# Velocity P-wave (km/s) = 5.22686 5.87330 5.55949
#
# Compressibility (1/GPa) = 0.03525685
#
# Stress axis : x y z
#
# Youngs Moduli (GPa) = 100.11494 33.42654 72.92729
#
# Poissons Ratio (x) = 0.30347 0.00471
# Poissons Ratio (y) = 0.90892 0.00268
# Poissons Ratio (z) = 0.00647 0.00123
#
# Static dielectric constant tensor:
#      x y z
#    x 1.873300 0.000000 0.000000 
#    y 0.000000 1.851200 0.000000 
#    z 0.000000 0.000000 1.799260 
# 
# From -- ./inp_files/2715.got.cif
#   From: 2010.05.17/outbox.cif.g08.bks.cpg/sg46_2_cif.got.tgz:2715.got - 2010.06.03 19:58:25.
