data_PCOD9379437
_publ_section_title
;
Structure prediction by ZEFSAII (Michael W. Deem and Ramdas Pophale) SiO2 
 PCOD9379437
Probable space group: I M A 2
;
_chemical_formula_sum "Si O2"
_cell_formula_units_Z 64
_cell_length_a 9.013920
_cell_length_b 33.387318
_cell_length_c 11.870439
_cell_angle_alpha 90.000000
_cell_angle_beta 90.000000
_cell_angle_gamma 90.000000
_cell_volume 3572.415899
_symmetry_space_group_name_H-M "I M A 2"
_symmetry_group_IT_number 46
_symmetry_cell_setting 'orthorhombic'
loop_
_space_group_symop_operation_xyz
x,y,z
-x,-y,z
1/2-x,y,z
1/2+x,-y,z
1/2+x,1/2+y,1/2+z
1/2-x,1/2-y,1/2+z
-x,1/2+y,1/2+z
x,1/2-y,1/2+z
loop_
_atom_site_type_symbol
_atom_site_label
_atom_site_fract_x
_atom_site_fract_y
_atom_site_fract_z
Si Si1 0.419977 0.895511 0.476350
Si Si2 0.928294 0.125080 0.910975
Si Si3 0.573855 0.725279 0.027022
Si Si4 0.070947 0.956738 0.286641
Si Si5 0.927100 0.647892 0.174177
Si Si6 0.582115 0.184764 0.327782
Si Si7 0.574394 0.817028 0.093695
Si Si8 0.571487 0.043632 0.030030
O O1 0.250000 0.905083 0.511291
O O2 0.477308 0.928721 0.389403
O O3 0.519215 0.885098 0.583571
O O4 0.413468 0.855311 0.402100
O O5 0.750000 0.126704 0.907331
O O6 0.971505 0.079557 0.946267
O O7 0.995378 0.138991 0.792348
O O8 0.988458 0.154733 0.007094
O O9 0.750000 0.720183 0.006457
O O10 0.532222 0.691246 0.119172
O O11 0.547346 0.770168 0.067581
O O12 0.488204 0.717291 0.911116
O O13 0.250000 0.958449 0.291006
O O14 0.032567 0.943352 0.158914
O O15 0.000000 0.000000 0.300451
O O16 0.750000 0.647110 0.187696
O O17 0.750000 0.195258 0.294145
O O18 0.483530 0.176596 0.219425
O O19 0.750000 0.824484 0.084575
O O20 0.750000 0.039204 0.025470
O O21 0.500000 0.000000 0.008975
#
# Coordination Sequence:
#
# PCOD9379437 Si02
#       8
#     8   8   8   8   8   8   8   8
#     4   9  18  35  56  77 107 144 178 221 275 329
#     4  11  23  39  58  84 115 149 191 240 287 339
#     4   9  21  39  56  76 108 147 184 227 281 334
#     4   9  17  31  53  81 111 141 174 220 278 332
#     4  10  21  38  58  80 108 147 191 234 281 337
#     4  10  20  35  56  81 106 136 180 228 275 326
#     4  11  23  37  56  81 112 149 186 229 280 337
#     4   9  19  36  58  84 116 149 184 231 287 340
#
# _framework density 17.915047999999999
#
# number of rings (size 3 to 8) (size 9 to 14) (size 15 to 20)
#    0.000    2.250    0.000    2.250    1.750    5.500 
#    0.000    3.125    0.000    0.000    0.000    0.000 
#    0.000    0.000    0.000    0.000    0.000    0.000 
#
# Total GULP energy -178526.917794 kJ/mol
# GULP energy per Si atom -5578.966181 kJ/mol
# Density = 1.787427 g / cm^3
# Si number density = 17.915048 Si / 1000 Ang^3
#
#
#
# Elastic Constant Matrix: (Units=GPa)
#
#
# Indices 1 2 3 4 5 6 
#
# 1 46.5619 38.5824 49.9073 0.0001 0.0000 0.0000
# 2 38.5824 67.7086 44.3848 0.0009 0.0003 0.0001
# 3 49.9073 44.3848 113.4463 0.0017 0.0004 0.0001
# 4 0.0001 0.0009 0.0017 8.8943 0.0003 0.0001
# 5 0.0000 0.0003 0.0004 0.0003 32.3455 0.0002
# 6 0.0000 0.0001 0.0001 0.0001 0.0002 29.1872
#
#
#
# Elastic Compliance Matrix: (Units=1/GPa)
#
#
# Indices 1 2 3 4 5 6 
#
# 1 0.057494 -0.021763 -0.016778 0.000005 0.000000 0.000000
# 2 -0.021763 0.028102 -0.001420 -0.000002 0.000000 0.000000
# 3 -0.016778 -0.001420 0.016751 -0.000003 0.000000 0.000000
# 4 0.000005 -0.000002 -0.000003 0.112431 -0.000001 0.000000
# 5 0.000000 0.000000 0.000000 -0.000001 0.030916 0.000000
# 6 0.000000 0.000000 0.000000 0.000000 0.000000 0.034262
#
#
# Mechanical properties :
#
#
# Convention : Reuss Voigt Hill
#
# Bulk Modulus (GPa) = 44.59597 54.82952 49.71275
# Shear Modulus (GPa) = 13.61084 20.40823 17.00953
#
# Velocity S-wave (km/s) = 2.75933 3.37882 3.08467
# Velocity P-wave (km/s) = 5.92444 6.77448 6.36367
#
# Compressibility (1/GPa) = 0.02242355
#
# Stress axis : x y z
#
# Youngs Moduli (GPa) = 17.39314 35.58502 59.69633
#
# Poissons Ratio (x) = 0.77445 1.00159
# Poissons Ratio (y) = 0.37853 0.08479
# Poissons Ratio (z) = 0.29182 0.05055
#
# Static dielectric constant tensor:
#      x y z
#    x 1.611410 0.000000 0.000000 
#    y 0.000000 1.610920 0.000000 
#    z 0.000000 0.000000 1.596920 
# 
# From -- ./inp_files/9736.got.cif
#   From: 2010.05.17/outbox.cif.g08.bks.cpg/sg46_5_cif.got.tgz:9736.got - 2010.06.03 19:58:25.
