data_PCOD9379891
_publ_section_title
;
Structure prediction by ZEFSAII (Michael W. Deem and Ramdas Pophale) SiO2 
 PCOD9379891
Probable space group: I M A 2
;
_chemical_formula_sum "Si O2"
_cell_formula_units_Z 56
_cell_length_a 19.316302
_cell_length_b 15.908254
_cell_length_c 8.115235
_cell_angle_alpha 90.000000
_cell_angle_beta 90.000000
_cell_angle_gamma 90.000000
_cell_volume 2493.719515
_symmetry_space_group_name_H-M "I M A 2"
_symmetry_group_IT_number 46
_symmetry_cell_setting 'orthorhombic'
loop_
_space_group_symop_operation_xyz
x,y,z
-x,-y,z
1/2-x,y,z
1/2+x,-y,z
1/2+x,1/2+y,1/2+z
1/2-x,1/2-y,1/2+z
-x,1/2+y,1/2+z
x,1/2-y,1/2+z
loop_
_atom_site_type_symbol
_atom_site_label
_atom_site_fract_x
_atom_site_fract_y
_atom_site_fract_z
Si Si1 0.750000 0.218944 0.488961
Si Si2 0.609328 0.173943 0.684613
Si Si3 0.393411 0.172625 0.197263
Si Si4 0.169721 0.509102 0.183171
Si Si5 0.169251 0.332982 0.350135
Si Si6 0.250000 0.616587 0.645865
Si Si7 0.368463 0.982462 0.298538
Si Si8 0.959069 0.326776 0.853963
O O1 0.680901 0.192203 0.586954
O O2 0.750000 0.320281 0.493193
O O3 0.750000 0.175988 0.310505
O O4 0.592674 0.251774 0.800967
O O5 0.547431 0.169564 0.551001
O O6 0.621748 0.081904 0.760535
O O7 0.341539 0.245271 0.256846
O O8 0.379051 0.079164 0.260797
O O9 0.468264 0.193161 0.271712
O O10 0.383366 0.168366 0.002210
O O11 0.250000 0.523438 0.225108
O O12 0.153340 0.414440 0.238421
O O13 0.160588 0.519124 0.985751
O O14 0.250000 0.340039 0.403580
O O15 0.184461 0.557221 0.667974
O O16 0.432796 0.918315 0.295726
#
# Coordination Sequence:
#
# PCOD9379891 Si02
#       8
#     4   8   8   8   8   4   8   8
#     4  12  18  40  62  99 141 170 220 267 319 389
#     4  11  20  38  65  97 135 178 214 264 326 398
#     4  12  26  46  65  91 132 172 229 288 335 409
#     4  10  20  40  66  99 133 162 216 279 339 397
#     4  11  26  45  69  98 123 173 229 292 348 386
#     4  12  22  38  66 105 135 180 220 277 343 387
#     4  11  22  40  67  96 133 175 221 271 337 403
#     4  11  24  41  63  94 134 181 216 261 341 406
#
# _framework density 22.456415
#
# number of rings (size 3 to 8) (size 9 to 14) (size 15 to 20)
#    0.000    0.857    5.714    2.571    2.000    2.286 
#    2.571    3.571    0.000    0.000    0.000    0.000 
#    0.000    0.000    0.000    0.000    0.000    0.000 
#
# Total GULP energy -156611.749112 kJ/mol
# GULP energy per Si atom -5593.276754 kJ/mol
# Density = 2.240530 g / cm^3
# Si number density = 22.456415 Si / 1000 Ang^3
#
#
#
# Elastic Constant Matrix: (Units=GPa)
#
#
# Indices 1 2 3 4 5 6 
#
# 1 70.3728 25.7999 10.0429 0.0000 0.0000 0.0000
# 2 25.7999 188.5935 31.3449 0.0000 0.0000 0.0000
# 3 10.0429 31.3449 36.5449 0.0000 0.0000 0.0000
# 4 0.0000 0.0000 0.0000 45.2239 0.0000 0.0000
# 5 0.0000 0.0000 0.0000 0.0000 -50.5563 0.0000
# 6 0.0000 0.0000 0.0000 0.0000 0.0000 27.6332
#
#
#
# Elastic Compliance Matrix: (Units=1/GPa)
#
#
# Indices 1 2 3 4 5 6 
#
# 1 0.015201 -0.001615 -0.002792 0.000000 0.000000 0.000000
# 2 -0.001615 0.006356 -0.005007 0.000000 0.000000 0.000000
# 3 -0.002792 -0.005007 0.032426 0.000000 0.000000 0.000000
# 4 0.000000 0.000000 0.000000 0.022112 0.000000 0.000000
# 5 0.000000 0.000000 0.000000 0.000000 -0.019780 0.000000
# 6 0.000000 0.000000 0.000000 0.000000 0.000000 0.036188
#
#
# Mechanical properties :
#
#
# Convention : Reuss Voigt Hill
#
# Bulk Modulus (GPa) = 28.44710 47.76518 38.10614
# Shear Modulus (GPa) = 40.63410 19.68172 30.15791
#
# Velocity S-wave (km/s) = 4.25840 2.96369 3.66861
# Velocity P-wave (km/s) = 6.07238 5.74696 5.91191
#
# Compressibility (1/GPa) = 0.03515297
#
# Stress axis : x y z
#
# Youngs Moduli (GPa) = 65.78640 157.34032 30.83979
#
# Poissons Ratio (x) = 0.25418 0.08609
# Poissons Ratio (y) = 0.10628 0.15443
# Poissons Ratio (z) = 0.18365 0.78786
#
# Static dielectric constant tensor:
#      x y z
#    x 1.876640 0.000000 0.000000 
#    y 0.000000 1.871670 0.000000 
#    z 0.000000 0.000000 1.859820 
# 
# From -- ./inp_files/7446.got.cif
#   From: 2010.05.17/outbox.cif.g08.bks.cpg/sg46_4_cif.got.tgz:7446.got - 2010.06.03 19:58:25.
