data_PCOD9379961
_publ_section_title
;
Structure prediction by ZEFSAII (Michael W. Deem and Ramdas Pophale) SiO2 
 PCOD9379961
Probable space group: I M A 2
;
_chemical_formula_sum "Si O2"
_cell_formula_units_Z 64
_cell_length_a 7.635228
_cell_length_b 17.880588
_cell_length_c 21.356544
_cell_angle_alpha 90.000000
_cell_angle_beta 90.000000
_cell_angle_gamma 90.000000
_cell_volume 2915.645920
_symmetry_space_group_name_H-M "I M A 2"
_symmetry_group_IT_number 46
_symmetry_cell_setting 'orthorhombic'
loop_
_space_group_symop_operation_xyz
x,y,z
-x,-y,z
1/2-x,y,z
1/2+x,-y,z
1/2+x,1/2+y,1/2+z
1/2-x,1/2-y,1/2+z
-x,1/2+y,1/2+z
x,1/2-y,1/2+z
loop_
_atom_site_type_symbol
_atom_site_label
_atom_site_fract_x
_atom_site_fract_y
_atom_site_fract_z
Si Si1 0.961477 0.792387 0.025050
Si Si2 0.458595 0.221226 0.161843
Si Si3 0.960438 0.080940 0.391741
Si Si4 0.457525 0.081525 0.931683
Si Si5 0.541479 0.375341 0.294068
Si Si6 0.042523 0.882841 0.526540
Si Si7 0.049910 0.606362 0.161930
Si Si8 0.540492 0.294347 0.797366
O O1 0.750000 0.790705 0.020842
O O2 0.007780 0.816281 0.096102
O O3 0.022633 0.706880 0.019065
O O4 0.029336 0.849727 0.972933
O O5 0.250000 0.234849 0.160603
O O6 0.549539 0.302592 0.163673
O O7 0.503584 0.180579 0.226283
O O8 0.750000 0.089134 0.395692
O O9 0.032073 0.083916 0.462609
O O10 0.028202 0.148584 0.349109
O O11 0.000000 0.000000 0.363937
O O12 0.250000 0.089421 0.930663
O O13 0.517284 0.084899 0.859852
O O14 0.500000 0.000000 0.958528
O O15 0.750000 0.369844 0.283219
O O16 0.468596 0.411773 0.229872
O O17 0.471277 0.290540 0.302540
O O18 0.250000 0.898506 0.529374
O O19 0.967387 0.909224 0.593748
O O20 0.250000 0.578263 0.160506
O O21 0.750000 0.290383 0.805355
#
# Coordination Sequence:
#
# PCOD9379961 Si02
#       8
#     8   8   8   8   8   8   8   8
#     4   9  19  34  52  76 102 126 159 205 250 292
#     4   9  16  28  49  76 102 125 156 202 249 290
#     4  10  21  35  50  71 101 135 170 206 243 287
#     4  11  23  37  51  70  99 133 168 205 246 293
#     4   9  17  32  54  77 100 126 159 203 249 292
#     4   9  17  32  55  78  99 129 167 202 241 292
#     4   8  15  29  50  75 102 129 159 198 243 292
#     4   9  18  33  52  75 102 131 164 201 243 294
#
# _framework density 21.950538999999999
#
# number of rings (size 3 to 8) (size 9 to 14) (size 15 to 20)
#    0.000    2.750    0.000    2.250    0.000    5.500 
#    0.000    1.250    0.000    4.500    0.000    0.000 
#    0.000    0.000    0.000    0.000    0.000    0.000 
#
# Total GULP energy -178489.832162 kJ/mol
# GULP energy per Si atom -5577.807255 kJ/mol
# Density = 2.190058 g / cm^3
# Si number density = 21.950539 Si / 1000 Ang^3
#
#
#
# Elastic Constant Matrix: (Units=GPa)
#
#
# Indices 1 2 3 4 5 6 
#
# 1 48.6521 -3.5628 0.9102 0.0000 0.0000 0.0000
# 2 -3.5628 83.7379 47.8110 0.0000 0.0000 0.0000
# 3 0.9102 47.8110 127.1539 0.0000 0.0000 0.0000
# 4 0.0000 0.0000 0.0000 -25.9441 0.0000 0.0000
# 5 0.0000 0.0000 0.0000 0.0000 19.0486 0.0000
# 6 0.0000 0.0000 0.0000 0.0000 0.0000 13.6140
#
#
#
# Elastic Compliance Matrix: (Units=1/GPa)
#
#
# Indices 1 2 3 4 5 6 
#
# 1 0.020655 0.001227 -0.000609 0.000000 0.000000 0.000000
# 2 0.001227 0.015280 -0.005754 0.000000 0.000000 0.000000
# 3 -0.000609 -0.005754 0.010032 0.000000 0.000000 0.000000
# 4 0.000000 0.000000 0.000000 -0.038544 0.000000 0.000000
# 5 0.000000 0.000000 0.000000 0.000000 0.052497 0.000000
# 6 0.000000 0.000000 0.000000 0.000000 0.000000 0.073454
#
#
# Mechanical properties :
#
#
# Convention : Reuss Voigt Hill
#
# Bulk Modulus (GPa) = 28.01575 38.87341 33.44458
# Shear Modulus (GPa) = 32.14510 15.63608 23.89059
#
# Velocity S-wave (km/s) = 3.83094 2.67185 3.30264
# Velocity P-wave (km/s) = 5.68850 5.22172 5.46010
#
# Compressibility (1/GPa) = 0.03569421
#
# Stress axis : x y z
#
# Youngs Moduli (GPa) = 48.41373 65.44705 99.67705
#
# Poissons Ratio (x) = -0.08027 0.06071
# Poissons Ratio (y) = -0.05938 0.57354
# Poissons Ratio (z) = 0.02949 0.37658
#
# Static dielectric constant tensor:
#      x y z
#    x 1.847960 0.000000 0.000000 
#    y 0.000000 1.765000 0.000000 
#    z 0.000000 0.000000 1.869700 
# 
# From -- ./inp_files/21317.got.cif
#   From: 2010.05.17/outbox.cif.g08.bks.cpg/sg46_11_cif.got.tgz:21317.got - 2010.06.03 19:58:25.
