data_PCOD9379878
_publ_section_title
;
Structure prediction by ZEFSAII (Michael W. Deem and Ramdas Pophale) SiO2 
 PCOD9379878
Probable space group: I M A 2
;
_chemical_formula_sum "Si O2"
_cell_formula_units_Z 64
_cell_length_a 22.172127
_cell_length_b 15.034986
_cell_length_c 9.613411
_cell_angle_alpha 90.000000
_cell_angle_beta 90.000000
_cell_angle_gamma 90.000000
_cell_volume 3204.703802
_symmetry_space_group_name_H-M "I M A 2"
_symmetry_group_IT_number 46
_symmetry_cell_setting 'orthorhombic'
loop_
_space_group_symop_operation_xyz
x,y,z
-x,-y,z
1/2-x,y,z
1/2+x,-y,z
1/2+x,1/2+y,1/2+z
1/2-x,1/2-y,1/2+z
-x,1/2+y,1/2+z
x,1/2-y,1/2+z
loop_
_atom_site_type_symbol
_atom_site_label
_atom_site_fract_x
_atom_site_fract_y
_atom_site_fract_z
Si Si1 0.966065 0.877502 0.909800
Si Si2 0.493218 0.105507 0.588192
Si Si3 0.619875 0.176370 0.661644
Si Si4 0.820773 0.818067 0.231736
Si Si5 0.613700 0.785455 0.504612
Si Si6 0.678960 0.320709 0.865221
Si Si7 0.406163 0.930244 0.929199
Si Si8 0.321214 0.520810 0.669722
O O1 0.973171 0.874771 0.745123
O O2 0.035001 0.870672 0.964027
O O3 0.934997 0.971984 0.935425
O O4 0.923678 0.801633 0.964094
O O5 0.555552 0.160899 0.582556
O O6 0.437170 0.139079 0.499110
O O7 0.500000 0.000000 0.569323
O O8 0.637148 0.256887 0.767959
O O9 0.664456 0.182334 0.529662
O O10 0.618048 0.095160 0.775440
O O11 0.750000 0.810421 0.203955
O O12 0.835309 0.806714 0.393232
O O13 0.855966 0.740966 0.149806
O O14 0.840186 0.917924 0.186469
O O15 0.750000 0.297776 0.843226
O O16 0.669080 0.420749 0.807940
O O17 0.355089 0.929484 0.044666
O O18 0.250000 0.520480 0.640887
#
# Coordination Sequence:
#
# PCOD9379878 Si02
#       8
#     8   8   8   8   8   8   8   8
#     4  10  20  40  63  95 131 167 215 267 324 392
#     4  11  24  43  64  99 136 169 216 276 332 396
#     4  11  24  40  69  94 131 173 220 266 328 391
#     4  11  25  44  67  96 131 172 223 272 325 393
#     4  12  24  42  70  96 131 174 218 271 336 389
#     4  11  25  43  63  93 135 177 224 271 323 392
#     4  10  20  40  66  91 128 169 208 270 328 388
#     4  10  23  42  63  93 132 171 219 278 327 389
#
# _framework density 19.970645000000001
#
# number of rings (size 3 to 8) (size 9 to 14) (size 15 to 20)
#    0.000    1.250    5.000    1.500    7.000    2.000 
#    0.000    0.000    0.000    0.000    0.000    0.000 
#    0.000    0.000    0.000    0.000    0.000    0.000 
#
# Total GULP energy -178370.385233 kJ/mol
# GULP energy per Si atom -5574.074539 kJ/mol
# Density = 1.992519 g / cm^3
# Si number density = 19.970645 Si / 1000 Ang^3
#
#
#
# Elastic Constant Matrix: (Units=GPa)
#
#
# Indices 1 2 3 4 5 6 
#
# 1 65.0152 36.7834 18.2303 0.0000 0.0000 0.0000
# 2 36.7834 106.6697 21.3474 0.0000 0.0000 0.0000
# 3 18.2303 21.3474 73.6127 0.0000 0.0000 0.0000
# 4 0.0000 0.0000 0.0000 24.1492 0.0000 0.0000
# 5 0.0000 0.0000 0.0000 0.0000 20.7446 0.0000
# 6 0.0000 0.0000 0.0000 0.0000 0.0000 17.9362
#
#
#
# Elastic Compliance Matrix: (Units=1/GPa)
#
#
# Indices 1 2 3 4 5 6 
#
# 1 0.019752 -0.006192 -0.003096 0.000000 0.000000 0.000000
# 2 -0.006192 0.011893 -0.001916 0.000000 0.000000 0.000000
# 3 -0.003096 -0.001916 0.014907 0.000000 0.000000 0.000000
# 4 0.000000 0.000000 0.000000 0.041409 0.000000 0.000000
# 5 0.000000 0.000000 0.000000 0.000000 0.048205 0.000000
# 6 0.000000 0.000000 0.000000 0.000000 0.000000 0.055753
#
#
# Mechanical properties :
#
#
# Convention : Reuss Voigt Hill
#
# Bulk Modulus (GPa) = 41.41550 44.22443 42.81996
# Shear Modulus (GPa) = 22.48454 23.82845 23.15649
#
# Velocity S-wave (km/s) = 3.35905 3.45798 3.40888
# Velocity P-wave (km/s) = 5.98561 6.17546 6.08128
#
# Compressibility (1/GPa) = 0.02414555
#
# Stress axis : x y z
#
# Youngs Moduli (GPa) = 50.62735 84.08184 67.08310
#
# Poissons Ratio (x) = 0.52060 0.20770
# Poissons Ratio (y) = 0.31347 0.12850
# Poissons Ratio (z) = 0.15675 0.16107
#
# Static dielectric constant tensor:
#      x y z
#    x 1.747340 0.000000 0.000000 
#    y 0.000000 1.735520 0.000000 
#    z 0.000000 0.000000 1.679760 
# 
# From -- ./inp_files/7972.got.cif
#   From: 2010.05.17/outbox.cif.g08.bks.cpg/sg46_4_cif.got.tgz:7972.got - 2010.06.03 19:58:25.
