data_PCOD9379258
_publ_section_title
;
Structure prediction by ZEFSAII (Michael W. Deem and Ramdas Pophale) SiO2 
 PCOD9379258
Probable space group: I M A 2
;
_chemical_formula_sum "Si O2"
_cell_formula_units_Z 56
_cell_length_a 8.590863
_cell_length_b 20.894558
_cell_length_c 15.860073
_cell_angle_alpha 90.000000
_cell_angle_beta 90.000000
_cell_angle_gamma 90.000000
_cell_volume 2846.919347
_symmetry_space_group_name_H-M "I M A 2"
_symmetry_group_IT_number 46
_symmetry_cell_setting 'orthorhombic'
loop_
_space_group_symop_operation_xyz
x,y,z
-x,-y,z
1/2-x,y,z
1/2+x,-y,z
1/2+x,1/2+y,1/2+z
1/2-x,1/2-y,1/2+z
-x,1/2+y,1/2+z
x,1/2-y,1/2+z
loop_
_atom_site_type_symbol
_atom_site_label
_atom_site_fract_x
_atom_site_fract_y
_atom_site_fract_z
Si Si1 0.430929 0.066308 0.285810
Si Si2 0.433504 0.428109 0.601934
Si Si3 0.933553 0.194096 0.020113
Si Si4 0.562421 0.212209 0.675187
Si Si5 0.070063 0.873146 0.439863
Si Si6 0.567885 0.747890 0.356836
Si Si7 0.562319 0.428778 0.119814
O O1 0.250000 0.065534 0.312946
O O2 0.440001 0.102425 0.197300
O O3 0.547395 0.081943 0.360237
O O4 0.500000 0.000000 0.255653
O O5 0.500000 0.500000 0.590880
O O6 0.250000 0.429676 0.580847
O O7 0.530415 0.377042 0.550248
O O8 0.750000 0.204935 0.010975
O O9 0.988853 0.245918 0.092466
O O10 0.010638 0.199464 0.928285
O O11 0.750000 0.213207 0.672454
O O12 0.511375 0.240593 0.765485
O O13 0.513890 0.136801 0.668637
O O14 0.250000 0.854180 0.452421
O O15 0.017960 0.909860 0.523492
O O16 0.972442 0.813421 0.406252
O O17 0.750000 0.743705 0.342530
O O18 0.500000 0.500000 0.141578
O O19 0.750000 0.432599 0.124228
#
# Coordination Sequence:
#
# PCOD9379258 Si02
#       7
#     8   8   8   8   8   8   8
#     4  10  20  33  51  81 118 157 197 241 298 363
#     4  10  21  37  57  85 121 159 203 251 308 373
#     4  11  22  41  66  90 121 162 207 258 315 377
#     4  10  22  43  66  90 125 169 216 261 319 388
#     4  11  21  37  58  85 120 160 206 254 313 380
#     4  12  25  39  61  93 124 157 206 263 320 381
#     4  10  22  40  62  90 124 167 214 263 320 382
#
# _framework density 19.670383999999999
#
# number of rings (size 3 to 8) (size 9 to 14) (size 15 to 20)
#    0.000    1.429    1.429    4.286    0.000    8.000 
#    0.000    0.714    0.000    1.714    0.000    0.000 
#    0.000    0.000    0.000    0.000    0.000    0.000 
#
# Total GULP energy -155922.688437 kJ/mol
# GULP energy per Si atom -5568.667444 kJ/mol
# Density = 1.962561 g / cm^3
# Si number density = 19.670384 Si / 1000 Ang^3
#
#
#
# Elastic Constant Matrix: (Units=GPa)
#
#
# Indices 1 2 3 4 5 6 
#
# 1 48.4445 8.6761 15.4478 0.0000 0.0000 0.0000
# 2 8.6761 89.2141 22.5554 0.0000 0.0000 0.0000
# 3 15.4478 22.5554 61.3730 0.0000 0.0000 0.0000
# 4 0.0000 0.0000 0.0000 30.1840 0.0000 0.0000
# 5 0.0000 0.0000 0.0000 0.0000 23.2214 0.0000
# 6 0.0000 0.0000 0.0000 0.0000 0.0000 20.8572
#
#
#
# Elastic Compliance Matrix: (Units=1/GPa)
#
#
# Indices 1 2 3 4 5 6 
#
# 1 0.022500 -0.000834 -0.005357 0.000000 0.000000 0.000000
# 2 -0.000834 0.012388 -0.004343 0.000000 0.000000 0.000000
# 3 -0.005357 -0.004343 0.019238 0.000000 0.000000 0.000000
# 4 0.000000 0.000000 0.000000 0.033130 0.000000 0.000000
# 5 0.000000 0.000000 0.000000 0.000000 0.043064 0.000000
# 6 0.000000 0.000000 0.000000 0.000000 0.000000 0.047945
#
#
# Mechanical properties :
#
#
# Convention : Reuss Voigt Hill
#
# Bulk Modulus (GPa) = 30.24900 32.48781 31.36840
# Shear Modulus (GPa) = 23.76974 25.00934 24.38954
#
# Velocity S-wave (km/s) = 3.47998 3.56957 3.52506
# Velocity P-wave (km/s) = 5.61768 5.79146 5.70523
#
# Compressibility (1/GPa) = 0.03305894
#
# Stress axis : x y z
#
# Youngs Moduli (GPa) = 44.44508 80.72284 51.97988
#
# Poissons Ratio (x) = 0.06731 0.27845
# Poissons Ratio (y) = 0.03706 0.22574
# Poissons Ratio (z) = 0.23808 0.35057
#
# Static dielectric constant tensor:
#      x y z
#    x 1.689500 0.000000 0.000000 
#    y 0.000000 1.783650 0.000000 
#    z 0.000000 0.000000 1.998380 
# 
# From -- ./inp_files/14148.got.cif
#   From: 2010.05.17/outbox.cif.g08.bks.cpg/sg46_8_cif.got.tgz:14148.got - 2010.06.03 19:58:25.
