data_PCOD9379853
_publ_section_title
;
Structure prediction by ZEFSAII (Michael W. Deem and Ramdas Pophale) SiO2 
 PCOD9379853
Probable space group: I M A 2
;
_chemical_formula_sum "Si O2"
_cell_formula_units_Z 40
_cell_length_a 10.187739
_cell_length_b 8.892003
_cell_length_c 23.627773
_cell_angle_alpha 90.000000
_cell_angle_beta 90.000000
_cell_angle_gamma 90.000000
_cell_volume 2140.425915
_symmetry_space_group_name_H-M "I M A 2"
_symmetry_group_IT_number 46
_symmetry_cell_setting 'orthorhombic'
loop_
_space_group_symop_operation_xyz
x,y,z
-x,-y,z
1/2-x,y,z
1/2+x,-y,z
1/2+x,1/2+y,1/2+z
1/2-x,1/2-y,1/2+z
-x,1/2+y,1/2+z
x,1/2-y,1/2+z
loop_
_atom_site_type_symbol
_atom_site_label
_atom_site_fract_x
_atom_site_fract_y
_atom_site_fract_z
Si Si1 0.992698 0.181534 0.279590
Si Si2 0.995604 0.178940 0.541585
Si Si3 0.750000 0.815889 0.838655
Si Si4 0.411163 0.650058 0.654183
Si Si5 0.250000 0.824817 0.844138
Si Si6 0.750000 0.812981 0.466674
Si Si7 0.250000 0.674567 0.963809
O O1 0.125050 0.250599 0.305003
O O2 0.956013 0.218249 0.214517
O O3 0.876136 0.249604 0.316079
O O4 0.000000 0.000000 0.284187
O O5 0.960379 0.253386 0.601115
O O6 0.876627 0.212427 0.499983
O O7 0.125747 0.223215 0.506792
O O8 0.000000 0.000000 0.550453
O O9 0.750000 0.764666 0.904926
O O10 0.750000 0.996318 0.837220
O O11 0.500000 0.500000 0.650200
O O12 0.250000 0.629463 0.653656
O O13 0.250000 0.772811 0.908379
O O14 0.750000 0.993514 0.454001
#
# Coordination Sequence:
#
# PCOD9379853 Si02
#       7
#     8   8   4   8   4   4   4
#     4  11  24  44  68  92 130 181 221 262 329 409
#     4  10  22  40  66  95 130 171 218 265 324 391
#     4  12  26  41  66 103 135 164 222 280 335 384
#     4  11  25  44  68  97 130 172 223 272 328 390
#     4  12  24  41  66  99 133 168 218 284 335 378
#     4  10  22  39  62  99 129 176 222 256 323 412
#     4  10  20  39  64  89 131 180 218 260 323 404
#
# _framework density 18.68787
#
# number of rings (size 3 to 8) (size 9 to 14) (size 15 to 20)
#    0.000    1.200    2.000    3.600    5.600    4.800 
#    0.000    0.000    0.000    0.000    0.000    0.000 
#    0.000    0.000    0.000    0.000    0.000    0.000 
#
# Total GULP energy -111639.738077 kJ/mol
# GULP energy per Si atom -5581.986904 kJ/mol
# Density = 1.864534 g / cm^3
# Si number density = 18.687870 Si / 1000 Ang^3
#
#
#
# Elastic Constant Matrix: (Units=GPa)
#
#
# Indices 1 2 3 4 5 6 
#
# 1 217.5399 62.8092 105.3701 0.0000 0.0000 0.0000
# 2 62.8092 81.8355 87.6357 0.0000 0.0000 0.0000
# 3 105.3701 87.6357 193.9521 0.0000 0.0000 0.0000
# 4 0.0000 0.0000 0.0000 37.2006 0.0000 0.0000
# 5 0.0000 0.0000 0.0000 0.0000 -345.6775 0.0000
# 6 0.0000 0.0000 0.0000 0.0000 0.0000 19.8357
#
#
#
# Elastic Compliance Matrix: (Units=1/GPa)
#
#
# Indices 1 2 3 4 5 6 
#
# 1 0.006459 -0.002324 -0.002459 0.000000 0.000000 0.000000
# 2 -0.002324 0.024512 -0.009813 0.000000 0.000000 0.000000
# 3 -0.002459 -0.009813 0.010926 0.000000 0.000000 0.000000
# 4 0.000000 0.000000 0.000000 0.026881 0.000000 0.000000
# 5 0.000000 0.000000 0.000000 0.000000 -0.002893 0.000000
# 6 0.000000 0.000000 0.000000 0.000000 0.000000 0.050414
#
#
# Mechanical properties :
#
#
# Convention : Reuss Voigt Hill
#
# Bulk Modulus (GPa) = 78.71112 111.66194 95.18653
# Shear Modulus (GPa) = 33.39455 -41.89408 -4.24977
#
# Velocity S-wave (km/s) = 4.23184 -4.73988 -1.50964
# Velocity P-wave (km/s) = 8.12946 5.47042 6.92870
#
# Compressibility (1/GPa) = 0.01270469
#
# Stress axis : x y z
#
# Youngs Moduli (GPa) = 154.82563 40.79688 91.52840
#
# Poissons Ratio (x) = 0.09482 0.22505
# Poissons Ratio (y) = 0.35983 0.89815
# Poissons Ratio (z) = 0.38069 0.40033
#
# Static dielectric constant tensor:
#      x y z
#    x 1.764070 0.000000 0.000000 
#    y 0.000000 1.650920 0.000000 
#    z 0.000000 0.000000 1.655230 
# 
# From -- ./inp_files/22787.got.cif
#   From: 2010.05.17/outbox.cif.g08.bks.cpg/sg46_12_cif.got.tgz:22787.got - 2010.06.03 19:58:25.
