data_PCOD9379384
_publ_section_title
;
Structure prediction by ZEFSAII (Michael W. Deem and Ramdas Pophale) SiO2 
 PCOD9379384
Probable space group: I M A 2
;
_chemical_formula_sum "Si O2"
_cell_formula_units_Z 48
_cell_length_a 23.392410
_cell_length_b 14.979349
_cell_length_c 5.280296
_cell_angle_alpha 90.000000
_cell_angle_beta 90.000000
_cell_angle_gamma 90.000000
_cell_volume 1850.231947
_symmetry_space_group_name_H-M "I M A 2"
_symmetry_group_IT_number 46
_symmetry_cell_setting 'orthorhombic'
loop_
_space_group_symop_operation_xyz
x,y,z
-x,-y,z
1/2-x,y,z
1/2+x,-y,z
1/2+x,1/2+y,1/2+z
1/2-x,1/2-y,1/2+z
-x,1/2+y,1/2+z
x,1/2-y,1/2+z
loop_
_atom_site_type_symbol
_atom_site_label
_atom_site_fract_x
_atom_site_fract_y
_atom_site_fract_z
Si Si1 0.135553 0.056847 0.121930
Si Si2 0.250000 0.496412 0.832651
Si Si3 0.817789 0.694652 0.282360
Si Si4 0.057061 0.041237 0.531726
Si Si5 0.879079 0.386837 0.315305
Si Si6 0.250000 0.611803 0.327638
Si Si7 0.500389 0.695549 0.327816
O O1 0.088488 0.093296 0.309511
O O2 0.194846 0.061338 0.273430
O O3 0.147807 0.106889 0.859178
O O4 0.123670 0.953587 0.055480
O O5 0.250000 0.573130 0.613649
O O6 0.250000 0.534666 0.113591
O O7 0.750000 0.675725 0.285612
O O8 0.831002 0.758634 0.520064
O O9 0.984737 0.758393 0.090698
O O10 0.031083 0.101507 0.759050
O O11 0.098238 0.958456 0.607223
O O12 0.000000 0.000000 0.411694
O O13 0.814316 0.348024 0.284686
O O14 0.931489 0.319289 0.335145
#
# Coordination Sequence:
#
# PCOD9379384 Si02
#       7
#     8   4   8   8   8   4   8
#     4  11  22  39  70  97 138 180 235 283 345 415
#     4  10  20  34  60 102 134 166 221 283 337 413
#     4  10  23  39  57  91 141 181 213 263 331 403
#     4  10  24  42  69  99 132 179 231 293 342 409
#     4  10  24  43  72 105 139 178 233 296 347 421
#     4  10  20  38  66 104 134 172 219 283 359 415
#     4  11  28  49  71  99 142 186 236 293 359 413
#
# _framework density 25.942692000000001
#
# number of rings (size 3 to 8) (size 9 to 14) (size 15 to 20)
#    0.000    1.667    2.500    0.000    9.333    2.000 
#    0.000    0.833    0.000    0.000    0.000    0.000 
#    0.000    0.000    0.000    0.000    0.000    0.000 
#
# Total GULP energy -134300.868754 kJ/mol
# GULP energy per Si atom -5595.869531 kJ/mol
# Density = 2.588364 g / cm^3
# Si number density = 25.942692 Si / 1000 Ang^3
#
#
#
# Elastic Constant Matrix: (Units=GPa)
#
#
# Indices 1 2 3 4 5 6 
#
# 1 170.5323 4.1747 17.9434 0.0000 0.0000 0.0000
# 2 4.1747 26.3188 16.0756 0.0000 0.0000 0.0000
# 3 17.9434 16.0756 105.4423 0.0000 0.0000 0.0000
# 4 0.0000 0.0000 0.0000 25.9803 0.0000 0.0000
# 5 0.0000 0.0000 0.0000 0.0000 38.3834 0.0000
# 6 0.0000 0.0000 0.0000 0.0000 0.0000 36.6685
#
#
#
# Elastic Compliance Matrix: (Units=1/GPa)
#
#
# Indices 1 2 3 4 5 6 
#
# 1 0.005974 -0.000360 -0.000962 0.000000 0.000000 0.000000
# 2 -0.000360 0.041919 -0.006330 0.000000 0.000000 0.000000
# 3 -0.000962 -0.006330 0.010613 0.000000 0.000000 0.000000
# 4 0.000000 0.000000 0.000000 0.038491 0.000000 0.000000
# 5 0.000000 0.000000 0.000000 0.000000 0.026053 0.000000
# 6 0.000000 0.000000 0.000000 0.000000 0.000000 0.027271
#
#
# Mechanical properties :
#
#
# Convention : Reuss Voigt Hill
#
# Bulk Modulus (GPa) = 23.14681 42.07565 32.61123
# Shear Modulus (GPa) = 27.77401 37.81309 32.79355
#
# Velocity S-wave (km/s) = 3.27554 3.82195 3.55924
# Velocity P-wave (km/s) = 4.82153 5.97748 5.43035
#
# Compressibility (1/GPa) = 0.04320249
#
# Stress axis : x y z
#
# Youngs Moduli (GPa) = 167.39207 23.85552 94.22832
#
# Poissons Ratio (x) = 0.00859 0.09062
# Poissons Ratio (y) = 0.06029 0.59643
# Poissons Ratio (z) = 0.16098 0.15100
#
# Static dielectric constant tensor:
#      x y z
#    x 2.077650 0.000000 0.000000 
#    y 0.000000 2.023720 0.000000 
#    z 0.000000 0.000000 2.040520 
# 
# From -- ./inp_files/2061.got.cif
#   From: 2010.05.17/outbox.cif.g08.bks.cpg/sg46_2_cif.got.tgz:2061.got - 2010.06.03 19:58:25.
