data_PCOD9379003
_publ_section_title
;
Structure prediction by ZEFSAII (Michael W. Deem and Ramdas Pophale) SiO2 
 PCOD9379003
Probable space group: I M A 2
;
_chemical_formula_sum "Si O2"
_cell_formula_units_Z 40
_cell_length_a 14.155566
_cell_length_b 7.381893
_cell_length_c 16.189889
_cell_angle_alpha 90.000000
_cell_angle_beta 90.000000
_cell_angle_gamma 90.000000
_cell_volume 1691.760404
_symmetry_space_group_name_H-M "I M A 2"
_symmetry_group_IT_number 46
_symmetry_cell_setting 'orthorhombic'
loop_
_space_group_symop_operation_xyz
x,y,z
-x,-y,z
1/2-x,y,z
1/2+x,-y,z
1/2+x,1/2+y,1/2+z
1/2-x,1/2-y,1/2+z
-x,1/2+y,1/2+z
x,1/2-y,1/2+z
loop_
_atom_site_type_symbol
_atom_site_label
_atom_site_fract_x
_atom_site_fract_y
_atom_site_fract_z
Si Si1 0.854330 0.812343 0.297080
Si Si2 0.359535 0.389981 0.979489
Si Si3 0.941629 0.267194 0.525426
Si Si4 0.857250 0.394525 0.358095
Si Si5 0.473714 0.785368 0.701232
O O1 0.750000 0.856398 0.266923
O O2 0.874569 0.917862 0.381333
O O3 0.855637 0.603884 0.329892
O O4 0.931823 0.817241 0.227615
O O5 0.250000 0.330685 0.991817
O O6 0.380657 0.583384 0.018373
O O7 0.446026 0.268606 0.012285
O O8 0.906503 0.379748 0.446903
O O9 0.930068 0.310656 0.621558
O O10 0.750000 0.329601 0.365558
O O11 0.910563 0.293502 0.283773
O O12 0.500000 0.000000 0.682405
#
# Coordination Sequence:
#
# PCOD9379003 Si02
#       5
#     8   8   8   8   8
#     4   9  19  37  62  84 114 153 188 232 284 339
#     4  10  20  35  58  84 114 150 189 231 283 338
#     4  11  21  36  59  86 115 150 189 239 285 332
#     4  10  21  36  59  84 113 151 191 236 282 335
#     4  10  19  35  56  85 113 145 192 231 279 333
#
# _framework density 23.644010000000002
#
# number of rings (size 3 to 8) (size 9 to 14) (size 15 to 20)
#    0.000    2.000    4.000    0.600    0.000    2.400 
#    0.000    0.000    8.800    0.000    0.000    0.000 
#    0.000    0.000    0.000    0.000    0.000    0.000 
#
# Total GULP energy -111805.876298 kJ/mol
# GULP energy per Si atom -5590.293815 kJ/mol
# Density = 2.359019 g / cm^3
# Si number density = 23.644010 Si / 1000 Ang^3
#
#
#
# Elastic Constant Matrix: (Units=GPa)
#
#
# Indices 1 2 3 4 5 6 
#
# 1 115.9142 13.7192 64.9473 0.0000 0.0000 0.0000
# 2 13.7192 31.3199 32.9246 0.0000 0.0000 0.0000
# 3 64.9473 32.9246 181.9123 0.0000 0.0000 0.0000
# 4 0.0000 0.0000 0.0000 31.1351 0.0000 0.0000
# 5 0.0000 0.0000 0.0000 0.0000 -23.9254 0.0000
# 6 0.0000 0.0000 0.0000 0.0000 0.0000 19.8483
#
#
#
# Elastic Compliance Matrix: (Units=1/GPa)
#
#
# Indices 1 2 3 4 5 6 
#
# 1 0.010802 -0.000837 -0.003705 0.000000 0.000000 0.000000
# 2 -0.000837 0.039496 -0.006850 0.000000 0.000000 0.000000
# 3 -0.003705 -0.006850 0.008060 0.000000 0.000000 0.000000
# 4 0.000000 0.000000 0.000000 0.032118 0.000000 0.000000
# 5 0.000000 0.000000 0.000000 0.000000 -0.041797 0.000000
# 6 0.000000 0.000000 0.000000 0.000000 0.000000 0.050382
#
#
# Mechanical properties :
#
#
# Convention : Reuss Voigt Hill
#
# Bulk Modulus (GPa) = 28.11007 61.36985 44.73996
# Shear Modulus (GPa) = 37.39649 19.91529 28.65589
#
# Velocity S-wave (km/s) = 3.98131 2.90538 3.48512
# Velocity P-wave (km/s) = 5.74883 6.10468 5.92943
#
# Compressibility (1/GPa) = 0.03557445
#
# Stress axis : x y z
#
# Youngs Moduli (GPa) = 92.57418 25.31924 124.07345
#
# Poissons Ratio (x) = 0.02118 0.45972
# Poissons Ratio (y) = 0.07745 0.84986
# Poissons Ratio (z) = 0.34301 0.17343
#
# Static dielectric constant tensor:
#      x y z
#    x 1.886220 0.000000 0.000000 
#    y 0.000000 2.062810 0.000000 
#    z 0.000000 0.000000 1.879060 
# 
# From -- ./inp_files/15670.got.cif
#   From: 2010.05.17/outbox.cif.g08.bks.cpg/sg46_8_cif.got.tgz:15670.got - 2010.06.03 19:58:25.
