data_PCOD9379652
_publ_section_title
;
Structure prediction by ZEFSAII (Michael W. Deem and Ramdas Pophale) SiO2 
 PCOD9379652
Probable space group: I M A 2
;
_chemical_formula_sum "Si O2"
_cell_formula_units_Z 64
_cell_length_a 11.208984
_cell_length_b 30.940168
_cell_length_c 8.141601
_cell_angle_alpha 90.000000
_cell_angle_beta 90.000000
_cell_angle_gamma 90.000000
_cell_volume 2823.571123
_symmetry_space_group_name_H-M "I M A 2"
_symmetry_group_IT_number 46
_symmetry_cell_setting 'orthorhombic'
loop_
_space_group_symop_operation_xyz
x,y,z
-x,-y,z
1/2-x,y,z
1/2+x,-y,z
1/2+x,1/2+y,1/2+z
1/2-x,1/2-y,1/2+z
-x,1/2+y,1/2+z
x,1/2-y,1/2+z
loop_
_atom_site_type_symbol
_atom_site_label
_atom_site_fract_x
_atom_site_fract_y
_atom_site_fract_z
Si Si1 0.620701 0.477028 0.014160
Si Si2 0.615290 0.217716 0.872375
Si Si3 0.378101 0.891258 0.298204
Si Si4 0.622340 0.992233 0.883372
Si Si5 0.884553 0.780528 0.362627
Si Si6 0.462133 0.156691 0.080959
Si Si7 0.463521 0.664138 0.074256
Si Si8 0.622060 0.607290 0.272022
O O1 0.500000 0.500000 0.961226
O O2 0.750000 0.497858 0.973122
O O3 0.618250 0.479256 0.214529
O O4 0.619184 0.431658 0.920402
O O5 0.750000 0.234766 0.899574
O O6 0.500167 0.249211 0.858491
O O7 0.611345 0.191514 0.702104
O O8 0.575038 0.184177 0.013690
O O9 0.250000 0.891777 0.212413
O O10 0.486634 0.885289 0.174216
O O11 0.391711 0.849035 0.413492
O O12 0.750000 0.000807 0.965552
O O13 0.619041 0.942224 0.828165
O O14 0.500000 0.000000 0.979215
O O15 0.750000 0.762219 0.373975
O O16 0.892754 0.811935 0.204612
O O17 0.918538 0.809513 0.520361
O O18 0.388871 0.139453 0.926750
O O19 0.512937 0.620928 0.158879
O O20 0.750000 0.613511 0.188275
#
# Coordination Sequence:
#
# PCOD9379652 Si02
#       8
#     8   8   8   8   8   8   8   8
#     4   9  17  31  54  84 114 145 185 233 284 337
#     4  11  24  40  60  86 116 153 196 243 296 355
#     4  10  20  37  60  85 117 155 194 242 296 349
#     4   9  17  31  54  84 114 145 185 233 284 337
#     4  11  24  40  60  86 116 153 196 243 296 355
#     4  10  23  40  59  84 120 158 198 242 295 356
#     4  10  21  36  59  86 112 144 194 246 293 348
#     4  10  20  37  60  85 117 155 194 242 296 349
#
# _framework density 22.666329999999999
#
# number of rings (size 3 to 8) (size 9 to 14) (size 15 to 20)
#    0.000    2.000    0.000    3.750    0.000    8.000 
#    0.000    6.875    0.000    3.000    0.000    0.000 
#    0.000    0.000    0.000    0.000    0.000    0.000 
#
# Total GULP energy -178467.885427 kJ/mol
# GULP energy per Si atom -5577.121420 kJ/mol
# Density = 2.261474 g / cm^3
# Si number density = 22.666330 Si / 1000 Ang^3
#
#
#
# Elastic Constant Matrix: (Units=GPa)
#
#
# Indices 1 2 3 4 5 6 
#
# 1 195.3711 32.9545 4.0035 0.0006 0.0011 -0.0003
# 2 32.9545 37.6958 -4.4411 -0.0011 0.0005 -0.0002
# 3 4.0035 -4.4411 39.1371 -0.0012 0.0028 -0.0027
# 4 0.0006 -0.0011 -0.0012 20.6918 0.0009 -0.0009
# 5 0.0011 0.0005 0.0028 0.0009 1.5381 0.0014
# 6 -0.0003 -0.0002 -0.0027 -0.0009 0.0014 18.5210
#
#
#
# Elastic Compliance Matrix: (Units=1/GPa)
#
#
# Indices 1 2 3 4 5 6 
#
# 1 0.006062 -0.005446 -0.001238 -0.000001 0.000000 0.000000
# 2 -0.005446 0.031779 0.004163 0.000002 -0.000015 0.000001
# 3 -0.001238 0.004163 0.026150 0.000002 -0.000048 0.000004
# 4 -0.000001 0.000002 0.000002 0.048328 -0.000027 0.000002
# 5 0.000000 -0.000015 -0.000048 -0.000027 0.650158 -0.000048
# 6 0.000000 0.000001 0.000004 0.000002 -0.000048 0.053993
#
#
# Mechanical properties :
#
#
# Convention : Reuss Voigt Hill
#
# Bulk Modulus (GPa) = 16.96326 37.47087 27.21706
# Shear Modulus (GPa) = 5.94415 24.12931 15.03673
#
# Velocity S-wave (km/s) = 1.62116 3.26628 2.57844
# Velocity P-wave (km/s) = 3.31728 5.54907 4.57146
#
# Compressibility (1/GPa) = 0.05895094
#
# Stress axis : x y z
#
# Youngs Moduli (GPa) = 164.95089 31.46687 38.24051
#
# Poissons Ratio (x) = 0.17136 0.04735
# Poissons Ratio (y) = 0.89828 -0.15921
# Poissons Ratio (z) = 0.20423 -0.13101
#
# Static dielectric constant tensor:
#      x y z
#    x 1.903380 0.000000 0.000000 
#    y 0.000000 1.877730 0.000000 
#    z 0.000000 0.000000 1.829070 
# 
# From -- ./inp_files/5013.got.cif
#   From: 2010.05.17/outbox.cif.g08.bks.cpg/sg46_3_cif.got.tgz:5013.got - 2010.06.03 19:58:25.
