data_PCOD9379433
_publ_section_title
;
Structure prediction by ZEFSAII (Michael W. Deem and Ramdas Pophale) SiO2 
 PCOD9379433
Probable space group: I M A 2
;
_chemical_formula_sum "Si O2"
_cell_formula_units_Z 64
_cell_length_a 8.541057
_cell_length_b 14.898132
_cell_length_c 24.835993
_cell_angle_alpha 90.000000
_cell_angle_beta 90.000000
_cell_angle_gamma 90.000000
_cell_volume 3160.275664
_symmetry_space_group_name_H-M "I M A 2"
_symmetry_group_IT_number 46
_symmetry_cell_setting 'orthorhombic'
loop_
_space_group_symop_operation_xyz
x,y,z
-x,-y,z
1/2-x,y,z
1/2+x,-y,z
1/2+x,1/2+y,1/2+z
1/2-x,1/2-y,1/2+z
-x,1/2+y,1/2+z
x,1/2-y,1/2+z
loop_
_atom_site_type_symbol
_atom_site_label
_atom_site_fract_x
_atom_site_fract_y
_atom_site_fract_z
Si Si1 0.428750 0.643455 0.744150
Si Si2 0.939039 0.228871 0.422106
Si Si3 0.064028 0.597543 0.358788
Si Si4 0.930967 0.831301 0.745810
Si Si5 0.932209 0.582310 0.847225
Si Si6 0.938698 0.906904 0.131862
Si Si7 0.061241 0.197602 0.624785
Si Si8 0.563053 0.100225 0.520600
O O1 0.250000 0.675756 0.740453
O O2 0.548430 0.724759 0.753254
O O3 0.452220 0.584358 0.796341
O O4 0.478963 0.594680 0.690154
O O5 0.750000 0.218870 0.414928
O O6 0.978413 0.330901 0.405673
O O7 0.979942 0.179437 0.478001
O O8 0.032965 0.172545 0.378366
O O9 0.250000 0.595340 0.356457
O O10 0.000000 0.500000 0.371563
O O11 0.008507 0.624993 0.298335
O O12 0.750000 0.858560 0.745682
O O13 0.993784 0.837839 0.684012
O O14 0.750000 0.574223 0.834992
O O15 0.000000 0.500000 0.881963
O O16 0.750000 0.911773 0.135655
O O17 0.978519 0.803738 0.113497
O O18 0.000000 0.000000 0.104746
O O19 0.250000 0.194603 0.626356
O O20 0.997325 0.134847 0.578154
O O21 0.750000 0.094645 0.520859
O O22 0.500000 0.000000 0.509290
#
# Coordination Sequence:
#
# PCOD9379433 Si02
#       8
#     8   8   8   8   8   8   8   8
#     4  11  20  32  51  79 118 160 200 246 299 359
#     4  10  23  43  63  88 121 157 201 256 309 366
#     4  11  23  40  64  92 127 165 206 254 310 374
#     4  10  20  37  60  89 124 163 209 255 310 368
#     4  12  23  34  53  81 115 156 200 245 299 362
#     4  10  20  35  55  83 120 162 206 253 304 364
#     4   9  21  40  62  90 126 164 208 261 310 368
#     4  11  24  43  68  94 123 159 206 259 316 376
#
# _framework density 20.251397000000001
#
# number of rings (size 3 to 8) (size 9 to 14) (size 15 to 20)
#    0.000    1.500    1.250    5.250    0.000    6.000 
#    0.000    0.625    0.000    3.000    0.000    0.000 
#    0.000    0.000    0.000    0.000    0.000    0.000 
#
# Total GULP energy -178341.174651 kJ/mol
# GULP energy per Si atom -5573.161708 kJ/mol
# Density = 2.020530 g / cm^3
# Si number density = 20.251397 Si / 1000 Ang^3
#
#
#
# Elastic Constant Matrix: (Units=GPa)
#
#
# Indices 1 2 3 4 5 6 
#
# 1 29.1442 25.1544 21.4799 0.0000 0.0000 0.0000
# 2 25.1544 136.7162 56.6143 0.0000 0.0000 0.0000
# 3 21.4799 56.6143 103.0418 0.0000 0.0000 0.0000
# 4 0.0000 0.0000 0.0000 13.5477 0.0000 0.0000
# 5 0.0000 0.0000 0.0000 0.0000 11.9851 0.0000
# 6 0.0000 0.0000 0.0000 0.0000 0.0000 34.3320
#
#
#
# Elastic Compliance Matrix: (Units=1/GPa)
#
#
# Indices 1 2 3 4 5 6 
#
# 1 0.043519 -0.005502 -0.006049 0.000000 0.000000 0.000000
# 2 -0.005502 0.010164 -0.004438 0.000000 0.000000 0.000000
# 3 -0.006049 -0.004438 0.013404 0.000000 0.000000 0.000000
# 4 0.000000 0.000000 0.000000 0.073813 0.000000 0.000000
# 5 0.000000 0.000000 0.000000 0.000000 0.083437 0.000000
# 6 0.000000 0.000000 0.000000 0.000000 0.000000 0.029127
#
#
# Mechanical properties :
#
#
# Convention : Reuss Voigt Hill
#
# Bulk Modulus (GPa) = 28.48183 52.82214 40.65199
# Shear Modulus (GPa) = 16.82675 23.01654 19.92164
#
# Velocity S-wave (km/s) = 2.88565 3.37492 3.13983
# Velocity P-wave (km/s) = 5.01969 6.42858 5.76732
#
# Compressibility (1/GPa) = 0.03511011
#
# Stress axis : x y z
#
# Youngs Moduli (GPa) = 22.97833 98.38242 74.60521
#
# Poissons Ratio (x) = 0.54133 0.45127
# Poissons Ratio (y) = 0.12643 0.33107
# Poissons Ratio (z) = 0.13899 0.43659
#
# Static dielectric constant tensor:
#      x y z
#    x 1.674340 0.000000 0.000000 
#    y 0.000000 1.644370 0.000000 
#    z 0.000000 0.000000 1.753130 
# 
# From -- ./inp_files/23171.got.cif
#   From: 2010.05.17/outbox.cif.g08.bks.cpg/sg46_12_cif.got.tgz:23171.got - 2010.06.03 19:58:25.
