data_PCOD9379995
_publ_section_title
;
Structure prediction by ZEFSAII (Michael W. Deem and Ramdas Pophale) SiO2 
 PCOD9379995
Probable space group: I M A 2
;
_chemical_formula_sum "Si O2"
_cell_formula_units_Z 48
_cell_length_a 17.022455
_cell_length_b 26.109592
_cell_length_c 5.133768
_cell_angle_alpha 90.000000
_cell_angle_beta 90.000000
_cell_angle_gamma 90.000000
_cell_volume 2281.699876
_symmetry_space_group_name_H-M "I M A 2"
_symmetry_group_IT_number 46
_symmetry_cell_setting 'orthorhombic'
loop_
_space_group_symop_operation_xyz
x,y,z
-x,-y,z
1/2-x,y,z
1/2+x,-y,z
1/2+x,1/2+y,1/2+z
1/2-x,1/2-y,1/2+z
-x,1/2+y,1/2+z
x,1/2-y,1/2+z
loop_
_atom_site_type_symbol
_atom_site_label
_atom_site_fract_x
_atom_site_fract_y
_atom_site_fract_z
Si Si1 0.332828 0.920096 0.505540
Si Si2 0.339468 0.463150 0.050902
Si Si3 0.441056 0.049323 0.070576
Si Si4 0.962946 0.366784 0.292974
Si Si5 0.160750 0.679623 0.662621
Si Si6 0.481967 0.779536 0.436115
O O1 0.250000 0.910329 0.652900
O O2 0.409990 0.910397 0.666523
O O3 0.334559 0.878031 0.280049
O O4 0.333351 0.979042 0.436504
O O5 0.250000 0.443376 0.068100
O O6 0.396052 0.438696 0.837900
O O7 0.380906 0.463080 0.332959
O O8 0.484307 0.102005 0.990763
O O9 0.500000 0.000000 0.099010
O O10 0.899001 0.328550 0.424070
O O11 0.004078 0.333374 0.068831
O O12 0.250000 0.696730 0.611170
O O13 0.112391 0.712933 0.875284
O O14 0.509041 0.761446 0.152600
#
# Coordination Sequence:
#
# PCOD9379995 Si02
#       6
#     8   8   8   8   8   8
#     4   9  19  34  53  80 117 163 206 244 295 357
#     4  11  24  41  59  86 128 170 205 252 309 372
#     4  12  24  38  64  93 126 161 216 257 308 363
#     4  11  22  37  62  86 120 158 210 262 310 358
#     4  10  21  36  56  81 115 160 210 256 303 349
#     4  11  23  41  57  81 115 157 203 255 308 365
#
# _framework density 21.036947999999999
#
# number of rings (size 3 to 8) (size 9 to 14) (size 15 to 20)
#    0.000    1.333    3.333    2.500    4.667    1.333 
#    0.000    0.000    0.000    0.000    0.000    0.000 
#    0.000   13.333    0.000    0.000    0.000    0.000 
#
# Total GULP energy -133818.587078 kJ/mol
# GULP energy per Si atom -5575.774462 kJ/mol
# Density = 2.098907 g / cm^3
# Si number density = 21.036948 Si / 1000 Ang^3
#
#
#
# Elastic Constant Matrix: (Units=GPa)
#
#
# Indices 1 2 3 4 5 6 
#
# 1 65.1364 -0.6903 19.4185 0.0000 0.0000 0.0000
# 2 -0.6903 48.2361 -7.1807 0.0000 0.0000 0.0000
# 3 19.4185 -7.1807 79.3665 0.0000 0.0001 0.0000
# 4 0.0000 0.0000 0.0000 30.0644 0.0000 0.0000
# 5 0.0000 0.0000 0.0001 0.0000 25.1068 0.0000
# 6 0.0000 0.0000 0.0000 0.0000 0.0000 10.2051
#
#
#
# Elastic Compliance Matrix: (Units=1/GPa)
#
#
# Indices 1 2 3 4 5 6 
#
# 1 0.016567 -0.000371 -0.004087 0.000000 0.000000 0.000000
# 2 -0.000371 0.021023 0.001993 0.000000 0.000000 0.000000
# 3 -0.004087 0.001993 0.013780 0.000000 0.000000 0.000000
# 4 0.000000 0.000000 0.000000 0.033262 0.000000 0.000000
# 5 0.000000 0.000000 0.000000 0.000000 0.039830 0.000000
# 6 0.000000 0.000000 0.000000 0.000000 0.000000 0.097990
#
#
# Mechanical properties :
#
#
# Convention : Reuss Voigt Hill
#
# Bulk Modulus (GPa) = 21.53371 23.98154 22.75762
# Shear Modulus (GPa) = 20.58786 25.15471 22.87129
#
# Velocity S-wave (km/s) = 3.13174 3.46170 3.30084
# Velocity P-wave (km/s) = 4.83067 5.23472 5.03675
#
# Compressibility (1/GPa) = 0.04643882
#
# Stress axis : x y z
#
# Youngs Moduli (GPa) = 60.36145 47.56754 72.56873
#
# Poissons Ratio (x) = 0.01766 0.29659
# Poissons Ratio (y) = 0.02241 -0.14462
# Poissons Ratio (z) = 0.24670 -0.09480
#
# Static dielectric constant tensor:
#      x y z
#    x 1.807910 0.000000 0.000000 
#    y 0.000000 1.811070 0.000000 
#    z 0.000000 0.000000 1.839450 
# 
# From -- ./inp_files/1405.got.cif
#   From: 2010.05.17/outbox.cif.g08.bks.cpg/sg46_1_cif.got.tgz:1405.got - 2010.06.03 19:58:25.
