data_PCOD9379636
_publ_section_title
;
Structure prediction by ZEFSAII (Michael W. Deem and Ramdas Pophale) SiO2 
 PCOD9379636
Probable space group: I M A 2
;
_chemical_formula_sum "Si O2"
_cell_formula_units_Z 64
_cell_length_a 8.551437
_cell_length_b 28.572826
_cell_length_c 12.714199
_cell_angle_alpha 90.000000
_cell_angle_beta 90.000000
_cell_angle_gamma 90.000000
_cell_volume 3106.571128
_symmetry_space_group_name_H-M "I M A 2"
_symmetry_group_IT_number 46
_symmetry_cell_setting 'orthorhombic'
loop_
_space_group_symop_operation_xyz
x,y,z
-x,-y,z
1/2-x,y,z
1/2+x,-y,z
1/2+x,1/2+y,1/2+z
1/2-x,1/2-y,1/2+z
-x,1/2+y,1/2+z
x,1/2-y,1/2+z
loop_
_atom_site_type_symbol
_atom_site_label
_atom_site_fract_x
_atom_site_fract_y
_atom_site_fract_z
Si Si1 0.430276 0.694116 0.198950
Si Si2 0.071416 0.666100 0.966721
Si Si3 0.070180 0.431001 0.009593
Si Si4 0.063530 0.377888 0.636151
Si Si5 0.567863 0.451722 0.792449
Si Si6 0.934765 0.709456 0.759671
Si Si7 0.062220 0.585308 0.232969
Si Si8 0.938507 0.948614 0.956335
O O1 0.250000 0.700538 0.233175
O O2 0.532964 0.736245 0.240841
O O3 0.476983 0.641076 0.229680
O O4 0.433596 0.696365 0.072308
O O5 0.250000 0.646999 0.959279
O O6 0.027454 0.693232 0.862492
O O7 0.951074 0.624240 0.986832
O O8 0.250000 0.445419 0.998386
O O9 0.009060 0.437776 0.127807
O O10 0.965388 0.451803 0.916799
O O11 0.250000 0.376692 0.624412
O O12 0.013250 0.324880 0.663523
O O13 0.004178 0.407673 0.536174
O O14 0.019244 0.408595 0.738063
O O15 0.500000 0.500000 0.748421
O O16 0.750000 0.448115 0.770963
O O17 0.750000 0.701689 0.775782
O O18 0.250000 0.581613 0.227965
O O19 0.997915 0.563026 0.339322
O O20 0.750000 0.949520 0.957414
O O21 0.000000 0.000000 0.987108
#
# Coordination Sequence:
#
# PCOD9379636 Si02
#       8
#     8   8   8   8   8   8   8   8
#     4   9  21  39  59  87 123 162 208 259 311 376
#     4  10  20  37  59  84 117 159 200 248 309 371
#     4  11  21  37  61  89 120 154 196 249 308 369
#     4  10  23  42  61  88 125 163 209 262 312 375
#     4  12  24  38  60  89 121 158 198 248 305 368
#     4  11  22  36  60  91 124 163 209 260 315 375
#     4  10  22  42  65  90 123 164 212 262 317 379
#     4  11  24  43  66  92 126 169 216 269 325 386
#
# _framework density 20.601490999999999
#
# number of rings (size 3 to 8) (size 9 to 14) (size 15 to 20)
#    0.000    1.500    1.250    4.875    0.000    7.000 
#    0.000    5.000    0.000    0.000    0.000    0.000 
#    0.000    0.000    0.000    0.000    0.000    0.000 
#
# Total GULP energy -178754.210000 kJ/mol
# GULP energy per Si atom -5586.069062 kJ/mol
# Density = 2.055460 g / cm^3
# Si number density = 20.601491 Si / 1000 Ang^3
#
#
#
# Elastic Constant Matrix: (Units=GPa)
#
#
# Indices 1 2 3 4 5 6 
#
# 1 27.0976 1.7960 3.2761 -0.0002 0.0000 0.0000
# 2 1.7960 47.1510 3.1789 -0.0011 -0.0002 -0.0001
# 3 3.2761 3.1789 86.0030 -0.0038 -0.0008 -0.0003
# 4 -0.0002 -0.0011 -0.0038 13.4336 -0.0004 -0.0002
# 5 0.0000 -0.0002 -0.0008 -0.0004 25.5178 0.0000
# 6 0.0000 -0.0001 -0.0003 -0.0002 0.0000 29.7360
#
#
#
# Elastic Compliance Matrix: (Units=1/GPa)
#
#
# Indices 1 2 3 4 5 6 
#
# 1 0.037157 -0.001323 -0.001366 0.000000 0.000000 0.000000
# 2 -0.001323 0.021309 -0.000737 0.000002 0.000000 0.000000
# 3 -0.001366 -0.000737 0.011707 0.000003 0.000000 0.000000
# 4 0.000000 0.000002 0.000003 0.074440 0.000001 0.000000
# 5 0.000000 0.000000 0.000000 0.000001 0.039188 0.000000
# 6 0.000000 0.000000 0.000000 0.000000 0.000000 0.033629
#
#
# Mechanical properties :
#
#
# Convention : Reuss Voigt Hill
#
# Bulk Modulus (GPa) = 15.79326 19.63928 17.71627
# Shear Modulus (GPa) = 20.37576 23.87084 22.12330
#
# Velocity S-wave (km/s) = 3.14832 3.40765 3.28055
# Velocity P-wave (km/s) = 4.57150 5.00364 4.79244
#
# Compressibility (1/GPa) = 0.06331815
#
# Stress axis : x y z
#
# Youngs Moduli (GPa) = 26.91319 46.92953 85.42043
#
# Poissons Ratio (x) = 0.06209 0.11673
# Poissons Ratio (y) = 0.03561 0.06297
# Poissons Ratio (z) = 0.03678 0.03460
#
# Static dielectric constant tensor:
#      x y z
#    x 1.713340 0.000000 0.000000 
#    y 0.000000 1.760350 0.000000 
#    z 0.000000 0.000000 1.729080 
# 
# From -- ./inp_files/9799.got.cif
#   From: 2010.05.17/outbox.cif.g08.bks.cpg/sg46_5_cif.got.tgz:9799.got - 2010.06.03 19:58:25.
