data_PCOD9379588
_publ_section_title
;
Structure prediction by ZEFSAII (Michael W. Deem and Ramdas Pophale) SiO2 
 PCOD9379588
Probable space group: I M A 2
;
_chemical_formula_sum "Si O2"
_cell_formula_units_Z 36
_cell_length_a 9.492477
_cell_length_b 19.049210
_cell_length_c 9.553913
_cell_angle_alpha 90.000000
_cell_angle_beta 90.000000
_cell_angle_gamma 90.000000
_cell_volume 1727.578558
_symmetry_space_group_name_H-M "I M A 2"
_symmetry_group_IT_number 46
_symmetry_cell_setting 'orthorhombic'
loop_
_space_group_symop_operation_xyz
x,y,z
-x,-y,z
1/2-x,y,z
1/2+x,-y,z
1/2+x,1/2+y,1/2+z
1/2-x,1/2-y,1/2+z
-x,1/2+y,1/2+z
x,1/2-y,1/2+z
loop_
_atom_site_type_symbol
_atom_site_label
_atom_site_fract_x
_atom_site_fract_y
_atom_site_fract_z
Si Si1 0.089834 0.889113 0.963610
Si Si2 0.916655 0.215520 0.736435
Si Si3 0.584870 0.116683 0.265023
Si Si4 0.000000 0.500000 0.246850
Si Si5 0.911100 0.617399 0.037090
O O1 0.250000 0.868850 0.998903
O O2 0.030218 0.822837 0.878405
O O3 0.029089 0.909461 0.114036
O O4 0.088168 0.951402 0.851889
O O5 0.750000 0.197824 0.718017
O O6 0.926142 0.298582 0.750964
O O7 0.003183 0.180941 0.610270
O O8 0.750000 0.097975 0.288906
O O9 0.491479 0.095411 0.396392
O O10 0.082661 0.446705 0.147215
O O11 0.750000 0.636748 0.009151
#
# Coordination Sequence:
#
# PCOD9379588 Si02
#       5
#     8   8   8   4   8
#     4   9  18  34  57  80 104 141 187 231 274 332
#     4   9  18  36  61  86 113 146 184 228 284 349
#     4  10  20  36  60  88 114 144 187 237 288 344
#     4  10  22  40  54  74 112 156 196 234 286 344
#     4  11  23  37  57  85 118 154 190 237 290 339
#
# _framework density 20.838415000000001
#
# number of rings (size 3 to 8) (size 9 to 14) (size 15 to 20)
#    0.000    2.222    0.000    2.667    0.000    8.000 
#    0.000    7.778    0.000    0.000    0.000    0.000 
#    0.000    0.000    0.000    0.000    0.000    0.000 
#
# Total GULP energy -100425.030948 kJ/mol
# GULP energy per Si atom -5579.168386 kJ/mol
# Density = 2.079099 g / cm^3
# Si number density = 20.838415 Si / 1000 Ang^3
#
#
#
# Elastic Constant Matrix: (Units=GPa)
#
#
# Indices 1 2 3 4 5 6 
#
# 1 82.5658 7.7982 53.6708 0.0000 0.0000 0.0000
# 2 7.7982 60.7230 21.1995 0.0001 0.0000 0.0000
# 3 53.6708 21.1995 180.3536 0.0000 -0.0001 0.0000
# 4 0.0000 0.0001 0.0000 0.3770 0.0000 0.0000
# 5 0.0000 0.0000 -0.0001 0.0000 19.2655 0.0000
# 6 0.0000 0.0000 0.0000 0.0000 0.0000 11.5145
#
#
#
# Elastic Compliance Matrix: (Units=1/GPa)
#
#
# Indices 1 2 3 4 5 6 
#
# 1 0.015025 -0.000384 -0.004426 0.000000 0.000000 0.000000
# 2 -0.000384 0.017183 -0.001905 -0.000003 0.000000 0.000000
# 3 -0.004426 -0.001905 0.007086 0.000000 0.000000 0.000000
# 4 0.000000 -0.000003 0.000000 2.652627 0.000006 0.000001
# 5 0.000000 0.000000 0.000000 0.000006 0.051906 0.000000
# 6 0.000000 0.000000 0.000000 0.000001 0.000000 0.086847
#
#
# Mechanical properties :
#
#
# Convention : Reuss Voigt Hill
#
# Bulk Modulus (GPa) = 38.66678 54.33106 46.49892
# Shear Modulus (GPa) = 1.75271 22.29633 12.02452
#
# Velocity S-wave (km/s) = 0.91811 3.27458 2.40476
# Velocity P-wave (km/s) = 4.44069 6.35817 5.48389
#
# Compressibility (1/GPa) = 0.02586199
#
# Stress axis : x y z
#
# Youngs Moduli (GPa) = 66.55601 58.19782 141.12818
#
# Poissons Ratio (x) = 0.02237 0.62464
# Poissons Ratio (y) = 0.02558 0.26890
# Poissons Ratio (z) = 0.29458 0.11089
#
# Static dielectric constant tensor:
#      x y z
#    x 1.721080 0.000000 0.000000 
#    y 0.000000 1.760730 0.000000 
#    z 0.000000 0.000000 1.808160 
# 
# From -- ./inp_files/3383.got.cif
#   From: 2010.05.17/outbox.cif.g08.bks.cpg/sg46_2_cif.got.tgz:3383.got - 2010.06.03 19:58:25.
