data_PCOD9379860
_publ_section_title
;
Structure prediction by ZEFSAII (Michael W. Deem and Ramdas Pophale) SiO2 
 PCOD9379860
Probable space group: I M A 2
;
_chemical_formula_sum "Si O2"
_cell_formula_units_Z 56
_cell_length_a 16.332103
_cell_length_b 12.885409
_cell_length_c 11.225246
_cell_angle_alpha 90.000000
_cell_angle_beta 90.000000
_cell_angle_gamma 90.000000
_cell_volume 2362.306178
_symmetry_space_group_name_H-M "I M A 2"
_symmetry_group_IT_number 46
_symmetry_cell_setting 'orthorhombic'
loop_
_space_group_symop_operation_xyz
x,y,z
-x,-y,z
1/2-x,y,z
1/2+x,-y,z
1/2+x,1/2+y,1/2+z
1/2-x,1/2-y,1/2+z
-x,1/2+y,1/2+z
x,1/2-y,1/2+z
loop_
_atom_site_type_symbol
_atom_site_label
_atom_site_fract_x
_atom_site_fract_y
_atom_site_fract_z
Si Si1 0.376328 0.676971 0.540450
Si Si2 0.388449 0.770849 0.299986
Si Si3 0.153210 0.439553 0.982356
Si Si4 0.545108 0.596243 0.763368
Si Si5 0.068890 0.274525 0.551300
Si Si6 0.156457 0.453452 0.425620
Si Si7 0.909595 0.045416 0.695703
O O1 0.344857 0.745320 0.426543
O O2 0.345593 0.686429 0.677944
O O3 0.470892 0.714177 0.549166
O O4 0.368573 0.557418 0.498330
O O5 0.470442 0.838602 0.320591
O O6 0.415280 0.657847 0.252910
O O7 0.250000 0.425127 0.971606
O O8 0.108431 0.337620 0.037050
O O9 0.132129 0.535527 0.067878
O O10 0.107459 0.450901 0.857465
O O11 0.500000 0.500000 0.699015
O O12 0.592289 0.672699 0.676369
O O13 0.102440 0.353821 0.453615
O O14 0.250000 0.430224 0.454356
O O15 0.144786 0.480450 0.287724
O O16 0.000000 0.000000 0.687541
#
# Coordination Sequence:
#
# PCOD9379860 Si02
#       7
#     8   8   8   8   8   8   8
#     4  10  20  39  66  97 126 174 238 285 335 418
#     4  10  21  39  68  96 128 170 238 283 332 392
#     4  12  27  42  66 105 146 180 219 290 370 422
#     4  11  24  42  69 101 133 175 230 293 341 419
#     4  11  22  42  66  96 130 180 228 277 350 427
#     4  11  23  40  63  94 134 176 226 292 357 417
#     4  11  23  42  69  95 130 185 240 282 329 428
#
# _framework density 23.705649000000001
#
# number of rings (size 3 to 8) (size 9 to 14) (size 15 to 20)
#    0.000    1.143    1.429    6.857    4.000    1.143 
#    0.000    3.571    0.000    0.857    0.000    0.000 
#    0.000    0.000    0.000    0.000    0.000    0.000 
#
# Total GULP energy -156518.437141 kJ/mol
# GULP energy per Si atom -5589.944184 kJ/mol
# Density = 2.365169 g / cm^3
# Si number density = 23.705649 Si / 1000 Ang^3
#
#
#
# Elastic Constant Matrix: (Units=GPa)
#
#
# Indices 1 2 3 4 5 6 
#
# 1 116.0224 17.5051 17.3390 0.0000 0.0000 0.0000
# 2 17.5051 67.5900 -1.7179 0.0000 0.0000 0.0000
# 3 17.3390 -1.7179 111.6537 0.0000 0.0000 0.0000
# 4 0.0000 0.0000 0.0000 47.2816 0.0000 0.0000
# 5 0.0000 0.0000 0.0000 0.0000 -2.1892 0.0000
# 6 0.0000 0.0000 0.0000 0.0000 0.0000 2.2481
#
#
#
# Elastic Compliance Matrix: (Units=1/GPa)
#
#
# Indices 1 2 3 4 5 6 
#
# 1 0.009203 -0.002421 -0.001466 0.000000 0.000000 0.000000
# 2 -0.002421 0.015438 0.000613 0.000000 0.000000 0.000000
# 3 -0.001466 0.000613 0.009193 0.000000 0.000000 0.000000
# 4 0.000000 0.000000 0.000000 0.021150 0.000000 0.000000
# 5 0.000000 0.000000 0.000000 0.000000 -0.456793 0.000000
# 6 0.000000 0.000000 0.000000 0.000000 0.000000 0.444829
#
#
# Mechanical properties :
#
#
# Convention : Reuss Voigt Hill
#
# Bulk Modulus (GPa) = 36.64778 40.16871 38.40825
# Shear Modulus (GPa) = 85.23187 26.94409 56.08798
#
# Velocity S-wave (km/s) = 6.00269 3.37502 4.86945
# Velocity P-wave (km/s) = 7.97096 5.67180 6.91757
#
# Compressibility (1/GPa) = 0.02728678
#
# Stress axis : x y z
#
# Youngs Moduli (GPa) = 108.65505 64.77670 108.77326
#
# Poissons Ratio (x) = 0.15682 0.15951
# Poissons Ratio (y) = 0.26304 -0.06673
# Poissons Ratio (z) = 0.15934 -0.03974
#
# Static dielectric constant tensor:
#      x y z
#    x 1.848270 0.000000 0.000000 
#    y 0.000000 1.902340 0.000000 
#    z 0.000000 0.000000 1.986550 
# 
# From -- ./inp_files/11143.got.cif
#   From: 2010.05.17/outbox.cif.g08.bks.cpg/sg46_6_cif.got.tgz:11143.got - 2010.06.03 19:58:25.
