data_PCOD9379307
_publ_section_title
;
Structure prediction by ZEFSAII (Michael W. Deem and Ramdas Pophale) SiO2 
 PCOD9379307
Probable space group: I M A 2
;
_chemical_formula_sum "Si O2"
_cell_formula_units_Z 40
_cell_length_a 8.178100
_cell_length_b 29.429213
_cell_length_c 7.588446
_cell_angle_alpha 90.000000
_cell_angle_beta 90.000000
_cell_angle_gamma 90.000000
_cell_volume 1826.349596
_symmetry_space_group_name_H-M "I M A 2"
_symmetry_group_IT_number 46
_symmetry_cell_setting 'orthorhombic'
loop_
_space_group_symop_operation_xyz
x,y,z
-x,-y,z
1/2-x,y,z
1/2+x,-y,z
1/2+x,1/2+y,1/2+z
1/2-x,1/2-y,1/2+z
-x,1/2+y,1/2+z
x,1/2-y,1/2+z
loop_
_atom_site_type_symbol
_atom_site_label
_atom_site_fract_x
_atom_site_fract_y
_atom_site_fract_z
Si Si1 0.556219 0.453234 0.644850
Si Si2 0.061446 0.049080 0.541217
Si Si3 0.432771 0.647921 0.525364
Si Si4 0.926931 0.354649 0.112007
Si Si5 0.250000 0.300404 0.520108
Si Si6 0.750000 0.805831 0.596096
O O1 0.500000 0.500000 0.553389
O O2 0.750000 0.456596 0.682321
O O3 0.459571 0.451099 0.829174
O O4 0.529554 0.405660 0.547652
O O5 0.250000 0.055991 0.589593
O O6 0.955463 0.091399 0.604384
O O7 0.000000 0.000000 0.603355
O O8 0.250000 0.656243 0.600100
O O9 0.421992 0.658061 0.317583
O O10 0.584735 0.676967 0.595345
O O11 0.750000 0.343442 0.032511
O O12 0.085121 0.330438 0.031410
O O13 0.250000 0.246804 0.548560
O O14 0.250000 0.309690 0.309489
#
# Coordination Sequence:
#
# PCOD9379307 Si02
#       6
#     8   8   8   8   4   4
#     4  10  20  34  52  81 114 150 191 230 280 331
#     4  11  21  34  53  82 115 151 192 229 277 332
#     4   9  21  38  58  83 112 148 187 232 282 334
#     4  10  20  39  59  81 115 147 185 235 279 332
#     4  10  22  38  62  80 118 142 192 234 285 336
#     4  10  22  40  56  90 106 150 188 234 285 342
#
# _framework density 21.901613000000001
#
# number of rings (size 3 to 8) (size 9 to 14) (size 15 to 20)
#    0.000    2.000    1.000    3.600    2.800    3.200 
#    0.000    2.000    0.000    0.000    0.000    0.000 
#    0.000    0.000    0.000    0.000    0.000    0.000 
#
# Total GULP energy -111699.977961 kJ/mol
# GULP energy per Si atom -5584.998898 kJ/mol
# Density = 2.185176 g / cm^3
# Si number density = 21.901613 Si / 1000 Ang^3
#
#
#
# Elastic Constant Matrix: (Units=GPa)
#
#
# Indices 1 2 3 4 5 6 
#
# 1 192.8977 91.6360 5.0560 0.0002 -0.0001 0.0000
# 2 91.6360 127.7696 -15.1838 0.0001 0.0000 0.0000
# 3 5.0560 -15.1838 39.3952 0.0006 -0.0004 0.0003
# 4 0.0002 0.0001 0.0006 28.1400 0.0002 0.0001
# 5 -0.0001 0.0000 -0.0004 0.0002 -10.8232 0.0000
# 6 0.0000 0.0000 0.0003 0.0001 0.0000 31.6630
#
#
#
# Elastic Compliance Matrix: (Units=1/GPa)
#
#
# Indices 1 2 3 4 5 6 
#
# 1 0.008305 -0.006375 -0.003523 0.000000 0.000000 0.000000
# 2 -0.006375 0.013096 0.005866 0.000000 0.000000 0.000000
# 3 -0.003523 0.005866 0.028097 -0.000001 -0.000001 0.000000
# 4 0.000000 0.000000 -0.000001 0.035537 0.000001 0.000000
# 5 0.000000 0.000000 -0.000001 0.000001 -0.092394 0.000000
# 6 0.000000 0.000000 0.000000 0.000000 0.000000 0.031583
#
#
# Mechanical properties :
#
#
# Convention : Reuss Voigt Hill
#
# Bulk Modulus (GPa) = 24.13547 58.11988 41.12767
# Shear Modulus (GPa) = 108.46645 28.36625 68.41635
#
# Velocity S-wave (km/s) = 7.04499 3.60275 5.59516
# Velocity P-wave (km/s) = 8.78748 6.62577 7.78205
#
# Compressibility (1/GPa) = 0.04143279
#
# Stress axis : x y z
#
# Youngs Moduli (GPa) = 120.41249 76.36131 35.59141
#
# Poissons Ratio (x) = 0.48679 0.12538
# Poissons Ratio (y) = 0.76761 -0.20876
# Poissons Ratio (z) = 0.42420 -0.44790
#
# Static dielectric constant tensor:
#      x y z
#    x 1.831830 0.000000 0.000000 
#    y 0.000000 1.764970 0.000000 
#    z 0.000000 0.000000 1.819260 
# 
# From -- ./inp_files/3558.got.cif
#   From: 2010.05.17/outbox.cif.g08.bks.cpg/sg46_2_cif.got.tgz:3558.got - 2010.06.03 19:58:25.
