data_PCOD9379091
_publ_section_title
;
Structure prediction by ZEFSAII (Michael W. Deem and Ramdas Pophale) SiO2 
 PCOD9379091
Probable space group: I M A 2
;
_chemical_formula_sum "Si O2"
_cell_formula_units_Z 40
_cell_length_a 14.179950
_cell_length_b 7.933061
_cell_length_c 15.196815
_cell_angle_alpha 90.000000
_cell_angle_beta 90.000000
_cell_angle_gamma 90.000000
_cell_volume 1709.495925
_symmetry_space_group_name_H-M "I M A 2"
_symmetry_group_IT_number 46
_symmetry_cell_setting 'orthorhombic'
loop_
_space_group_symop_operation_xyz
x,y,z
-x,-y,z
1/2-x,y,z
1/2+x,-y,z
1/2+x,1/2+y,1/2+z
1/2-x,1/2-y,1/2+z
-x,1/2+y,1/2+z
x,1/2-y,1/2+z
loop_
_atom_site_type_symbol
_atom_site_label
_atom_site_fract_x
_atom_site_fract_y
_atom_site_fract_z
Si Si1 0.425501 0.262256 0.444560
Si Si2 0.864426 0.584857 0.263163
Si Si3 0.591541 0.415349 0.005703
Si Si4 0.364782 0.111916 0.131824
Si Si5 0.856309 0.250028 0.180930
O O1 0.394001 0.358727 0.359348
O O2 0.536658 0.213002 0.442125
O O3 0.404982 0.360864 0.534383
O O4 0.371444 0.079882 0.455054
O O5 0.750000 0.576084 0.259202
O O6 0.889812 0.729377 0.192630
O O7 0.900644 0.399379 0.237532
O O8 0.500000 0.500000 0.053319
O O9 0.647974 0.324217 0.081126
O O10 0.250000 0.105730 0.124431
O O11 0.398320 0.935313 0.173054
O O12 0.750000 0.225043 0.214459
#
# Coordination Sequence:
#
# PCOD9379091 Si02
#       5
#     8   8   8   8   8
#     4   9  19  37  61  86 126 164 208 257 312 388
#     4  10  19  36  61  91 124 159 206 262 315 373
#     4   8  19  38  58  87 121 159 214 245 314 384
#     4  10  20  36  62  91 119 165 211 256 324 377
#     4  10  20  37  62  89 120 160 211 265 312 377
#
# _framework density 23.398712
#
# number of rings (size 3 to 8) (size 9 to 14) (size 15 to 20)
#    1.200    1.200    2.000    0.600    0.000    1.600 
#    3.600    8.000    4.400    0.000    0.000    0.000 
#    0.000    0.000    0.000    0.000    0.000    0.000 
#
# Total GULP energy -111612.800076 kJ/mol
# GULP energy per Si atom -5580.640004 kJ/mol
# Density = 2.334546 g / cm^3
# Si number density = 23.398712 Si / 1000 Ang^3
#
#
#
# Elastic Constant Matrix: (Units=GPa)
#
#
# Indices 1 2 3 4 5 6 
#
# 1 54.4316 41.1217 16.2246 0.0000 0.0000 0.0000
# 2 41.1217 205.5273 93.7624 0.0000 0.0000 0.0000
# 3 16.2246 93.7624 139.5227 0.0000 0.0000 0.0000
# 4 0.0000 0.0000 0.0000 20.1903 0.0000 0.0000
# 5 0.0000 0.0000 0.0000 0.0000 20.6261 0.0000
# 6 0.0000 0.0000 0.0000 0.0000 0.0000 25.6899
#
#
#
# Elastic Compliance Matrix: (Units=1/GPa)
#
#
# Indices 1 2 3 4 5 6 
#
# 1 0.021674 -0.004596 0.000568 0.000000 0.000000 0.000000
# 2 -0.004596 0.007991 -0.004836 0.000000 0.000000 0.000000
# 3 0.000568 -0.004836 0.010351 0.000000 0.000000 0.000000
# 4 0.000000 0.000000 0.000000 0.049529 0.000000 0.000000
# 5 0.000000 0.000000 0.000000 0.000000 0.048482 0.000000
# 6 0.000000 0.000000 0.000000 0.000000 0.000000 0.038926
#
#
# Mechanical properties :
#
#
# Convention : Reuss Voigt Hill
#
# Bulk Modulus (GPa) = 44.86430 77.96655 61.41542
# Shear Modulus (GPa) = 24.73899 29.85947 27.29923
#
# Velocity S-wave (km/s) = 3.25511 3.57615 3.41940
# Velocity P-wave (km/s) = 5.77435 7.10247 6.47256
#
# Compressibility (1/GPa) = 0.02228944
#
# Stress axis : x y z
#
# Youngs Moduli (GPa) = 46.13756 125.13838 96.60884
#
# Poissons Ratio (x) = 0.57510 -0.05487
# Poissons Ratio (y) = 0.21203 0.46718
# Poissons Ratio (z) = -0.02621 0.60515
#
# Static dielectric constant tensor:
#      x y z
#    x 1.946290 0.000000 0.000000 
#    y 0.000000 1.931230 0.000000 
#    z 0.000000 0.000000 1.799190 
# 
# From -- ./inp_files/11595.got.cif
#   From: 2010.05.17/outbox.cif.g08.bks.cpg/sg46_6_cif.got.tgz:11595.got - 2010.06.03 19:58:25.
