data_PCOD9379212
_publ_section_title
;
Structure prediction by ZEFSAII (Michael W. Deem and Ramdas Pophale) SiO2 
 PCOD9379212
Probable space group: I M A 2
;
_chemical_formula_sum "Si O2"
_cell_formula_units_Z 56
_cell_length_a 16.726758
_cell_length_b 19.027627
_cell_length_c 8.771533
_cell_angle_alpha 90.000000
_cell_angle_beta 90.000000
_cell_angle_gamma 90.000000
_cell_volume 2791.720300
_symmetry_space_group_name_H-M "I M A 2"
_symmetry_group_IT_number 46
_symmetry_cell_setting 'orthorhombic'
loop_
_space_group_symop_operation_xyz
x,y,z
-x,-y,z
1/2-x,y,z
1/2+x,-y,z
1/2+x,1/2+y,1/2+z
1/2-x,1/2-y,1/2+z
-x,1/2+y,1/2+z
x,1/2-y,1/2+z
loop_
_atom_site_type_symbol
_atom_site_label
_atom_site_fract_x
_atom_site_fract_y
_atom_site_fract_z
Si Si1 0.065154 0.556838 0.662880
Si Si2 0.431565 0.269539 0.367092
Si Si3 0.410932 0.809693 0.678231
Si Si4 0.513386 0.618594 0.960320
Si Si5 0.339231 0.316796 0.637283
Si Si6 0.339879 0.450766 0.862570
Si Si7 0.342139 0.676551 0.493282
O O1 0.132847 0.515091 0.757346
O O2 0.105851 0.609872 0.546834
O O3 0.000000 0.500000 0.603360
O O4 0.019526 0.601052 0.792947
O O5 0.510136 0.291131 0.276715
O O6 0.452223 0.197170 0.453784
O O7 0.399832 0.321941 0.495967
O O8 0.364844 0.248184 0.244108
O O9 0.439877 0.875932 0.577109
O O10 0.381561 0.746303 0.569325
O O11 0.346505 0.820472 0.810330
O O12 0.588191 0.565948 0.981337
O O13 0.250000 0.306243 0.577236
O O14 0.339833 0.384021 0.747441
O O15 0.250000 0.458654 0.923932
O O16 0.250000 0.671155 0.543502
#
# Coordination Sequence:
#
# PCOD9379212 Si02
#       7
#     8   8   8   8   8   8   8
#     4  10  21  39  65  87 114 161 208 239 286 354
#     4  11  18  33  55  82 116 153 184 230 291 349
#     4  12  22  38  62  87 123 150 192 248 306 364
#     4  10  20  36  58  87 115 153 195 238 289 359
#     4  10  20  32  53  86 120 150 191 235 286 342
#     4   9  20  38  61  86 117 156 200 246 283 342
#     4  12  24  40  62  92 120 153 195 250 309 356
#
# _framework density 20.059315999999999
#
# number of rings (size 3 to 8) (size 9 to 14) (size 15 to 20)
#    0.000    1.429    4.286    1.286    4.000    0.571 
#    0.000    4.286    0.000    0.000    0.000    0.000 
#    0.000    0.000    0.000    0.000    0.000    0.000 
#
# Total GULP energy -156170.806897 kJ/mol
# GULP energy per Si atom -5577.528818 kJ/mol
# Density = 2.001366 g / cm^3
# Si number density = 20.059316 Si / 1000 Ang^3
#
#
#
# Elastic Constant Matrix: (Units=GPa)
#
#
# Indices 1 2 3 4 5 6 
#
# 1 115.0815 22.7670 30.5124 0.0000 0.0000 0.0000
# 2 22.7670 52.2897 18.5480 0.0000 0.0000 0.0000
# 3 30.5124 18.5480 70.1981 0.0000 0.0000 0.0000
# 4 0.0000 0.0000 0.0000 14.9952 0.0000 0.0000
# 5 0.0000 0.0000 0.0000 0.0000 24.8993 0.0000
# 6 0.0000 0.0000 0.0000 0.0000 0.0000 21.0147
#
#
#
# Elastic Compliance Matrix: (Units=1/GPa)
#
#
# Indices 1 2 3 4 5 6 
#
# 1 0.010282 -0.003191 -0.003626 0.000000 0.000000 0.000000
# 2 -0.003191 0.022092 -0.004450 0.000000 0.000000 0.000000
# 3 -0.003626 -0.004450 0.016997 0.000000 0.000000 0.000000
# 4 0.000000 0.000000 0.000000 0.066688 0.000000 0.000000
# 5 0.000000 0.000000 0.000000 0.000000 0.040162 0.000000
# 6 0.000000 0.000000 0.000000 0.000000 0.000000 0.047586
#
#
# Mechanical properties :
#
#
# Convention : Reuss Voigt Hill
#
# Bulk Modulus (GPa) = 37.26166 42.35821 39.80993
# Shear Modulus (GPa) = 21.25063 23.23132 22.24097
#
# Velocity S-wave (km/s) = 3.25836 3.40682 3.33342
# Velocity P-wave (km/s) = 5.72468 6.05290 5.89107
#
# Compressibility (1/GPa) = 0.02683724
#
# Stress axis : x y z
#
# Youngs Moduli (GPa) = 97.25604 45.26524 58.83225
#
# Poissons Ratio (x) = 0.14442 0.21334
# Poissons Ratio (y) = 0.31030 0.26183
# Poissons Ratio (z) = 0.35267 0.20145
#
# Static dielectric constant tensor:
#      x y z
#    x 1.789770 0.000000 0.000000 
#    y 0.000000 1.709890 0.000000 
#    z 0.000000 0.000000 1.736070 
# 
# From -- ./inp_files/6889.got.cif
#   From: 2010.05.17/outbox.cif.g08.bks.cpg/sg46_4_cif.got.tgz:6889.got - 2010.06.03 19:58:25.
