data_PCOD9379580
_publ_section_title
;
Structure prediction by ZEFSAII (Michael W. Deem and Ramdas Pophale) SiO2 
 PCOD9379580
Probable space group: I M A 2
;
_chemical_formula_sum "Si O2"
_cell_formula_units_Z 56
_cell_length_a 14.473608
_cell_length_b 9.664225
_cell_length_c 19.945582
_cell_angle_alpha 90.000000
_cell_angle_beta 90.000000
_cell_angle_gamma 90.000000
_cell_volume 2789.912302
_symmetry_space_group_name_H-M "I M A 2"
_symmetry_group_IT_number 46
_symmetry_cell_setting 'orthorhombic'
loop_
_space_group_symop_operation_xyz
x,y,z
-x,-y,z
1/2-x,y,z
1/2+x,-y,z
1/2+x,1/2+y,1/2+z
1/2-x,1/2-y,1/2+z
-x,1/2+y,1/2+z
x,1/2-y,1/2+z
loop_
_atom_site_type_symbol
_atom_site_label
_atom_site_fract_x
_atom_site_fract_y
_atom_site_fract_z
Si Si1 0.644462 0.265063 0.629790
Si Si2 0.639153 0.632067 0.838561
Si Si3 0.021397 0.156569 0.920844
Si Si4 0.955278 0.806555 0.071359
Si Si5 0.858845 0.537758 0.693248
Si Si6 0.141998 0.625502 0.937124
Si Si7 0.856405 0.519925 0.082145
O O1 0.750000 0.282316 0.604832
O O2 0.565493 0.313314 0.579258
O O3 0.633190 0.370531 0.691343
O O4 0.631356 0.100693 0.637410
O O5 0.750000 0.652698 0.838408
O O6 0.588174 0.761795 0.870843
O O7 0.607893 0.600526 0.762908
O O8 0.621614 0.496837 0.884261
O O9 0.928853 0.249823 0.926790
O O10 0.067200 0.154386 0.995279
O O11 0.000000 0.000000 0.900827
O O12 0.909603 0.898471 0.129171
O O13 0.922725 0.649928 0.085160
O O14 0.750000 0.568993 0.686637
O O15 0.250000 0.665682 0.930346
O O16 0.130747 0.556263 0.010591
O O17 0.750000 0.568873 0.085185
#
# Coordination Sequence:
#
# PCOD9379580 Si02
#       7
#     8   8   8   8   8   8   8
#     4  10  21  36  57  88 125 159 204 258 316 378
#     4  10  23  45  70  91 124 174 225 270 327 397
#     4  12  25  38  62  98 134 168 218 272 326 389
#     4  12  22  36  61  94 126 167 209 260 321 384
#     4  10  23  43  64  91 126 167 212 266 327 390
#     4  10  21  40  65  91 123 170 218 267 321 383
#     4  10  20  36  59  91 124 159 207 263 316 371
#
# _framework density 20.072316000000001
#
# number of rings (size 3 to 8) (size 9 to 14) (size 15 to 20)
#    0.000    1.429    2.857    2.571    0.000    3.429 
#    0.000    2.857    0.000    3.429    0.000    0.000 
#    0.000    0.000    0.000    0.000    0.000    0.000 
#
# Total GULP energy -156376.027979 kJ/mol
# GULP energy per Si atom -5584.858142 kJ/mol
# Density = 2.002663 g / cm^3
# Si number density = 20.072316 Si / 1000 Ang^3
#
#
#
# Elastic Constant Matrix: (Units=GPa)
#
#
# Indices 1 2 3 4 5 6 
#
# 1 86.8270 59.4662 37.6173 0.0000 0.0000 0.0000
# 2 59.4662 156.0078 66.7424 0.0000 0.0000 0.0000
# 3 37.6173 66.7424 98.9732 0.0000 0.0000 0.0000
# 4 0.0000 0.0000 0.0000 24.6312 0.0000 0.0000
# 5 0.0000 0.0000 0.0000 0.0000 19.8211 0.0000
# 6 0.0000 0.0000 0.0000 0.0000 0.0000 34.2278
#
#
#
# Elastic Compliance Matrix: (Units=1/GPa)
#
#
# Indices 1 2 3 4 5 6 
#
# 1 0.016115 -0.004950 -0.002787 0.000000 0.000000 0.000000
# 2 -0.004950 0.010530 -0.005219 0.000000 0.000000 0.000000
# 3 -0.002787 -0.005219 0.014682 0.000000 0.000000 0.000000
# 4 0.000000 0.000000 0.000000 0.040599 0.000000 0.000000
# 5 0.000000 0.000000 0.000000 0.000000 0.050451 0.000000
# 6 0.000000 0.000000 0.000000 0.000000 0.000000 0.029216
#
#
# Mechanical properties :
#
#
# Convention : Reuss Voigt Hill
#
# Bulk Modulus (GPa) = 64.87324 74.38443 69.62883
# Shear Modulus (GPa) = 25.95464 27.60150 26.77807
#
# Velocity S-wave (km/s) = 3.59981 3.71226 3.65647
# Velocity P-wave (km/s) = 7.04756 7.45072 7.25194
#
# Compressibility (1/GPa) = 0.01541468
#
# Stress axis : x y z
#
# Youngs Moduli (GPa) = 62.05443 94.96884 68.10882
#
# Poissons Ratio (x) = 0.47014 0.18979
# Poissons Ratio (y) = 0.30720 0.35547
# Poissons Ratio (z) = 0.17292 0.49566
#
# Static dielectric constant tensor:
#      x y z
#    x 1.741420 0.000000 0.000000 
#    y 0.000000 1.715120 0.000000 
#    z 0.000000 0.000000 1.703230 
# 
# From -- ./inp_files/22009.got.cif
#   From: 2010.05.17/outbox.cif.g08.bks.cpg/sg46_12_cif.got.tgz:22009.got - 2010.06.03 19:58:25.
