data_PCOD9379741
_publ_section_title
;
Structure prediction by ZEFSAII (Michael W. Deem and Ramdas Pophale) SiO2 
 PCOD9379741
Probable space group: I M A 2
;
_chemical_formula_sum "Si O2"
_cell_formula_units_Z 64
_cell_length_a 19.191974
_cell_length_b 18.871435
_cell_length_c 8.356226
_cell_angle_alpha 90.000000
_cell_angle_beta 90.000000
_cell_angle_gamma 90.000000
_cell_volume 3026.458684
_symmetry_space_group_name_H-M "I M A 2"
_symmetry_group_IT_number 46
_symmetry_cell_setting 'orthorhombic'
loop_
_space_group_symop_operation_xyz
x,y,z
-x,-y,z
1/2-x,y,z
1/2+x,-y,z
1/2+x,1/2+y,1/2+z
1/2-x,1/2-y,1/2+z
-x,1/2+y,1/2+z
x,1/2-y,1/2+z
loop_
_atom_site_type_symbol
_atom_site_label
_atom_site_fract_x
_atom_site_fract_y
_atom_site_fract_z
Si Si1 0.455478 0.158355 0.067550
Si Si2 0.390920 0.708691 0.667846
Si Si3 0.670323 0.896828 0.602091
Si Si4 0.925664 0.801822 0.418460
Si Si5 0.829007 0.034944 0.406780
Si Si6 0.919913 0.345435 0.010770
Si Si7 0.671580 0.421062 0.539464
Si Si8 0.074060 0.474884 0.357989
O O1 0.535750 0.175301 0.108770
O O2 0.417300 0.174429 0.235326
O O3 0.435520 0.217661 0.936478
O O4 0.443848 0.080044 0.001745
O O5 0.385661 0.689811 0.852933
O O6 0.396571 0.792666 0.649609
O O7 0.336369 0.663251 0.566078
O O8 0.750000 0.888178 0.655196
O O9 0.636476 0.826540 0.531271
O O10 0.622460 0.931072 0.738114
O O11 0.668633 0.953771 0.457564
O O12 0.997094 0.838823 0.485188
O O13 0.750000 0.061093 0.442774
O O14 0.886629 0.077370 0.508701
O O15 0.840644 0.047147 0.218394
O O16 0.750000 0.438618 0.488434
O O17 0.616551 0.457848 0.423666
O O18 0.000000 0.500000 0.288511
#
# Coordination Sequence:
#
# PCOD9379741 Si02
#       8
#     8   8   8   8   8   8   8   8
#     4  10  20  40  62  94 120 154 204 252 303 363
#     4   9  18  34  52  84 118 153 192 245 291 356
#     4  11  25  43  59  89 125 160 205 258 312 372
#     4  10  21  39  66  88 123 158 199 256 304 363
#     4   9  20  38  58  82 120 159 201 246 299 362
#     4   9  19  32  56  84 116 152 199 240 293 353
#     4  10  20  38  59  84 119 161 198 248 305 366
#     4  12  24  38  62  91 125 161 210 256 309 370
#
# _framework density 21.146827999999999
#
# number of rings (size 3 to 8) (size 9 to 14) (size 15 to 20)
#    0.000    2.000    1.250    1.875    1.750    2.500 
#    0.000    3.750    0.000    0.000    0.000    0.000 
#    0.000    0.000    0.000    0.000    0.000    0.000 
#
# Total GULP energy -178703.494861 kJ/mol
# GULP energy per Si atom -5584.484214 kJ/mol
# Density = 2.109870 g / cm^3
# Si number density = 21.146828 Si / 1000 Ang^3
#
#
#
# Elastic Constant Matrix: (Units=GPa)
#
#
# Indices 1 2 3 4 5 6 
#
# 1 96.8473 9.7701 11.1126 0.0000 0.0000 0.0000
# 2 9.7701 33.5109 -13.9799 0.0000 0.0000 0.0000
# 3 11.1126 -13.9799 34.8430 0.0000 0.0000 0.0000
# 4 0.0000 0.0000 0.0000 27.9182 0.0000 0.0000
# 5 0.0000 0.0000 0.0000 0.0000 19.0099 0.0000
# 6 0.0000 0.0000 0.0000 0.0000 0.0000 25.2027
#
#
#
# Elastic Compliance Matrix: (Units=1/GPa)
#
#
# Indices 1 2 3 4 5 6 
#
# 1 0.011622 -0.005926 -0.006084 0.000000 0.000000 0.000000
# 2 -0.005926 0.038862 0.017483 0.000000 0.000000 0.000000
# 3 -0.006084 0.017483 0.037655 0.000000 0.000000 0.000000
# 4 0.000000 0.000000 0.000000 0.035819 0.000000 0.000000
# 5 0.000000 0.000000 0.000000 0.000000 0.052604 0.000000
# 6 0.000000 0.000000 0.000000 0.000000 0.000000 0.039678
#
#
# Mechanical properties :
#
#
# Convention : Reuss Voigt Hill
#
# Bulk Modulus (GPa) = 10.09257 19.88962 14.99110
# Shear Modulus (GPa) = 20.97983 24.97940 22.97961
#
# Velocity S-wave (km/s) = 3.15318 3.44064 3.30004
# Velocity P-wave (km/s) = 4.24732 5.02095 4.65025
#
# Compressibility (1/GPa) = 0.09908277
#
# Stress axis : x y z
#
# Youngs Moduli (GPa) = 86.04710 25.73189 26.55674
#
# Poissons Ratio (x) = 0.15250 0.16158
# Poissons Ratio (y) = 0.50996 -0.46428
# Poissons Ratio (z) = 0.52354 -0.44986
#
# Static dielectric constant tensor:
#      x y z
#    x 1.766110 0.000000 0.000000 
#    y 0.000000 1.766850 0.000000 
#    z 0.000000 0.000000 1.778710 
# 
# From -- ./inp_files/6930.got.cif
#   From: 2010.05.17/outbox.cif.g08.bks.cpg/sg46_4_cif.got.tgz:6930.got - 2010.06.03 19:58:25.
