data_PCOD9379781
_publ_section_title
;
Structure prediction by ZEFSAII (Michael W. Deem and Ramdas Pophale) SiO2 
 PCOD9379781
Probable space group: I M A 2
;
_chemical_formula_sum "Si O2"
_cell_formula_units_Z 40
_cell_length_a 20.159146
_cell_length_b 5.238450
_cell_length_c 18.479093
_cell_angle_alpha 90.000000
_cell_angle_beta 90.000000
_cell_angle_gamma 90.000000
_cell_volume 1951.441715
_symmetry_space_group_name_H-M "I M A 2"
_symmetry_group_IT_number 46
_symmetry_cell_setting 'orthorhombic'
loop_
_space_group_symop_operation_xyz
x,y,z
-x,-y,z
1/2-x,y,z
1/2+x,-y,z
1/2+x,1/2+y,1/2+z
1/2-x,1/2-y,1/2+z
-x,1/2+y,1/2+z
x,1/2-y,1/2+z
loop_
_atom_site_type_symbol
_atom_site_label
_atom_site_fract_x
_atom_site_fract_y
_atom_site_fract_z
Si Si1 0.569611 0.546589 0.160980
Si Si2 0.422792 0.013992 0.335279
Si Si3 0.922734 0.013365 0.931454
Si Si4 0.888407 0.443738 0.587738
Si Si5 0.324635 0.783955 0.221722
O O1 0.500000 0.500000 0.200713
O O2 0.574276 0.819649 0.124662
O O3 0.632154 0.474523 0.211038
O O4 0.573214 0.324514 0.099555
O O5 0.413663 0.780551 0.391084
O O6 0.370504 0.959596 0.272103
O O7 0.500000 0.000000 0.310105
O O8 0.411880 0.279197 0.376871
O O9 0.879299 0.001277 0.003904
O O10 0.000000 0.000000 0.955288
O O11 0.825923 0.401120 0.640568
O O12 0.250000 0.748811 0.247542
#
# Coordination Sequence:
#
# PCOD9379781 Si02
#       5
#     8   8   8   8   8
#     4  10  21  35  65  95 120 157 209 263 312 368
#     4  10  23  38  63  92 125 164 211 256 313 376
#     4  10  20  38  62  95 125 158 204 266 315 369
#     4  10  22  38  66  94 127 157 213 259 323 370
#     4  10  26  43  63  92 132 170 212 261 318 376
#
# _framework density 20.497667
#
# number of rings (size 3 to 8) (size 9 to 14) (size 15 to 20)
#    1.200    0.800    0.000    3.000    5.600    3.200 
#    0.000    2.000    0.000    0.000    0.000    0.000 
#    0.000    0.000    0.000    0.000    0.000    0.000 
#
# Total GULP energy -111498.969005 kJ/mol
# GULP energy per Si atom -5574.948450 kJ/mol
# Density = 2.045101 g / cm^3
# Si number density = 20.497667 Si / 1000 Ang^3
#
#
#
# Elastic Constant Matrix: (Units=GPa)
#
#
# Indices 1 2 3 4 5 6 
#
# 1 110.4520 1.0388 39.4882 0.0000 0.0000 0.0000
# 2 1.0388 101.8429 13.4637 0.0000 0.0000 0.0000
# 3 39.4882 13.4637 93.8978 0.0000 0.0000 0.0000
# 4 0.0000 0.0000 0.0000 27.4962 0.0000 0.0000
# 5 0.0000 0.0000 0.0000 0.0000 13.2802 0.0000
# 6 0.0000 0.0000 0.0000 0.0000 0.0000 10.3578
#
#
#
# Elastic Compliance Matrix: (Units=1/GPa)
#
#
# Indices 1 2 3 4 5 6 
#
# 1 0.010680 0.000494 -0.004562 0.000000 0.000000 0.000000
# 2 0.000494 0.010032 -0.001646 0.000000 0.000000 0.000000
# 3 -0.004562 -0.001646 0.012805 0.000000 0.000000 0.000000
# 4 0.000000 0.000000 0.000000 0.036369 0.000000 0.000000
# 5 0.000000 0.000000 0.000000 0.000000 0.075300 0.000000
# 6 0.000000 0.000000 0.000000 0.000000 0.000000 0.096546
#
#
# Mechanical properties :
#
#
# Convention : Reuss Voigt Hill
#
# Bulk Modulus (GPa) = 45.27420 46.01935 45.64677
# Shear Modulus (GPa) = 19.19221 27.04031 23.11626
#
# Velocity S-wave (km/s) = 3.06324 3.63600 3.36184
# Velocity P-wave (km/s) = 5.88614 6.33460 6.11448
#
# Compressibility (1/GPa) = 0.02208764
#
# Stress axis : x y z
#
# Youngs Moduli (GPa) = 93.63149 99.68467 78.09701
#
# Poissons Ratio (x) = -0.04926 0.35631
# Poissons Ratio (y) = -0.04627 0.12857
# Poissons Ratio (z) = 0.42718 0.16410
#
# Static dielectric constant tensor:
#      x y z
#    x 1.723340 0.000000 0.000000 
#    y 0.000000 1.744800 0.000000 
#    z 0.000000 0.000000 1.760390 
# 
# From -- ./inp_files/20103.got.cif
#   From: 2010.05.17/outbox.cif.g08.bks.cpg/sg46_11_cif.got.tgz:20103.got - 2010.06.03 19:58:25.
