data_PCOD9379268
_publ_section_title
;
Structure prediction by ZEFSAII (Michael W. Deem and Ramdas Pophale) SiO2 
 PCOD9379268
Probable space group: I M A 2
;
_chemical_formula_sum "Si O2"
_cell_formula_units_Z 64
_cell_length_a 7.756112
_cell_length_b 25.620991
_cell_length_c 15.629095
_cell_angle_alpha 90.000000
_cell_angle_beta 90.000000
_cell_angle_gamma 90.000000
_cell_volume 3105.802439
_symmetry_space_group_name_H-M "I M A 2"
_symmetry_group_IT_number 46
_symmetry_cell_setting 'orthorhombic'
loop_
_space_group_symop_operation_xyz
x,y,z
-x,-y,z
1/2-x,y,z
1/2+x,-y,z
1/2+x,1/2+y,1/2+z
1/2-x,1/2-y,1/2+z
-x,1/2+y,1/2+z
x,1/2-y,1/2+z
loop_
_atom_site_type_symbol
_atom_site_label
_atom_site_fract_x
_atom_site_fract_y
_atom_site_fract_z
Si Si1 0.042229 0.939712 0.986130
Si Si2 0.448849 0.868227 0.138254
Si Si3 0.047396 0.233204 0.044716
Si Si4 0.547351 0.846302 0.502659
Si Si5 0.954804 0.169354 0.310252
Si Si6 0.044836 0.558885 0.124159
Si Si7 0.039379 0.897116 0.802857
Si Si8 0.959386 0.216453 0.848389
O O1 0.250000 0.933135 0.983762
O O2 0.979131 0.920888 0.892996
O O3 0.973153 0.904511 0.064204
O O4 0.000000 0.000000 0.998980
O O5 0.250000 0.885513 0.146244
O O6 0.527279 0.865459 0.233189
O O7 0.454850 0.808951 0.103550
O O8 0.250000 0.232201 0.066380
O O9 0.978698 0.292762 0.046053
O O10 0.022476 0.215270 0.946299
O O11 0.750000 0.837155 0.493116
O O12 0.478030 0.851074 0.406353
O O13 0.517736 0.897065 0.558993
O O14 0.750000 0.172925 0.295015
O O15 0.022019 0.228957 0.309213
O O16 0.250000 0.563176 0.126655
O O17 0.977697 0.572080 0.219541
O O18 0.000000 0.500000 0.099596
O O19 0.250000 0.898902 0.803063
O O20 0.988728 0.836228 0.800519
O O21 0.750000 0.217447 0.851545
#
# Coordination Sequence:
#
# PCOD9379268 Si02
#       8
#     8   8   8   8   8   8   8   8
#     4  10  20  36  55  78 112 149 185 227 274 327
#     4  10  20  35  57  83 114 149 189 237 282 334
#     4  10  20  33  52  82 116 149 185 227 281 340
#     4  10  22  40  58  81 116 152 188 236 292 344
#     4   9  19  34  58  86 111 147 191 234 282 339
#     4  11  23  39  61  85 113 149 196 244 289 343
#     4   9  18  33  55  84 114 146 184 229 280 334
#     4   9  16  32  54  79 112 146 185 226 272 334
#
# _framework density 20.606591000000002
#
# number of rings (size 3 to 8) (size 9 to 14) (size 15 to 20)
#    0.000    2.250    1.250    1.500    1.750    2.500 
#    0.000    2.500    0.000    1.500    0.000    0.000 
#    0.000    0.000    0.000    0.000    0.000    0.000 
#
# Total GULP energy -178636.395807 kJ/mol
# GULP energy per Si atom -5582.387369 kJ/mol
# Density = 2.055969 g / cm^3
# Si number density = 20.606591 Si / 1000 Ang^3
#
#
#
# Elastic Constant Matrix: (Units=GPa)
#
#
# Indices 1 2 3 4 5 6 
#
# 1 30.5595 -12.2284 -7.1495 0.0000 0.0000 0.0000
# 2 -12.2284 113.2134 65.6508 0.0000 0.0000 0.0000
# 3 -7.1495 65.6508 107.0715 0.0001 0.0001 0.0000
# 4 0.0000 0.0000 0.0001 28.4822 0.0000 0.0000
# 5 0.0000 0.0000 0.0001 0.0000 -26.6458 0.0000
# 6 0.0000 0.0000 0.0000 0.0000 0.0000 16.8984
#
#
#
# Elastic Compliance Matrix: (Units=1/GPa)
#
#
# Indices 1 2 3 4 5 6 
#
# 1 0.034201 0.003677 0.000029 0.000000 0.000000 0.000000
# 2 0.003677 0.014102 -0.008401 0.000000 0.000000 0.000000
# 3 0.000029 -0.008401 0.014492 0.000000 0.000000 0.000000
# 4 0.000000 0.000000 0.000000 0.035110 0.000000 0.000000
# 5 0.000000 0.000000 0.000000 0.000000 -0.037529 0.000000
# 6 0.000000 0.000000 0.000000 0.000000 0.000000 0.059177
#
#
# Mechanical properties :
#
#
# Convention : Reuss Voigt Hill
#
# Bulk Modulus (GPa) = 18.72436 38.15445 28.43941
# Shear Modulus (GPa) = 34.07298 17.38507 25.72902
#
# Velocity S-wave (km/s) = 4.07074 2.90774 3.53736
# Velocity P-wave (km/s) = 5.58577 5.46161 5.52404
#
# Compressibility (1/GPa) = 0.05340636
#
# Stress axis : x y z
#
# Youngs Moduli (GPa) = 29.23864 70.91394 69.00141
#
# Poissons Ratio (x) = -0.26078 -0.00200
# Poissons Ratio (y) = -0.10752 0.57967
# Poissons Ratio (z) = -0.00085 0.59574
#
# Static dielectric constant tensor:
#      x y z
#    x 1.761040 0.000000 0.000000 
#    y 0.000000 1.712690 0.000000 
#    z 0.000000 0.000000 1.749190 
# 
# From -- ./inp_files/14455.got.cif
#   From: 2010.05.17/outbox.cif.g08.bks.cpg/sg46_8_cif.got.tgz:14455.got - 2010.06.03 19:58:25.
