data_PCOD9379655
_publ_section_title
;
Structure prediction by ZEFSAII (Michael W. Deem and Ramdas Pophale) SiO2 
 PCOD9379655
Probable space group: I M A 2
;
_chemical_formula_sum "Si O2"
_cell_formula_units_Z 40
_cell_length_a 21.884699
_cell_length_b 8.002455
_cell_length_c 9.357813
_cell_angle_alpha 90.000000
_cell_angle_beta 90.000000
_cell_angle_gamma 90.000000
_cell_volume 1638.846133
_symmetry_space_group_name_H-M "I M A 2"
_symmetry_group_IT_number 46
_symmetry_cell_setting 'orthorhombic'
loop_
_space_group_symop_operation_xyz
x,y,z
-x,-y,z
1/2-x,y,z
1/2+x,-y,z
1/2+x,1/2+y,1/2+z
1/2-x,1/2-y,1/2+z
-x,1/2+y,1/2+z
x,1/2-y,1/2+z
loop_
_atom_site_type_symbol
_atom_site_label
_atom_site_fract_x
_atom_site_fract_y
_atom_site_fract_z
Si Si1 0.750000 0.499100 0.569310
Si Si2 0.441115 0.270630 0.843980
Si Si3 0.927842 0.113553 0.460933
Si Si4 0.750000 0.186439 0.764043
Si Si5 0.884896 0.917760 0.075748
Si Si6 0.879791 0.216972 0.720048
O O1 0.750000 0.383232 0.713644
O O2 0.750000 0.378012 0.428210
O O3 0.687855 0.606186 0.565075
O O4 0.407843 0.429233 0.917701
O O5 0.510465 0.320102 0.884682
O O6 0.422222 0.293773 0.680649
O O7 0.417504 0.106313 0.922915
O O8 0.930523 0.118791 0.631098
O O9 0.880558 0.239975 0.386672
O O10 0.814327 0.131683 0.694948
O O11 0.889508 0.100064 0.147747
#
# Coordination Sequence:
#
# PCOD9379655 Si02
#       6
#     4   8   8   4   8   8
#     4  10  22  40  64  92 124 164 206 256 312 370
#     4  10  22  39  56  83 121 156 196 250 307 367
#     4  10  21  37  59  84 115 157 202 249 305 362
#     4  10  20  38  60  88 122 154 200 250 300 366
#     4  10  22  39  59  86 121 157 200 253 309 363
#     4  10  20  37  60  86 114 153 203 254 301 359
#
# _framework density 24.407416000000001
#
# number of rings (size 3 to 8) (size 9 to 14) (size 15 to 20)
#    0.000    2.000    0.000    3.600    0.000    6.400 
#    0.000    2.000    0.000    0.000    0.000    0.000 
#    0.000    0.000    0.000    0.000    0.000    0.000 
#
# Total GULP energy -111401.266688 kJ/mol
# GULP energy per Si atom -5570.063334 kJ/mol
# Density = 2.435186 g / cm^3
# Si number density = 24.407416 Si / 1000 Ang^3
#
#
#
# Elastic Constant Matrix: (Units=GPa)
#
#
# Indices 1 2 3 4 5 6 
#
# 1 87.4135 -1.9113 2.4768 0.0000 0.0000 0.0000
# 2 -1.9113 50.7951 17.1840 0.0000 0.0000 0.0000
# 3 2.4768 17.1840 130.3265 0.0000 0.0000 0.0000
# 4 0.0000 0.0000 0.0000 30.2063 0.0000 0.0000
# 5 0.0000 0.0000 0.0000 0.0000 26.9482 0.0000
# 6 0.0000 0.0000 0.0000 0.0000 0.0000 21.4722
#
#
#
# Elastic Compliance Matrix: (Units=1/GPa)
#
#
# Indices 1 2 3 4 5 6 
#
# 1 0.011460 0.000528 -0.000287 0.000000 0.000000 0.000000
# 2 0.000528 0.020630 -0.002730 0.000000 0.000000 0.000000
# 3 -0.000287 -0.002730 0.008038 0.000000 0.000000 0.000000
# 4 0.000000 0.000000 0.000000 0.033106 0.000000 0.000000
# 5 0.000000 0.000000 0.000000 0.000000 0.037108 0.000000
# 6 0.000000 0.000000 0.000000 0.000000 0.000000 0.046572
#
#
# Mechanical properties :
#
#
# Convention : Reuss Voigt Hill
#
# Bulk Modulus (GPa) = 28.44948 33.78158 31.11553
# Shear Modulus (GPa) = 28.80028 32.44439 30.62233
#
# Velocity S-wave (km/s) = 3.43881 3.64989 3.54592
# Velocity P-wave (km/s) = 5.23914 5.62432 5.43515
#
# Compressibility (1/GPa) = 0.03515003
#
# Stress axis : x y z
#
# Youngs Moduli (GPa) = 87.26327 48.47197 124.40148
#
# Poissons Ratio (x) = -0.02562 0.03576
# Poissons Ratio (y) = -0.04611 0.33965
# Poissons Ratio (z) = 0.02509 0.13234
#
# Static dielectric constant tensor:
#      x y z
#    x 2.071840 0.000000 0.000000 
#    y 0.000000 1.990480 0.000000 
#    z 0.000000 0.000000 1.980300 
# 
# From -- ./inp_files/7743.got.cif
#   From: 2010.05.17/outbox.cif.g08.bks.cpg/sg46_4_cif.got.tgz:7743.got - 2010.06.03 19:58:25.
