data_PCOD9379467
_publ_section_title
;
Structure prediction by ZEFSAII (Michael W. Deem and Ramdas Pophale) SiO2 
 PCOD9379467
Probable space group: I M A 2
;
_chemical_formula_sum "Si O2"
_cell_formula_units_Z 64
_cell_length_a 18.023290
_cell_length_b 18.989985
_cell_length_c 9.431350
_cell_angle_alpha 90.000000
_cell_angle_beta 90.000000
_cell_angle_gamma 90.000000
_cell_volume 3227.992777
_symmetry_space_group_name_H-M "I M A 2"
_symmetry_group_IT_number 46
_symmetry_cell_setting 'orthorhombic'
loop_
_space_group_symop_operation_xyz
x,y,z
-x,-y,z
1/2-x,y,z
1/2+x,-y,z
1/2+x,1/2+y,1/2+z
1/2-x,1/2-y,1/2+z
-x,1/2+y,1/2+z
x,1/2-y,1/2+z
loop_
_atom_site_type_symbol
_atom_site_label
_atom_site_fract_x
_atom_site_fract_y
_atom_site_fract_z
Si Si1 0.940173 0.141633 0.965070
Si Si2 0.167422 0.440622 0.087531
Si Si3 0.662747 0.812369 0.378343
Si Si4 0.022025 0.386159 0.198843
Si Si5 0.163765 0.626033 0.701952
Si Si6 0.386455 0.906381 0.515723
Si Si7 0.931524 0.731610 0.613591
Si Si8 0.334046 0.708581 0.241738
O O1 0.889008 0.193963 0.871532
O O2 0.979907 0.096522 0.843249
O O3 0.886313 0.100691 0.071684
O O4 0.003266 0.183489 0.050943
O O5 0.250000 0.428271 0.143257
O O6 0.103135 0.418223 0.193839
O O7 0.155260 0.521478 0.050398
O O8 0.158124 0.389286 0.951503
O O9 0.750000 0.795423 0.359680
O O10 0.622500 0.759809 0.489294
O O11 0.617330 0.806346 0.233155
O O12 0.031812 0.301832 0.181803
O O13 0.971751 0.411394 0.066961
O O14 0.250000 0.603610 0.698986
O O15 0.162013 0.711078 0.692925
O O16 0.126380 0.608169 0.851475
O O17 0.353899 0.843451 0.612629
O O18 0.250000 0.694092 0.289182
#
# Coordination Sequence:
#
# PCOD9379467 Si02
#       8
#     8   8   8   8   8   8   8   8
#     4  11  21  34  54  86 121 160 196 249 309 364
#     4  10  22  41  65  90 120 161 213 261 306 372
#     4  10  22  38  63  92 123 158 206 261 317 370
#     4  10  22  38  60  91 119 161 205 254 300 374
#     4  11  22  34  57  93 127 159 202 253 308 363
#     4  11  22  39  67  90 120 162 214 252 309 370
#     4  11  20  37  61  91 125 157 200 254 320 363
#     4  10  20  35  57  88 124 162 204 251 302 363
#
# _framework density 19.826561999999999
#
# number of rings (size 3 to 8) (size 9 to 14) (size 15 to 20)
#    0.000    1.500    1.250    5.250    3.500    2.500 
#    0.000    0.000   11.000    0.000    0.000    0.000 
#    0.000    0.000    0.000    0.000    0.000    0.000 
#
# Total GULP energy -178811.465683 kJ/mol
# GULP energy per Si atom -5587.858303 kJ/mol
# Density = 1.978144 g / cm^3
# Si number density = 19.826562 Si / 1000 Ang^3
#
#
#
# Elastic Constant Matrix: (Units=GPa)
#
#
# Indices 1 2 3 4 5 6 
#
# 1 162.5225 16.2512 73.1671 0.0000 0.0000 0.0000
# 2 16.2512 27.8645 7.3731 0.0000 0.0000 0.0000
# 3 73.1671 7.3731 125.6137 0.0000 0.0000 0.0000
# 4 0.0000 0.0000 0.0000 4.9452 0.0000 0.0000
# 5 0.0000 0.0000 0.0000 0.0000 35.8813 0.0000
# 6 0.0000 0.0000 0.0000 0.0000 0.0000 17.6552
#
#
#
# Elastic Compliance Matrix: (Units=1/GPa)
#
#
# Indices 1 2 3 4 5 6 
#
# 1 0.008719 -0.003800 -0.004856 0.000000 0.000000 0.000000
# 2 -0.003800 0.038111 -0.000023 0.000000 0.000000 0.000000
# 3 -0.004856 -0.000023 0.010791 0.000000 0.000000 0.000000
# 4 0.000000 0.000000 0.000000 0.202218 0.000000 0.000000
# 5 0.000000 0.000000 0.000000 0.000000 0.027870 0.000000
# 6 0.000000 0.000000 0.000000 0.000000 0.000000 0.056640
#
#
# Mechanical properties :
#
#
# Convention : Reuss Voigt Hill
#
# Bulk Modulus (GPa) = 24.83753 56.62040 40.72897
# Shear Modulus (GPa) = 13.32881 26.31029 19.81955
#
# Velocity S-wave (km/s) = 2.59563 3.64678 3.16515
# Velocity P-wave (km/s) = 4.64087 6.80822 5.82621
#
# Compressibility (1/GPa) = 0.04026165
#
# Stress axis : x y z
#
# Youngs Moduli (GPa) = 114.69287 26.23942 92.67401
#
# Poissons Ratio (x) = 0.09972 0.44998
# Poissons Ratio (y) = 0.43587 0.00217
# Poissons Ratio (z) = 0.55689 0.00061
#
# Static dielectric constant tensor:
#      x y z
#    x 1.727280 0.000000 0.000000 
#    y 0.000000 1.683980 0.000000 
#    z 0.000000 0.000000 1.696760 
# 
# From -- ./inp_files/6937.got.cif
#   From: 2010.05.17/outbox.cif.g08.bks.cpg/sg46_4_cif.got.tgz:6937.got - 2010.06.03 19:58:25.
