data_PCOD9379657
_publ_section_title
;
Structure prediction by ZEFSAII (Michael W. Deem and Ramdas Pophale) SiO2 
 PCOD9379657
Probable space group: I M A 2
;
_chemical_formula_sum "Si O2"
_cell_formula_units_Z 60
_cell_length_a 7.561461
_cell_length_b 26.944796
_cell_length_c 13.343337
_cell_angle_alpha 90.000000
_cell_angle_beta 90.000000
_cell_angle_gamma 90.000000
_cell_volume 2718.598489
_symmetry_space_group_name_H-M "I M A 2"
_symmetry_group_IT_number 46
_symmetry_cell_setting 'orthorhombic'
loop_
_space_group_symop_operation_xyz
x,y,z
-x,-y,z
1/2-x,y,z
1/2+x,-y,z
1/2+x,1/2+y,1/2+z
1/2-x,1/2-y,1/2+z
-x,1/2+y,1/2+z
x,1/2-y,1/2+z
loop_
_atom_site_type_symbol
_atom_site_label
_atom_site_fract_x
_atom_site_fract_y
_atom_site_fract_z
Si Si1 0.962828 0.941975 0.662260
Si Si2 0.541486 0.775600 0.156113
Si Si3 0.750000 0.249975 0.025166
Si Si4 0.458732 0.557964 0.775353
Si Si5 0.962824 0.941974 0.888144
Si Si6 0.042791 0.381424 0.577732
Si Si7 0.958518 0.775558 0.394263
Si Si8 0.042878 0.118661 0.472800
O O1 0.750000 0.936830 0.663819
O O2 0.027948 0.930859 0.775203
O O3 0.031613 0.907821 0.571710
O O4 0.000000 0.000000 0.641354
O O5 0.750000 0.767969 0.134147
O O6 0.408141 0.737293 0.107493
O O7 0.470606 0.828243 0.112027
O O8 0.526539 0.778011 0.275190
O O9 0.591855 0.237236 0.942844
O O10 0.500000 0.500000 0.775399
O O11 0.250000 0.565632 0.775507
O O12 0.529561 0.583013 0.674209
O O13 0.529996 0.583092 0.876314
O O14 0.750000 0.936817 0.886574
O O15 0.031608 0.907848 0.978736
O O16 0.000000 0.000000 0.909031
O O17 0.250000 0.372463 0.559097
O O18 0.750000 0.767917 0.416208
O O19 0.029431 0.828186 0.438413
O O20 0.250000 0.127695 0.491599
#
# Coordination Sequence:
#
# PCOD9379657 Si02
#       8
#     8   8   4   8   8   8   8   8
#     4   9  18  33  53  79 115 160 206 253 303 359
#     4  10  22  42  67  95 129 169 210 270 347 413
#     4  12  24  40  68  96 128 160 228 260 340 420
#     4  12  24  34  54  88 130 170 218 264 316 382
#     4   9  18  33  53  79 115 160 206 253 303 359
#     4  10  20  37  60  86 121 163 212 259 317 389
#     4  10  22  42  67  95 129 169 210 270 347 413
#     4  10  20  37  60  86 121 163 212 259 317 389
#
# _framework density 22.070194000000001
#
# number of rings (size 3 to 8) (size 9 to 14) (size 15 to 20)
#    0.000    1.867    1.333    2.800    1.867    3.200 
#    0.000    2.667    0.000    6.400    0.000    0.000 
#    0.000    0.000    0.000    0.000    0.000    0.000 
#
# Total GULP energy -167022.953237 kJ/mol
# GULP energy per Si atom -5567.431775 kJ/mol
# Density = 2.201996 g / cm^3
# Si number density = 22.070194 Si / 1000 Ang^3
#
#
#
# Elastic Constant Matrix: (Units=GPa)
#
#
# Indices 1 2 3 4 5 6 
#
# 1 110.2615 0.0649 29.6227 0.0000 0.0000 0.0000
# 2 0.0649 29.0653 39.6917 0.0000 -0.0001 0.0000
# 3 29.6227 39.6917 181.9870 0.0000 0.0002 0.0000
# 4 0.0000 0.0000 0.0000 13.9014 0.0001 0.0000
# 5 0.0000 -0.0001 0.0002 0.0001 -140.3076 0.0000
# 6 0.0000 0.0000 0.0000 0.0000 0.0000 -7.6756
#
#
#
# Elastic Compliance Matrix: (Units=1/GPa)
#
#
# Indices 1 2 3 4 5 6 
#
# 1 0.009668 0.003030 -0.002234 0.000000 0.000000 0.000000
# 2 0.003030 0.049949 -0.011387 0.000000 0.000000 0.000000
# 3 -0.002234 -0.011387 0.008342 0.000000 0.000000 0.000000
# 4 0.000000 0.000000 0.000000 0.071935 0.000000 0.000000
# 5 0.000000 0.000000 0.000000 0.000000 -0.007127 0.000000
# 6 0.000000 0.000000 0.000000 0.000000 0.000000 -0.130284
#
#
# Mechanical properties :
#
#
# Convention : Reuss Voigt Hill
#
# Bulk Modulus (GPa) = 21.37880 51.11917 36.24898
# Shear Modulus (GPa) = 127.36125 -10.02071 58.67027
#
# Velocity S-wave (km/s) = 7.60478 -2.13313 5.16151
# Velocity P-wave (km/s) = 9.31761 4.14070 7.20983
#
# Compressibility (1/GPa) = 0.04677532
#
# Stress axis : x y z
#
# Youngs Moduli (GPa) = 103.43528 20.02050 119.87300
#
# Poissons Ratio (x) = -0.06066 0.26785
# Poissons Ratio (y) = -0.31339 1.36501
# Poissons Ratio (z) = 0.23112 0.22798
#
# Static dielectric constant tensor:
#      x y z
#    x 1.861710 0.000000 0.000000 
#    y 0.000000 1.887660 0.000000 
#    z 0.000000 0.000000 1.856900 
# 
# From -- ./inp_files/9628.got.cif
#   From: 2010.05.17/outbox.cif.g08.bks.cpg/sg46_5_cif.got.tgz:9628.got - 2010.06.03 19:58:25.
