data_PCOD9379731
_publ_section_title
;
Structure prediction by ZEFSAII (Michael W. Deem and Ramdas Pophale) SiO2 
 PCOD9379731
Probable space group: I M A 2
;
_chemical_formula_sum "Si O2"
_cell_formula_units_Z 40
_cell_length_a 10.270317
_cell_length_b 7.265413
_cell_length_c 26.608645
_cell_angle_alpha 90.000000
_cell_angle_beta 90.000000
_cell_angle_gamma 90.000000
_cell_volume 1985.486391
_symmetry_space_group_name_H-M "I M A 2"
_symmetry_group_IT_number 46
_symmetry_cell_setting 'orthorhombic'
loop_
_space_group_symop_operation_xyz
x,y,z
-x,-y,z
1/2-x,y,z
1/2+x,-y,z
1/2+x,1/2+y,1/2+z
1/2-x,1/2-y,1/2+z
-x,1/2+y,1/2+z
x,1/2-y,1/2+z
loop_
_atom_site_type_symbol
_atom_site_label
_atom_site_fract_x
_atom_site_fract_y
_atom_site_fract_z
Si Si1 0.900216 0.669677 0.056360
Si Si2 0.250000 0.000240 0.311945
Si Si3 0.500000 0.500000 0.879832
Si Si4 0.401065 0.337161 0.446788
Si Si5 0.250000 0.309655 0.236270
Si Si6 0.483973 0.221802 0.662974
Si Si7 0.250000 0.749738 0.214233
O O1 0.750000 0.603960 0.062349
O O2 0.938305 0.775848 0.107408
O O3 0.000000 0.500000 0.050441
O O4 0.906822 0.788526 0.005963
O O5 0.250000 0.211031 0.290463
O O6 0.122618 0.957498 0.344443
O O7 0.250000 0.873912 0.263069
O O8 0.548931 0.663697 0.915300
O O9 0.500000 0.500000 0.435789
O O10 0.250000 0.377548 0.434359
O O11 0.123855 0.243930 0.205234
O O12 0.250000 0.533490 0.232181
O O13 0.622890 0.290443 0.681175
O O14 0.500000 0.000000 0.659907
#
# Coordination Sequence:
#
# PCOD9379731 Si02
#       7
#     8   4   4   8   4   8   4
#     4  10  20  37  65  98 135 178 219 267 334 405
#     4  12  26  42  70  96 126 182 232 278 348 392
#     4  12  26  48  70 100 134 180 232 290 346 400
#     4  11  26  47  71 102 138 177 227 287 344 410
#     4  10  20  40  61  87 133 167 216 280 320 395
#     4   9  18  35  60  92 130 176 213 262 333 397
#     4  10  22  40  61  93 131 173 222 276 328 399
#
# _framework density 20.146197000000001
#
# number of rings (size 3 to 8) (size 9 to 14) (size 15 to 20)
#    0.000    1.600    3.000    1.200    5.600    2.400 
#    3.600    0.000    0.000    0.000    0.000    0.000 
#    0.000    0.000    0.000    0.000    0.000    0.000 
#
# Total GULP energy -111754.722043 kJ/mol
# GULP energy per Si atom -5587.736102 kJ/mol
# Density = 2.010034 g / cm^3
# Si number density = 20.146197 Si / 1000 Ang^3
#
#
#
# Elastic Constant Matrix: (Units=GPa)
#
#
# Indices 1 2 3 4 5 6 
#
# 1 204.8222 46.4821 61.8250 0.0000 0.0000 0.0000
# 2 46.4821 71.1821 20.9542 0.0000 0.0000 0.0000
# 3 61.8250 20.9542 106.4832 0.0000 0.0000 0.0000
# 4 0.0000 0.0000 0.0000 0.0264 0.0000 0.0000
# 5 0.0000 0.0000 0.0000 0.0000 33.3867 0.0000
# 6 0.0000 0.0000 0.0000 0.0000 0.0000 18.0420
#
#
#
# Elastic Compliance Matrix: (Units=1/GPa)
#
#
# Indices 1 2 3 4 5 6 
#
# 1 0.006607 -0.003381 -0.003171 0.000000 0.000000 0.000000
# 2 -0.003381 0.016642 -0.001312 0.000001 0.000000 0.000000
# 3 -0.003171 -0.001312 0.011490 0.000000 0.000000 0.000000
# 4 0.000000 0.000001 0.000000 37.912930 0.000000 0.000001
# 5 0.000000 0.000000 0.000000 0.000000 0.029952 0.000000
# 6 0.000000 0.000000 0.000000 0.000001 0.000000 0.055426
#
#
# Mechanical properties :
#
#
# Convention : Reuss Voigt Hill
#
# Bulk Modulus (GPa) = 52.59728 71.22334 61.91031
# Shear Modulus (GPa) = 0.13139 27.17275 13.65207
#
# Velocity S-wave (km/s) = 0.25565 3.67656 2.60600
# Velocity P-wave (km/s) = 5.12363 7.31114 6.31286
#
# Compressibility (1/GPa) = 0.01901239
#
# Stress axis : x y z
#
# Youngs Moduli (GPa) = 151.36560 60.08765 87.03087
#
# Poissons Ratio (x) = 0.20314 0.27593
# Poissons Ratio (y) = 0.51173 0.11419
# Poissons Ratio (z) = 0.47991 0.07884
#
# Static dielectric constant tensor:
#      x y z
#    x 1.692030 0.000000 0.000000 
#    y 0.000000 1.744830 0.000000 
#    z 0.000000 0.000000 1.693670 
# 
# From -- ./inp_files/24102.got.cif
#   From: 2010.05.17/outbox.cif.g08.bks.cpg/sg46_13_cif.got.tgz:24102.got - 2010.06.03 19:58:25.
