data_PCOD9379030
_publ_section_title
;
Structure prediction by ZEFSAII (Michael W. Deem and Ramdas Pophale) SiO2 
 PCOD9379030
Probable space group: I M A 2
;
_chemical_formula_sum "Si O2"
_cell_formula_units_Z 64
_cell_length_a 14.090905
_cell_length_b 15.545045
_cell_length_c 11.691816
_cell_angle_alpha 90.000000
_cell_angle_beta 90.000000
_cell_angle_gamma 90.000000
_cell_volume 2561.019248
_symmetry_space_group_name_H-M "I M A 2"
_symmetry_group_IT_number 46
_symmetry_cell_setting 'orthorhombic'
loop_
_space_group_symop_operation_xyz
x,y,z
-x,-y,z
1/2-x,y,z
1/2+x,-y,z
1/2+x,1/2+y,1/2+z
1/2-x,1/2-y,1/2+z
-x,1/2+y,1/2+z
x,1/2-y,1/2+z
loop_
_atom_site_type_symbol
_atom_site_label
_atom_site_fract_x
_atom_site_fract_y
_atom_site_fract_z
Si Si1 0.139568 0.222339 0.265140
Si Si2 0.639491 0.098348 0.033912
Si Si3 0.145900 0.882097 0.413496
Si Si4 0.865873 0.786262 0.517296
Si Si5 0.109802 0.478485 0.731386
Si Si6 0.865846 0.423646 0.282040
Si Si7 0.365488 0.477210 0.077217
Si Si8 0.865805 0.264570 0.719635
O O1 0.250000 0.249562 0.263643
O O2 0.103433 0.248974 0.392194
O O3 0.100105 0.251604 0.141266
O O4 0.134150 0.118676 0.258806
O O5 0.750000 0.120814 0.017140
O O6 0.601165 0.174344 0.115982
O O7 0.634880 0.009631 0.104376
O O8 0.596072 0.084831 0.909930
O O9 0.250000 0.852131 0.456291
O O10 0.101465 0.804886 0.341331
O O11 0.157983 0.954678 0.316345
O O12 0.097762 0.938926 0.510279
O O13 0.750000 0.778406 0.517099
O O14 0.890673 0.887174 0.522703
O O15 0.000000 0.500000 0.746533
O O16 0.750000 0.425880 0.287888
O O17 0.892053 0.507222 0.208676
O O18 0.890367 0.334951 0.217282
O O19 0.250000 0.481419 0.069178
O O20 0.750000 0.270881 0.722819
#
# Coordination Sequence:
#
# PCOD9379030 Si02
#       8
#     8   8   8   8   8   8   8   8
#     4  10  19  35  59  88 114 144 185 241 293 345
#     4   9  18  32  49  74 105 134 174 223 270 321
#     4   9  16  30  53  76 103 132 170 221 268 320
#     4   9  18  31  53  84 114 140 181 231 292 346
#     4  11  21  34  56  76 104 140 185 223 271 334
#     4   9  17  26  44  76 109 136 171 221 272 321
#     4   9  16  27  47  78 108 134 168 220 278 332
#     4   8  15  25  42  70 100 134 167 206 255 305
#
# _framework density 24.99005
#
# number of rings (size 3 to 8) (size 9 to 14) (size 15 to 20)
#    0.000    2.750    1.250    1.875    1.750    1.000 
#    0.000    3.750    5.500    0.750    0.000    0.000 
#    0.000    0.000    0.000    0.000    0.000    0.000 
#
# Total GULP energy -178624.249097 kJ/mol
# GULP energy per Si atom -5582.007784 kJ/mol
# Density = 2.493317 g / cm^3
# Si number density = 24.990050 Si / 1000 Ang^3
#
#
#
# Elastic Constant Matrix: (Units=GPa)
#
#
# Indices 1 2 3 4 5 6 
#
# 1 90.1104 -16.2187 0.7496 0.0000 0.0000 0.0000
# 2 -16.2187 43.1546 44.5344 0.0000 0.0000 0.0000
# 3 0.7496 44.5344 193.3934 0.0000 0.0000 0.0000
# 4 0.0000 0.0000 0.0000 25.8099 0.0000 0.0000
# 5 0.0000 0.0000 0.0000 0.0000 205.2430 0.0000
# 6 0.0000 0.0000 0.0000 0.0000 0.0000 2.0479
#
#
#
# Elastic Compliance Matrix: (Units=1/GPa)
#
#
# Indices 1 2 3 4 5 6 
#
# 1 0.012204 0.006080 -0.001447 0.000000 0.000000 0.000000
# 2 0.006080 0.033425 -0.007721 0.000000 0.000000 0.000000
# 3 -0.001447 -0.007721 0.006954 0.000000 0.000000 0.000000
# 4 0.000000 0.000000 0.000000 0.038745 0.000000 0.000000
# 5 0.000000 0.000000 0.000000 0.000000 0.004872 0.000000
# 6 0.000000 0.000000 0.000000 0.000000 0.000000 0.488304
#
#
# Mechanical properties :
#
#
# Convention : Reuss Voigt Hill
#
# Bulk Modulus (GPa) = 21.54809 42.75434 32.15121
# Shear Modulus (GPa) = 8.24879 66.45971 37.35425
#
# Velocity S-wave (km/s) = 1.81879 5.16258 3.87041
# Velocity P-wave (km/s) = 3.61276 7.25823 5.73298
#
# Compressibility (1/GPa) = 0.04640782
#
# Stress axis : x y z
#
# Youngs Moduli (GPa) = 81.94091 29.91752 143.79542
#
# Poissons Ratio (x) = -0.18191 0.20814
# Poissons Ratio (y) = -0.49823 1.11020
# Poissons Ratio (z) = 0.11861 0.23098
#
# Static dielectric constant tensor:
#      x y z
#    x 1.653090 0.000000 0.000000 
#    y 0.000000 1.911070 0.000000 
#    z 0.000000 0.000000 2.046150 
# 
# From -- ./inp_files/11998.got.cif
#   From: 2010.05.17/outbox.cif.g08.bks.cpg/sg46_6_cif.got.tgz:11998.got - 2010.06.03 19:58:25.
