data_PCOD9379900
_publ_section_title
;
Structure prediction by ZEFSAII (Michael W. Deem and Ramdas Pophale) SiO2 
 PCOD9379900
Probable space group: I M A 2
;
_chemical_formula_sum "Si O2"
_cell_formula_units_Z 36
_cell_length_a 21.570880
_cell_length_b 5.044302
_cell_length_c 13.579220
_cell_angle_alpha 90.000000
_cell_angle_beta 90.000000
_cell_angle_gamma 90.000000
_cell_volume 1477.555378
_symmetry_space_group_name_H-M "I M A 2"
_symmetry_group_IT_number 46
_symmetry_cell_setting 'orthorhombic'
loop_
_space_group_symop_operation_xyz
x,y,z
-x,-y,z
1/2-x,y,z
1/2+x,-y,z
1/2+x,1/2+y,1/2+z
1/2-x,1/2-y,1/2+z
-x,1/2+y,1/2+z
x,1/2-y,1/2+z
loop_
_atom_site_type_symbol
_atom_site_label
_atom_site_fract_x
_atom_site_fract_y
_atom_site_fract_z
Si Si1 0.250000 0.404047 0.412700
Si Si2 0.358852 0.422107 0.017720
Si Si3 0.250000 0.748906 0.070612
Si Si4 0.250000 0.061128 0.247500
Si Si5 0.565348 0.849710 0.706477
Si Si6 0.883772 0.147268 0.314100
O O1 0.250000 0.697369 0.453755
O O2 0.250000 0.347995 0.297643
O O3 0.187614 0.276402 0.459752
O O4 0.389143 0.599759 0.931581
O O5 0.312712 0.593906 0.086059
O O6 0.406520 0.308729 0.096884
O O7 0.250000 0.018740 0.131425
O O8 0.186143 0.930306 0.282918
O O9 0.602344 0.058693 0.776113
O O10 0.500000 0.000000 0.696583
O O11 0.571855 0.567058 0.760273
#
# Coordination Sequence:
#
# PCOD9379900 Si02
#       6
#     4   8   4   4   8   8
#     4   9  21  37  63 107 137 170 220 280 361 421
#     4  10  24  42  68 101 137 180 228 288 351 412
#     4  11  19  41  68 103 138 175 224 284 361 422
#     4  10  20  40  71 102 137 175 212 292 354 417
#     4  12  27  47  70  98 139 192 242 280 335 408
#     4  11  26  45  72 107 137 180 229 291 353 414
#
# _framework density 24.364567000000001
#
# number of rings (size 3 to 8) (size 9 to 14) (size 15 to 20)
#    0.000    1.333    2.222    2.667    6.222    3.556 
#    0.000    0.000    0.000    0.000    0.000    0.000 
#    0.000    0.000    0.000    0.000    0.000    0.000 
#
# Total GULP energy -100651.891608 kJ/mol
# GULP energy per Si atom -5591.771756 kJ/mol
# Density = 2.430911 g / cm^3
# Si number density = 24.364567 Si / 1000 Ang^3
#
#
#
# Elastic Constant Matrix: (Units=GPa)
#
#
# Indices 1 2 3 4 5 6 
#
# 1 98.6020 5.2200 23.6634 0.0000 0.0000 0.0000
# 2 5.2200 70.0178 9.5855 0.0000 0.0000 0.0000
# 3 23.6634 9.5855 143.5797 0.0000 0.0000 0.0000
# 4 0.0000 0.0000 0.0000 33.6067 0.0000 0.0000
# 5 0.0000 0.0000 0.0000 0.0000 15.6209 0.0000
# 6 0.0000 0.0000 0.0000 0.0000 0.0000 29.5259
#
#
#
# Elastic Compliance Matrix: (Units=1/GPa)
#
#
# Indices 1 2 3 4 5 6 
#
# 1 0.010581 -0.000555 -0.001707 0.000000 0.000000 0.000000
# 2 -0.000555 0.014443 -0.000873 0.000000 0.000000 0.000000
# 3 -0.001707 -0.000873 0.007304 0.000000 0.000000 0.000000
# 4 0.000000 0.000000 0.000000 0.029756 0.000000 0.000000
# 5 0.000000 0.000000 0.000000 0.000000 0.064017 0.000000
# 6 0.000000 0.000000 0.000000 0.000000 0.000000 0.033869
#
#
# Mechanical properties :
#
#
# Convention : Reuss Voigt Hill
#
# Bulk Modulus (GPa) = 38.37482 43.23747 40.80615
# Shear Modulus (GPa) = 28.58367 33.99940 31.29154
#
# Velocity S-wave (km/s) = 3.42887 3.73962 3.58761
# Velocity P-wave (km/s) = 5.60898 6.03580 5.82630
#
# Compressibility (1/GPa) = 0.02605875
#
# Stress axis : x y z
#
# Youngs Moduli (GPa) = 94.51098 69.23794 136.90514
#
# Poissons Ratio (x) = 0.03844 0.23366
# Poissons Ratio (y) = 0.05247 0.11948
# Poissons Ratio (z) = 0.16131 0.06043
#
# Static dielectric constant tensor:
#      x y z
#    x 1.958460 0.000000 0.000000 
#    y 0.000000 1.946510 0.000000 
#    z 0.000000 0.000000 1.912760 
# 
# From -- ./inp_files/12623.got.cif
#   From: 2010.05.17/outbox.cif.g08.bks.cpg/sg46_7_cif.got.tgz:12623.got - 2010.06.03 19:58:25.
