data_PCOD9379960
_publ_section_title
;
Structure prediction by ZEFSAII (Michael W. Deem and Ramdas Pophale) SiO2 
 PCOD9379960
Probable space group: I M A 2
;
_chemical_formula_sum "Si O2"
_cell_formula_units_Z 64
_cell_length_a 13.399709
_cell_length_b 19.337297
_cell_length_c 14.526973
_cell_angle_alpha 90.000000
_cell_angle_beta 90.000000
_cell_angle_gamma 90.000000
_cell_volume 3764.144299
_symmetry_space_group_name_H-M "I M A 2"
_symmetry_group_IT_number 46
_symmetry_cell_setting 'orthorhombic'
loop_
_space_group_symop_operation_xyz
x,y,z
-x,-y,z
1/2-x,y,z
1/2+x,-y,z
1/2+x,1/2+y,1/2+z
1/2-x,1/2-y,1/2+z
-x,1/2+y,1/2+z
x,1/2-y,1/2+z
loop_
_atom_site_type_symbol
_atom_site_label
_atom_site_fract_x
_atom_site_fract_y
_atom_site_fract_z
Si Si1 0.369436 0.822755 0.007530
Si Si2 0.130564 0.177245 0.487633
Si Si3 0.869945 0.398479 0.817583
Si Si4 0.630055 0.601521 0.677580
Si Si5 0.129369 0.544454 0.613680
Si Si6 0.370631 0.044454 0.381483
Si Si7 0.517604 0.244397 0.351844
Si Si8 0.017604 0.255603 0.643319
O O1 0.250000 0.816159 0.004726
O O2 0.396663 0.901646 0.034216
O O3 0.416600 0.775057 0.088396
O O4 0.420530 0.797482 0.914033
O O5 0.250000 0.183841 0.490437
O O6 0.103337 0.098354 0.460947
O O7 0.079470 0.202518 0.581130
O O8 0.083400 0.224943 0.406766
O O9 0.750000 0.391320 0.823895
O O10 0.893650 0.419817 0.712163
O O11 0.903689 0.464642 0.878051
O O12 0.920491 0.327233 0.844847
O O13 0.750000 0.608680 0.671267
O O14 0.596311 0.535358 0.617111
O O15 0.606351 0.580183 0.782999
O O16 0.579508 0.672767 0.650315
O O17 0.250000 0.539877 0.612745
O O18 0.250000 0.039877 0.382418
O O19 0.500000 0.267967 0.247581
#
# Coordination Sequence:
#
# PCOD9379960 Si02
#       8
#     8   8   8   8   8   8   8   8
#     4  10  21  35  48  71 109 144 177 219 265 318
#     4  10  21  35  48  71 109 144 177 219 265 318
#     4   9  16  29  50  77 107 139 167 208 264 316
#     4   9  16  29  50  77 107 139 167 208 264 316
#     4   8  15  29  49  74 108 140 169 205 261 317
#     4   8  15  29  49  74 108 140 169 205 261 317
#     4  11  21  32  51  78 104 139 181 222 263 321
#     4  11  21  32  51  78 104 139 181 222 263 321
#
# _framework density 17.002537
#
# number of rings (size 3 to 8) (size 9 to 14) (size 15 to 20)
#    0.000    2.500    2.500    2.250    0.000    2.000 
#    0.000    0.000    0.000    0.000    0.000   14.000 
#    0.000   36.000    0.000    0.000    0.000    0.000 
#
# Total GULP energy -178559.733462 kJ/mol
# GULP energy per Si atom -5579.991671 kJ/mol
# Density = 1.696384 g / cm^3
# Si number density = 17.002537 Si / 1000 Ang^3
#
#
#
# Elastic Constant Matrix: (Units=GPa)
#
#
# Indices 1 2 3 4 5 6 
#
# 1 84.9055 32.7404 40.0857 0.0000 0.0000 0.0000
# 2 32.7404 108.8750 63.3022 0.0001 0.0000 0.0000
# 3 40.0857 63.3022 123.3575 0.0001 0.0000 0.0000
# 4 0.0000 0.0001 0.0001 36.9246 0.0000 0.0000
# 5 0.0000 0.0000 0.0000 0.0000 18.5463 0.0000
# 6 0.0000 0.0000 0.0000 0.0000 0.0000 27.8435
#
#
#
# Elastic Compliance Matrix: (Units=1/GPa)
#
#
# Indices 1 2 3 4 5 6 
#
# 1 0.014298 -0.002278 -0.003477 0.000000 0.000000 0.000000
# 2 -0.002278 0.013453 -0.006164 0.000000 0.000000 0.000000
# 3 -0.003477 -0.006164 0.012399 0.000000 0.000000 0.000000
# 4 0.000000 0.000000 0.000000 0.027082 0.000000 0.000000
# 5 0.000000 0.000000 0.000000 0.000000 0.053919 0.000000
# 6 0.000000 0.000000 0.000000 0.000000 0.000000 0.035915
#
#
# Mechanical properties :
#
#
# Convention : Reuss Voigt Hill
#
# Bulk Modulus (GPa) = 61.29959 65.48826 63.39393
# Shear Modulus (GPa) = 26.83233 28.73018 27.78126
#
# Velocity S-wave (km/s) = 3.97689 4.11513 4.04660
# Velocity P-wave (km/s) = 7.56432 7.82173 7.69410
#
# Compressibility (1/GPa) = 0.01631332
#
# Stress axis : x y z
#
# Youngs Moduli (GPa) = 69.94057 74.33031 80.64914
#
# Poissons Ratio (x) = 0.16931 0.28044
# Poissons Ratio (y) = 0.15931 0.49709
# Poissons Ratio (z) = 0.24320 0.45814
#
# Static dielectric constant tensor:
#      x y z
#    x 1.650840 0.000000 0.000000 
#    y 0.000000 1.578170 0.000000 
#    z 0.000000 0.000000 1.553340 
# 
# From -- ./inp_files/16177.got.cif
#   From: 2010.05.17/outbox.cif.g08.bks.cpg/sg46_9_cif.got.tgz:16177.got - 2010.06.03 19:58:25.
