data_PCOD9379978
_publ_section_title
;
Structure prediction by ZEFSAII (Michael W. Deem and Ramdas Pophale) SiO2 
 PCOD9379978
Probable space group: I M A 2
;
_chemical_formula_sum "Si O2"
_cell_formula_units_Z 28
_cell_length_a 11.222524
_cell_length_b 12.232331
_cell_length_c 8.767576
_cell_angle_alpha 90.000000
_cell_angle_beta 90.000000
_cell_angle_gamma 90.000000
_cell_volume 1203.592039
_symmetry_space_group_name_H-M "I M A 2"
_symmetry_group_IT_number 46
_symmetry_cell_setting 'orthorhombic'
loop_
_space_group_symop_operation_xyz
x,y,z
-x,-y,z
1/2-x,y,z
1/2+x,-y,z
1/2+x,1/2+y,1/2+z
1/2-x,1/2-y,1/2+z
-x,1/2+y,1/2+z
x,1/2-y,1/2+z
loop_
_atom_site_type_symbol
_atom_site_label
_atom_site_fract_x
_atom_site_fract_y
_atom_site_fract_z
Si Si1 0.385331 0.742565 0.984130
Si Si2 0.250000 0.164816 0.643136
Si Si3 0.750000 0.079283 0.627594
Si Si4 0.542534 0.836300 0.207104
Si Si5 0.250000 0.049513 0.331351
O O1 0.250000 0.777350 0.942705
O O2 0.364507 0.657442 0.128175
O O3 0.461140 0.684221 0.854415
O O4 0.461711 0.838909 0.057535
O O5 0.134137 0.233986 0.686225
O O6 0.250000 0.146584 0.459542
O O7 0.250000 0.038862 0.703280
O O8 0.750000 0.051891 0.443755
O O9 0.631109 0.937105 0.235374
#
# Coordination Sequence:
#
# PCOD9379978 Si02
#       5
#     8   4   4   8   4
#     4  10  21  35  60  85 113 148 190 234 277 339
#     4   9  19  35  57  87 105 148 192 237 262 332
#     4   8  20  38  56  88 110 146 200 222 278 334
#     4  11  19  34  58  88 113 145 192 234 278 331
#     4   9  19  35  57  87 105 148 192 237 262 332
#
# _framework density 23.263694999999998
#
# number of rings (size 3 to 8) (size 9 to 14) (size 15 to 20)
#    1.714    0.571    2.857    0.857    0.000    4.571 
#    0.000    0.000    0.000   10.286    0.000    0.000 
#    0.000    0.000    0.000    0.000    0.000    0.000 
#
# Total GULP energy -77982.096177 kJ/mol
# GULP energy per Si atom -5570.149727 kJ/mol
# Density = 2.321075 g / cm^3
# Si number density = 23.263695 Si / 1000 Ang^3
#
#
#
# Elastic Constant Matrix: (Units=GPa)
#
#
# Indices 1 2 3 4 5 6 
#
# 1 162.8739 4.7034 24.3403 0.0000 0.0000 0.0000
# 2 4.7034 48.1417 -7.6153 0.0000 0.0000 0.0000
# 3 24.3403 -7.6153 24.9760 0.0000 0.0000 0.0000
# 4 0.0000 0.0000 0.0000 38.8707 0.0000 0.0000
# 5 0.0000 0.0000 0.0000 0.0000 50.3884 0.0000
# 6 0.0000 0.0000 0.0000 0.0000 0.0000 20.2102
#
#
#
# Elastic Compliance Matrix: (Units=1/GPa)
#
#
# Indices 1 2 3 4 5 6 
#
# 1 0.007356 -0.001947 -0.007762 0.000000 0.000000 0.000000
# 2 -0.001947 0.022340 0.008708 0.000000 0.000000 0.000000
# 3 -0.007762 0.008708 0.050258 0.000000 0.000000 0.000000
# 4 0.000000 0.000000 0.000000 0.025726 0.000000 0.000000
# 5 0.000000 0.000000 0.000000 0.000000 0.019846 0.000000
# 6 0.000000 0.000000 0.000000 0.000000 0.000000 0.049480
#
#
# Mechanical properties :
#
#
# Convention : Reuss Voigt Hill
#
# Bulk Modulus (GPa) = 12.82819 30.98316 21.90568
# Shear Modulus (GPa) = 24.63163 36.19808 30.41485
#
# Velocity S-wave (km/s) = 3.25745 3.94888 3.61972
# Velocity P-wave (km/s) = 4.43556 5.84284 5.18715
#
# Compressibility (1/GPa) = 0.07795331
#
# Stress axis : x y z
#
# Youngs Moduli (GPa) = 135.94471 44.76331 19.89723
#
# Poissons Ratio (x) = 0.08713 0.15445
# Poissons Ratio (y) = 0.26462 -0.17327
# Poissons Ratio (z) = 1.05523 -0.38982
#
# Static dielectric constant tensor:
#      x y z
#    x 1.873010 0.000000 0.000000 
#    y 0.000000 1.882280 0.000000 
#    z 0.000000 0.000000 1.876640 
# 
# From -- ./inp_files/4237.got.cif
#   From: 2010.05.17/outbox.cif.g08.bks.cpg/sg46_3_cif.got.tgz:4237.got - 2010.06.03 19:58:25.
