data_PCOD9379789
_publ_section_title
;
Structure prediction by ZEFSAII (Michael W. Deem and Ramdas Pophale) SiO2 
 PCOD9379789
Probable space group: I M A 2
;
_chemical_formula_sum "Si O2"
_cell_formula_units_Z 40
_cell_length_a 16.417061
_cell_length_b 7.212987
_cell_length_c 15.614882
_cell_angle_alpha 90.000000
_cell_angle_beta 90.000000
_cell_angle_gamma 90.000000
_cell_volume 1849.052610
_symmetry_space_group_name_H-M "I M A 2"
_symmetry_group_IT_number 46
_symmetry_cell_setting 'orthorhombic'
loop_
_space_group_symop_operation_xyz
x,y,z
-x,-y,z
1/2-x,y,z
1/2+x,-y,z
1/2+x,1/2+y,1/2+z
1/2-x,1/2-y,1/2+z
-x,1/2+y,1/2+z
x,1/2-y,1/2+z
loop_
_atom_site_type_symbol
_atom_site_label
_atom_site_fract_x
_atom_site_fract_y
_atom_site_fract_z
Si Si1 0.843427 0.501715 0.553920
Si Si2 0.846068 0.389494 0.731169
Si Si3 0.653546 0.738288 0.834944
Si Si4 0.904611 0.130062 0.879961
Si Si5 0.547972 0.681021 0.987302
O O1 0.750000 0.561509 0.570684
O O2 0.868926 0.368357 0.631992
O O3 0.845393 0.400999 0.461850
O O4 0.905470 0.674831 0.548477
O O5 0.750000 0.347518 0.740226
O O6 0.858791 0.605264 0.754609
O O7 0.889581 0.273350 0.804087
O O8 0.750000 0.771072 0.845050
O O9 0.618110 0.630361 0.917970
O O10 0.606516 0.932374 0.832278
O O11 0.983326 0.200413 0.931779
O O12 0.500000 0.500000 0.019691
#
# Coordination Sequence:
#
# PCOD9379789 Si02
#       5
#     8   8   8   8   8
#     4  10  22  42  66  97 138 178 223 282 332 399
#     4  10  21  40  65  96 132 175 221 268 331 398
#     4  10  20  38  63  91 125 170 220 271 324 392
#     4  11  21  41  66  93 131 170 221 274 336 396
#     4  11  21  40  62  93 130 175 221 269 335 400
#
# _framework density 21.632698999999999
#
# number of rings (size 3 to 8) (size 9 to 14) (size 15 to 20)
#    0.000    1.600    2.000    6.000    0.000    0.000 
#   10.800    0.000    0.000    0.000    0.000    0.000 
#    0.000    0.000    0.000    0.000    0.000    0.000 
#
# Total GULP energy -111418.689962 kJ/mol
# GULP energy per Si atom -5570.934498 kJ/mol
# Density = 2.158346 g / cm^3
# Si number density = 21.632699 Si / 1000 Ang^3
#
#
#
# Elastic Constant Matrix: (Units=GPa)
#
#
# Indices 1 2 3 4 5 6 
#
# 1 86.4661 50.1860 11.2616 0.0000 0.0000 0.0000
# 2 50.1860 92.0267 40.0765 0.0000 0.0000 0.0000
# 3 11.2616 40.0765 90.0931 0.0000 0.0000 0.0000
# 4 0.0000 0.0000 0.0000 28.4405 0.0000 0.0000
# 5 0.0000 0.0000 0.0000 0.0000 -26.8518 0.0000
# 6 0.0000 0.0000 0.0000 0.0000 0.0000 43.5275
#
#
#
# Elastic Compliance Matrix: (Units=1/GPa)
#
#
# Indices 1 2 3 4 5 6 
#
# 1 0.017375 -0.010579 0.002534 0.000000 0.000000 0.000000
# 2 -0.010579 0.019918 -0.007538 0.000000 0.000000 0.000000
# 3 0.002534 -0.007538 0.014136 0.000000 0.000000 0.000000
# 4 0.000000 0.000000 0.000000 0.035161 0.000000 0.000000
# 5 0.000000 0.000000 0.000000 0.000000 -0.037241 0.000000
# 6 0.000000 0.000000 0.000000 0.000000 0.000000 0.022974
#
#
# Mechanical properties :
#
#
# Convention : Reuss Voigt Hill
#
# Bulk Modulus (GPa) = 49.34932 52.40380 50.87656
# Shear Modulus (GPa) = 45.35397 20.16071 32.75734
#
# Velocity S-wave (km/s) = 4.58377 3.05611 3.89556
# Velocity P-wave (km/s) = 7.13278 6.06053 6.61840
#
# Compressibility (1/GPa) = 0.02026370
#
# Stress axis : x y z
#
# Youngs Moduli (GPa) = 57.55262 50.20508 70.74121
#
# Poissons Ratio (x) = 0.53112 -0.17926
# Poissons Ratio (y) = 0.60885 0.53325
# Poissons Ratio (z) = -0.14584 0.37844
#
# Static dielectric constant tensor:
#      x y z
#    x 1.880530 0.000000 0.000000 
#    y 0.000000 1.851680 0.000000 
#    z 0.000000 0.000000 1.772730 
# 
# From -- ./inp_files/16387.got.cif
#   From: 2010.05.17/outbox.cif.g08.bks.cpg/sg46_9_cif.got.tgz:16387.got - 2010.06.03 19:58:25.
