data_PCOD9379006
_publ_section_title
;
Structure prediction by ZEFSAII (Michael W. Deem and Ramdas Pophale) SiO2 
 PCOD9379006
Probable space group: I M A 2
;
_chemical_formula_sum "Si O2"
_cell_formula_units_Z 48
_cell_length_a 9.967931
_cell_length_b 9.153212
_cell_length_c 28.394102
_cell_angle_alpha 90.000000
_cell_angle_beta 90.000000
_cell_angle_gamma 90.000000
_cell_volume 2590.637707
_symmetry_space_group_name_H-M "I M A 2"
_symmetry_group_IT_number 46
_symmetry_cell_setting 'orthorhombic'
loop_
_space_group_symop_operation_xyz
x,y,z
-x,-y,z
1/2-x,y,z
1/2+x,-y,z
1/2+x,1/2+y,1/2+z
1/2-x,1/2-y,1/2+z
-x,1/2+y,1/2+z
x,1/2-y,1/2+z
loop_
_atom_site_type_symbol
_atom_site_label
_atom_site_fract_x
_atom_site_fract_y
_atom_site_fract_z
Si Si1 0.098608 0.258631 0.993150
Si Si2 0.594127 0.640446 0.291387
Si Si3 0.000000 0.500000 0.554082
Si Si4 0.102486 0.745406 0.624573
Si Si5 0.500000 0.500000 0.065757
Si Si6 0.088422 0.353845 0.397249
Si Si7 0.090051 0.145659 0.203712
O O1 0.250000 0.297020 0.983638
O O2 0.037551 0.243812 0.940997
O O3 0.052444 0.377470 0.030281
O O4 0.085526 0.103519 0.019759
O O5 0.500000 0.500000 0.284689
O O6 0.750000 0.592996 0.289445
O O7 0.570995 0.703417 0.344027
O O8 0.574350 0.759036 0.250815
O O9 0.081542 0.612203 0.587359
O O10 0.250000 0.728891 0.646712
O O11 0.978752 0.731867 0.660441
O O12 0.094476 0.902226 0.599025
O O13 0.250000 0.383051 0.403111
O O14 0.000000 0.500000 0.399568
O O15 0.250000 0.119487 0.196029
O O16 0.000000 0.000000 0.207163
#
# Coordination Sequence:
#
# PCOD9379006 Si02
#       7
#     8   8   4   8   4   8   8
#     4  10  19  35  57  82 115 153 188 233 282 336
#     4   9  20  38  61  89 117 148 188 236 286 340
#     4  10  20  34  58  86 110 146 190 240 280 342
#     4  11  23  39  59  84 115 153 195 240 287 343
#     4  10  24  38  52  84 120 158 190 238 284 342
#     4   9  17  34  60  87 115 148 189 234 281 335
#     4  11  24  41  61  87 116 149 191 239 290 348
#
# _framework density 18.528255000000001
#
# number of rings (size 3 to 8) (size 9 to 14) (size 15 to 20)
#    0.000    2.000    1.667    1.500    1.167    4.667 
#    1.500    0.833    0.000    0.000    0.000    0.000 
#    0.000    0.000    0.000    0.000    0.000    0.000 
#
# Total GULP energy -133616.171583 kJ/mol
# GULP energy per Si atom -5567.340483 kJ/mol
# Density = 1.848608 g / cm^3
# Si number density = 18.528255 Si / 1000 Ang^3
#
#
#
# Elastic Constant Matrix: (Units=GPa)
#
#
# Indices 1 2 3 4 5 6 
#
# 1 87.4998 32.3703 49.6135 0.0000 0.0000 0.0000
# 2 32.3703 84.2844 44.4171 0.0000 0.0000 0.0000
# 3 49.6135 44.4171 125.2189 0.0000 0.0000 0.0000
# 4 0.0000 0.0000 0.0000 27.0736 0.0000 0.0000
# 5 0.0000 0.0000 0.0000 0.0000 22.7835 0.0000
# 6 0.0000 0.0000 0.0000 0.0000 0.0000 11.3343
#
#
#
# Elastic Compliance Matrix: (Units=1/GPa)
#
#
# Indices 1 2 3 4 5 6 
#
# 1 0.015466 -0.003334 -0.004945 0.000000 0.000000 0.000000
# 2 -0.003334 0.015311 -0.004110 0.000000 0.000000 0.000000
# 3 -0.004945 -0.004110 0.011403 0.000000 0.000000 0.000000
# 4 0.000000 0.000000 0.000000 0.036936 0.000000 0.000000
# 5 0.000000 0.000000 0.000000 0.000000 0.043891 0.000000
# 6 0.000000 0.000000 0.000000 0.000000 0.000000 0.088228
#
#
# Mechanical properties :
#
#
# Convention : Reuss Voigt Hill
#
# Bulk Modulus (GPa) = 57.46511 61.08946 59.27728
# Shear Modulus (GPa) = 20.67699 23.61175 22.14437
#
# Velocity S-wave (km/s) = 3.34424 3.57370 3.46087
# Velocity P-wave (km/s) = 6.78189 7.07608 6.93055
#
# Compressibility (1/GPa) = 0.01740186
#
# Stress axis : x y z
#
# Youngs Moduli (GPa) = 64.65810 65.31266 87.69349
#
# Poissons Ratio (x) = 0.21774 0.43367
# Poissons Ratio (y) = 0.21555 0.36043
# Poissons Ratio (z) = 0.31975 0.26845
#
# Static dielectric constant tensor:
#      x y z
#    x 1.655990 0.000000 0.000000 
#    y 0.000000 1.721350 0.000000 
#    z 0.000000 0.000000 1.706290 
# 
# From -- ./inp_files/25051.got.cif
#   From: 2010.05.17/outbox.cif.g08.bks.cpg/sg46_13_cif.got.tgz:25051.got - 2010.06.03 19:58:25.
