data_PCOD9379466
_publ_section_title
;
Structure prediction by ZEFSAII (Michael W. Deem and Ramdas Pophale) SiO2 
 PCOD9379466
Probable space group: I M A 2
;
_chemical_formula_sum "Si O2"
_cell_formula_units_Z 60
_cell_length_a 24.104343
_cell_length_b 7.608431
_cell_length_c 14.294463
_cell_angle_alpha 90.000000
_cell_angle_beta 90.000000
_cell_angle_gamma 90.000000
_cell_volume 2621.550631
_symmetry_space_group_name_H-M "I M A 2"
_symmetry_group_IT_number 46
_symmetry_cell_setting 'orthorhombic'
loop_
_space_group_symop_operation_xyz
x,y,z
-x,-y,z
1/2-x,y,z
1/2+x,-y,z
1/2+x,1/2+y,1/2+z
1/2-x,1/2-y,1/2+z
-x,1/2+y,1/2+z
x,1/2-y,1/2+z
loop_
_atom_site_type_symbol
_atom_site_label
_atom_site_fract_x
_atom_site_fract_y
_atom_site_fract_z
Si Si1 0.380037 0.994129 0.644960
Si Si2 0.812438 0.022032 0.073861
Si Si3 0.004802 0.289102 0.436554
Si Si4 0.314259 0.358115 0.975032
Si Si5 0.500000 0.000000 0.585632
Si Si6 0.388348 0.304814 0.322208
Si Si7 0.880584 0.189622 0.918191
Si Si8 0.314355 0.693090 0.755310
O O1 0.352762 0.027684 0.543945
O O2 0.444899 0.941371 0.640071
O O3 0.380220 0.165614 0.712410
O O4 0.343546 0.849268 0.697523
O O5 0.750000 0.094821 0.056676
O O6 0.820982 0.030473 0.184895
O O7 0.813052 0.829492 0.029982
O O8 0.857356 0.138997 0.019410
O O9 0.020436 0.166098 0.523718
O O10 0.049295 0.255864 0.354863
O O11 0.000000 0.500000 0.456405
O O12 0.942023 0.234255 0.414901
O O13 0.250000 0.416719 0.965780
O O14 0.343770 0.311816 0.877149
O O15 0.382159 0.500655 0.366419
O O16 0.840758 0.310284 0.857167
O O17 0.250000 0.732625 0.766290
#
# Coordination Sequence:
#
# PCOD9379466 Si02
#       8
#     8   8   8   8   4   8   8   8
#     4  11  23  37  61  91 125 160 215 264 321 382
#     4   9  18  34  55  81 114 152 198 248 305 375
#     4  10  21  41  64  88 128 167 216 260 316 381
#     4  10  20  39  62  86 120 164 207 258 321 387
#     4  12  24  40  68  94 130 172 216 270 316 382
#     4   9  20  38  60  84 119 162 206 262 315 384
#     4   9  18  33  59  81 113 161 202 249 314 377
#     4  10  20  35  57  88 119 155 208 263 320 379
#
# _framework density 22.887217
#
# number of rings (size 3 to 8) (size 9 to 14) (size 15 to 20)
#    0.000    2.133    1.333    1.600    4.667    3.733 
#    2.400    0.000    1.467    3.200    0.000    0.000 
#    0.000    0.000    0.000    0.000    0.000    0.000 
#
# Total GULP energy -167605.549271 kJ/mol
# GULP energy per Si atom -5586.851642 kJ/mol
# Density = 2.283512 g / cm^3
# Si number density = 22.887217 Si / 1000 Ang^3
#
#
#
# Elastic Constant Matrix: (Units=GPa)
#
#
# Indices 1 2 3 4 5 6 
#
# 1 131.6644 23.6631 19.0860 0.0000 0.0000 0.0000
# 2 23.6631 54.3524 -2.2591 0.0000 0.0000 0.0000
# 3 19.0860 -2.2591 76.2777 0.0000 0.0000 0.0000
# 4 0.0000 0.0000 0.0000 27.8151 0.0000 0.0000
# 5 0.0000 0.0000 0.0000 0.0000 31.5151 0.0000
# 6 0.0000 0.0000 0.0000 0.0000 0.0000 18.1731
#
#
#
# Elastic Compliance Matrix: (Units=1/GPa)
#
#
# Indices 1 2 3 4 5 6 
#
# 1 0.008615 -0.003845 -0.002270 0.000000 0.000000 0.000000
# 2 -0.003845 0.020137 0.001558 0.000000 0.000000 0.000000
# 3 -0.002270 0.001558 0.013724 0.000000 0.000000 0.000000
# 4 0.000000 0.000000 0.000000 0.035952 0.000000 0.000000
# 5 0.000000 0.000000 0.000000 0.000000 0.031731 0.000000
# 6 0.000000 0.000000 0.000000 0.000000 0.000000 0.055027
#
#
# Mechanical properties :
#
#
# Convention : Reuss Voigt Hill
#
# Bulk Modulus (GPa) = 29.97226 38.14163 34.05694
# Shear Modulus (GPa) = 26.96597 30.28763 28.62680
#
# Velocity S-wave (km/s) = 3.43623 3.64172 3.54047
# Velocity P-wave (km/s) = 5.37286 5.86379 5.62369
#
# Compressibility (1/GPa) = 0.03336419
#
# Stress axis : x y z
#
# Youngs Moduli (GPa) = 116.07534 49.65931 72.86497
#
# Poissons Ratio (x) = 0.19094 0.16537
# Poissons Ratio (y) = 0.44631 -0.11356
# Poissons Ratio (z) = 0.26343 -0.07739
#
# Static dielectric constant tensor:
#      x y z
#    x 1.839880 0.000000 0.000000 
#    y 0.000000 1.912500 0.000000 
#    z 0.000000 0.000000 1.859700 
# 
# From -- ./inp_files/17362.got.cif
#   From: 2010.05.17/outbox.cif.g08.bks.cpg/sg46_9_cif.got.tgz:17362.got - 2010.06.03 19:58:25.
