data_PCOD9379293
_publ_section_title
;
Structure prediction by ZEFSAII (Michael W. Deem and Ramdas Pophale) SiO2 
 PCOD9379293
Probable space group: I M A 2
;
_chemical_formula_sum "Si O2"
_cell_formula_units_Z 64
_cell_length_a 19.635483
_cell_length_b 24.776962
_cell_length_c 7.538391
_cell_angle_alpha 90.000000
_cell_angle_beta 90.000000
_cell_angle_gamma 90.000000
_cell_volume 3667.484635
_symmetry_space_group_name_H-M "I M A 2"
_symmetry_group_IT_number 46
_symmetry_cell_setting 'orthorhombic'
loop_
_space_group_symop_operation_xyz
x,y,z
-x,-y,z
1/2-x,y,z
1/2+x,-y,z
1/2+x,1/2+y,1/2+z
1/2-x,1/2-y,1/2+z
-x,1/2+y,1/2+z
x,1/2-y,1/2+z
loop_
_atom_site_type_symbol
_atom_site_label
_atom_site_fract_x
_atom_site_fract_y
_atom_site_fract_z
Si Si1 0.673161 0.203690 0.911070
Si Si2 0.824801 0.467575 0.391609
Si Si3 0.063787 0.620430 0.494115
Si Si4 0.673355 0.554853 0.115444
Si Si5 0.566633 0.085258 0.371836
Si Si6 0.174300 0.827189 0.498792
Si Si7 0.021440 0.437448 0.214120
Si Si8 0.672993 0.994386 0.260540
O O1 0.750000 0.192891 0.986085
O O2 0.672586 0.182528 0.709738
O O3 0.608498 0.174918 0.001183
O O4 0.665213 0.268155 0.913367
O O5 0.750000 0.443052 0.410026
O O6 0.879426 0.423297 0.435423
O O7 0.828181 0.494011 0.198917
O O8 0.832247 0.512619 0.547936
O O9 0.035422 0.606235 0.687603
O O10 0.007806 0.607913 0.346360
O O11 0.750000 0.575204 0.163536
O O12 0.601771 0.574035 0.193325
O O13 0.668397 0.553552 0.902313
O O14 0.616861 0.131333 0.443751
O O15 0.514080 0.069123 0.523075
O O16 0.614336 0.035227 0.317660
O O17 0.250000 0.847305 0.451008
O O18 0.000000 0.500000 0.271805
O O19 0.750000 0.016531 0.288294
#
# Coordination Sequence:
#
# PCOD9379293 Si02
#       8
#     8   8   8   8   8   8   8   8
#     4  10  20  34  53  78 111 149 188 228 268 315
#     4   9  17  28  44  67  94 130 175 213 250 304
#     4  11  21  33  51  73 103 142 180 225 269 319
#     4  10  20  34  50  66  96 134 172 214 262 312
#     4  11  21  33  51  73 103 142 180 225 269 319
#     4  10  20  34  53  78 111 149 188 228 268 315
#     4  12  22  36  50  76 104 136 184 228 271 322
#     4   9  17  28  44  67  94 130 175 213 250 304
#
# _framework density 17.450652999999999
#
# number of rings (size 3 to 8) (size 9 to 14) (size 15 to 20)
#    0.000    1.750    3.750    1.500    0.000    4.000 
#    0.000    0.000    0.000    0.000    0.000    0.000 
#    0.000    1.000    0.000    0.000    0.000    0.000 
#
# Total GULP energy -178256.925107 kJ/mol
# GULP energy per Si atom -5570.528910 kJ/mol
# Density = 1.741093 g / cm^3
# Si number density = 17.450653 Si / 1000 Ang^3
#
#
#
# Elastic Constant Matrix: (Units=GPa)
#
#
# Indices 1 2 3 4 5 6 
#
# 1 96.5146 14.1756 8.6329 0.0000 0.0000 0.0000
# 2 14.1756 26.0641 -0.5738 0.0000 0.0000 0.0000
# 3 8.6329 -0.5738 54.5125 0.0000 0.0000 0.0000
# 4 0.0000 0.0000 0.0000 17.2211 0.0000 0.0000
# 5 0.0000 0.0000 0.0000 0.0000 16.5387 0.0000
# 6 0.0000 0.0000 0.0000 0.0000 0.0000 17.5654
#
#
#
# Elastic Compliance Matrix: (Units=1/GPa)
#
#
# Indices 1 2 3 4 5 6 
#
# 1 0.011450 -0.006269 -0.001879 0.000000 0.000000 0.000000
# 2 -0.006269 0.041808 0.001433 0.000000 0.000000 0.000000
# 3 -0.001879 0.001433 0.018657 0.000000 0.000000 0.000000
# 4 0.000000 0.000000 0.000000 0.058068 0.000000 0.000000
# 5 0.000000 0.000000 0.000000 0.000000 0.060464 0.000000
# 6 0.000000 0.000000 0.000000 0.000000 0.000000 0.056930
#
#
# Mechanical properties :
#
#
# Convention : Reuss Voigt Hill
#
# Bulk Modulus (GPa) = 17.09854 24.61785 20.85820
# Shear Modulus (GPa) = 17.83786 20.58881 19.21334
#
# Velocity S-wave (km/s) = 3.20064 3.43859 3.32175
# Velocity P-wave (km/s) = 4.84544 5.46836 5.16630
#
# Compressibility (1/GPa) = 0.05848453
#
# Stress axis : x y z
#
# Youngs Moduli (GPa) = 87.33678 23.91898 53.59890
#
# Poissons Ratio (x) = 0.14994 0.10073
# Poissons Ratio (y) = 0.54749 -0.07680
# Poissons Ratio (z) = 0.16413 -0.03427
#
# Static dielectric constant tensor:
#      x y z
#    x 1.636530 0.000000 0.000000 
#    y 0.000000 1.592620 0.000000 
#    z 0.000000 0.000000 1.661950 
# 
# From -- ./inp_files/6928.got.cif
#   From: 2010.05.17/outbox.cif.g08.bks.cpg/sg46_4_cif.got.tgz:6928.got - 2010.06.03 19:58:25.
