data_PCOD9379786
_publ_section_title
;
Structure prediction by ZEFSAII (Michael W. Deem and Ramdas Pophale) SiO2 
 PCOD9379786
Probable space group: I M A 2
;
_chemical_formula_sum "Si O2"
_cell_formula_units_Z 64
_cell_length_a 23.637301
_cell_length_b 9.390156
_cell_length_c 15.451136
_cell_angle_alpha 90.000000
_cell_angle_beta 90.000000
_cell_angle_gamma 90.000000
_cell_volume 3429.502376
_symmetry_space_group_name_H-M "I M A 2"
_symmetry_group_IT_number 46
_symmetry_cell_setting 'orthorhombic'
loop_
_space_group_symop_operation_xyz
x,y,z
-x,-y,z
1/2-x,y,z
1/2+x,-y,z
1/2+x,1/2+y,1/2+z
1/2-x,1/2-y,1/2+z
-x,1/2+y,1/2+z
x,1/2-y,1/2+z
loop_
_atom_site_type_symbol
_atom_site_label
_atom_site_fract_x
_atom_site_fract_y
_atom_site_fract_z
Si Si1 0.809131 0.458174 0.098510
Si Si2 0.560359 0.310398 0.725479
Si Si3 0.123867 0.184332 0.513326
Si Si4 0.937480 0.053336 0.405790
Si Si5 0.957653 0.866797 0.672766
Si Si6 0.136954 0.961198 0.769269
Si Si7 0.893599 0.221500 0.039083
Si Si8 0.318457 0.477684 0.458945
O O1 0.750000 0.399620 0.066552
O O2 0.822550 0.610028 0.058867
O O3 0.812732 0.466676 0.200654
O O4 0.860867 0.359063 0.073863
O O5 0.566073 0.424339 0.802156
O O6 0.497124 0.247338 0.720092
O O7 0.603491 0.187107 0.757689
O O8 0.573690 0.339315 0.623612
O O9 0.074005 0.186773 0.586093
O O10 0.146331 0.335625 0.482735
O O11 0.103547 0.072788 0.439628
O O12 0.926760 0.203871 0.458176
O O13 0.000000 0.000000 0.427413
O O14 0.909502 0.923820 0.737538
O O15 0.000000 0.000000 0.651128
O O16 0.163540 0.986882 0.861347
O O17 0.847095 0.106469 0.012083
O O18 0.250000 0.466505 0.469321
#
# Coordination Sequence:
#
# PCOD9379786 Si02
#       8
#     8   8   8   8   8   8   8   8
#     4   9  17  36  63  83 107 158 210 250 295 343
#     4  10  20  38  63  91 122 155 200 251 309 364
#     4  10  22  37  59  86 128 157 200 245 304 368
#     4  11  22  39  64  90 121 164 198 245 310 377
#     4   9  18  38  62  89 121 160 197 248 301 376
#     4   9  19  36  60  87 120 155 204 247 293 364
#     4  10  22  40  62  89 121 157 209 254 298 363
#     4  12  24  40  60  88 125 163 206 257 303 349
#
# _framework density 18.661598999999999
#
# number of rings (size 3 to 8) (size 9 to 14) (size 15 to 20)
#    0.000    2.000    1.250    4.500    1.750    1.000 
#    2.250    1.875    0.000    0.000    0.000    0.000 
#    0.000    0.000    0.000    0.000    0.000    0.000 
#
# Total GULP energy -178180.261799 kJ/mol
# GULP energy per Si atom -5568.133181 kJ/mol
# Density = 1.861912 g / cm^3
# Si number density = 18.661599 Si / 1000 Ang^3
#
#
#
# Elastic Constant Matrix: (Units=GPa)
#
#
# Indices 1 2 3 4 5 6 
#
# 1 95.4444 19.4880 20.2457 0.0000 0.0000 0.0000
# 2 19.4880 66.3440 29.3660 0.0000 0.0000 0.0000
# 3 20.2457 29.3660 86.3066 0.0000 0.0000 0.0000
# 4 0.0000 0.0000 0.0000 14.6499 0.0000 0.0000
# 5 0.0000 0.0000 0.0000 0.0000 -36.5043 0.0000
# 6 0.0000 0.0000 0.0000 0.0000 0.0000 9.7532
#
#
#
# Elastic Compliance Matrix: (Units=1/GPa)
#
#
# Indices 1 2 3 4 5 6 
#
# 1 0.011379 -0.002544 -0.001804 0.000000 0.000000 0.000000
# 2 -0.002544 0.018314 -0.005635 0.000000 0.000000 0.000000
# 3 -0.001804 -0.005635 0.013927 0.000000 0.000000 0.000000
# 4 0.000000 0.000000 0.000000 0.068260 0.000000 0.000000
# 5 0.000000 0.000000 0.000000 0.000000 -0.027394 0.000000
# 6 0.000000 0.000000 0.000000 0.000000 0.000000 0.102530
#
#
# Mechanical properties :
#
#
# Convention : Reuss Voigt Hill
#
# Bulk Modulus (GPa) = 42.27347 42.92160 42.59754
# Shear Modulus (GPa) = 23.27018 9.51277 16.39148
#
# Velocity S-wave (km/s) = 3.53506 2.26022 2.96692
# Velocity P-wave (km/s) = 6.27407 5.46455 5.88325
#
# Compressibility (1/GPa) = 0.02365550
#
# Stress axis : x y z
#
# Youngs Moduli (GPa) = 87.87814 54.60184 71.80342
#
# Poissons Ratio (x) = 0.13892 0.12951
# Poissons Ratio (y) = 0.22358 0.40459
# Poissons Ratio (z) = 0.15850 0.30766
#
# Static dielectric constant tensor:
#      x y z
#    x 1.664880 0.000000 0.000000 
#    y 0.000000 1.666470 0.000000 
#    z 0.000000 0.000000 1.685510 
# 
# From -- ./inp_files/17441.got.cif
#   From: 2010.05.17/outbox.cif.g08.bks.cpg/sg46_9_cif.got.tgz:17441.got - 2010.06.03 19:58:25.
