data_PCOD9379744
_publ_section_title
;
Structure prediction by ZEFSAII (Michael W. Deem and Ramdas Pophale) SiO2 
 PCOD9379744
Probable space group: I M A 2
;
_chemical_formula_sum "Si O2"
_cell_formula_units_Z 48
_cell_length_a 9.124472
_cell_length_b 13.971846
_cell_length_c 18.783669
_cell_angle_alpha 90.000000
_cell_angle_beta 90.000000
_cell_angle_gamma 90.000000
_cell_volume 2394.649522
_symmetry_space_group_name_H-M "I M A 2"
_symmetry_group_IT_number 46
_symmetry_cell_setting 'orthorhombic'
loop_
_space_group_symop_operation_xyz
x,y,z
-x,-y,z
1/2-x,y,z
1/2+x,-y,z
1/2+x,1/2+y,1/2+z
1/2-x,1/2-y,1/2+z
-x,1/2+y,1/2+z
x,1/2-y,1/2+z
loop_
_atom_site_type_symbol
_atom_site_label
_atom_site_fract_x
_atom_site_fract_y
_atom_site_fract_z
Si Si1 0.424741 0.099791 0.375000
Si Si2 0.074374 0.904517 0.751017
Si Si3 0.085771 0.584221 0.088746
Si Si4 0.081792 0.750172 0.475808
Si Si5 0.073164 0.896642 0.089813
Si Si6 0.926161 0.187031 0.244904
O O1 0.250000 0.092766 0.380529
O O2 0.485075 0.190562 0.420192
O O3 0.479627 0.118525 0.294654
O O4 0.500000 0.000000 0.397176
O O5 0.250000 0.915454 0.756060
O O6 0.026871 0.901145 0.667869
O O7 0.041102 0.795402 0.772023
O O8 0.000000 0.000000 0.782787
O O9 0.250000 0.549200 0.097874
O O10 0.000000 0.500000 0.051707
O O11 0.088751 0.678579 0.043254
O O12 0.250000 0.737778 0.448772
O O13 0.027827 0.653949 0.515025
O O14 0.250000 0.904337 0.086800
O O15 0.041334 0.834696 0.161637
O O16 0.000000 0.000000 0.097081
O O17 0.750000 0.172442 0.253837
#
# Coordination Sequence:
#
# PCOD9379744 Si02
#       6
#     8   8   8   8   8   8
#     4  12  26  42  61  89 122 159 202 247 298 359
#     4   9  17  31  53  83 117 151 189 236 290 345
#     4   9  16  28  49  78 110 143 179 224 279 337
#     4  10  20  38  60  84 117 155 195 243 299 356
#     4  10  21  38  62  90 120 155 200 250 303 360
#     4  10  20  39  63  88 123 163 201 246 300 357
#
# _framework density 20.044689000000002
#
# number of rings (size 3 to 8) (size 9 to 14) (size 15 to 20)
#    0.000    2.000    1.667    2.500    0.000    5.333 
#    0.000    0.833    0.000    0.000    0.000    0.000 
#    0.000    0.000    0.000    0.000    0.000    0.000 
#
# Total GULP energy -133699.084119 kJ/mol
# GULP energy per Si atom -5570.795172 kJ/mol
# Density = 1.999907 g / cm^3
# Si number density = 20.044689 Si / 1000 Ang^3
#
#
#
# Elastic Constant Matrix: (Units=GPa)
#
#
# Indices 1 2 3 4 5 6 
#
# 1 59.8973 46.9896 37.1833 0.0000 0.0000 0.0000
# 2 46.9896 123.2884 27.8261 0.0000 0.0000 0.0000
# 3 37.1833 27.8261 73.7548 0.0000 0.0000 0.0000
# 4 0.0000 0.0000 0.0000 20.1933 0.0000 0.0000
# 5 0.0000 0.0000 0.0000 0.0000 26.7380 0.0000
# 6 0.0000 0.0000 0.0000 0.0000 0.0000 31.6589
#
#
#
# Elastic Compliance Matrix: (Units=1/GPa)
#
#
# Indices 1 2 3 4 5 6 
#
# 1 0.031727 -0.009272 -0.012497 0.000000 0.000000 0.000000
# 2 -0.009272 0.011576 0.000307 0.000000 0.000000 0.000000
# 3 -0.012497 0.000307 0.019743 0.000000 0.000000 0.000000
# 4 0.000000 0.000000 0.000000 0.049521 0.000000 0.000000
# 5 0.000000 0.000000 0.000000 0.000000 0.037400 0.000000
# 6 0.000000 0.000000 0.000000 0.000000 0.000000 0.031587
#
#
# Mechanical properties :
#
#
# Convention : Reuss Voigt Hill
#
# Bulk Modulus (GPa) = 49.69658 53.43762 51.56710
# Shear Modulus (GPa) = 21.62781 25.38080 23.50430
#
# Velocity S-wave (km/s) = 3.28835 3.56225 3.42803
# Velocity P-wave (km/s) = 6.26613 6.60580 6.43820
#
# Compressibility (1/GPa) = 0.02012211
#
# Stress axis : x y z
#
# Youngs Moduli (GPa) = 31.51905 86.38932 50.65106
#
# Poissons Ratio (x) = 0.80097 0.63299
# Poissons Ratio (y) = 0.29223 -0.01555
# Poissons Ratio (z) = 0.39389 -0.02653
#
# Static dielectric constant tensor:
#      x y z
#    x 1.682840 0.000000 0.000000 
#    y 0.000000 1.785860 0.000000 
#    z 0.000000 0.000000 1.749250 
# 
# From -- ./inp_files/18183.got.cif
#   From: 2010.05.17/outbox.cif.g08.bks.cpg/sg46_10_cif.got.tgz:18183.got - 2010.06.03 19:58:25.
