data_PCOD9379344
_publ_section_title
;
Structure prediction by ZEFSAII (Michael W. Deem and Ramdas Pophale) SiO2 
 PCOD9379344
Probable space group: I M A 2
;
_chemical_formula_sum "Si O2"
_cell_formula_units_Z 64
_cell_length_a 11.149973
_cell_length_b 15.967735
_cell_length_c 17.263444
_cell_angle_alpha 90.000000
_cell_angle_beta 90.000000
_cell_angle_gamma 90.000000
_cell_volume 3073.580361
_symmetry_space_group_name_H-M "I M A 2"
_symmetry_group_IT_number 46
_symmetry_cell_setting 'orthorhombic'
loop_
_space_group_symop_operation_xyz
x,y,z
-x,-y,z
1/2-x,y,z
1/2+x,-y,z
1/2+x,1/2+y,1/2+z
1/2-x,1/2-y,1/2+z
-x,1/2+y,1/2+z
x,1/2-y,1/2+z
loop_
_atom_site_type_symbol
_atom_site_label
_atom_site_fract_x
_atom_site_fract_y
_atom_site_fract_z
Si Si1 0.377061 0.512306 0.422880
Si Si2 0.116966 0.741287 0.754909
Si Si3 0.617629 0.449161 0.815345
Si Si4 0.880857 0.295818 0.426275
Si Si5 0.877061 0.512306 0.985882
Si Si6 0.382371 0.449161 0.593417
Si Si7 0.383034 0.241287 0.153854
Si Si8 0.619143 0.704182 0.982487
O O1 0.500000 0.500000 0.377308
O O2 0.250000 0.498081 0.382668
O O3 0.378559 0.608066 0.452773
O O4 0.382151 0.454492 0.499544
O O5 0.250000 0.751313 0.717964
O O6 0.109236 0.645013 0.784643
O O7 0.114904 0.795417 0.833168
O O8 1.000000 0.758748 0.704381
O O9 0.500000 0.500000 0.790509
O O10 0.750000 0.483315 0.792674
O O11 0.617849 0.454492 0.909219
O O12 0.750000 0.257745 0.448282
O O13 1.000000 0.250000 0.454381
O O14 0.750000 0.498081 0.026095
O O15 0.878559 0.608066 0.955990
O O16 0.000000 0.500000 0.031454
O O17 0.500000 0.500000 0.618254
O O18 0.250000 0.483315 0.616089
O O19 0.390764 0.354987 0.624119
O O20 0.250000 0.251313 0.190798
O O21 0.385096 0.295417 0.075594
O O22 0.750000 0.742255 0.960481
#
# Coordination Sequence:
#
# PCOD9379344 Si02
#       8
#     8   8   8   8   8   8   8   8
#     4   9  17  30  50  76 104 133 169 218 272 321
#     4  10  22  38  54  77 111 148 185 224 268 324
#     4   9  17  30  48  71 102 137 172 212 260 315
#     4  10  20  34  55  82 110 142 184 232 278 328
#     4   9  17  30  50  76 104 133 169 218 272 321
#     4   9  17  30  48  71 102 137 172 212 260 315
#     4  10  22  38  54  77 111 148 185 224 268 324
#     4  10  20  34  55  82 110 142 184 232 278 328
#
# _framework density 20.822621000000002
#
# number of rings (size 3 to 8) (size 9 to 14) (size 15 to 20)
#    0.000    2.500    0.000    3.000    0.000    5.500 
#    0.000    2.500    0.000    0.750    0.000    5.250 
#    0.000    0.000    0.000    0.000    0.000    0.000 
#
# Total GULP energy -178283.882259 kJ/mol
# GULP energy per Si atom -5571.371321 kJ/mol
# Density = 2.077523 g / cm^3
# Si number density = 20.822621 Si / 1000 Ang^3
#
#
#
# Elastic Constant Matrix: (Units=GPa)
#
#
# Indices 1 2 3 4 5 6 
#
# 1 258.5516 21.4818 34.7286 0.0000 0.0000 0.0000
# 2 21.4818 12.8090 0.7059 0.0000 0.0000 0.0000
# 3 34.7286 0.7059 35.9688 0.0000 0.0000 0.0000
# 4 0.0000 0.0000 0.0000 13.0876 0.0000 0.0000
# 5 0.0000 0.0000 0.0000 0.0000 15.9279 0.0000
# 6 0.0000 0.0000 0.0000 0.0000 0.0000 27.2427
#
#
#
# Elastic Compliance Matrix: (Units=1/GPa)
#
#
# Indices 1 2 3 4 5 6 
#
# 1 0.005230 -0.008502 -0.004883 0.000000 0.000000 0.000000
# 2 -0.008502 0.091975 0.006404 0.000000 0.000000 0.000000
# 3 -0.004883 0.006404 0.032391 0.000000 0.000000 0.000000
# 4 0.000000 0.000000 0.000000 0.076408 0.000000 0.000000
# 5 0.000000 0.000000 0.000000 0.000000 0.062783 0.000000
# 6 0.000000 0.000000 0.000000 0.000000 0.000000 0.036707
#
#
# Mechanical properties :
#
#
# Convention : Reuss Voigt Hill
#
# Bulk Modulus (GPa) = 8.64796 46.79578 27.72187
# Shear Modulus (GPa) = 13.96646 27.94585 20.95615
#
# Velocity S-wave (km/s) = 2.59266 3.66743 3.17584
# Velocity P-wave (km/s) = 3.62281 6.36048 5.17593
#
# Compressibility (1/GPa) = 0.11563418
#
# Stress axis : x y z
#
# Youngs Moduli (GPa) = 191.20680 10.87247 30.87314
#
# Poissons Ratio (x) = 0.09244 0.15075
# Poissons Ratio (y) = 1.62563 -0.19771
# Poissons Ratio (z) = 0.93362 -0.06963
#
# Static dielectric constant tensor:
#      x y z
#    x 1.863390 0.000000 0.000000 
#    y 0.000000 1.761200 0.000000 
#    z 0.000000 0.000000 1.725080 
# 
# From -- ./inp_files/19015.got.cif
#   From: 2010.05.17/outbox.cif.g08.bks.cpg/sg46_10_cif.got.tgz:19015.got - 2010.06.03 19:58:25.
