data_PCOD9379807
_publ_section_title
;
Structure prediction by ZEFSAII (Michael W. Deem and Ramdas Pophale) SiO2 
 PCOD9379807
Probable space group: I M A 2
;
_chemical_formula_sum "Si O2"
_cell_formula_units_Z 48
_cell_length_a 30.191633
_cell_length_b 8.499809
_cell_length_c 9.992002
_cell_angle_alpha 90.000000
_cell_angle_beta 90.000000
_cell_angle_gamma 90.000000
_cell_volume 2564.178667
_symmetry_space_group_name_H-M "I M A 2"
_symmetry_group_IT_number 46
_symmetry_cell_setting 'orthorhombic'
loop_
_space_group_symop_operation_xyz
x,y,z
-x,-y,z
1/2-x,y,z
1/2+x,-y,z
1/2+x,1/2+y,1/2+z
1/2-x,1/2-y,1/2+z
-x,1/2+y,1/2+z
x,1/2-y,1/2+z
loop_
_atom_site_type_symbol
_atom_site_label
_atom_site_fract_x
_atom_site_fract_y
_atom_site_fract_z
Si Si1 0.567578 0.655002 0.595760
Si Si2 0.350731 0.125382 0.501760
Si Si3 0.041918 0.401386 0.308041
Si Si4 0.698326 0.938851 0.995525
Si Si5 0.636555 0.429735 0.260066
Si Si6 0.636523 0.441409 0.725586
O O1 0.606883 0.768457 0.541626
O O2 0.537580 0.630269 0.466283
O O3 0.545571 0.744028 0.719940
O O4 0.592368 0.499620 0.648404
O O5 0.311124 0.251352 0.499563
O O6 0.347089 0.996012 0.617415
O O7 0.358399 0.044704 0.359415
O O8 0.088049 0.496154 0.288682
O O9 0.000000 0.500000 0.260188
O O10 0.750000 0.971469 0.982773
O O11 0.669941 0.007458 0.872658
O O12 0.677272 0.015616 0.128354
O O13 0.634657 0.241980 0.258139
#
# Coordination Sequence:
#
# PCOD9379807 Si02
#       6
#     8   8   8   8   8   8
#     4  10  20  42  62  91 126 172 208 263 310 373
#     4  10  20  38  65  86 124 166 210 253 318 384
#     4  11  23  42  66  94 131 171 220 258 307 381
#     4  11  23  41  64  91 125 169 217 259 317 391
#     4  11  23  40  64  95 129 166 208 268 323 375
#     4  11  21  39  66  91 126 167 209 265 328 370
#
# _framework density 18.719445
#
# number of rings (size 3 to 8) (size 9 to 14) (size 15 to 20)
#    0.000    1.333    5.000    3.000    0.000    4.667 
#    3.000    2.500    0.000    0.000    0.000    0.000 
#    0.000    0.000    0.000    0.000    0.000    0.000 
#
# Total GULP energy -134057.849117 kJ/mol
# GULP energy per Si atom -5585.743713 kJ/mol
# Density = 1.867684 g / cm^3
# Si number density = 18.719445 Si / 1000 Ang^3
#
#
#
# Elastic Constant Matrix: (Units=GPa)
#
#
# Indices 1 2 3 4 5 6 
#
# 1 74.6111 14.5536 19.0467 0.0000 0.0000 0.0000
# 2 14.5536 87.1474 14.9842 0.0000 0.0000 0.0000
# 3 19.0467 14.9842 110.1671 0.0000 0.0000 0.0000
# 4 0.0000 0.0000 0.0000 25.2131 0.0000 0.0000
# 5 0.0000 0.0000 0.0000 0.0000 6.4405 0.0000
# 6 0.0000 0.0000 0.0000 0.0000 0.0000 16.9645
#
#
#
# Elastic Compliance Matrix: (Units=1/GPa)
#
#
# Indices 1 2 3 4 5 6 
#
# 1 0.014360 -0.002018 -0.002208 0.000000 0.000000 0.000000
# 2 -0.002018 0.012033 -0.001288 0.000000 0.000000 0.000000
# 3 -0.002208 -0.001288 0.009634 0.000000 0.000000 0.000000
# 4 0.000000 0.000000 0.000000 0.039662 0.000000 0.000000
# 5 0.000000 0.000000 0.000000 0.000000 0.155267 0.000000
# 6 0.000000 0.000000 0.000000 0.000000 0.000000 0.058947
#
#
# Mechanical properties :
#
#
# Convention : Reuss Voigt Hill
#
# Bulk Modulus (GPa) = 40.00189 41.01052 40.50621
# Shear Modulus (GPa) = 16.16739 24.61303 20.39021
#
# Velocity S-wave (km/s) = 2.94201 3.63000 3.30396
# Velocity P-wave (km/s) = 5.74074 6.28687 6.02000
#
# Compressibility (1/GPa) = 0.02499882
#
# Stress axis : x y z
#
# Youngs Moduli (GPa) = 69.63657 83.10267 103.79855
#
# Poissons Ratio (x) = 0.16774 0.22921
# Poissons Ratio (y) = 0.14056 0.13366
# Poissons Ratio (z) = 0.15377 0.10701
#
# Static dielectric constant tensor:
#      x y z
#    x 1.642050 0.000000 0.000000 
#    y 0.000000 1.635310 0.000000 
#    z 0.000000 0.000000 1.653280 
# 
# From -- ./inp_files/8381.got.cif
#   From: 2010.05.17/outbox.cif.g08.bks.cpg/sg46_5_cif.got.tgz:8381.got - 2010.06.03 19:58:25.
