data_PCOD9379318
_publ_section_title
;
Structure prediction by ZEFSAII (Michael W. Deem and Ramdas Pophale) SiO2 
 PCOD9379318
Probable space group: I M A 2
;
_chemical_formula_sum "Si O2"
_cell_formula_units_Z 56
_cell_length_a 8.647598
_cell_length_b 21.288148
_cell_length_c 15.198870
_cell_angle_alpha 90.000000
_cell_angle_beta 90.000000
_cell_angle_gamma 90.000000
_cell_volume 2797.980437
_symmetry_space_group_name_H-M "I M A 2"
_symmetry_group_IT_number 46
_symmetry_cell_setting 'orthorhombic'
loop_
_space_group_symop_operation_xyz
x,y,z
-x,-y,z
1/2-x,y,z
1/2+x,-y,z
1/2+x,1/2+y,1/2+z
1/2-x,1/2-y,1/2+z
-x,1/2+y,1/2+z
x,1/2-y,1/2+z
loop_
_atom_site_type_symbol
_atom_site_label
_atom_site_fract_x
_atom_site_fract_y
_atom_site_fract_z
Si Si1 0.571582 0.147224 0.028400
Si Si2 0.076626 0.436718 0.205053
Si Si3 0.431383 0.276470 0.975286
Si Si4 0.067222 0.809307 0.652228
Si Si5 0.563978 0.571016 0.691182
Si Si6 0.564017 0.305850 0.783273
Si Si7 0.423233 0.061891 0.912668
O O1 0.750000 0.161127 0.047174
O O2 0.505042 0.099225 0.100231
O O3 0.471816 0.209226 0.018149
O O4 0.545568 0.115233 0.934482
O O5 0.250000 0.426661 0.169437
O O6 0.092180 0.446777 0.309430
O O7 0.000000 0.500000 0.167537
O O8 0.974871 0.374585 0.197753
O O9 0.250000 0.283137 0.960644
O O10 0.515413 0.286321 0.882053
O O11 0.491226 0.317988 0.056053
O O12 0.250000 0.801998 0.640927
O O13 0.016157 0.749268 0.712943
O O14 0.500000 0.500000 0.707040
O O15 0.750000 0.568458 0.688416
O O16 0.509893 0.626460 0.758449
O O17 0.750000 0.311095 0.778273
O O18 0.250000 0.074832 0.947508
O O19 0.500000 0.000000 0.952037
#
# Coordination Sequence:
#
# PCOD9379318 Si02
#       7
#     8   8   8   8   8   8   8
#     4  12  23  38  59  89 126 165 213 268 329 390
#     4  10  21  37  59  87 123 164 210 259 319 385
#     4  12  25  41  65  95 128 167 217 270 328 393
#     4  11  23  41  66  94 128 167 212 266 327 389
#     4  12  25  43  67  95 132 177 226 279 340 406
#     4  11  24  44  69  98 134 175 222 274 335 400
#     4  10  20  34  53  82 119 159 202 249 308 378
#
# _framework density 20.014434999999999
#
# number of rings (size 3 to 8) (size 9 to 14) (size 15 to 20)
#    0.000    0.857    1.429    6.857    0.000    5.714 
#    0.000    0.714    0.000    0.000    0.000    0.000 
#    0.000    0.000    0.000    0.000    0.000    0.000 
#
# Total GULP energy -156192.626512 kJ/mol
# GULP energy per Si atom -5578.308090 kJ/mol
# Density = 1.996888 g / cm^3
# Si number density = 20.014435 Si / 1000 Ang^3
#
#
#
# Elastic Constant Matrix: (Units=GPa)
#
#
# Indices 1 2 3 4 5 6 
#
# 1 111.1628 32.5479 31.1242 0.0000 0.0000 0.0000
# 2 32.5479 114.5406 29.1521 -0.0001 0.0000 0.0000
# 3 31.1242 29.1521 92.5995 -0.0001 0.0000 0.0000
# 4 0.0000 -0.0001 -0.0001 -32.0866 0.0000 0.0000
# 5 0.0000 0.0000 0.0000 0.0000 49.1392 0.0000
# 6 0.0000 0.0000 0.0000 0.0000 0.0000 30.7269
#
#
#
# Elastic Compliance Matrix: (Units=1/GPa)
#
#
# Indices 1 2 3 4 5 6 
#
# 1 0.010440 -0.002254 -0.002799 0.000000 0.000000 0.000000
# 2 -0.002254 0.009978 -0.002384 0.000000 0.000000 0.000000
# 3 -0.002799 -0.002384 0.012490 0.000000 0.000000 0.000000
# 4 0.000000 0.000000 0.000000 -0.031166 0.000000 0.000000
# 5 0.000000 0.000000 0.000000 0.000000 0.020350 0.000000
# 6 0.000000 0.000000 0.000000 0.000000 0.000000 0.032545
#
#
# Mechanical properties :
#
#
# Convention : Reuss Voigt Hill
#
# Bulk Modulus (GPa) = 55.45102 55.99462 55.72282
# Shear Modulus (GPa) = 66.20565 24.58782 45.39673
#
# Velocity S-wave (km/s) = 5.75767 3.50880 4.76773
# Velocity P-wave (km/s) = 8.48332 6.66734 7.62955
#
# Compressibility (1/GPa) = 0.01803393
#
# Stress axis : x y z
#
# Youngs Moduli (GPa) = 95.78953 100.22368 80.06102
#
# Poissons Ratio (x) = 0.22591 0.22411
# Poissons Ratio (y) = 0.21591 0.19083
# Poissons Ratio (z) = 0.26814 0.23889
#
# Static dielectric constant tensor:
#      x y z
#    x 1.710220 0.000000 0.000000 
#    y 0.000000 3.664600 0.000000 
#    z 0.000000 0.000000 1.756370 
# 
# From -- ./inp_files/14154.got.cif
#   From: 2010.05.17/outbox.cif.g08.bks.cpg/sg46_8_cif.got.tgz:14154.got - 2010.06.03 19:58:25.
