data_PCOD9379478
_publ_section_title
;
Structure prediction by ZEFSAII (Michael W. Deem and Ramdas Pophale) SiO2 
 PCOD9379478
Probable space group: I M A 2
;
_chemical_formula_sum "Si O2"
_cell_formula_units_Z 40
_cell_length_a 11.229096
_cell_length_b 12.969463
_cell_length_c 13.544218
_cell_angle_alpha 90.000000
_cell_angle_beta 90.000000
_cell_angle_gamma 90.000000
_cell_volume 1972.516862
_symmetry_space_group_name_H-M "I M A 2"
_symmetry_group_IT_number 46
_symmetry_cell_setting 'orthorhombic'
loop_
_space_group_symop_operation_xyz
x,y,z
-x,-y,z
1/2-x,y,z
1/2+x,-y,z
1/2+x,1/2+y,1/2+z
1/2-x,1/2-y,1/2+z
-x,1/2+y,1/2+z
x,1/2-y,1/2+z
loop_
_atom_site_type_symbol
_atom_site_label
_atom_site_fract_x
_atom_site_fract_y
_atom_site_fract_z
Si Si1 0.482312 0.265889 0.102470
Si Si2 0.375638 0.437646 0.223173
Si Si3 0.885823 0.074370 0.475867
Si Si4 0.615047 0.274578 0.797455
Si Si5 0.028899 0.117515 0.923808
O O1 0.386349 0.347571 0.142572
O O2 0.532383 0.215573 0.202151
O O3 0.587714 0.334284 0.053691
O O4 0.440473 0.186646 0.018520
O O5 0.500000 0.500000 0.215594
O O6 0.250000 0.494636 0.210419
O O7 0.378563 0.391789 0.333791
O O8 0.750000 0.033851 0.486862
O O9 0.894063 0.127330 0.368742
O O10 0.000000 0.000000 0.485708
O O11 0.750000 0.262062 0.765026
O O12 0.577632 0.177058 0.865864
O O13 0.000000 0.000000 0.953203
#
# Coordination Sequence:
#
# PCOD9379478 Si02
#       5
#     8   8   8   8   8
#     4  10  20  35  58  86 115 148 189 236 284 335
#     4  10  22  39  60  86 116 151 189 233 285 339
#     4  10  21  37  59  86 116 151 189 233 284 337
#     4   9  19  37  58  82 115 153 192 232 279 339
#     4   9  20  36  56  82 114 149 190 236 284 334
#
# _framework density 20.278659999999999
#
# number of rings (size 3 to 8) (size 9 to 14) (size 15 to 20)
#    0.000    2.400    0.000    1.200    0.000   13.600 
#    0.000    8.000    0.000    0.000    0.000    0.000 
#    0.000    0.000    0.000    0.000    0.000    0.000 
#
# Total GULP energy -111427.543918 kJ/mol
# GULP energy per Si atom -5571.377196 kJ/mol
# Density = 2.023250 g / cm^3
# Si number density = 20.278660 Si / 1000 Ang^3
#
#
#
# Elastic Constant Matrix: (Units=GPa)
#
#
# Indices 1 2 3 4 5 6 
#
# 1 130.2805 39.6192 37.0058 0.0000 0.0000 0.0000
# 2 39.6192 89.9601 55.4694 0.0000 0.0000 0.0000
# 3 37.0058 55.4694 143.4808 0.0000 0.0000 0.0000
# 4 0.0000 0.0000 0.0000 44.5360 0.0000 0.0000
# 5 0.0000 0.0000 0.0000 0.0000 -9.2753 0.0000
# 6 0.0000 0.0000 0.0000 0.0000 0.0000 18.1631
#
#
#
# Elastic Compliance Matrix: (Units=1/GPa)
#
#
# Indices 1 2 3 4 5 6 
#
# 1 0.008978 -0.003317 -0.001033 0.000000 0.000000 0.000000
# 2 -0.003317 0.015821 -0.005261 0.000000 0.000000 0.000000
# 3 -0.001033 -0.005261 0.009270 0.000000 0.000000 0.000000
# 4 0.000000 0.000000 0.000000 0.022454 0.000000 0.000000
# 5 0.000000 0.000000 0.000000 0.000000 -0.107814 0.000000
# 6 0.000000 0.000000 0.000000 0.000000 0.000000 0.055057
#
#
# Mechanical properties :
#
#
# Convention : Reuss Voigt Hill
#
# Bulk Modulus (GPa) = 67.35517 69.76780 68.56148
# Shear Modulus (GPa) = 178.98311 26.12657 102.55484
#
# Velocity S-wave (km/s) = 9.40497 3.59329 7.11917
# Velocity P-wave (km/s) = 12.29735 7.18992 10.07273
#
# Compressibility (1/GPa) = 0.01484667
#
# Stress axis : x y z
#
# Youngs Moduli (GPa) = 111.38442 63.20882 107.87654
#
# Poissons Ratio (x) = 0.20965 0.11146
# Poissons Ratio (y) = 0.36945 0.56751
# Poissons Ratio (z) = 0.11509 0.33252
#
# Static dielectric constant tensor:
#      x y z
#    x 1.731510 0.000000 0.000000 
#    y 0.000000 1.760260 0.000000 
#    z 0.000000 0.000000 1.725460 
# 
# From -- ./inp_files/10141.got.cif
#   From: 2010.05.17/outbox.cif.g08.bks.cpg/sg46_6_cif.got.tgz:10141.got - 2010.06.03 19:58:25.
