data_PCOD9379057
_publ_section_title
;
Structure prediction by ZEFSAII (Michael W. Deem and Ramdas Pophale) SiO2 
 PCOD9379057
Probable space group: I M A 2
;
_chemical_formula_sum "Si O2"
_cell_formula_units_Z 52
_cell_length_a 21.501770
_cell_length_b 21.805640
_cell_length_c 4.906919
_cell_angle_alpha 90.000000
_cell_angle_beta 90.000000
_cell_angle_gamma 90.000000
_cell_volume 2300.657336
_symmetry_space_group_name_H-M "I M A 2"
_symmetry_group_IT_number 46
_symmetry_cell_setting 'orthorhombic'
loop_
_space_group_symop_operation_xyz
x,y,z
-x,-y,z
1/2-x,y,z
1/2+x,-y,z
1/2+x,1/2+y,1/2+z
1/2-x,1/2-y,1/2+z
-x,1/2+y,1/2+z
x,1/2-y,1/2+z
loop_
_atom_site_type_symbol
_atom_site_label
_atom_site_fract_x
_atom_site_fract_y
_atom_site_fract_z
Si Si1 0.036874 0.113368 0.919740
Si Si2 0.439480 0.464967 0.907258
Si Si3 0.618780 0.708797 0.107958
Si Si4 0.179312 0.640785 0.414657
Si Si5 0.750000 0.708107 0.244723
Si Si6 0.561846 0.291046 0.585777
Si Si7 0.322452 0.945170 0.421344
O O1 0.035926 0.060136 0.695669
O O2 0.068542 0.166083 0.740203
O O3 0.974514 0.145975 0.025572
O O4 0.072571 0.088524 0.185772
O O5 0.500000 0.500000 0.788172
O O6 0.377211 0.504998 0.945560
O O7 0.615605 0.770045 0.297354
O O8 0.685583 0.677605 0.166758
O O9 0.250000 0.663431 0.407112
O O10 0.132875 0.691980 0.522924
O O11 0.176371 0.583151 0.620123
O O12 0.162955 0.611899 0.122394
O O13 0.750000 0.730322 0.555205
O O14 0.546448 0.264552 0.880531
O O15 0.250000 0.964589 0.479021
#
# Coordination Sequence:
#
# PCOD9379057 Si02
#       7
#     8   8   8   8   4   8   8
#     4  12  24  39  59  88 114 156 197 242 302 340
#     4  12  24  41  62  86 117 154 200 249 298 356
#     4  10  19  36  56  79 111 146 185 225 277 336
#     4  10  21  39  64  89 120 161 198 239 302 368
#     4   8  16  30  52  74 100 142 178 210 260 322
#     4  12  24  39  60  90 126 160 200 248 294 356
#     4  10  21  41  64  89 120 158 201 250 306 361
#
# _framework density 22.602238
#
# number of rings (size 3 to 8) (size 9 to 14) (size 15 to 20)
#    0.000    1.231    0.000    6.923    0.000    0.615 
#    2.769    0.000    0.000    0.000    0.000    0.000 
#    0.000    0.000    0.000    0.000    0.000    0.000 
#
# Total GULP energy -145274.590295 kJ/mol
# GULP energy per Si atom -5587.484242 kJ/mol
# Density = 2.255079 g / cm^3
# Si number density = 22.602238 Si / 1000 Ang^3
#
#
#
# Elastic Constant Matrix: (Units=GPa)
#
#
# Indices 1 2 3 4 5 6 
#
# 1 70.1672 26.9734 -14.5116 0.0000 0.0000 0.0000
# 2 26.9734 40.2297 7.6874 0.0000 0.0000 0.0000
# 3 -14.5116 7.6874 78.6898 0.0000 0.0000 0.0000
# 4 0.0000 0.0000 0.0000 20.0145 0.0000 0.0000
# 5 0.0000 0.0000 0.0000 0.0000 20.9777 0.0000
# 6 0.0000 0.0000 0.0000 0.0000 0.0000 28.7670
#
#
#
# Elastic Compliance Matrix: (Units=1/GPa)
#
#
# Indices 1 2 3 4 5 6 
#
# 1 0.021243 -0.015277 0.005410 0.000000 0.000000 0.000000
# 2 -0.015277 0.036317 -0.006365 0.000000 0.000000 0.000000
# 3 0.005410 -0.006365 0.014328 0.000000 0.000000 0.000000
# 4 0.000000 0.000000 0.000000 0.049964 0.000000 0.000000
# 5 0.000000 0.000000 0.000000 0.000000 0.047670 0.000000
# 6 0.000000 0.000000 0.000000 0.000000 0.000000 0.034762
#
#
# Mechanical properties :
#
#
# Convention : Reuss Voigt Hill
#
# Bulk Modulus (GPa) = 25.36583 25.48722 25.42653
# Shear Modulus (GPa) = 20.00890 25.21433 22.61161
#
# Velocity S-wave (km/s) = 2.97856 3.34364 3.16636
# Velocity P-wave (km/s) = 4.80377 5.11932 4.96405
#
# Compressibility (1/GPa) = 0.03942311
#
# Stress axis : x y z
#
# Youngs Moduli (GPa) = 47.07359 27.53554 69.79500
#
# Poissons Ratio (x) = 0.42066 -0.37760
# Poissons Ratio (y) = 0.71915 0.44426
# Poissons Ratio (z) = -0.25467 0.17527
#
# Static dielectric constant tensor:
#      x y z
#    x 1.903110 0.000000 0.000000 
#    y 0.000000 1.964230 0.000000 
#    z 0.000000 0.000000 1.826080 
# 
# From -- ./inp_files/2088.got.cif
#   From: 2010.05.17/outbox.cif.g08.bks.cpg/sg46_2_cif.got.tgz:2088.got - 2010.06.03 19:58:25.
