data_PCOD9379272
_publ_section_title
;
Structure prediction by ZEFSAII (Michael W. Deem and Ramdas Pophale) SiO2 
 PCOD9379272
Probable space group: I M A 2
;
_chemical_formula_sum "Si O2"
_cell_formula_units_Z 48
_cell_length_a 8.651938
_cell_length_b 9.154092
_cell_length_c 32.443872
_cell_angle_alpha 90.000000
_cell_angle_beta 90.000000
_cell_angle_gamma 90.000000
_cell_volume 2569.575311
_symmetry_space_group_name_H-M "I M A 2"
_symmetry_group_IT_number 46
_symmetry_cell_setting 'orthorhombic'
loop_
_space_group_symop_operation_xyz
x,y,z
-x,-y,z
1/2-x,y,z
1/2+x,-y,z
1/2+x,1/2+y,1/2+z
1/2-x,1/2-y,1/2+z
-x,1/2+y,1/2+z
x,1/2-y,1/2+z
loop_
_atom_site_type_symbol
_atom_site_label
_atom_site_fract_x
_atom_site_fract_y
_atom_site_fract_z
Si Si1 0.934694 0.835670 0.428880
Si Si2 0.565040 0.336703 0.090173
Si Si3 0.564091 0.836713 0.011778
Si Si4 0.564979 0.334298 0.843970
Si Si5 0.564277 0.334061 0.754045
Si Si6 0.434785 0.165416 0.168603
O O1 0.750000 0.844795 0.426270
O O2 0.977578 0.742471 0.468887
O O3 0.997696 0.769262 0.385993
O O4 0.000000 0.000000 0.433295
O O5 0.500000 0.500000 0.088588
O O6 0.750000 0.338134 0.091183
O O7 0.506670 0.250715 0.050019
O O8 0.500424 0.256797 0.130693
O O9 0.750000 0.837678 0.015449
O O10 0.500000 0.000000 0.012050
O O11 0.500000 0.500000 0.843462
O O12 0.750000 0.340218 0.846878
O O13 0.524944 0.268401 0.799053
O O14 0.500000 0.500000 0.755306
O O15 0.750000 0.337986 0.750031
O O16 0.491051 0.270283 0.712585
O O17 0.250000 0.160435 0.167505
O O18 0.500000 0.000000 0.165558
#
# Coordination Sequence:
#
# PCOD9379272 Si02
#       6
#     8   8   8   8   8   8
#     4  10  20  33  53  80 111 144 182 225 272 324
#     4  12  25  42  62  84 111 143 180 225 273 329
#     4  11  24  41  60  84 111 144 183 226 275 328
#     4   9  16  26  45  73 107 143 181 224 270 317
#     4   9  16  27  45  74 108 143 182 226 271 319
#     4  11  21  35  56  83 114 149 186 228 275 325
#
# _framework density 18.680129999999998
#
# number of rings (size 3 to 8) (size 9 to 14) (size 15 to 20)
#    0.000    1.667    0.000    8.000    0.000    6.000 
#    0.000    0.000    0.000    1.000    0.000    2.333 
#    0.000    0.000    0.000    0.000    0.000    0.000 
#
# Total GULP energy -133986.980462 kJ/mol
# GULP energy per Si atom -5582.790853 kJ/mol
# Density = 1.863761 g / cm^3
# Si number density = 18.680130 Si / 1000 Ang^3
#
#
#
# Elastic Constant Matrix: (Units=GPa)
#
#
# Indices 1 2 3 4 5 6 
#
# 1 126.5684 41.8763 91.0466 0.0000 0.0000 0.0000
# 2 41.8763 80.4320 79.6531 0.0000 0.0000 0.0000
# 3 91.0466 79.6531 242.0833 0.0000 0.0000 0.0000
# 4 0.0000 0.0000 0.0000 23.8843 0.0000 0.0000
# 5 0.0000 0.0000 0.0000 0.0000 36.9664 0.0000
# 6 0.0000 0.0000 0.0000 0.0000 0.0000 23.3695
#
#
#
# Elastic Compliance Matrix: (Units=1/GPa)
#
#
# Indices 1 2 3 4 5 6 
#
# 1 0.011148 -0.002450 -0.003386 0.000000 0.000000 0.000000
# 2 -0.002450 0.018981 -0.005324 0.000000 0.000000 0.000000
# 3 -0.003386 -0.005324 0.007156 0.000000 0.000000 0.000000
# 4 0.000000 0.000000 0.000000 0.041868 0.000000 0.000000
# 5 0.000000 0.000000 0.000000 0.000000 0.027052 0.000000
# 6 0.000000 0.000000 0.000000 0.000000 0.000000 0.042791
#
#
# Mechanical properties :
#
#
# Convention : Reuss Voigt Hill
#
# Bulk Modulus (GPa) = 66.82881 97.13734 81.98307
# Shear Modulus (GPa) = 28.36013 32.61122 30.48568
#
# Velocity S-wave (km/s) = 3.90063 4.18277 4.04416
# Velocity P-wave (km/s) = 7.49264 8.68566 8.11111
#
# Compressibility (1/GPa) = 0.01496361
#
# Stress axis : x y z
#
# Youngs Moduli (GPa) = 89.70615 52.68487 139.74195
#
# Poissons Ratio (x) = 0.12910 0.47321
# Poissons Ratio (y) = 0.21981 0.74395
# Poissons Ratio (z) = 0.30377 0.28048
#
# Static dielectric constant tensor:
#      x y z
#    x 1.622980 0.000000 0.000000 
#    y 0.000000 1.596630 0.000000 
#    z 0.000000 0.000000 1.695640 
# 
# From -- ./inp_files/25014.got.cif
#   From: 2010.05.17/outbox.cif.g08.bks.cpg/sg46_13_cif.got.tgz:25014.got - 2010.06.03 19:58:25.
