data_PCOD9379105
_publ_section_title
;
Structure prediction by ZEFSAII (Michael W. Deem and Ramdas Pophale) SiO2 
 PCOD9379105
Probable space group: I M A 2
;
_chemical_formula_sum "Si O2"
_cell_formula_units_Z 48
_cell_length_a 17.168661
_cell_length_b 9.879476
_cell_length_c 13.829141
_cell_angle_alpha 90.000000
_cell_angle_beta 90.000000
_cell_angle_gamma 90.000000
_cell_volume 2345.662585
_symmetry_space_group_name_H-M "I M A 2"
_symmetry_group_IT_number 46
_symmetry_cell_setting 'orthorhombic'
loop_
_space_group_symop_operation_xyz
x,y,z
-x,-y,z
1/2-x,y,z
1/2+x,-y,z
1/2+x,1/2+y,1/2+z
1/2-x,1/2-y,1/2+z
-x,1/2+y,1/2+z
x,1/2-y,1/2+z
loop_
_atom_site_type_symbol
_atom_site_label
_atom_site_fract_x
_atom_site_fract_y
_atom_site_fract_z
Si Si1 0.372756 0.256858 0.417610
Si Si2 0.159714 0.022146 0.280420
Si Si3 0.656846 0.223619 0.844956
Si Si4 0.661239 0.547821 0.246806
Si Si5 0.414067 0.222826 0.129489
Si Si6 0.526644 0.156532 0.981188
O O1 0.365205 0.870872 0.305469
O O2 0.361918 0.282401 0.531237
O O3 0.466870 0.265537 0.409670
O O4 0.344583 0.114703 0.376735
O O5 0.250000 0.020092 0.248185
O O6 0.161064 0.373030 0.349490
O O7 0.109798 0.102637 0.201038
O O8 0.750000 0.221544 0.859215
O O9 0.611736 0.186068 0.943223
O O10 0.637348 0.104721 0.769168
O O11 0.750000 0.551977 0.208912
O O12 0.604684 0.635874 0.180465
O O13 0.500822 0.206669 0.087011
O O14 0.500000 0.000000 0.975640
#
# Coordination Sequence:
#
# PCOD9379105 Si02
#       6
#     8   8   8   8   8   8
#     4   9  19  36  64  92 124 168 209 270 302 374
#     4  10  21  39  65 100 129 167 213 264 329 380
#     4  10  21  40  67  94 132 169 204 265 333 391
#     4  10  19  36  64  96 126 168 211 258 325 377
#     4   9  20  37  61  93 124 167 215 264 302 377
#     4  10  20  41  63  94 127 165 226 257 319 378
#
# _framework density 20.463303
#
# number of rings (size 3 to 8) (size 9 to 14) (size 15 to 20)
#    1.000    1.333    1.667    2.000    0.000    3.333 
#    6.000    5.000    7.333   10.000    0.000    0.000 
#    0.000    0.000    0.000    0.000    0.000    0.000 
#
# Total GULP energy -133753.546682 kJ/mol
# GULP energy per Si atom -5573.064445 kJ/mol
# Density = 2.041673 g / cm^3
# Si number density = 20.463303 Si / 1000 Ang^3
#
#
#
# Elastic Constant Matrix: (Units=GPa)
#
#
# Indices 1 2 3 4 5 6 
#
# 1 55.7334 33.2323 29.9482 0.0000 0.0000 0.0000
# 2 33.2323 173.0527 47.9646 0.0000 0.0000 0.0000
# 3 29.9482 47.9646 91.3196 0.0000 0.0000 0.0000
# 4 0.0000 0.0000 0.0000 10.1863 0.0000 0.0000
# 5 0.0000 0.0000 0.0000 0.0000 24.6890 0.0000
# 6 0.0000 0.0000 0.0000 0.0000 0.0000 28.1333
#
#
#
# Elastic Compliance Matrix: (Units=1/GPa)
#
#
# Indices 1 2 3 4 5 6 
#
# 1 0.022810 -0.002700 -0.006062 0.000000 0.000000 0.000000
# 2 -0.002700 0.007083 -0.002835 0.000000 0.000000 0.000000
# 3 -0.006062 -0.002835 0.014428 0.000000 0.000000 0.000000
# 4 0.000000 0.000000 0.000000 0.098172 0.000000 0.000000
# 5 0.000000 0.000000 0.000000 0.000000 0.040504 0.000000
# 6 0.000000 0.000000 0.000000 0.000000 0.000000 0.035545
#
#
# Mechanical properties :
#
#
# Convention : Reuss Voigt Hill
#
# Bulk Modulus (GPa) = 47.33444 60.26620 53.80032
# Shear Modulus (GPa) = 20.09831 26.53243 23.31537
#
# Velocity S-wave (km/s) = 3.13735 3.60472 3.37912
# Velocity P-wave (km/s) = 6.02541 6.84399 6.44770
#
# Compressibility (1/GPa) = 0.02112627
#
# Stress axis : x y z
#
# Youngs Moduli (GPa) = 43.84015 141.18770 69.31172
#
# Poissons Ratio (x) = 0.38122 0.42019
# Poissons Ratio (y) = 0.11837 0.19648
# Poissons Ratio (z) = 0.26578 0.40022
#
# Static dielectric constant tensor:
#      x y z
#    x 1.764520 0.000000 0.000000 
#    y 0.000000 1.721360 0.000000 
#    z 0.000000 0.000000 1.723700 
# 
# From -- ./inp_files/16961.got.cif
#   From: 2010.05.17/outbox.cif.g08.bks.cpg/sg46_9_cif.got.tgz:16961.got - 2010.06.03 19:58:25.
