data_PCOD9379870
_publ_section_title
;
Structure prediction by ZEFSAII (Michael W. Deem and Ramdas Pophale) SiO2 
 PCOD9379870
Probable space group: I M A 2
;
_chemical_formula_sum "Si O2"
_cell_formula_units_Z 56
_cell_length_a 28.708170
_cell_length_b 14.715945
_cell_length_c 5.614880
_cell_angle_alpha 90.000000
_cell_angle_beta 90.000000
_cell_angle_gamma 90.000000
_cell_volume 2372.106286
_symmetry_space_group_name_H-M "I M A 2"
_symmetry_group_IT_number 46
_symmetry_cell_setting 'orthorhombic'
loop_
_space_group_symop_operation_xyz
x,y,z
-x,-y,z
1/2-x,y,z
1/2+x,-y,z
1/2+x,1/2+y,1/2+z
1/2-x,1/2-y,1/2+z
-x,1/2+y,1/2+z
x,1/2-y,1/2+z
loop_
_atom_site_type_symbol
_atom_site_label
_atom_site_fract_x
_atom_site_fract_y
_atom_site_fract_z
Si Si1 0.374852 0.606531 0.058970
Si Si2 0.694919 0.479626 0.419236
Si Si3 0.184956 0.777722 0.062111
Si Si4 0.010541 0.714116 0.586964
Si Si5 0.903618 0.715676 0.021714
Si Si6 0.455914 0.963455 0.879916
Si Si7 0.886333 0.956169 0.204693
O O1 0.331221 0.548583 0.172615
O O2 0.417539 0.589686 0.232826
O O3 0.360585 0.711619 0.045911
O O4 0.388146 0.556492 0.817956
O O5 0.750000 0.499783 0.394825
O O6 0.688129 0.385613 0.564611
O O7 0.663085 0.550928 0.566935
O O8 0.205617 0.754366 0.807690
O O9 0.030198 0.743099 0.842324
O O10 0.956857 0.750661 0.569878
O O11 0.019683 0.607277 0.558662
O O12 0.883546 0.771163 0.790028
O O13 0.897533 0.614534 0.915122
O O14 0.500000 0.000000 0.731184
O O15 0.426877 0.042539 0.008725
#
# Coordination Sequence:
#
# PCOD9379870 Si02
#       7
#     8   8   8   8   8   8   8
#     4  10  24  40  64  96 142 187 234 293 352 422
#     4  10  23  43  70 103 140 184 234 291 360 444
#     4  10  20  40  61  96 138 184 229 274 345 421
#     4  10  23  40  58  91 126 177 234 283 335 404
#     4  10  23  43  73  95 132 178 238 291 355 418
#     4  11  25  40  64  95 137 187 239 294 350 411
#     4  11  24  44  69 100 140 180 242 299 356 416
#
# _framework density 23.607710999999998
#
# number of rings (size 3 to 8) (size 9 to 14) (size 15 to 20)
#    0.000    1.714    1.429    1.714   10.000    6.857 
#    0.000    0.000    0.000    0.857    0.000    0.000 
#    0.000    0.000    0.000    0.000    0.000    0.000 
#
# Total GULP energy -156017.728526 kJ/mol
# GULP energy per Si atom -5572.061733 kJ/mol
# Density = 2.355398 g / cm^3
# Si number density = 23.607711 Si / 1000 Ang^3
#
#
#
# Elastic Constant Matrix: (Units=GPa)
#
#
# Indices 1 2 3 4 5 6 
#
# 1 154.3513 36.6179 17.2103 0.0000 0.0000 0.0000
# 2 36.6179 47.8054 13.2721 0.0000 0.0000 0.0000
# 3 17.2103 13.2721 104.7148 0.0000 0.0000 0.0000
# 4 0.0000 0.0000 0.0000 48.2636 0.0000 0.0000
# 5 0.0000 0.0000 0.0000 0.0000 1.5682 0.0000
# 6 0.0000 0.0000 0.0000 0.0000 0.0000 -98.2320
#
#
#
# Elastic Compliance Matrix: (Units=1/GPa)
#
#
# Indices 1 2 3 4 5 6 
#
# 1 0.007948 -0.005934 -0.000554 0.000000 0.000000 0.000000
# 2 -0.005934 0.026112 -0.002334 0.000000 0.000000 0.000000
# 3 -0.000554 -0.002334 0.009937 0.000000 0.000000 0.000000
# 4 0.000000 0.000000 0.000000 0.020720 0.000000 0.000000
# 5 0.000000 0.000000 0.000000 0.000000 0.637682 0.000000
# 6 0.000000 0.000000 0.000000 0.000000 0.000000 -0.010180
#
#
# Mechanical properties :
#
#
# Convention : Reuss Voigt Hill
#
# Bulk Modulus (GPa) = 37.94888 49.00801 43.47845
# Shear Modulus (GPa) = 6.95751 6.30470 6.63110
#
# Velocity S-wave (km/s) = 1.71858 1.63597 1.67779
# Velocity P-wave (km/s) = 4.47747 4.93690 4.71278
#
# Compressibility (1/GPa) = 0.02635124
#
# Stress axis : x y z
#
# Youngs Moduli (GPa) = 125.81154 38.29681 100.63724
#
# Poissons Ratio (x) = 0.22727 0.05577
# Poissons Ratio (y) = 0.74662 0.23491
# Poissons Ratio (z) = 0.06972 0.08939
#
# Static dielectric constant tensor:
#      x y z
#    x 1.913510 0.000000 0.000000 
#    y 0.000000 2.006570 0.000000 
#    z 0.000000 0.000000 1.971660 
# 
# From -- ./inp_files/2718.got.cif
#   From: 2010.05.17/outbox.cif.g08.bks.cpg/sg46_2_cif.got.tgz:2718.got - 2010.06.03 19:58:25.
