data_PCOD9379194
_publ_section_title
;
Structure prediction by ZEFSAII (Michael W. Deem and Ramdas Pophale) SiO2 
 PCOD9379194
Probable space group: I M A 2
;
_chemical_formula_sum "Si O2"
_cell_formula_units_Z 64
_cell_length_a 8.692224
_cell_length_b 27.891670
_cell_length_c 15.188723
_cell_angle_alpha 90.000000
_cell_angle_beta 90.000000
_cell_angle_gamma 90.000000
_cell_volume 3682.363776
_symmetry_space_group_name_H-M "I M A 2"
_symmetry_group_IT_number 46
_symmetry_cell_setting 'orthorhombic'
loop_
_space_group_symop_operation_xyz
x,y,z
-x,-y,z
1/2-x,y,z
1/2+x,-y,z
1/2+x,1/2+y,1/2+z
1/2-x,1/2-y,1/2+z
-x,1/2+y,1/2+z
x,1/2-y,1/2+z
loop_
_atom_site_type_symbol
_atom_site_label
_atom_site_fract_x
_atom_site_fract_y
_atom_site_fract_z
Si Si1 0.064416 0.281982 0.545510
Si Si2 0.934253 0.217472 0.235940
Si Si3 0.934569 0.634633 0.856023
Si Si4 0.434767 0.329433 0.042949
Si Si5 0.435020 0.363477 0.409162
Si Si6 0.933714 0.446790 0.732549
Si Si7 0.435038 0.053002 0.042551
Si Si8 0.566714 0.329017 0.231890
O O1 0.250000 0.285186 0.555934
O O2 0.023651 0.226584 0.527592
O O3 0.018547 0.317054 0.466789
O O4 0.986198 0.296345 0.637292
O O5 0.750000 0.213600 0.244077
O O6 0.980947 0.273242 0.247012
O O7 0.015095 0.182735 0.304992
O O8 0.750000 0.630241 0.852069
O O9 0.010802 0.590252 0.806040
O O10 0.982420 0.640333 0.957852
O O11 0.250000 0.331436 0.049203
O O12 0.503953 0.343970 0.136544
O O13 0.250000 0.362840 0.401655
O O14 0.478477 0.409935 0.466159
O O15 0.505412 0.359883 0.312780
O O16 0.250000 0.551272 0.728599
O O17 0.998828 0.431122 0.637150
O O18 0.000000 0.500000 0.748622
O O19 0.250000 0.051321 0.049000
O O20 0.500000 0.000000 0.025617
O O21 0.750000 0.330008 0.229861
#
# Coordination Sequence:
#
# PCOD9379194 Si02
#       8
#     8   8   8   8   8   8   8   8
#     4   9  17  31  50  73 101 136 174 212 251 299
#     4  10  20  32  47  74 108 140 171 209 256 306
#     4  11  21  34  54  78 102 135 176 215 255 304
#     4   9  19  34  52  72  99 136 175 212 253 299
#     4  10  20  33  52  75 100 133 175 214 253 303
#     4  11  22  37  57  81 109 138 166 205 254 307
#     4  10  20  35  55  80 108 138 170 209 255 307
#     4  10  21  34  50  73 104 138 173 214 259 303
#
# _framework density 17.380139
#
# number of rings (size 3 to 8) (size 9 to 14) (size 15 to 20)
#    0.000    2.000    0.000    4.875    0.000    6.000 
#    0.000    2.500    0.000    0.750    0.000    3.500 
#    0.000    0.000    0.000    0.000    0.000    0.000 
#
# Total GULP energy -178717.929638 kJ/mol
# GULP energy per Si atom -5584.935301 kJ/mol
# Density = 1.734058 g / cm^3
# Si number density = 17.380139 Si / 1000 Ang^3
#
#
#
# Elastic Constant Matrix: (Units=GPa)
#
#
# Indices 1 2 3 4 5 6 
#
# 1 53.0917 34.7824 48.5694 0.0000 0.0000 0.0000
# 2 34.7824 72.8085 83.9903 0.0000 0.0000 0.0000
# 3 48.5694 83.9903 172.6901 0.0000 0.0000 0.0000
# 4 0.0000 0.0000 0.0000 28.3131 0.0000 0.0000
# 5 0.0000 0.0000 0.0000 0.0000 14.3145 0.0000
# 6 0.0000 0.0000 0.0000 0.0000 0.0000 25.8452
#
#
#
# Elastic Compliance Matrix: (Units=1/GPa)
#
#
# Indices 1 2 3 4 5 6 
#
# 1 0.028142 -0.009827 -0.003135 0.000000 0.000000 0.000000
# 2 -0.009827 0.034722 -0.014124 0.000000 0.000000 0.000000
# 3 -0.003135 -0.014124 0.013542 0.000000 0.000000 0.000000
# 4 0.000000 0.000000 0.000000 0.035319 0.000000 0.000000
# 5 0.000000 0.000000 0.000000 0.000000 0.069859 0.000000
# 6 0.000000 0.000000 0.000000 0.000000 0.000000 0.038692
#
#
# Mechanical properties :
#
#
# Convention : Reuss Voigt Hill
#
# Bulk Modulus (GPa) = 44.97753 70.36380 57.67067
# Shear Modulus (GPa) = 17.73932 22.44444 20.09188
#
# Velocity S-wave (km/s) = 3.19825 3.59748 3.40373
# Velocity P-wave (km/s) = 6.29073 7.60453 6.97862
#
# Compressibility (1/GPa) = 0.02223332
#
# Stress axis : x y z
#
# Youngs Moduli (GPa) = 35.53442 28.80009 73.84536
#
# Poissons Ratio (x) = 0.28302 0.23153
# Poissons Ratio (y) = 0.34920 1.04297
# Poissons Ratio (z) = 0.11141 0.40676
#
# Static dielectric constant tensor:
#      x y z
#    x 1.581470 0.000000 0.000000 
#    y 0.000000 1.584290 0.000000 
#    z 0.000000 0.000000 1.577340 
# 
# From -- ./inp_files/14497.got.cif
#   From: 2010.05.17/outbox.cif.g08.bks.cpg/sg46_8_cif.got.tgz:14497.got - 2010.06.03 19:58:25.
