data_PCOD9379088
_publ_section_title
;
Structure prediction by ZEFSAII (Michael W. Deem and Ramdas Pophale) SiO2 
 PCOD9379088
Probable space group: I M A 2
;
_chemical_formula_sum "Si O2"
_cell_formula_units_Z 64
_cell_length_a 26.750825
_cell_length_b 5.217458
_cell_length_c 23.414993
_cell_angle_alpha 90.000000
_cell_angle_beta 90.000000
_cell_angle_gamma 90.000000
_cell_volume 3268.061151
_symmetry_space_group_name_H-M "I M A 2"
_symmetry_group_IT_number 46
_symmetry_cell_setting 'orthorhombic'
loop_
_space_group_symop_operation_xyz
x,y,z
-x,-y,z
1/2-x,y,z
1/2+x,-y,z
1/2+x,1/2+y,1/2+z
1/2-x,1/2-y,1/2+z
-x,1/2+y,1/2+z
x,1/2-y,1/2+z
loop_
_atom_site_type_symbol
_atom_site_label
_atom_site_fract_x
_atom_site_fract_y
_atom_site_fract_z
Si Si1 0.412908 0.999693 0.300100
Si Si2 0.060400 0.998019 0.872535
Si Si3 0.126250 0.965126 0.984291
Si Si4 0.900769 0.443153 0.613095
Si Si5 0.695285 0.090544 0.630512
Si Si6 0.453738 0.686462 0.207133
Si Si7 0.808041 0.544411 0.000680
Si Si8 0.867183 0.799711 0.708920
O O1 0.416727 0.750374 0.340071
O O2 0.451237 0.927866 0.249242
O O3 0.426004 0.242443 0.338902
O O4 0.366326 0.095430 0.260302
O O5 0.085989 0.989412 0.934388
O O6 0.000000 0.000000 0.875053
O O7 0.158156 0.700960 0.983994
O O8 0.165459 0.198553 0.979469
O O9 0.098814 0.983318 0.045891
O O10 0.849201 0.293226 0.626698
O O11 0.945253 0.282704 0.642475
O O12 0.894938 0.692460 0.652096
O O13 0.750000 0.210770 0.634048
O O14 0.692657 0.942951 0.570055
O O15 0.684075 0.909507 0.684303
O O16 0.500000 0.500000 0.214290
O O17 0.403923 0.530519 0.225750
O O18 0.750000 0.518429 0.982568
#
# Coordination Sequence:
#
# PCOD9379088 Si02
#       8
#     8   8   8   8   8   8   8   8
#     4  11  23  40  63  86 119 156 220 266 299 357
#     4  12  26  42  64  91 119 171 221 264 312 370
#     4  11  22  42  61  92 134 162 207 267 315 373
#     4   9  20  35  56  90 130 161 198 248 318 392
#     4   9  18  33  57  93 128 160 197 244 306 383
#     4  10  21  37  61  93 120 163 205 260 318 368
#     4  10  20  37  67  96 124 164 209 256 314 380
#     4  10  19  36  61  90 123 156 197 256 317 367
#
# _framework density 19.583477999999999
#
# number of rings (size 3 to 8) (size 9 to 14) (size 15 to 20)
#    0.000    1.750    2.500    1.875    1.750    2.500 
#    2.250    0.000    0.000    4.500    0.000    0.000 
#    0.000    0.000    0.000    0.000    0.000    0.000 
#
# Total GULP energy -178381.681362 kJ/mol
# GULP energy per Si atom -5574.427543 kJ/mol
# Density = 1.953891 g / cm^3
# Si number density = 19.583478 Si / 1000 Ang^3
#
#
#
# Elastic Constant Matrix: (Units=GPa)
#
#
# Indices 1 2 3 4 5 6 
#
# 1 38.7751 17.0389 42.7552 0.0000 0.0000 0.0000
# 2 17.0389 110.9080 52.4869 0.0000 0.0000 0.0000
# 3 42.7552 52.4869 143.6842 0.0000 0.0000 0.0000
# 4 0.0000 0.0000 0.0000 23.2910 0.0000 0.0000
# 5 0.0000 0.0000 0.0000 0.0000 -13.2414 0.0000
# 6 0.0000 0.0000 0.0000 0.0000 0.0000 19.2581
#
#
#
# Elastic Compliance Matrix: (Units=1/GPa)
#
#
# Indices 1 2 3 4 5 6 
#
# 1 0.038416 -0.000595 -0.011214 0.000000 0.000000 0.000000
# 2 -0.000595 0.010910 -0.003808 0.000000 0.000000 0.000000
# 3 -0.011214 -0.003808 0.011688 0.000000 0.000000 0.000000
# 4 0.000000 0.000000 0.000000 0.042935 0.000000 0.000000
# 5 0.000000 0.000000 0.000000 0.000000 -0.075521 0.000000
# 6 0.000000 0.000000 0.000000 0.000000 0.000000 0.051926
#
#
# Mechanical properties :
#
#
# Convention : Reuss Voigt Hill
#
# Bulk Modulus (GPa) = 33.58005 57.54769 45.56387
# Shear Modulus (GPa) = 41.14690 17.93396 29.54043
#
# Velocity S-wave (km/s) = 4.58875 3.02945 3.88807
# Velocity P-wave (km/s) = 6.72755 6.45650 6.59342
#
# Compressibility (1/GPa) = 0.02977959
#
# Stress axis : x y z
#
# Youngs Moduli (GPa) = 26.03072 91.65742 85.55976
#
# Poissons Ratio (x) = 0.05453 0.95946
# Poissons Ratio (y) = 0.01549 0.32584
# Poissons Ratio (z) = 0.29191 0.34907
#
# Static dielectric constant tensor:
#      x y z
#    x 1.729950 0.000000 0.000000 
#    y 0.000000 1.765430 0.000000 
#    z 0.000000 0.000000 1.714980 
# 
# From -- ./inp_files/22616.got.cif
#   From: 2010.05.17/outbox.cif.g08.bks.cpg/sg46_12_cif.got.tgz:22616.got - 2010.06.03 19:58:25.
