data_PCOD9379823
_publ_section_title
;
Structure prediction by ZEFSAII (Michael W. Deem and Ramdas Pophale) SiO2 
 PCOD9379823
Probable space group: I M A 2
;
_chemical_formula_sum "Si O2"
_cell_formula_units_Z 64
_cell_length_a 21.483586
_cell_length_b 10.305099
_cell_length_c 14.335663
_cell_angle_alpha 90.000000
_cell_angle_beta 90.000000
_cell_angle_gamma 90.000000
_cell_volume 3173.779321
_symmetry_space_group_name_H-M "I M A 2"
_symmetry_group_IT_number 46
_symmetry_cell_setting 'orthorhombic'
loop_
_space_group_symop_operation_xyz
x,y,z
-x,-y,z
1/2-x,y,z
1/2+x,-y,z
1/2+x,1/2+y,1/2+z
1/2-x,1/2-y,1/2+z
-x,1/2+y,1/2+z
x,1/2-y,1/2+z
loop_
_atom_site_type_symbol
_atom_site_label
_atom_site_fract_x
_atom_site_fract_y
_atom_site_fract_z
Si Si1 0.412605 0.128305 0.907300
Si Si2 0.324045 0.516004 0.143489
Si Si3 0.323098 0.209940 0.151100
Si Si4 0.820683 0.845577 0.371968
Si Si5 0.623544 0.136150 0.833264
Si Si6 0.174868 0.877692 0.448020
Si Si7 0.957844 0.877491 0.098659
Si Si8 0.003934 0.352634 0.228911
O O1 0.362055 0.239049 0.922375
O O2 0.441828 0.149214 0.805705
O O3 0.384192 0.985224 0.902778
O O4 0.463547 0.135796 0.987524
O O5 0.250000 0.516611 0.136602
O O6 0.340413 0.362669 0.136580
O O7 0.340485 0.580152 0.242513
O O8 0.348087 0.598180 0.054457
O O9 0.250000 0.188031 0.119117
O O10 0.321152 0.184320 0.262268
O O11 0.382177 0.123651 0.115711
O O12 0.750000 0.835664 0.406357
O O13 0.842433 0.990565 0.393330
O O14 0.651142 0.254717 0.890962
O O15 0.557767 0.174524 0.788200
O O16 0.250000 0.868551 0.450142
O O17 0.983622 0.752732 0.151502
O O18 0.000000 0.000000 0.128704
O O19 0.000000 0.500000 0.191738
#
# Coordination Sequence:
#
# PCOD9379823 Si02
#       8
#     8   8   8   8   8   8   8   8
#     4  11  23  43  64  91 123 170 226 265 320 397
#     4  10  20  39  66  93 129 177 225 269 330 405
#     4  10  20  40  68  95 124 172 225 272 329 400
#     4  10  20  38  67  95 124 160 215 274 325 385
#     4  11  22  39  66  88 128 175 218 262 335 406
#     4  10  23  39  60  98 133 161 209 276 333 391
#     4  12  25  41  65  96 137 166 212 287 340 393
#     4  10  23  43  63  86 121 173 222 263 327 407
#
# _framework density 20.165233000000001
#
# number of rings (size 3 to 8) (size 9 to 14) (size 15 to 20)
#    0.000    1.500    2.500    3.000    1.750    4.000 
#    0.000    0.625    0.000    0.000    0.000    0.000 
#    0.000    0.000    0.000    0.000    0.000    0.000 
#
# Total GULP energy -178601.925227 kJ/mol
# GULP energy per Si atom -5581.310163 kJ/mol
# Density = 2.011934 g / cm^3
# Si number density = 20.165233 Si / 1000 Ang^3
#
#
#
# Elastic Constant Matrix: (Units=GPa)
#
#
# Indices 1 2 3 4 5 6 
#
# 1 75.7924 61.3984 20.3276 0.0000 0.0000 0.0000
# 2 61.3984 171.3997 83.4988 0.0000 0.0000 0.0000
# 3 20.3276 83.4988 100.9843 0.0000 0.0000 0.0000
# 4 0.0000 0.0000 0.0000 30.2188 0.0000 0.0000
# 5 0.0000 0.0000 0.0000 0.0000 -77.7511 0.0000
# 6 0.0000 0.0000 0.0000 0.0000 0.0000 35.6632
#
#
#
# Elastic Compliance Matrix: (Units=1/GPa)
#
#
# Indices 1 2 3 4 5 6 
#
# 1 0.019129 -0.008333 0.003040 0.000000 0.000000 0.000000
# 2 -0.008333 0.013400 -0.009402 0.000000 0.000000 0.000000
# 3 0.003040 -0.009402 0.017065 0.000000 0.000000 0.000000
# 4 0.000000 0.000000 0.000000 0.033092 0.000000 0.000000
# 5 0.000000 0.000000 0.000000 0.000000 -0.012862 0.000000
# 6 0.000000 0.000000 0.000000 0.000000 0.000000 0.028040
#
#
# Mechanical properties :
#
#
# Convention : Reuss Voigt Hill
#
# Bulk Modulus (GPa) = 49.49867 75.40289 62.45078
# Shear Modulus (GPa) = 37.31613 9.82295 23.56954
#
# Velocity S-wave (km/s) = 4.30643 2.20948 3.42251
# Velocity P-wave (km/s) = 7.02332 6.63195 6.83044
#
# Compressibility (1/GPa) = 0.02020256
#
# Stress axis : x y z
#
# Youngs Moduli (GPa) = 52.27550 74.62782 58.60011
#
# Poissons Ratio (x) = 0.62190 -0.17813
# Poissons Ratio (y) = 0.43563 0.55097
# Poissons Ratio (z) = -0.15891 0.70166
#
# Static dielectric constant tensor:
#      x y z
#    x 1.864540 0.000000 0.000000 
#    y 0.000000 1.695390 0.000000 
#    z 0.000000 0.000000 1.739220 
# 
# From -- ./inp_files/17409.got.cif
#   From: 2010.05.17/outbox.cif.g08.bks.cpg/sg46_9_cif.got.tgz:17409.got - 2010.06.03 19:58:25.
