data_PCOD9379830
_publ_section_title
;
Structure prediction by ZEFSAII (Michael W. Deem and Ramdas Pophale) SiO2 
 PCOD9379830
Probable space group: I M A 2
;
_chemical_formula_sum "Si O2"
_cell_formula_units_Z 44
_cell_length_a 13.959543
_cell_length_b 5.069621
_cell_length_c 27.808532
_cell_angle_alpha 90.000000
_cell_angle_beta 90.000000
_cell_angle_gamma 90.000000
_cell_volume 1967.998473
_symmetry_space_group_name_H-M "I M A 2"
_symmetry_group_IT_number 46
_symmetry_cell_setting 'orthorhombic'
loop_
_space_group_symop_operation_xyz
x,y,z
-x,-y,z
1/2-x,y,z
1/2+x,-y,z
1/2+x,1/2+y,1/2+z
1/2-x,1/2-y,1/2+z
-x,1/2+y,1/2+z
x,1/2-y,1/2+z
loop_
_atom_site_type_symbol
_atom_site_label
_atom_site_fract_x
_atom_site_fract_y
_atom_site_fract_z
Si Si1 0.357179 0.132462 0.151500
Si Si2 0.750000 0.866545 0.940963
Si Si3 0.500000 0.500000 0.729047
Si Si4 0.750000 0.133661 0.503986
Si Si5 0.639929 0.818649 0.354283
Si Si6 0.367292 0.813112 0.801824
Si Si7 0.102453 0.875685 0.587221
O O1 0.250000 0.067606 0.168894
O O2 0.394097 0.889514 0.118766
O O3 0.431026 0.171135 0.194728
O O4 0.352267 0.393265 0.119431
O O5 0.842420 0.797357 0.907408
O O6 0.750000 0.163405 0.959644
O O7 0.750000 0.663546 0.984678
O O8 0.426292 0.681653 0.758884
O O9 0.840096 0.177614 0.538607
O O10 0.750000 0.840416 0.337410
O O11 0.599570 0.602975 0.317944
O O12 0.606894 0.115893 0.346680
O O13 0.250000 0.823075 0.794041
O O14 0.000000 0.000000 0.575724
#
# Coordination Sequence:
#
# PCOD9379830 Si02
#       7
#     8   4   4   4   8   8   8
#     4  12  24  44  64  95 133 180 220 267 330 387
#     4  10  20  38  72  95 120 173 212 268 322 410
#     4  12  26  38  68  96 126 172 238 260 310 388
#     4  12  22  38  74  95 124 169 224 256 334 398
#     4   8  18  37  64  85 125 161 200 256 329 366
#     4  10  20  39  60  89 124 168 205 264 317 378
#     4  12  24  44  67  95 135 172 215 276 337 381
#
# _framework density 22.357738999999999
#
# number of rings (size 3 to 8) (size 9 to 14) (size 15 to 20)
#    0.545    0.727    3.636    2.727    0.000    3.636 
#    0.000    3.636   12.000    0.000    0.000    0.000 
#    0.000    0.000    0.000    0.000    0.000    0.000 
#
# Total GULP energy -122785.388169 kJ/mol
# GULP energy per Si atom -5581.154008 kJ/mol
# Density = 2.230685 g / cm^3
# Si number density = 22.357739 Si / 1000 Ang^3
#
#
#
# Elastic Constant Matrix: (Units=GPa)
#
#
# Indices 1 2 3 4 5 6 
#
# 1 103.5134 -8.6858 19.5461 0.0000 0.0000 0.0000
# 2 -8.6858 99.6832 1.7161 0.0000 0.0000 0.0000
# 3 19.5461 1.7161 67.1704 0.0000 0.0000 0.0000
# 4 0.0000 0.0000 0.0000 15.9109 0.0000 0.0000
# 5 0.0000 0.0000 0.0000 0.0000 28.4950 0.0000
# 6 0.0000 0.0000 0.0000 0.0000 0.0000 23.1131
#
#
#
# Elastic Compliance Matrix: (Units=1/GPa)
#
#
# Indices 1 2 3 4 5 6 
#
# 1 0.010312 0.000951 -0.003025 0.000000 0.000000 0.000000
# 2 0.000951 0.010124 -0.000535 0.000000 0.000000 0.000000
# 3 -0.003025 -0.000535 0.015781 0.000000 0.000000 0.000000
# 4 0.000000 0.000000 0.000000 0.062850 0.000000 0.000000
# 5 0.000000 0.000000 0.000000 0.000000 0.035094 0.000000
# 6 0.000000 0.000000 0.000000 0.000000 0.000000 0.043265
#
#
# Mechanical properties :
#
#
# Convention : Reuss Voigt Hill
#
# Bulk Modulus (GPa) = 32.26053 32.83553 32.54803
# Shear Modulus (GPa) = 25.90972 30.68985 28.29979
#
# Velocity S-wave (km/s) = 3.40791 3.70898 3.56163
# Velocity P-wave (km/s) = 5.47227 5.74981 5.61276
#
# Compressibility (1/GPa) = 0.03099763
#
# Stress axis : x y z
#
# Youngs Moduli (GPa) = 96.97892 98.77696 63.36569
#
# Poissons Ratio (x) = -0.09389 0.19167
# Poissons Ratio (y) = -0.09218 0.03392
# Poissons Ratio (z) = 0.29335 0.05287
#
# Static dielectric constant tensor:
#      x y z
#    x 1.894110 0.000000 0.000000 
#    y 0.000000 1.811590 0.000000 
#    z 0.000000 0.000000 1.819430 
# 
# From -- ./inp_files/24566.got.cif
#   From: 2010.05.17/outbox.cif.g08.bks.cpg/sg46_13_cif.got.tgz:24566.got - 2010.06.03 19:58:25.
