data_PCOD9379162
_publ_section_title
;
Structure prediction by ZEFSAII (Michael W. Deem and Ramdas Pophale) SiO2 
 PCOD9379162
Probable space group: I M A 2
;
_chemical_formula_sum "Si O2"
_cell_formula_units_Z 48
_cell_length_a 14.462378
_cell_length_b 4.811922
_cell_length_c 27.465799
_cell_angle_alpha 90.000000
_cell_angle_beta 90.000000
_cell_angle_gamma 90.000000
_cell_volume 1911.395349
_symmetry_space_group_name_H-M "I M A 2"
_symmetry_group_IT_number 46
_symmetry_cell_setting 'orthorhombic'
loop_
_space_group_symop_operation_xyz
x,y,z
-x,-y,z
1/2-x,y,z
1/2+x,-y,z
1/2+x,1/2+y,1/2+z
1/2-x,1/2-y,1/2+z
-x,1/2+y,1/2+z
x,1/2-y,1/2+z
loop_
_atom_site_type_symbol
_atom_site_label
_atom_site_fract_x
_atom_site_fract_y
_atom_site_fract_z
Si Si1 0.559694 0.718572 0.701770
Si Si2 0.140698 0.049066 0.443063
Si Si3 0.250000 0.629370 0.813924
Si Si4 0.360057 0.159715 0.552472
Si Si5 0.096839 0.921909 0.878762
Si Si6 0.750000 0.883507 0.751988
Si Si7 0.140769 0.665025 0.616052
O O1 0.500000 0.500000 0.734054
O O2 0.656312 0.812819 0.724364
O O3 0.590995 0.507717 0.658185
O O4 0.500000 0.000000 0.693417
O O5 0.250000 0.963165 0.444858
O O6 0.108954 0.116342 0.497616
O O7 0.082046 0.795235 0.422421
O O8 0.136277 0.306242 0.405569
O O9 0.162945 0.752108 0.842938
O O10 0.250000 0.304801 0.801399
O O11 0.250000 0.790543 0.762915
O O12 0.250000 0.104057 0.551851
O O13 0.393594 0.961750 0.596492
O O14 0.371564 0.474700 0.568453
O O15 0.000000 0.000000 0.854588
O O16 0.250000 0.683396 0.628812
#
# Coordination Sequence:
#
# PCOD9379162 Si02
#       7
#     8   8   4   8   8   4   8
#     4  12  26  46  73 105 141 183 233 290 356 429
#     4  11  20  41  66  97 140 185 230 278 334 405
#     4  12  26  48  76  99 134 177 222 288 360 428
#     4   9  19  32  63  96 131 184 234 272 324 389
#     4  12  25  43  69 102 136 176 225 281 346 420
#     4  12  28  50  76 103 136 177 228 294 366 432
#     4  10  19  39  62  96 136 181 229 279 332 395
#
# _framework density 25.112545000000001
#
# number of rings (size 3 to 8) (size 9 to 14) (size 15 to 20)
#    0.000    1.000    2.500    4.500    0.000    4.667 
#    0.000    8.333    0.000    0.000    0.000    0.000 
#    0.000    0.000    0.000    0.000    0.000    0.000 
#
# Total GULP energy -134286.374768 kJ/mol
# GULP energy per Si atom -5595.265615 kJ/mol
# Density = 2.505539 g / cm^3
# Si number density = 25.112545 Si / 1000 Ang^3
#
#
#
# Elastic Constant Matrix: (Units=GPa)
#
#
# Indices 1 2 3 4 5 6 
#
# 1 114.2814 -0.8258 6.5531 0.0000 0.0000 0.0000
# 2 -0.8258 106.8886 -14.3862 0.0000 0.0000 0.0000
# 3 6.5531 -14.3862 31.5180 0.0000 0.0000 0.0000
# 4 0.0000 0.0000 0.0000 -12.6851 0.0000 0.0000
# 5 0.0000 0.0000 0.0000 0.0000 -67.7906 0.0000
# 6 0.0000 0.0000 0.0000 0.0000 0.0000 34.6732
#
#
#
# Elastic Compliance Matrix: (Units=1/GPa)
#
#
# Indices 1 2 3 4 5 6 
#
# 1 0.008860 -0.000191 -0.001929 0.000000 0.000000 0.000000
# 2 -0.000191 0.009972 0.004591 0.000000 0.000000 0.000000
# 3 -0.001929 0.004591 0.034225 0.000000 0.000000 0.000000
# 4 0.000000 0.000000 0.000000 -0.078832 0.000000 0.000000
# 5 0.000000 0.000000 0.000000 0.000000 -0.014751 0.000000
# 6 0.000000 0.000000 0.000000 0.000000 0.000000 0.028841
#
#
# Mechanical properties :
#
#
# Convention : Reuss Voigt Hill
#
# Bulk Modulus (GPa) = 17.24193 26.15223 21.69708
# Shear Modulus (GPa) = 1848.81512 8.26261 928.53886
#
# Velocity S-wave (km/s) = 27.16266 1.81587 19.24977
# Velocity P-wave (km/s) = 31.47423 3.85138 22.42165
#
# Compressibility (1/GPa) = 0.05799816
#
# Stress axis : x y z
#
# Youngs Moduli (GPa) = 112.87214 100.28055 29.21859
#
# Poissons Ratio (x) = 0.01918 0.05637
# Poissons Ratio (y) = 0.02158 -0.13416
# Poissons Ratio (z) = 0.21777 -0.46043
#
# Static dielectric constant tensor:
#      x y z
#    x 2.134710 0.000000 0.000000 
#    y 0.000000 2.467360 0.000000 
#    z 0.000000 0.000000 2.020390 
# 
# From -- ./inp_files/24599.got.cif
#   From: 2010.05.17/outbox.cif.g08.bks.cpg/sg46_13_cif.got.tgz:24599.got - 2010.06.03 19:58:25.
