data_PCOD9379260
_publ_section_title
;
Structure prediction by ZEFSAII (Michael W. Deem and Ramdas Pophale) SiO2 
 PCOD9379260
Probable space group: I M A 2
;
_chemical_formula_sum "Si O2"
_cell_formula_units_Z 64
_cell_length_a 8.672836
_cell_length_b 15.234138
_cell_length_c 27.912237
_cell_angle_alpha 90.000000
_cell_angle_beta 90.000000
_cell_angle_gamma 90.000000
_cell_volume 3687.853527
_symmetry_space_group_name_H-M "I M A 2"
_symmetry_group_IT_number 46
_symmetry_cell_setting 'orthorhombic'
loop_
_space_group_symop_operation_xyz
x,y,z
-x,-y,z
1/2-x,y,z
1/2+x,-y,z
1/2+x,1/2+y,1/2+z
1/2-x,1/2-y,1/2+z
-x,1/2+y,1/2+z
x,1/2-y,1/2+z
loop_
_atom_site_type_symbol
_atom_site_label
_atom_site_fract_x
_atom_site_fract_y
_atom_site_fract_z
Si Si1 0.435903 0.722791 0.523610
Si Si2 0.564615 0.280889 0.794196
Si Si3 0.435558 0.594123 0.983201
Si Si4 0.065207 0.095477 0.376420
Si Si5 0.435536 0.905992 0.828588
Si Si6 0.435791 0.905572 0.939110
Si Si7 0.065214 0.404836 0.713785
Si Si8 0.933938 0.905222 0.102071
O O1 0.250000 0.718585 0.526212
O O2 0.479273 0.824268 0.516779
O O3 0.484767 0.669598 0.475837
O O4 0.503698 0.671816 0.568699
O O5 0.750000 0.285778 0.795993
O O6 0.497061 0.332315 0.839888
O O7 0.518109 0.178865 0.798183
O O8 0.503521 0.330030 0.747391
O O9 0.500000 0.500000 0.999119
O O10 0.250000 0.590062 0.979604
O O11 0.502464 0.611076 0.930046
O O12 0.250000 0.093296 0.376480
O O13 0.000000 0.000000 0.361616
O O14 0.250000 0.910846 0.828439
O O15 0.485198 0.890949 0.884073
O O16 0.500000 0.000000 0.812970
O O17 0.250000 0.908717 0.939504
O O18 0.500000 0.000000 0.954530
O O19 0.250000 0.406026 0.718015
O O20 0.023182 0.392074 0.657894
O O21 0.000000 0.500000 0.728591
O O22 0.750000 0.908917 0.098907
O O23 0.000000 0.000000 0.086782
#
# Coordination Sequence:
#
# PCOD9379260 Si02
#       8
#     8   8   8   8   8   8   8   8
#     4  10  20  33  52  75 102 135 171 210 253 300
#     4  11  21  34  53  76 102 135 172 212 256 305
#     4  10  20  35  52  73 103 138 174 215 256 298
#     4  11  21  33  50  74 105 140 174 211 252 301
#     4   9  19  34  51  71 100 135 170 207 248 291
#     4   9  17  30  46  69 100 132 163 198 239 287
#     4  10  21  37  55  78 105 133 164 205 254 307
#     4  10  21  36  55  78 106 134 164 204 253 307
#
# _framework density 17.354268000000001
#
# number of rings (size 3 to 8) (size 9 to 14) (size 15 to 20)
#    0.000    2.000    0.000    4.875    0.000    7.000 
#    0.000    2.500    0.000    0.750    0.000    0.000 
#    0.000    0.000    0.000    0.000    0.000    0.000 
#
# Total GULP energy -178690.699062 kJ/mol
# GULP energy per Si atom -5584.084346 kJ/mol
# Density = 1.731477 g / cm^3
# Si number density = 17.354268 Si / 1000 Ang^3
#
#
#
# Elastic Constant Matrix: (Units=GPa)
#
#
# Indices 1 2 3 4 5 6 
#
# 1 52.8105 48.0007 31.6946 0.0000 0.0000 0.0000
# 2 48.0007 173.5713 85.0757 0.0000 0.0000 0.0000
# 3 31.6946 85.0757 72.0085 0.0000 0.0000 0.0000
# 4 0.0000 0.0000 0.0000 31.1447 0.0000 0.0000
# 5 0.0000 0.0000 0.0000 0.0000 26.3567 0.0000
# 6 0.0000 0.0000 0.0000 0.0000 0.0000 30.0998
#
#
#
# Elastic Compliance Matrix: (Units=1/GPa)
#
#
# Indices 1 2 3 4 5 6 
#
# 1 0.026784 -0.003870 -0.007217 0.000000 0.000000 0.000000
# 2 -0.003870 0.014247 -0.015129 0.000000 0.000000 0.000000
# 3 -0.007217 -0.015129 0.034939 0.000000 0.000000 0.000000
# 4 0.000000 0.000000 0.000000 0.032108 0.000000 0.000000
# 5 0.000000 0.000000 0.000000 0.000000 0.037941 0.000000
# 6 0.000000 0.000000 0.000000 0.000000 0.000000 0.033223
#
#
# Mechanical properties :
#
#
# Convention : Reuss Voigt Hill
#
# Bulk Modulus (GPa) = 42.48506 69.77026 56.12766
# Shear Modulus (GPa) = 20.87507 26.42817 23.65162
#
# Velocity S-wave (km/s) = 3.47202 3.90662 3.69571
# Velocity P-wave (km/s) = 6.37239 7.78715 7.11502
#
# Compressibility (1/GPa) = 0.02353769
#
# Stress axis : x y z
#
# Youngs Moduli (GPa) = 37.33525 70.19047 28.62163
#
# Poissons Ratio (x) = 0.27160 0.20658
# Poissons Ratio (y) = 0.14447 0.43302
# Poissons Ratio (z) = 0.26947 1.06192
#
# Static dielectric constant tensor:
#      x y z
#    x 1.586490 0.000000 0.000000 
#    y 0.000000 1.585820 0.000000 
#    z 0.000000 0.000000 1.578880 
# 
# From -- ./inp_files/23215.got.cif
#   From: 2010.05.17/outbox.cif.g08.bks.cpg/sg46_12_cif.got.tgz:23215.got - 2010.06.03 19:58:25.
