data_PCOD9379710
_publ_section_title
;
Structure prediction by ZEFSAII (Michael W. Deem and Ramdas Pophale) SiO2 
 PCOD9379710
Probable space group: I M A 2
;
_chemical_formula_sum "Si O2"
_cell_formula_units_Z 56
_cell_length_a 15.277412
_cell_length_b 10.567415
_cell_length_c 17.054580
_cell_angle_alpha 90.000000
_cell_angle_beta 90.000000
_cell_angle_gamma 90.000000
_cell_volume 2753.338342
_symmetry_space_group_name_H-M "I M A 2"
_symmetry_group_IT_number 46
_symmetry_cell_setting 'orthorhombic'
loop_
_space_group_symop_operation_xyz
x,y,z
-x,-y,z
1/2-x,y,z
1/2+x,-y,z
1/2+x,1/2+y,1/2+z
1/2-x,1/2-y,1/2+z
-x,1/2+y,1/2+z
x,1/2-y,1/2+z
loop_
_atom_site_type_symbol
_atom_site_label
_atom_site_fract_x
_atom_site_fract_y
_atom_site_fract_z
Si Si1 0.149254 0.815580 0.318850
Si Si2 0.154116 0.734191 0.152374
Si Si3 0.902759 0.975833 0.730511
Si Si4 0.145787 0.399192 0.829795
Si Si5 0.475417 0.177803 0.875196
Si Si6 0.651630 0.712301 0.664158
Si Si7 0.000317 0.355497 0.556745
O O1 0.250000 0.776391 0.340295
O O2 0.149756 0.831681 0.224780
O O3 0.068807 0.722505 0.338630
O O4 0.131253 0.955244 0.352433
O O5 0.250000 0.738129 0.114998
O O6 0.145240 0.602120 0.200910
O O7 0.079109 0.772555 0.091816
O O8 0.075200 0.074388 0.819869
O O9 0.854655 0.856116 0.693956
O O10 0.000000 0.000000 0.697417
O O11 0.250000 0.373370 0.836326
O O12 0.121271 0.370348 0.738989
O O13 0.087810 0.299806 0.876734
O O14 0.496371 0.140555 0.963324
O O15 0.750000 0.675784 0.644788
O O16 0.588733 0.701022 0.591285
O O17 0.000000 0.500000 0.585797
#
# Coordination Sequence:
#
# PCOD9379710 Si02
#       7
#     8   8   8   8   8   8   8
#     4  10  20  37  63  92 120 163 221 274 323 388
#     4  11  23  42  69  96 128 170 220 271 327 393
#     4  11  19  40  68  92 123 168 224 266 313 388
#     4   9  19  38  64  91 119 162 221 271 319 385
#     4  11  23  39  64  91 133 173 216 271 337 395
#     4  10  21  39  64  92 123 162 212 268 323 389
#     4  12  26  41  62  94 135 171 212 272 347 402
#
# _framework density 20.338947000000001
#
# number of rings (size 3 to 8) (size 9 to 14) (size 15 to 20)
#    0.000    1.429    2.857    3.000    0.000    3.429 
#    5.143    0.000    0.000    0.000    0.000    0.000 
#    0.000    0.000    0.000    0.000    0.000    0.000 
#
# Total GULP energy -156067.889000 kJ/mol
# GULP energy per Si atom -5573.853179 kJ/mol
# Density = 2.029265 g / cm^3
# Si number density = 20.338947 Si / 1000 Ang^3
#
#
#
# Elastic Constant Matrix: (Units=GPa)
#
#
# Indices 1 2 3 4 5 6 
#
# 1 86.2745 17.8951 46.2849 0.0000 0.0000 0.0000
# 2 17.8951 102.2210 30.5725 0.0000 0.0000 0.0000
# 3 46.2849 30.5725 81.3943 0.0000 0.0000 0.0000
# 4 0.0000 0.0000 0.0000 11.3387 0.0000 0.0000
# 5 0.0000 0.0000 0.0000 0.0000 -83.4036 0.0000
# 6 0.0000 0.0000 0.0000 0.0000 0.0000 17.2435
#
#
#
# Elastic Compliance Matrix: (Units=1/GPa)
#
#
# Indices 1 2 3 4 5 6 
#
# 1 0.016680 -0.000094 -0.009450 0.000000 0.000000 0.000000
# 2 -0.000094 0.011021 -0.004086 0.000000 0.000000 0.000000
# 3 -0.009450 -0.004086 0.019194 0.000000 0.000000 0.000000
# 4 0.000000 0.000000 0.000000 0.088194 0.000000 0.000000
# 5 0.000000 0.000000 0.000000 0.000000 -0.011990 0.000000
# 6 0.000000 0.000000 0.000000 0.000000 0.000000 0.057993
#
#
# Mechanical properties :
#
#
# Convention : Reuss Voigt Hill
#
# Bulk Modulus (GPa) = 50.92763 51.04387 50.98575
# Shear Modulus (GPa) = 23.26687 0.71152 11.98920
#
# Velocity S-wave (km/s) = 3.38591 0.59211 2.43053
# Velocity P-wave (km/s) = 6.35450 5.06148 5.74449
#
# Compressibility (1/GPa) = 0.01963571
#
# Stress axis : x y z
#
# Youngs Moduli (GPa) = 59.95173 90.73328 52.09833
#
# Poissons Ratio (x) = 0.00851 0.49233
# Poissons Ratio (y) = 0.00562 0.21289
# Poissons Ratio (z) = 0.56654 0.37077
#
# Static dielectric constant tensor:
#      x y z
#    x 1.729940 0.000000 0.000000 
#    y 0.000000 1.794780 0.000000 
#    z 0.000000 0.000000 1.695080 
# 
# From -- ./inp_files/15987.got.cif
#   From: 2010.05.17/outbox.cif.g08.bks.cpg/sg46_8_cif.got.tgz:15987.got - 2010.06.03 19:58:25.
