data_PCOD9379432
_publ_section_title
;
Structure prediction by ZEFSAII (Michael W. Deem and Ramdas Pophale) SiO2 
 PCOD9379432
Probable space group: I M A 2
;
_chemical_formula_sum "Si O2"
_cell_formula_units_Z 64
_cell_length_a 8.846585
_cell_length_b 25.613530
_cell_length_c 15.372091
_cell_angle_alpha 90.000000
_cell_angle_beta 90.000000
_cell_angle_gamma 90.000000
_cell_volume 3483.196999
_symmetry_space_group_name_H-M "I M A 2"
_symmetry_group_IT_number 46
_symmetry_cell_setting 'orthorhombic'
loop_
_space_group_symop_operation_xyz
x,y,z
-x,-y,z
1/2-x,y,z
1/2+x,-y,z
1/2+x,1/2+y,1/2+z
1/2-x,1/2-y,1/2+z
-x,1/2+y,1/2+z
x,1/2-y,1/2+z
loop_
_atom_site_type_symbol
_atom_site_label
_atom_site_fract_x
_atom_site_fract_y
_atom_site_fract_z
Si Si1 0.068725 0.389174 0.666770
Si Si2 0.568423 0.637403 0.997191
Si Si3 0.073039 0.721289 0.697414
Si Si4 0.931445 0.443886 0.499986
Si Si5 0.067779 0.850814 0.869293
Si Si6 0.567642 0.942475 0.350788
Si Si7 0.573436 0.235381 0.405307
Si Si8 0.931239 0.833187 0.682505
O O1 0.250000 0.388291 0.659215
O O2 0.028437 0.412985 0.761095
O O3 0.003363 0.330782 0.661588
O O4 0.997805 0.424520 0.591632
O O5 0.750000 0.636104 0.995000
O O6 0.521693 0.633861 0.097771
O O7 0.513443 0.592258 0.932343
O O8 0.516388 0.692967 0.959533
O O9 0.250000 0.722749 0.674051
O O10 0.061892 0.721246 0.802821
O O11 0.992056 0.774372 0.668789
O O12 0.750000 0.447129 0.505431
O O13 0.971314 0.399854 0.428829
O O14 0.000000 0.500000 0.477797
O O15 0.250000 0.847963 0.860666
O O16 0.020381 0.795421 0.912048
O O17 0.998410 0.853156 0.773236
O O18 0.750000 0.945872 0.354046
O O19 0.500000 0.000000 0.351781
O O20 0.750000 0.233017 0.430037
O O21 0.750000 0.832139 0.688274
#
# Coordination Sequence:
#
# PCOD9379432 Si02
#       8
#     8   8   8   8   8   8   8   8
#     4  11  22  37  59  87 118 156 195 238 293 350
#     4  10  21  37  55  83 119 152 189 238 287 339
#     4  10  20  35  55  83 120 157 193 235 284 345
#     4  11  24  42  62  86 117 153 198 249 298 353
#     4   9  21  41  60  83 115 151 194 244 297 348
#     4  10  22  39  58  81 115 153 192 236 282 338
#     4   9  18  33  55  83 112 149 190 229 281 342
#     4  10  21  36  58  86 118 155 194 241 295 348
#
# _framework density 18.373923999999999
#
# number of rings (size 3 to 8) (size 9 to 14) (size 15 to 20)
#    0.000    2.000    1.250    2.625    1.750    6.500 
#    0.000    0.625    0.000    3.000    0.000    0.000 
#    0.000    0.000    0.000    0.000    0.000    0.000 
#
# Total GULP energy -178726.935117 kJ/mol
# GULP energy per Si atom -5585.216722 kJ/mol
# Density = 1.833210 g / cm^3
# Si number density = 18.373924 Si / 1000 Ang^3
#
#
#
# Elastic Constant Matrix: (Units=GPa)
#
#
# Indices 1 2 3 4 5 6 
#
# 1 23.7505 28.6828 25.1113 0.0000 0.0000 0.0000
# 2 28.6828 113.2431 53.2642 0.0000 0.0000 0.0000
# 3 25.1113 53.2642 84.5723 0.0000 0.0000 0.0000
# 4 0.0000 0.0000 0.0000 26.0166 0.0000 0.0000
# 5 0.0000 0.0000 0.0000 0.0000 17.3122 0.0000
# 6 0.0000 0.0000 0.0000 0.0000 0.0000 31.3061
#
#
#
# Elastic Compliance Matrix: (Units=1/GPa)
#
#
# Indices 1 2 3 4 5 6 
#
# 1 0.070339 -0.011357 -0.013733 0.000000 0.000000 0.000000
# 2 -0.011357 0.014381 -0.005685 0.000000 0.000000 0.000000
# 3 -0.013733 -0.005685 0.019482 0.000000 0.000000 0.000000
# 4 0.000000 0.000000 0.000000 0.038437 0.000000 0.000000
# 5 0.000000 0.000000 0.000000 0.000000 0.057763 0.000000
# 6 0.000000 0.000000 0.000000 0.000000 0.000000 0.031943
#
#
# Mechanical properties :
#
#
# Convention : Reuss Voigt Hill
#
# Bulk Modulus (GPa) = 23.44483 48.40915 35.92699
# Shear Modulus (GPa) = 16.22787 22.56083 19.39435
#
# Velocity S-wave (km/s) = 2.97509 3.50790 3.25243
# Velocity P-wave (km/s) = 4.95874 6.54301 5.80518
#
# Compressibility (1/GPa) = 0.04265333
#
# Stress axis : x y z
#
# Youngs Moduli (GPa) = 14.21685 69.53566 51.32839
#
# Poissons Ratio (x) = 0.78969 0.70488
# Poissons Ratio (y) = 0.16146 0.29182
# Poissons Ratio (z) = 0.19524 0.39533
#
# Static dielectric constant tensor:
#      x y z
#    x 1.615150 0.000000 0.000000 
#    y 0.000000 1.605240 0.000000 
#    z 0.000000 0.000000 1.643490 
# 
# From -- ./inp_files/14456.got.cif
#   From: 2010.05.17/outbox.cif.g08.bks.cpg/sg46_8_cif.got.tgz:14456.got - 2010.06.03 19:58:25.
