data_PCOD9379244
_publ_section_title
;
Structure prediction by ZEFSAII (Michael W. Deem and Ramdas Pophale) SiO2 
 PCOD9379244
Probable space group: I M A 2
;
_chemical_formula_sum "Si O2"
_cell_formula_units_Z 56
_cell_length_a 8.459000
_cell_length_b 20.951679
_cell_length_c 15.928238
_cell_angle_alpha 90.000000
_cell_angle_beta 90.000000
_cell_angle_gamma 90.000000
_cell_volume 2822.965645
_symmetry_space_group_name_H-M "I M A 2"
_symmetry_group_IT_number 46
_symmetry_cell_setting 'orthorhombic'
loop_
_space_group_symop_operation_xyz
x,y,z
-x,-y,z
1/2-x,y,z
1/2+x,-y,z
1/2+x,1/2+y,1/2+z
1/2-x,1/2-y,1/2+z
-x,1/2+y,1/2+z
x,1/2-y,1/2+z
loop_
_atom_site_type_symbol
_atom_site_label
_atom_site_fract_x
_atom_site_fract_y
_atom_site_fract_z
Si Si1 0.939637 0.711213 0.894030
Si Si2 0.559380 0.254823 0.212853
Si Si3 0.933010 0.383398 0.121755
Si Si4 0.938716 0.928688 0.956674
Si Si5 0.936863 0.928586 0.446250
Si Si6 0.937092 0.565629 0.280670
Si Si7 0.438478 0.694211 0.541195
O O1 0.750000 0.711173 0.897600
O O2 0.995484 0.636626 0.900391
O O3 0.992191 0.739759 0.804290
O O4 0.996870 0.752611 0.974843
O O5 0.750000 0.260059 0.221214
O O6 0.502228 0.320053 0.167600
O O7 0.519286 0.205889 0.138655
O O8 0.750000 0.373896 0.097934
O O9 0.953119 0.429377 0.200366
O O10 0.024274 0.411545 0.043198
O O11 0.750000 0.933348 0.958082
O O12 0.971794 0.894456 0.864474
O O13 0.000000 0.000000 0.977279
O O14 0.004335 0.875972 0.018594
O O15 0.750000 0.931738 0.434341
O O16 0.000000 0.000000 0.426600
O O17 0.750000 0.567911 0.260975
O O18 0.000000 0.500000 0.318758
O O19 0.250000 0.699038 0.534704
#
# Coordination Sequence:
#
# PCOD9379244 Si02
#       7
#     8   8   8   8   8   8   8
#     4  11  24  41  64  94 126 165 211 264 322 379
#     4  10  23  40  62  90 120 160 206 254 313 377
#     4  11  21  36  57  85 118 155 199 248 307 370
#     4  10  21  37  58  86 119 160 203 250 309 368
#     4  11  24  41  62  89 123 166 212 262 322 380
#     4  10  20  33  50  77 113 151 191 235 290 355
#     4  11  22  40  64  91 123 161 205 255 313 376
#
# _framework density 19.837294
#
# number of rings (size 3 to 8) (size 9 to 14) (size 15 to 20)
#    0.000    1.429    1.429    3.857    0.000    8.000 
#    0.000    0.714    0.000    1.714    0.000    0.000 
#    0.000    0.000    0.000    0.000    0.000    0.000 
#
# Total GULP energy -155888.876514 kJ/mol
# GULP energy per Si atom -5567.459875 kJ/mol
# Density = 1.979214 g / cm^3
# Si number density = 19.837294 Si / 1000 Ang^3
#
#
#
# Elastic Constant Matrix: (Units=GPa)
#
#
# Indices 1 2 3 4 5 6 
#
# 1 28.4952 14.5223 9.2616 0.0000 0.0000 0.0000
# 2 14.5223 115.9450 26.0632 0.0000 0.0000 0.0000
# 3 9.2616 26.0632 71.4302 0.0000 0.0000 0.0000
# 4 0.0000 0.0000 0.0000 -25.3633 0.0000 0.0000
# 5 0.0000 0.0000 0.0000 0.0000 21.6578 0.0000
# 6 0.0000 0.0000 0.0000 0.0000 0.0000 29.8581
#
#
#
# Elastic Compliance Matrix: (Units=1/GPa)
#
#
# Indices 1 2 3 4 5 6 
#
# 1 0.038273 -0.004007 -0.003500 0.000000 0.000000 0.000000
# 2 -0.004007 0.009815 -0.003062 0.000000 0.000000 0.000000
# 3 -0.003500 -0.003062 0.015571 0.000000 0.000000 0.000000
# 4 0.000000 0.000000 0.000000 -0.039427 0.000000 0.000000
# 5 0.000000 0.000000 0.000000 0.000000 0.046173 0.000000
# 6 0.000000 0.000000 0.000000 0.000000 0.000000 0.033492
#
#
# Mechanical properties :
#
#
# Convention : Reuss Voigt Hill
#
# Bulk Modulus (GPa) = 23.51787 35.06272 29.29029
# Shear Modulus (GPa) = 35.91742 16.29875 26.10809
#
# Velocity S-wave (km/s) = 4.25973 2.86950 3.63176
# Velocity P-wave (km/s) = 6.00624 5.35652 5.69066
#
# Compressibility (1/GPa) = 0.04252087
#
# Stress axis : x y z
#
# Youngs Moduli (GPa) = 26.12774 101.88604 64.22324
#
# Poissons Ratio (x) = 0.40825 0.22481
# Poissons Ratio (y) = 0.10469 0.19663
# Poissons Ratio (z) = 0.09146 0.31194
#
# Static dielectric constant tensor:
#      x y z
#    x 1.690270 0.000000 0.000000 
#    y 0.000000 1.896600 0.000000 
#    z 0.000000 0.000000 1.725220 
# 
# From -- ./inp_files/14191.got.cif
#   From: 2010.05.17/outbox.cif.g08.bks.cpg/sg46_8_cif.got.tgz:14191.got - 2010.06.03 19:58:25.
