data_PCOD9379180
_publ_section_title
;
Structure prediction by ZEFSAII (Michael W. Deem and Ramdas Pophale) SiO2 
 PCOD9379180
Probable space group: I M A 2
;
_chemical_formula_sum "Si O2"
_cell_formula_units_Z 56
_cell_length_a 27.885297
_cell_length_b 13.395245
_cell_length_c 7.829562
_cell_angle_alpha 90.000000
_cell_angle_beta 90.000000
_cell_angle_gamma 90.000000
_cell_volume 2924.579310
_symmetry_space_group_name_H-M "I M A 2"
_symmetry_group_IT_number 46
_symmetry_cell_setting 'orthorhombic'
loop_
_space_group_symop_operation_xyz
x,y,z
-x,-y,z
1/2-x,y,z
1/2+x,-y,z
1/2+x,1/2+y,1/2+z
1/2-x,1/2-y,1/2+z
-x,1/2+y,1/2+z
x,1/2-y,1/2+z
loop_
_atom_site_type_symbol
_atom_site_label
_atom_site_fract_x
_atom_site_fract_y
_atom_site_fract_z
Si Si1 0.467033 0.398020 0.514750
Si Si2 0.196004 0.703008 0.863453
Si Si3 0.051436 0.051298 0.374530
Si Si4 0.397083 0.632876 0.699648
Si Si5 0.904495 0.524316 0.218519
Si Si6 0.305184 0.911958 0.723491
Si Si7 0.943667 0.330276 0.345688
O O1 0.500000 0.500000 0.520730
O O2 0.455641 0.375122 0.711791
O O3 0.422838 0.420331 0.389275
O O4 0.503091 0.323521 0.420332
O O5 0.250000 0.686650 0.801879
O O6 0.157523 0.652368 0.742639
O O7 0.188804 0.822516 0.860586
O O8 0.190623 0.650651 0.046523
O O9 0.084764 0.966138 0.290167
O O10 0.077762 0.082529 0.549055
O O11 0.000000 0.000000 0.411826
O O12 0.410526 0.635147 0.502884
O O13 0.425702 0.726362 0.777093
O O14 0.848653 0.491353 0.225187
O O15 0.934636 0.419171 0.211357
O O16 0.250000 0.950296 0.734858
#
# Coordination Sequence:
#
# PCOD9379180 Si02
#       7
#     8   8   8   8   8   8   8
#     4   9  19  35  46  67  96 122 164 209 243 297
#     4  10  20  32  43  63  94 128 168 209 244 273
#     4  11  19  33  51  68  91 130 167 199 253 298
#     4  12  19  31  50  70  96 132 169 208 246 282
#     4  11  19  32  50  65  93 129 167 201 247 292
#     4  10  20  31  44  66  92 124 167 211 242 280
#     4  11  21  32  47  74  99 122 174 216 239 295
#
# _framework density 19.148054999999999
#
# number of rings (size 3 to 8) (size 9 to 14) (size 15 to 20)
#    0.000    1.429    7.143    3.000    0.000    0.000 
#    0.000    0.000    0.000    0.000    0.000    0.000 
#    0.000    0.000    0.000    6.429    0.000    0.714 
#
# Total GULP energy -156289.583888 kJ/mol
# GULP energy per Si atom -5581.770853 kJ/mol
# Density = 1.910447 g / cm^3
# Si number density = 19.148055 Si / 1000 Ang^3
#
#
#
# Elastic Constant Matrix: (Units=GPa)
#
#
# Indices 1 2 3 4 5 6 
#
# 1 162.4055 15.3154 51.9806 0.0000 0.0000 0.0000
# 2 15.3154 4.8579 11.0935 0.0000 0.0000 0.0000
# 3 51.9806 11.0935 98.9941 0.0000 0.0000 0.0000
# 4 0.0000 0.0000 0.0000 15.8437 0.0000 0.0000
# 5 0.0000 0.0000 0.0000 0.0000 28.8111 0.0000
# 6 0.0000 0.0000 0.0000 0.0000 0.0000 27.6846
#
#
#
# Elastic Compliance Matrix: (Units=1/GPa)
#
#
# Indices 1 2 3 4 5 6 
#
# 1 0.009075 -0.023825 -0.002095 0.000000 0.000000 0.000000
# 2 -0.023825 0.339195 -0.025500 0.000000 0.000000 0.000000
# 3 -0.002095 -0.025500 0.014059 0.000000 0.000000 0.000000
# 4 0.000000 0.000000 0.000000 0.063116 0.000000 0.000000
# 5 0.000000 0.000000 0.000000 0.000000 0.034709 0.000000
# 6 0.000000 0.000000 0.000000 0.000000 0.000000 0.036121
#
#
# Mechanical properties :
#
#
# Convention : Reuss Voigt Hill
#
# Bulk Modulus (GPa) = 3.85376 47.00405 25.42890
# Shear Modulus (GPa) = 7.29274 26.99240 17.14257
#
# Velocity S-wave (km/s) = 1.95368 3.75863 2.99534
# Velocity P-wave (km/s) = 2.66574 6.59070 5.02710
#
# Compressibility (1/GPa) = 0.25948694
#
# Stress axis : x y z
#
# Youngs Moduli (GPa) = 110.19472 2.94816 71.12679
#
# Poissons Ratio (x) = 0.07024 0.14902
# Poissons Ratio (y) = 2.62544 1.81377
# Poissons Ratio (z) = 0.23088 0.07518
#
# Static dielectric constant tensor:
#      x y z
#    x 1.697440 0.000000 0.000000 
#    y 0.000000 1.686550 0.000000 
#    z 0.000000 0.000000 1.761230 
# 
# From -- ./inp_files/7994.got.cif
#   From: 2010.05.17/outbox.cif.g08.bks.cpg/sg46_4_cif.got.tgz:7994.got - 2010.06.03 19:58:25.
