data_PCOD9379959
_publ_section_title
;
Structure prediction by ZEFSAII (Michael W. Deem and Ramdas Pophale) SiO2 
 PCOD9379959
Probable space group: I M A 2
;
_chemical_formula_sum "Si O2"
_cell_formula_units_Z 64
_cell_length_a 21.453662
_cell_length_b 9.786838
_cell_length_c 14.914270
_cell_angle_alpha 90.000000
_cell_angle_beta 90.000000
_cell_angle_gamma 90.000000
_cell_volume 3131.452545
_symmetry_space_group_name_H-M "I M A 2"
_symmetry_group_IT_number 46
_symmetry_cell_setting 'orthorhombic'
loop_
_space_group_symop_operation_xyz
x,y,z
-x,-y,z
1/2-x,y,z
1/2+x,-y,z
1/2+x,1/2+y,1/2+z
1/2-x,1/2-y,1/2+z
-x,1/2+y,1/2+z
x,1/2-y,1/2+z
loop_
_atom_site_type_symbol
_atom_site_label
_atom_site_fract_x
_atom_site_fract_y
_atom_site_fract_z
Si Si1 0.426635 0.339703 0.519080
Si Si2 0.564791 0.353124 0.733274
Si Si3 0.426635 0.160296 0.238530
Si Si4 0.820318 0.868444 0.520312
Si Si5 0.820318 0.631556 0.237299
Si Si6 0.181567 0.680044 0.281908
Si Si7 0.681567 0.319956 0.975702
Si Si8 0.064791 0.853124 0.024335
O O1 0.422696 0.335555 0.628805
O O2 0.373318 0.235904 0.489419
O O3 0.497376 0.303437 0.490102
O O4 0.417458 0.496678 0.488006
O O5 0.582542 0.503321 0.769604
O O6 0.497376 0.303437 0.767508
O O7 0.621036 0.248513 0.739696
O O8 0.553276 0.377903 0.628805
O O9 0.373318 0.264095 0.268192
O O10 0.750000 0.816359 0.503214
O O11 0.825634 0.888304 0.628806
O O12 0.826325 0.017243 0.476158
O O13 0.750000 0.683641 0.254398
O O14 0.826325 0.482758 0.281453
O O15 0.250000 0.706516 0.239143
O O16 0.183809 0.750001 0.378805
O O17 0.750000 0.293482 0.018467
O O18 0.621036 0.251486 0.017913
#
# Coordination Sequence:
#
# PCOD9379959 Si02
#       8
#     8   8   8   8   8   8   8   8
#     4   8  16  31  51  77 104 125 154 204 253 290
#     4   9  17  32  53  74  98 128 162 200 245 298
#     4   8  16  31  51  77 104 125 154 204 253 290
#     4   9  17  31  52  77 103 131 165 203 244 294
#     4   9  17  31  52  77 103 131 165 203 244 294
#     4  10  21  35  48  67  99 133 166 208 250 287
#     4  10  21  35  48  67  99 133 166 208 250 287
#     4   9  17  32  53  74  98 128 162 200 245 298
#
# _framework density 20.437799999999999
#
# number of rings (size 3 to 8) (size 9 to 14) (size 15 to 20)
#    0.000    3.000    0.000    2.250    0.000    3.500 
#    0.000   12.500    0.000    4.500    0.000    0.000 
#    0.000    0.000    0.000    0.000    0.000    0.000 
#
# Total GULP energy -178281.099374 kJ/mol
# GULP energy per Si atom -5571.284355 kJ/mol
# Density = 2.039128 g / cm^3
# Si number density = 20.437800 Si / 1000 Ang^3
#
#
#
# Elastic Constant Matrix: (Units=GPa)
#
#
# Indices 1 2 3 4 5 6 
#
# 1 207.0547 128.7220 13.5845 0.0000 0.0000 0.0000
# 2 128.7220 118.6505 12.0248 0.0000 0.0000 0.0000
# 3 13.5845 12.0248 37.5100 0.0000 0.0000 0.0000
# 4 0.0000 0.0000 0.0000 0.8087 0.0000 0.0000
# 5 0.0000 0.0000 0.0000 0.0000 134.3149 0.0000
# 6 0.0000 0.0000 0.0000 0.0000 0.0000 52.7126
#
#
#
# Elastic Compliance Matrix: (Units=1/GPa)
#
#
# Indices 1 2 3 4 5 6 
#
# 1 0.014837 -0.016074 -0.000220 0.000000 0.000000 0.000000
# 2 -0.016074 0.026126 -0.002554 0.000000 0.000000 0.000000
# 3 -0.000220 -0.002554 0.027558 0.000000 0.000000 0.000000
# 4 0.000000 0.000000 0.000000 1.236498 0.000000 0.000000
# 5 0.000000 0.000000 0.000000 0.000000 0.007445 0.000000
# 6 0.000000 0.000000 0.000000 0.000000 0.000000 0.018971
#
#
# Mechanical properties :
#
#
# Convention : Reuss Voigt Hill
#
# Bulk Modulus (GPa) = 32.44233 74.65310 53.54771
# Shear Modulus (GPa) = 3.62475 51.49284 27.55880
#
# Velocity S-wave (km/s) = 1.33319 5.02490 3.67607
# Velocity P-wave (km/s) = 4.27528 8.38286 6.65396
#
# Compressibility (1/GPa) = 0.03082393
#
# Stress axis : x y z
#
# Youngs Moduli (GPa) = 67.39815 38.27647 36.28704
#
# Poissons Ratio (x) = 0.61527 0.00800
# Poissons Ratio (y) = 1.08338 0.09267
# Poissons Ratio (z) = 0.01485 0.09775
#
# Static dielectric constant tensor:
#      x y z
#    x 1.759830 0.000000 0.000000 
#    y 0.000000 1.693710 0.000000 
#    z 0.000000 0.000000 1.784710 
# 
# From -- ./inp_files/20216.got.cif
#   From: 2010.05.17/outbox.cif.g08.bks.cpg/sg46_11_cif.got.tgz:20216.got - 2010.06.03 19:58:25.
