data_PCOD9379465
_publ_section_title
;
Structure prediction by ZEFSAII (Michael W. Deem and Ramdas Pophale) SiO2 
 PCOD9379465
Probable space group: I M A 2
;
_chemical_formula_sum "Si O2"
_cell_formula_units_Z 40
_cell_length_a 16.940176
_cell_length_b 12.828293
_cell_length_c 7.066347
_cell_angle_alpha 90.000000
_cell_angle_beta 90.000000
_cell_angle_gamma 90.000000
_cell_volume 1535.612890
_symmetry_space_group_name_H-M "I M A 2"
_symmetry_group_IT_number 46
_symmetry_cell_setting 'orthorhombic'
loop_
_space_group_symop_operation_xyz
x,y,z
-x,-y,z
1/2-x,y,z
1/2+x,-y,z
1/2+x,1/2+y,1/2+z
1/2-x,1/2-y,1/2+z
-x,1/2+y,1/2+z
x,1/2-y,1/2+z
loop_
_atom_site_type_symbol
_atom_site_label
_atom_site_fract_x
_atom_site_fract_y
_atom_site_fract_z
Si Si1 0.665531 0.927180 0.611160
Si Si2 0.612385 0.154954 0.609087
Si Si3 0.839436 0.125395 0.998810
Si Si4 0.470835 0.383100 0.832594
Si Si5 0.159890 0.106058 0.059364
O O1 0.750000 0.886344 0.549464
O O2 0.662194 0.051100 0.568650
O O3 0.655467 0.900015 0.831827
O O4 0.595232 0.883306 0.492612
O O5 0.595563 0.128700 0.830820
O O6 0.652467 0.267868 0.612202
O O7 0.545244 0.161785 0.448937
O O8 0.750000 0.123960 0.916816
O O9 0.844724 0.017807 0.112026
O O10 0.500000 0.500000 0.784930
O O11 0.417975 0.343738 0.654637
O O12 0.250000 0.141690 0.107280
#
# Coordination Sequence:
#
# PCOD9379465 Si02
#       5
#     8   8   8   8   8
#     4   9  18  35  55  78 109 146 194 245 290 347
#     4  10  21  34  51  86 122 154 195 241 305 364
#     4  10  20  35  57  86 123 162 198 240 298 372
#     4  10  21  33  50  81 117 153 189 239 297 353
#     4   9  19  35  57  82 109 148 197 243 292 353
#
# _framework density 26.048233
#
# number of rings (size 3 to 8) (size 9 to 14) (size 15 to 20)
#    0.000    2.400    0.000    3.600    5.600    4.000 
#    0.000    0.000    0.000    0.000    0.000    5.600 
#    0.000    0.000    0.000    0.000    0.000    0.000 
#
# Total GULP energy -111555.494806 kJ/mol
# GULP energy per Si atom -5577.774740 kJ/mol
# Density = 2.598895 g / cm^3
# Si number density = 26.048233 Si / 1000 Ang^3
#
#
#
# Elastic Constant Matrix: (Units=GPa)
#
#
# Indices 1 2 3 4 5 6 
#
# 1 164.7968 12.5044 62.9152 0.0000 0.0000 0.0000
# 2 12.5044 92.5072 -11.2587 0.0000 0.0000 0.0000
# 3 62.9152 -11.2587 84.9191 0.0000 0.0000 0.0000
# 4 0.0000 0.0000 0.0000 18.1948 0.0000 0.0000
# 5 0.0000 0.0000 0.0000 0.0000 50.8283 0.0000
# 6 0.0000 0.0000 0.0000 0.0000 0.0000 22.1564
#
#
#
# Elastic Compliance Matrix: (Units=1/GPa)
#
#
# Indices 1 2 3 4 5 6 
#
# 1 0.008818 -0.002020 -0.006801 0.000000 0.000000 0.000000
# 2 -0.002020 0.011450 0.003014 0.000000 0.000000 0.000000
# 3 -0.006801 0.003014 0.017214 0.000000 0.000000 0.000000
# 4 0.000000 0.000000 0.000000 0.054961 0.000000 0.000000
# 5 0.000000 0.000000 0.000000 0.000000 0.019674 0.000000
# 6 0.000000 0.000000 0.000000 0.000000 0.000000 0.045134
#
#
# Mechanical properties :
#
#
# Convention : Reuss Voigt Hill
#
# Bulk Modulus (GPa) = 38.65521 52.28275 45.46898
# Shear Modulus (GPa) = 28.17139 36.77338 32.47239
#
# Velocity S-wave (km/s) = 3.29220 3.76139 3.53459
# Velocity P-wave (km/s) = 5.41512 6.24333 5.84391
#
# Compressibility (1/GPa) = 0.02586973
#
# Stress axis : x y z
#
# Youngs Moduli (GPa) = 113.40952 87.33762 58.09227
#
# Poissons Ratio (x) = 0.17638 0.39506
# Poissons Ratio (y) = 0.22904 -0.17511
# Poissons Ratio (z) = 0.77125 -0.26326
#
# Static dielectric constant tensor:
#      x y z
#    x 2.623030 0.000000 0.000000 
#    y 0.000000 2.049290 0.000000 
#    z 0.000000 0.000000 2.054890 
# 
# From -- ./inp_files/5558.got.cif
#   From: 2010.05.17/outbox.cif.g08.bks.cpg/sg46_3_cif.got.tgz:5558.got - 2010.06.03 19:58:25.
