data_PCOD9379462
_publ_section_title
;
Structure prediction by ZEFSAII (Michael W. Deem and Ramdas Pophale) SiO2 
 PCOD9379462
Probable space group: I M A 2
;
_chemical_formula_sum "Si O2"
_cell_formula_units_Z 48
_cell_length_a 9.149419
_cell_length_b 23.092608
_cell_length_c 11.593514
_cell_angle_alpha 90.000000
_cell_angle_beta 90.000000
_cell_angle_gamma 90.000000
_cell_volume 2449.523391
_symmetry_space_group_name_H-M "I M A 2"
_symmetry_group_IT_number 46
_symmetry_cell_setting 'orthorhombic'
loop_
_space_group_symop_operation_xyz
x,y,z
-x,-y,z
1/2-x,y,z
1/2+x,-y,z
1/2+x,1/2+y,1/2+z
1/2-x,1/2-y,1/2+z
-x,1/2+y,1/2+z
x,1/2-y,1/2+z
loop_
_atom_site_type_symbol
_atom_site_label
_atom_site_fract_x
_atom_site_fract_y
_atom_site_fract_z
Si Si1 0.076782 0.147143 0.695220
Si Si2 0.584013 0.355264 0.557154
Si Si3 0.425130 0.733929 0.370632
Si Si4 0.077090 0.438073 0.733384
Si Si5 0.584556 0.056749 0.842672
Si Si6 0.078360 0.349778 0.922447
O O1 0.250000 0.148352 0.718533
O O2 0.053315 0.150050 0.558905
O O3 0.999409 0.198240 0.767285
O O4 0.005385 0.088526 0.743270
O O5 0.750000 0.347149 0.602131
O O6 0.533061 0.296256 0.493938
O O7 0.483867 0.387874 0.648890
O O8 0.591010 0.399179 0.449102
O O9 0.250000 0.729232 0.361507
O O10 0.479767 0.799293 0.369493
O O11 0.250000 0.445349 0.714789
O O12 0.050903 0.411056 0.860378
O O13 0.000000 0.500000 0.716328
O O14 0.750000 0.043666 0.806557
O O15 0.500000 0.000000 0.880497
O O16 0.250000 0.335988 0.901803
#
# Coordination Sequence:
#
# PCOD9379462 Si02
#       6
#     8   8   8   8   8   8
#     4  10  21  39  60  84 117 153 196 245 297 359
#     4   9  20  38  59  88 120 153 195 245 297 353
#     4  10  22  39  62  91 121 153 197 250 305 363
#     4  11  24  41  61  87 121 162 206 249 300 359
#     4  10  20  35  57  86 118 152 195 243 297 352
#     4  10  24  42  60  86 119 159 201 246 302 362
#
# _framework density 19.595647
#
# number of rings (size 3 to 8) (size 9 to 14) (size 15 to 20)
#    0.000    2.000    0.000    3.500    2.333    8.667 
#    0.000    1.667    0.000    0.000    0.000    0.000 
#    0.000    0.000    0.000    0.000    0.000    0.000 
#
# Total GULP energy -134005.050233 kJ/mol
# GULP energy per Si atom -5583.543760 kJ/mol
# Density = 1.955105 g / cm^3
# Si number density = 19.595647 Si / 1000 Ang^3
#
#
#
# Elastic Constant Matrix: (Units=GPa)
#
#
# Indices 1 2 3 4 5 6 
#
# 1 73.7224 23.0827 47.2443 0.0000 -0.0001 0.0000
# 2 23.0827 60.4981 8.9909 0.0000 -0.0001 0.0000
# 3 47.2443 8.9909 69.0196 0.0000 -0.0005 -0.0002
# 4 0.0000 0.0000 0.0000 16.2858 -0.0001 0.0000
# 5 -0.0001 -0.0001 -0.0005 -0.0001 14.8667 0.0001
# 6 0.0000 0.0000 -0.0002 0.0000 0.0001 31.0119
#
#
#
# Elastic Compliance Matrix: (Units=1/GPa)
#
#
# Indices 1 2 3 4 5 6 
#
# 1 0.027358 -0.007806 -0.017710 0.000000 0.000000 0.000000
# 2 -0.007806 0.019083 0.002858 0.000000 0.000000 0.000000
# 3 -0.017710 0.002858 0.026239 0.000000 0.000001 0.000000
# 4 0.000000 0.000000 0.000000 0.061403 0.000000 0.000000
# 5 0.000000 0.000000 0.000001 0.000000 0.067264 0.000000
# 6 0.000000 0.000000 0.000000 0.000000 0.000000 0.032246
#
#
# Mechanical properties :
#
#
# Convention : Reuss Voigt Hill
#
# Bulk Modulus (GPa) = 36.54574 40.20843 38.37708
# Shear Modulus (GPa) = 17.35929 20.69435 19.02682
#
# Velocity S-wave (km/s) = 2.97959 3.25325 3.11942
# Velocity P-wave (km/s) = 5.52519 5.88856 5.70976
#
# Compressibility (1/GPa) = 0.02736297
#
# Stress axis : x y z
#
# Youngs Moduli (GPa) = 36.55298 52.40212 38.11168
#
# Poissons Ratio (x) = 0.40906 0.67494
# Poissons Ratio (y) = 0.28534 -0.10890
# Poissons Ratio (z) = 0.64734 -0.14974
#
# Static dielectric constant tensor:
#      x y z
#    x 1.667880 0.000000 0.000000 
#    y 0.000000 1.685330 0.000000 
#    z 0.000000 0.000000 1.696050 
# 
# From -- ./inp_files/9296.got.cif
#   From: 2010.05.17/outbox.cif.g08.bks.cpg/sg46_5_cif.got.tgz:9296.got - 2010.06.03 19:58:25.
