data_PCOD9379374
_publ_section_title
;
Structure prediction by ZEFSAII (Michael W. Deem and Ramdas Pophale) SiO2 
 PCOD9379374
Probable space group: I M A 2
;
_chemical_formula_sum "Si O2"
_cell_formula_units_Z 48
_cell_length_a 10.078247
_cell_length_b 9.191867
_cell_length_c 28.144295
_cell_angle_alpha 90.000000
_cell_angle_beta 90.000000
_cell_angle_gamma 90.000000
_cell_volume 2607.228555
_symmetry_space_group_name_H-M "I M A 2"
_symmetry_group_IT_number 46
_symmetry_cell_setting 'orthorhombic'
loop_
_space_group_symop_operation_xyz
x,y,z
-x,-y,z
1/2-x,y,z
1/2+x,-y,z
1/2+x,1/2+y,1/2+z
1/2-x,1/2-y,1/2+z
-x,1/2+y,1/2+z
x,1/2-y,1/2+z
loop_
_atom_site_type_symbol
_atom_site_label
_atom_site_fract_x
_atom_site_fract_y
_atom_site_fract_z
Si Si1 0.401455 0.133472 0.029360
Si Si2 0.600019 0.743156 0.844015
Si Si3 0.103071 0.741446 0.211255
Si Si4 0.092196 0.354666 0.638061
Si Si5 0.500000 0.500000 0.776898
Si Si6 0.500000 0.500000 0.276997
Si Si7 0.591346 0.861301 0.444872
O O1 0.250000 0.079560 0.026051
O O2 0.416913 0.192969 0.083111
O O3 0.500000 0.000000 0.023199
O O4 0.421380 0.251876 0.988777
O O5 0.750000 0.777542 0.855314
O O6 0.587909 0.599735 0.811438
O O7 0.539291 0.710665 0.895545
O O8 0.552396 0.875897 0.812109
O O9 0.250000 0.752181 0.189465
O O10 0.079215 0.884077 0.244585
O O11 0.093789 0.595131 0.242554
O O12 0.981457 0.746452 0.174175
O O13 0.250000 0.376878 0.649181
O O14 0.000000 0.500000 0.641584
O O15 0.750000 0.897519 0.440110
O O16 0.500000 0.000000 0.453448
#
# Coordination Sequence:
#
# PCOD9379374 Si02
#       7
#     8   8   8   8   4   4   8
#     4   9  20  38  61  88 118 148 187 235 286 340
#     4  10  20  37  57  81 114 152 188 233 283 338
#     4  11  22  37  58  86 116 152 195 239 287 343
#     4  10  20  36  60  87 116 150 192 239 285 340
#     4  10  20  34  58  84 112 148 188 238 280 342
#     4  10  24  38  54  82 118 158 190 240 284 342
#     4  10  21  39  61  87 117 149 189 235 285 342
#
# _framework density 18.410354000000002
#
# number of rings (size 3 to 8) (size 9 to 14) (size 15 to 20)
#    0.000    2.000    1.667    1.500    1.167    4.667 
#    1.500    0.833    0.000    0.000    0.000    0.000 
#    0.000    0.000    0.000    0.000    0.000    0.000 
#
# Total GULP energy -133673.708596 kJ/mol
# GULP energy per Si atom -5569.737858 kJ/mol
# Density = 1.836845 g / cm^3
# Si number density = 18.410354 Si / 1000 Ang^3
#
#
#
# Elastic Constant Matrix: (Units=GPa)
#
#
# Indices 1 2 3 4 5 6 
#
# 1 109.0111 45.9888 61.0068 0.0000 0.0000 0.0000
# 2 45.9888 91.9340 47.8215 0.0000 0.0000 0.0000
# 3 61.0068 47.8215 117.2072 0.0000 0.0000 0.0000
# 4 0.0000 0.0000 0.0000 13.5642 0.0000 0.0000
# 5 0.0000 0.0000 0.0000 0.0000 25.8578 0.0000
# 6 0.0000 0.0000 0.0000 0.0000 0.0000 14.0971
#
#
#
# Elastic Compliance Matrix: (Units=1/GPa)
#
#
# Indices 1 2 3 4 5 6 
#
# 1 0.014063 -0.004097 -0.005648 0.000000 0.000000 0.000000
# 2 -0.004097 0.015001 -0.003988 0.000000 0.000000 0.000000
# 3 -0.005648 -0.003988 0.013099 0.000000 0.000000 0.000000
# 4 0.000000 0.000000 0.000000 0.073724 0.000000 0.000000
# 5 0.000000 0.000000 0.000000 0.000000 0.038673 0.000000
# 6 0.000000 0.000000 0.000000 0.000000 0.000000 0.070937
#
#
# Mechanical properties :
#
#
# Convention : Reuss Voigt Hill
#
# Bulk Modulus (GPa) = 68.04264 69.75407 68.89835
# Shear Modulus (GPa) = 19.39028 21.59284 20.49156
#
# Velocity S-wave (km/s) = 3.24887 3.42843 3.33985
# Velocity P-wave (km/s) = 7.14931 7.32413 7.23725
#
# Compressibility (1/GPa) = 0.01469667
#
# Stress axis : x y z
#
# Youngs Moduli (GPa) = 71.11078 66.66110 76.34134
#
# Poissons Ratio (x) = 0.27308 0.43119
# Poissons Ratio (y) = 0.29131 0.30447
# Poissons Ratio (z) = 0.40165 0.26587
#
# Static dielectric constant tensor:
#      x y z
#    x 1.666060 0.000000 0.000000 
#    y 0.000000 1.641570 0.000000 
#    z 0.000000 0.000000 1.673510 
# 
# From -- ./inp_files/25028.got.cif
#   From: 2010.05.17/outbox.cif.g08.bks.cpg/sg46_13_cif.got.tgz:25028.got - 2010.06.03 19:58:25.
