data_PCOD9379963
_publ_section_title
;
Structure prediction by ZEFSAII (Michael W. Deem and Ramdas Pophale) SiO2 
 PCOD9379963
Probable space group: I M A 2
;
_chemical_formula_sum "Si O2"
_cell_formula_units_Z 48
_cell_length_a 7.480619
_cell_length_b 23.278187
_cell_length_c 12.133322
_cell_angle_alpha 90.000000
_cell_angle_beta 90.000000
_cell_angle_gamma 90.000000
_cell_volume 2112.839035
_symmetry_space_group_name_H-M "I M A 2"
_symmetry_group_IT_number 46
_symmetry_cell_setting 'orthorhombic'
loop_
_space_group_symop_operation_xyz
x,y,z
-x,-y,z
1/2-x,y,z
1/2+x,-y,z
1/2+x,1/2+y,1/2+z
1/2-x,1/2-y,1/2+z
-x,1/2+y,1/2+z
x,1/2-y,1/2+z
loop_
_atom_site_type_symbol
_atom_site_label
_atom_site_fract_x
_atom_site_fract_y
_atom_site_fract_z
Si Si1 0.032175 0.139210 0.320090
Si Si2 0.549789 0.650916 0.440106
Si Si3 0.968440 0.764740 0.758757
Si Si4 0.038721 0.151056 0.567687
Si Si5 0.964492 0.566368 0.624509
Si Si6 0.959373 0.433498 0.251847
O O1 0.250000 0.136796 0.324882
O O2 0.984107 0.198341 0.258695
O O3 0.965958 0.144806 0.444965
O O4 0.974304 0.085350 0.246240
O O5 0.750000 0.669177 0.475971
O O6 0.469961 0.704711 0.372915
O O7 0.465108 0.614574 0.539157
O O8 0.559926 0.603553 0.343172
O O9 0.750000 0.768834 0.760913
O O10 0.031254 0.800001 0.651649
O O11 0.250000 0.162789 0.556754
O O12 0.012160 0.092037 0.633924
O O13 0.750000 0.571701 0.619634
O O14 0.000000 0.500000 0.597162
O O15 0.750000 0.423616 0.269430
O O16 0.000000 0.500000 0.261473
#
# Coordination Sequence:
#
# PCOD9379963 Si02
#       6
#     8   8   8   8   8   8
#     4   9  18  31  52  81 110 141 177 223 270 319
#     4   9  18  33  54  82 110 137 174 223 272 322
#     4   8  15  28  51  81 107 132 171 223 274 316
#     4   9  18  33  52  78 109 138 175 219 268 322
#     4  10  21  35  52  77 111 147 185 220 264 319
#     4  11  21  34  54  77 104 137 177 222 270 318
#
# _framework density 22.718247000000002
#
# number of rings (size 3 to 8) (size 9 to 14) (size 15 to 20)
#    0.000    2.667    0.000    3.000    2.333    2.667 
#    0.000    2.500    0.000    8.000    0.000    0.000 
#    0.000    0.000    0.000    0.000    0.000    0.000 
#
# Total GULP energy -133932.172645 kJ/mol
# GULP energy per Si atom -5580.507194 kJ/mol
# Density = 2.266654 g / cm^3
# Si number density = 22.718247 Si / 1000 Ang^3
#
#
#
# Elastic Constant Matrix: (Units=GPa)
#
#
# Indices 1 2 3 4 5 6 
#
# 1 59.6685 -12.8890 26.5693 0.0000 -0.0008 0.0000
# 2 -12.8890 57.7259 10.5504 0.0000 -0.0011 0.0000
# 3 26.5693 10.5504 78.2177 0.0001 -0.0034 -0.0001
# 4 0.0000 0.0000 0.0001 17.6855 -0.0013 0.0000
# 5 -0.0008 -0.0011 -0.0034 -0.0013 215.8606 -0.0008
# 6 0.0000 0.0000 -0.0001 0.0000 -0.0008 -23.8118
#
#
#
# Elastic Compliance Matrix: (Units=1/GPa)
#
#
# Indices 1 2 3 4 5 6 
#
# 1 0.021823 0.006385 -0.008274 0.000000 0.000000 0.000000
# 2 0.006385 0.019629 -0.004816 0.000000 0.000000 0.000000
# 3 -0.008274 -0.004816 0.016245 0.000000 0.000000 0.000000
# 4 0.000000 0.000000 0.000000 0.056543 0.000000 0.000000
# 5 0.000000 0.000000 0.000000 0.000000 0.004633 0.000000
# 6 0.000000 0.000000 0.000000 0.000000 0.000000 -0.041996
#
#
# Mechanical properties :
#
#
# Convention : Reuss Voigt Hill
#
# Bulk Modulus (GPa) = 22.58076 27.11925 24.85000
# Shear Modulus (GPa) = 47.59625 53.37228 50.48427
#
# Velocity S-wave (km/s) = 4.58216 4.85223 4.71913
# Velocity P-wave (km/s) = 6.16084 6.58447 6.37618
#
# Compressibility (1/GPa) = 0.04428550
#
# Stress axis : x y z
#
# Youngs Moduli (GPa) = 45.82377 50.94465 61.55722
#
# Poissons Ratio (x) = -0.32527 0.50933
# Poissons Ratio (y) = -0.29258 0.29649
# Poissons Ratio (z) = 0.37915 0.24537
#
# Static dielectric constant tensor:
#      x y z
#    x 1.565340 0.000000 0.000000 
#    y 0.000000 1.796510 0.000000 
#    z 0.000000 0.000000 1.863700 
# 
# From -- ./inp_files/9283.got.cif
#   From: 2010.05.17/outbox.cif.g08.bks.cpg/sg46_5_cif.got.tgz:9283.got - 2010.06.03 19:58:25.
