data_PCOD9379542
_publ_section_title
;
Structure prediction by ZEFSAII (Michael W. Deem and Ramdas Pophale) SiO2 
 PCOD9379542
Probable space group: I M A 2
;
_chemical_formula_sum "Si O2"
_cell_formula_units_Z 64
_cell_length_a 8.695049
_cell_length_b 29.713119
_cell_length_c 13.191814
_cell_angle_alpha 90.000000
_cell_angle_beta 90.000000
_cell_angle_gamma 90.000000
_cell_volume 3408.197828
_symmetry_space_group_name_H-M "I M A 2"
_symmetry_group_IT_number 46
_symmetry_cell_setting 'orthorhombic'
loop_
_space_group_symop_operation_xyz
x,y,z
-x,-y,z
1/2-x,y,z
1/2+x,-y,z
1/2+x,1/2+y,1/2+z
1/2-x,1/2-y,1/2+z
-x,1/2+y,1/2+z
x,1/2-y,1/2+z
loop_
_atom_site_type_symbol
_atom_site_label
_atom_site_fract_x
_atom_site_fract_y
_atom_site_fract_z
Si Si1 0.435269 0.449387 0.357750
Si Si2 0.065793 0.141723 0.233748
Si Si3 0.923613 0.786130 0.942050
Si Si4 0.566149 0.379137 0.518508
Si Si5 0.563052 0.878664 0.460398
Si Si6 0.577013 0.794082 0.594687
Si Si7 0.064546 0.449840 0.128383
Si Si8 0.926511 0.239805 0.257259
O O1 0.500000 0.500000 0.366108
O O2 0.250000 0.449632 0.365810
O O3 0.505475 0.418775 0.446007
O O4 0.475942 0.433272 0.242596
O O5 0.250000 0.137277 0.225911
O O6 0.012834 0.122056 0.343130
O O7 0.024456 0.194861 0.235890
O O8 0.990075 0.119041 0.135315
O O9 0.750000 0.791836 0.900072
O O10 0.994315 0.833279 0.973817
O O11 0.030524 0.758790 0.866220
O O12 0.911343 0.753166 0.037109
O O13 0.750000 0.377383 0.515963
O O14 0.750000 0.879876 0.456487
O O15 0.522812 0.832156 0.517060
O O16 0.511382 0.918237 0.535956
O O17 0.750000 0.806971 0.629406
O O18 0.466763 0.782076 0.685924
O O19 0.250000 0.451446 0.124783
O O20 0.000000 0.500000 0.117493
O O21 0.750000 0.227040 0.246197
#
# Coordination Sequence:
#
# PCOD9379542 Si02
#       8
#     8   8   8   8   8   8   8   8
#     4  10  21  40  66  93 121 155 193 240 302 364
#     4  11  21  39  61  82 115 162 210 246 292 356
#     4  11  22  38  59  81 112 159 207 244 290 355
#     4  12  25  40  59  89 124 156 200 253 306 357
#     4   9  19  37  61  87 112 150 201 246 284 345
#     4  10  20  36  58  81 110 154 206 245 287 351
#     4   9  19  38  64  92 119 148 185 236 295 353
#     4  12  24  36  52  81 120 156 195 251 307 349
#
# _framework density 18.778251999999998
#
# number of rings (size 3 to 8) (size 9 to 14) (size 15 to 20)
#    0.000    1.500    2.500    3.375    1.750    1.000 
#    0.000    2.500    0.000    1.500    0.000    0.000 
#    0.000    0.000    0.000    0.000    0.000    0.000 
#
# Total GULP energy -178570.172466 kJ/mol
# GULP energy per Si atom -5580.317890 kJ/mol
# Density = 1.873551 g / cm^3
# Si number density = 18.778252 Si / 1000 Ang^3
#
#
#
# Elastic Constant Matrix: (Units=GPa)
#
#
# Indices 1 2 3 4 5 6 
#
# 1 32.6907 10.9254 -3.4472 0.0001 0.0001 0.0000
# 2 10.9254 83.9494 54.1193 -0.0002 0.0000 0.0000
# 3 -3.4472 54.1193 105.3581 -0.0003 0.0002 0.0002
# 4 0.0001 -0.0002 -0.0003 30.6280 0.0001 0.0000
# 5 0.0001 0.0000 0.0002 0.0001 15.6488 0.0000
# 6 0.0000 0.0000 0.0002 0.0000 0.0000 21.2629
#
#
#
# Elastic Compliance Matrix: (Units=1/GPa)
#
#
# Indices 1 2 3 4 5 6 
#
# 1 0.033662 -0.007611 0.005011 0.000000 0.000000 0.000000
# 2 -0.007611 0.019530 -0.010281 0.000000 0.000000 0.000000
# 3 0.005011 -0.010281 0.014937 0.000000 0.000000 0.000000
# 4 0.000000 0.000000 0.000000 0.032650 0.000000 0.000000
# 5 0.000000 0.000000 0.000000 0.000000 0.063903 0.000000
# 6 0.000000 0.000000 0.000000 0.000000 0.000000 0.047030
#
#
# Mechanical properties :
#
#
# Convention : Reuss Voigt Hill
#
# Bulk Modulus (GPa) = 23.60388 38.35480 30.97934
# Shear Modulus (GPa) = 19.87309 24.20133 22.03721
#
# Velocity S-wave (km/s) = 3.25669 3.59387 3.42943
# Velocity P-wave (km/s) = 5.17092 6.13928 5.67579
#
# Compressibility (1/GPa) = 0.04236591
#
# Stress axis : x y z
#
# Youngs Moduli (GPa) = 29.70720 51.20211 66.94989
#
# Poissons Ratio (x) = 0.38972 -0.33549
# Poissons Ratio (y) = 0.22611 0.68833
# Poissons Ratio (z) = -0.14886 0.52642
#
# Static dielectric constant tensor:
#      x y z
#    x 1.649570 0.000000 0.000000 
#    y 0.000000 1.614260 0.000000 
#    z 0.000000 0.000000 1.687400 
# 
# From -- ./inp_files/9717.got.cif
#   From: 2010.05.17/outbox.cif.g08.bks.cpg/sg46_5_cif.got.tgz:9717.got - 2010.06.03 19:58:25.
