data_PCOD9379557
_publ_section_title
;
Structure prediction by ZEFSAII (Michael W. Deem and Ramdas Pophale) SiO2 
 PCOD9379557
Probable space group: I M A 2
;
_chemical_formula_sum "Si O2"
_cell_formula_units_Z 60
_cell_length_a 28.083737
_cell_length_b 11.344898
_cell_length_c 8.972048
_cell_angle_alpha 90.000000
_cell_angle_beta 90.000000
_cell_angle_gamma 90.000000
_cell_volume 2858.558479
_symmetry_space_group_name_H-M "I M A 2"
_symmetry_group_IT_number 46
_symmetry_cell_setting 'orthorhombic'
loop_
_space_group_symop_operation_xyz
x,y,z
-x,-y,z
1/2-x,y,z
1/2+x,-y,z
1/2+x,1/2+y,1/2+z
1/2-x,1/2-y,1/2+z
-x,1/2+y,1/2+z
x,1/2-y,1/2+z
loop_
_atom_site_type_symbol
_atom_site_label
_atom_site_fract_x
_atom_site_fract_y
_atom_site_fract_z
Si Si1 0.899773 0.920359 0.402510
Si Si2 0.695036 0.878504 0.882648
Si Si3 0.033847 0.781500 0.150281
Si Si4 0.150952 0.887490 0.919001
Si Si5 0.500000 0.500000 0.829914
Si Si6 0.539092 0.403157 0.363393
Si Si7 0.137339 0.259996 0.643742
Si Si8 0.639698 0.145501 0.256495
O O1 0.951391 0.978453 0.416894
O O2 0.887553 0.843188 0.547479
O O3 0.895543 0.833390 0.258269
O O4 0.864883 0.029596 0.359746
O O5 0.750000 0.858926 0.916651
O O6 0.677588 0.798281 0.746757
O O7 0.684010 0.014030 0.846845
O O8 0.661784 0.844542 0.022746
O O9 0.026654 0.649868 0.203964
O O10 0.086949 0.815760 0.202443
O O11 0.003660 0.884866 0.224683
O O12 0.029999 0.794072 0.974827
O O13 0.095294 0.928855 0.888895
O O14 0.157553 0.758855 0.846915
O O15 0.162583 0.881300 0.095644
O O16 0.500000 0.500000 0.400953
#
# Coordination Sequence:
#
# PCOD9379557 Si02
#       8
#     8   8   8   8   4   8   8   8
#     4  10  21  40  65  95 131 178 217 278 324 389
#     4  11  23  43  69  99 129 167 216 277 340 398
#     4   9  19  34  53  76 113 158 195 248 296 357
#     4  10  21  38  63  87 122 166 208 262 321 393
#     4  10  20  36  58  86 130 164 212 262 312 370
#     4  10  20  37  56  81 116 157 207 250 303 367
#     4  10  23  41  69  95 132 173 219 270 336 402
#     4   9  19  37  60  85 120 164 205 250 325 376
#
# _framework density 20.989598999999998
#
# number of rings (size 3 to 8) (size 9 to 14) (size 15 to 20)
#    0.000    2.133    2.000    0.400    1.867    3.200 
#    3.600    2.000    0.000    0.800    0.000    0.000 
#    0.000    0.000    0.000    0.000    0.000    0.000 
#
# Total GULP energy -167416.046413 kJ/mol
# GULP energy per Si atom -5580.534880 kJ/mol
# Density = 2.094183 g / cm^3
# Si number density = 20.989599 Si / 1000 Ang^3
#
#
#
# Elastic Constant Matrix: (Units=GPa)
#
#
# Indices 1 2 3 4 5 6 
#
# 1 51.0976 13.2829 13.0335 0.0000 0.0000 0.0000
# 2 13.2829 93.5606 31.3682 0.0000 0.0000 0.0000
# 3 13.0335 31.3682 62.0052 0.0000 0.0000 0.0000
# 4 0.0000 0.0000 0.0000 38.3955 0.0000 0.0000
# 5 0.0000 0.0000 0.0000 0.0000 7.2701 0.0000
# 6 0.0000 0.0000 0.0000 0.0000 0.0000 14.4788
#
#
#
# Elastic Compliance Matrix: (Units=1/GPa)
#
#
# Indices 1 2 3 4 5 6 
#
# 1 0.020928 -0.001802 -0.003488 0.000000 0.000000 0.000000
# 2 -0.001802 0.013027 -0.006211 0.000000 0.000000 0.000000
# 3 -0.003488 -0.006211 0.020003 0.000000 0.000000 0.000000
# 4 0.000000 0.000000 0.000000 0.026045 0.000000 0.000000
# 5 0.000000 0.000000 0.000000 0.000000 0.137550 0.000000
# 6 0.000000 0.000000 0.000000 0.000000 0.000000 0.069067
#
#
# Mechanical properties :
#
#
# Convention : Reuss Voigt Hill
#
# Bulk Modulus (GPa) = 32.30356 35.78141 34.04249
# Shear Modulus (GPa) = 15.62796 21.96079 18.79437
#
# Velocity S-wave (km/s) = 2.73162 3.23812 2.99559
# Velocity P-wave (km/s) = 5.03713 5.57358 5.31213
#
# Compressibility (1/GPa) = 0.03095634
#
# Stress axis : x y z
#
# Youngs Moduli (GPa) = 47.78202 76.76621 49.99229
#
# Poissons Ratio (x) = 0.13833 0.17435
# Poissons Ratio (y) = 0.08610 0.31052
# Poissons Ratio (z) = 0.16664 0.47682
#
# Static dielectric constant tensor:
#      x y z
#    x 1.742930 0.000000 0.000000 
#    y 0.000000 1.769780 0.000000 
#    z 0.000000 0.000000 1.779190 
# 
# From -- ./inp_files/8225.got.cif
#   From: 2010.05.17/outbox.cif.g08.bks.cpg/sg46_5_cif.got.tgz:8225.got - 2010.06.03 19:58:25.
