data_PCOD9379167
_publ_section_title
;
Structure prediction by ZEFSAII (Michael W. Deem and Ramdas Pophale) SiO2 
 PCOD9379167
Probable space group: I M A 2
;
_chemical_formula_sum "Si O2"
_cell_formula_units_Z 56
_cell_length_a 26.576560
_cell_length_b 5.226066
_cell_length_c 18.762707
_cell_angle_alpha 90.000000
_cell_angle_beta 90.000000
_cell_angle_gamma 90.000000
_cell_volume 2605.968448
_symmetry_space_group_name_H-M "I M A 2"
_symmetry_group_IT_number 46
_symmetry_cell_setting 'orthorhombic'
loop_
_space_group_symop_operation_xyz
x,y,z
-x,-y,z
1/2-x,y,z
1/2+x,-y,z
1/2+x,1/2+y,1/2+z
1/2-x,1/2-y,1/2+z
-x,1/2+y,1/2+z
x,1/2-y,1/2+z
loop_
_atom_site_type_symbol
_atom_site_label
_atom_site_fract_x
_atom_site_fract_y
_atom_site_fract_z
Si Si1 0.942361 0.462528 0.675850
Si Si2 0.692642 0.797068 0.276246
Si Si3 0.555865 0.449722 0.954595
Si Si4 0.404143 0.451177 0.246890
Si Si5 0.865022 0.314592 0.852167
Si Si6 0.193606 0.446488 0.435484
Si Si7 0.904716 0.572885 0.526028
O O1 0.932868 0.685724 0.734225
O O2 0.906034 0.514238 0.609265
O O3 0.000000 0.500000 0.652125
O O4 0.930400 0.178331 0.703379
O O5 0.750000 0.808920 0.251790
O O6 0.654645 0.619381 0.231975
O O7 0.693236 0.703560 0.359501
O O8 0.663873 0.065774 0.285246
O O9 0.500000 0.500000 0.927745
O O10 0.595956 0.494622 0.891844
O O11 0.565150 0.665658 0.013616
O O12 0.568678 0.168789 0.986153
O O13 0.398334 0.574271 0.325498
O O14 0.822791 0.227586 0.907992
O O15 0.250000 0.434882 0.463928
O O16 0.150358 0.382908 0.491930
#
# Coordination Sequence:
#
# PCOD9379167 Si02
#       7
#     8   8   8   8   8   8   8
#     4  12  25  44  65  88 125 182 226 264 313 369
#     4  10  19  39  68  94 129 168 203 259 332 390
#     4  11  22  38  62  94 129 163 202 265 329 373
#     4  11  24  43  62  94 127 163 229 267 305 381
#     4  10  20  38  64  97 130 161 211 261 323 396
#     4   9  19  36  64  98 127 161 199 258 327 382
#     4  11  23  42  64  92 127 165 220 260 305 389
#
# _framework density 21.489134
#
# number of rings (size 3 to 8) (size 9 to 14) (size 15 to 20)
#    0.000    1.429    2.857    3.000    0.000    1.143 
#    2.571    1.429    0.000    0.000    0.000    0.000 
#    0.000    0.000    0.000    0.000    0.000    0.000 
#
# Total GULP energy -156123.593992 kJ/mol
# GULP energy per Si atom -5575.842643 kJ/mol
# Density = 2.144022 g / cm^3
# Si number density = 21.489134 Si / 1000 Ang^3
#
#
#
# Elastic Constant Matrix: (Units=GPa)
#
#
# Indices 1 2 3 4 5 6 
#
# 1 106.2157 15.3444 3.9685 0.0000 0.0000 0.0000
# 2 15.3444 85.5383 4.1143 0.0000 0.0000 0.0000
# 3 3.9685 4.1143 34.9128 0.0000 0.0000 0.0000
# 4 0.0000 0.0000 0.0000 24.7799 0.0000 0.0000
# 5 0.0000 0.0000 0.0000 0.0000 26.5488 0.0000
# 6 0.0000 0.0000 0.0000 0.0000 0.0000 19.8884
#
#
#
# Elastic Compliance Matrix: (Units=1/GPa)
#
#
# Indices 1 2 3 4 5 6 
#
# 1 0.009693 -0.001695 -0.000902 0.000000 0.000000 0.000000
# 2 -0.001695 0.012054 -0.001228 0.000000 0.000000 0.000000
# 3 -0.000902 -0.001228 0.028890 0.000000 0.000000 0.000000
# 4 0.000000 0.000000 0.000000 0.040355 0.000000 0.000000
# 5 0.000000 0.000000 0.000000 0.000000 0.037667 0.000000
# 6 0.000000 0.000000 0.000000 0.000000 0.000000 0.050280
#
#
# Mechanical properties :
#
#
# Convention : Reuss Voigt Hill
#
# Bulk Modulus (GPa) = 23.26295 30.39122 26.82708
# Shear Modulus (GPa) = 24.88563 27.79272 26.33918
#
# Velocity S-wave (km/s) = 3.40671 3.60020 3.50479
# Velocity P-wave (km/s) = 5.13062 5.60850 5.37487
#
# Compressibility (1/GPa) = 0.04298681
#
# Stress axis : x y z
#
# Youngs Moduli (GPa) = 103.16246 82.96089 34.61400
#
# Poissons Ratio (x) = 0.14066 0.03122
# Poissons Ratio (y) = 0.17491 0.04250
# Poissons Ratio (z) = 0.09306 0.10186
#
# Static dielectric constant tensor:
#      x y z
#    x 1.781000 0.000000 0.000000 
#    y 0.000000 1.880280 0.000000 
#    z 0.000000 0.000000 1.802570 
# 
# From -- ./inp_files/22538.got.cif
#   From: 2010.05.17/outbox.cif.g08.bks.cpg/sg46_12_cif.got.tgz:22538.got - 2010.06.03 19:58:25.
