data_PCOD9379021
_publ_section_title
;
Structure prediction by ZEFSAII (Michael W. Deem and Ramdas Pophale) SiO2 
 PCOD9379021
Probable space group: I M A 2
;
_chemical_formula_sum "Si O2"
_cell_formula_units_Z 56
_cell_length_a 13.075641
_cell_length_b 23.890582
_cell_length_c 9.643500
_cell_angle_alpha 90.000000
_cell_angle_beta 90.000000
_cell_angle_gamma 90.000000
_cell_volume 3012.481599
_symmetry_space_group_name_H-M "I M A 2"
_symmetry_group_IT_number 46
_symmetry_cell_setting 'orthorhombic'
loop_
_space_group_symop_operation_xyz
x,y,z
-x,-y,z
1/2-x,y,z
1/2+x,-y,z
1/2+x,1/2+y,1/2+z
1/2-x,1/2-y,1/2+z
-x,1/2+y,1/2+z
x,1/2-y,1/2+z
loop_
_atom_site_type_symbol
_atom_site_label
_atom_site_fract_x
_atom_site_fract_y
_atom_site_fract_z
Si Si1 0.992814 0.756368 0.851210
Si Si2 0.460630 0.940729 0.912321
Si Si3 0.131134 0.084159 0.114633
Si Si4 0.132763 0.288852 0.620967
Si Si5 0.127915 0.855133 0.385995
Si Si6 0.631263 0.351925 0.215242
Si Si7 0.870258 0.464629 0.709529
O O1 0.895598 0.748436 0.752081
O O2 0.059286 0.699026 0.850281
O O3 0.063783 0.803047 0.781570
O O4 0.949459 0.774239 0.001242
O O5 0.402289 0.906708 0.797878
O O6 0.500000 0.000000 0.859168
O O7 0.562694 0.913470 0.976648
O O8 0.390846 0.948239 0.049419
O O9 0.250000 0.073676 0.081658
O O10 0.123532 0.146641 0.171731
O O11 0.095072 0.030680 0.207357
O O12 0.250000 0.280863 0.573992
O O13 0.250000 0.845360 0.356046
O O14 0.116818 0.860927 0.551656
O O15 0.095626 0.912168 0.305417
O O16 0.750000 0.339151 0.239066
O O17 0.750000 0.467889 0.740178
#
# Coordination Sequence:
#
# PCOD9379021 Si02
#       7
#     8   8   8   8   8   8   8
#     4  12  22  41  59  88 126 162 206 253 316 365
#     4  10  19  35  58  87 116 152 199 250 305 359
#     4   9  18  34  57  86 114 150 201 254 297 351
#     4  11  23  39  63  88 121 162 212 259 305 367
#     4  10  22  38  59  90 127 165 201 250 312 379
#     4  11  23  39  59  88 126 162 202 250 309 375
#     4   9  18  34  59  87 117 153 199 251 307 364
#
# _framework density 18.589326
#
# number of rings (size 3 to 8) (size 9 to 14) (size 15 to 20)
#    0.000    1.714    2.857    2.143    0.000    0.571 
#    0.000    3.571    0.000    0.000    0.000    0.000 
#    0.000    0.000    0.000    0.000    0.000    0.000 
#
# Total GULP energy -155992.610079 kJ/mol
# GULP energy per Si atom -5571.164646 kJ/mol
# Density = 1.854702 g / cm^3
# Si number density = 18.589326 Si / 1000 Ang^3
#
#
#
# Elastic Constant Matrix: (Units=GPa)
#
#
# Indices 1 2 3 4 5 6 
#
# 1 63.9238 29.0710 20.1972 0.0006 -0.0002 -0.0001
# 2 29.0710 88.2718 47.7518 0.0010 -0.0002 -0.0001
# 3 20.1972 47.7518 63.4163 0.0020 -0.0004 0.0000
# 4 0.0006 0.0010 0.0020 23.6326 -0.0001 0.0000
# 5 -0.0002 -0.0002 -0.0004 -0.0001 30.7113 0.0000
# 6 -0.0001 -0.0001 0.0000 0.0000 0.0000 38.7269
#
#
#
# Elastic Compliance Matrix: (Units=1/GPa)
#
#
# Indices 1 2 3 4 5 6 
#
# 1 0.018581 -0.004924 -0.002210 0.000000 0.000000 0.000000
# 2 -0.004924 0.020420 -0.013808 0.000000 0.000000 0.000000
# 3 -0.002210 -0.013808 0.026870 -0.000002 0.000000 0.000000
# 4 0.000000 0.000000 -0.000002 0.042314 0.000000 0.000000
# 5 0.000000 0.000000 0.000000 0.000000 0.032561 0.000000
# 6 0.000000 0.000000 0.000000 0.000000 0.000000 0.025822
#
#
# Mechanical properties :
#
#
# Convention : Reuss Voigt Hill
#
# Bulk Modulus (GPa) = 41.68890 45.51689 43.60289
# Shear Modulus (GPa) = 23.10034 26.52031 24.81033
#
# Velocity S-wave (km/s) = 3.52897 3.78119 3.65726
# Velocity P-wave (km/s) = 6.25138 6.60317 6.42968
#
# Compressibility (1/GPa) = 0.02398720
#
# Stress axis : x y z
#
# Youngs Moduli (GPa) = 53.81793 48.97260 37.21660
#
# Poissons Ratio (x) = 0.24113 0.08226
# Poissons Ratio (y) = 0.26498 0.51387
# Poissons Ratio (z) = 0.11896 0.67619
#
# Static dielectric constant tensor:
#      x y z
#    x 1.680460 0.000000 0.000000 
#    y 0.000000 1.685640 0.000000 
#    z 0.000000 0.000000 1.589800 
# 
# From -- ./inp_files/5941.got.cif
#   From: 2010.05.17/outbox.cif.g08.bks.cpg/sg46_3_cif.got.tgz:5941.got - 2010.06.03 19:58:25.
