data_PCOD9379828
_publ_section_title
;
Structure prediction by ZEFSAII (Michael W. Deem and Ramdas Pophale) SiO2 
 PCOD9379828
Probable space group: I M A 2
;
_chemical_formula_sum "Si O2"
_cell_formula_units_Z 60
_cell_length_a 22.584499
_cell_length_b 6.722323
_cell_length_c 15.776929
_cell_angle_alpha 90.000000
_cell_angle_beta 90.000000
_cell_angle_gamma 90.000000
_cell_volume 2395.258048
_symmetry_space_group_name_H-M "I M A 2"
_symmetry_group_IT_number 46
_symmetry_cell_setting 'orthorhombic'
loop_
_space_group_symop_operation_xyz
x,y,z
-x,-y,z
1/2-x,y,z
1/2+x,-y,z
1/2+x,1/2+y,1/2+z
1/2-x,1/2-y,1/2+z
-x,1/2+y,1/2+z
x,1/2-y,1/2+z
loop_
_atom_site_type_symbol
_atom_site_label
_atom_site_fract_x
_atom_site_fract_y
_atom_site_fract_z
Si Si1 0.407579 0.588800 0.387450
Si Si2 0.681138 0.069322 0.452034
Si Si3 0.315326 0.167646 0.784620
Si Si4 0.187371 0.838799 0.649127
Si Si5 0.119383 0.474519 0.690500
Si Si6 0.597607 0.744406 0.517623
Si Si7 0.488229 0.829580 0.263518
Si Si8 0.500000 0.000000 0.613463
O O1 0.362978 0.770629 0.410365
O O2 0.366502 0.442165 0.333310
O O3 0.426981 0.445675 0.465152
O O4 0.458011 0.670791 0.326916
O O5 0.750000 0.064811 0.420505
O O6 0.685273 0.138228 0.549698
O O7 0.648169 0.856903 0.462526
O O8 0.250000 0.156209 0.822966
O O9 0.337065 0.384902 0.760109
O O10 0.313134 0.047181 0.696055
O O11 0.250000 0.738054 0.672127
O O12 0.135133 0.701826 0.679793
O O13 0.123700 0.360289 0.602390
O O14 0.052543 0.465417 0.726282
O O15 0.552477 0.912363 0.553580
O O16 0.488954 0.684447 0.178034
O O17 0.500000 0.000000 0.341429
#
# Coordination Sequence:
#
# PCOD9379828 Si02
#       8
#     8   8   8   8   8   8   8   4
#     4  12  28  49  71 111 161 196 248 317 402 465
#     4  11  25  47  73 110 156 201 249 312 385 465
#     4  11  24  43  71 109 151 199 248 301 369 458
#     4  10  20  38  70 105 142 193 246 295 356 442
#     4  12  22  46  74 106 143 193 253 304 366 446
#     4  12  27  47  79 113 151 198 254 322 390 466
#     4  12  28  51  81 108 144 203 258 324 387 454
#     4  12  28  56  82 108 150 200 274 326 376 464
#
# _framework density 25.049493999999999
#
# number of rings (size 3 to 8) (size 9 to 14) (size 15 to 20)
#    0.000    0.533    5.333    2.400    1.867    1.600 
#    3.600    0.000    0.000    0.000    0.000    0.000 
#    0.000    0.000    0.000    0.000    0.000    0.000 
#
# Total GULP energy -167305.786269 kJ/mol
# GULP energy per Si atom -5576.859542 kJ/mol
# Density = 2.499248 g / cm^3
# Si number density = 25.049494 Si / 1000 Ang^3
#
#
#
# Elastic Constant Matrix: (Units=GPa)
#
#
# Indices 1 2 3 4 5 6 
#
# 1 111.7852 65.7949 23.5866 0.0000 0.0000 0.0000
# 2 65.7949 144.5910 38.1147 0.0000 0.0000 0.0000
# 3 23.5866 38.1147 86.4280 0.0000 0.0000 0.0000
# 4 0.0000 0.0000 0.0000 32.9286 0.0000 0.0000
# 5 0.0000 0.0000 0.0000 0.0000 29.7783 0.0000
# 6 0.0000 0.0000 0.0000 0.0000 0.0000 45.6549
#
#
#
# Elastic Compliance Matrix: (Units=1/GPa)
#
#
# Indices 1 2 3 4 5 6 
#
# 1 0.012295 -0.005330 -0.001005 0.000000 0.000000 0.000000
# 2 -0.005330 0.010136 -0.003016 0.000000 0.000000 0.000000
# 3 -0.001005 -0.003016 0.013174 0.000000 0.000000 0.000000
# 4 0.000000 0.000000 0.000000 0.030369 0.000000 0.000000
# 5 0.000000 0.000000 0.000000 0.000000 0.033582 0.000000
# 6 0.000000 0.000000 0.000000 0.000000 0.000000 0.021903
#
#
# Mechanical properties :
#
#
# Convention : Reuss Voigt Hill
#
# Bulk Modulus (GPa) = 59.15398 66.42186 62.78792
# Shear Modulus (GPa) = 34.29484 36.02621 35.16053
#
# Velocity S-wave (km/s) = 3.70413 3.79648 3.75059
# Velocity P-wave (km/s) = 6.47767 6.76694 6.62388
#
# Compressibility (1/GPa) = 0.01690503
#
# Stress axis : x y z
#
# Youngs Moduli (GPa) = 81.33551 98.65609 75.90468
#
# Poissons Ratio (x) = 0.52581 0.07628
# Poissons Ratio (y) = 0.43350 0.22889
# Poissons Ratio (z) = 0.08173 0.29750
#
# Static dielectric constant tensor:
#      x y z
#    x 2.090330 0.000000 0.000000 
#    y 0.000000 2.060260 0.000000 
#    z 0.000000 0.000000 1.929680 
# 
# From -- ./inp_files/20485.got.cif
#   From: 2010.05.17/outbox.cif.g08.bks.cpg/sg46_11_cif.got.tgz:20485.got - 2010.06.03 19:58:25.
