data_PCOD9379565
_publ_section_title
;
Structure prediction by ZEFSAII (Michael W. Deem and Ramdas Pophale) SiO2 
 PCOD9379565
Probable space group: I M A 2
;
_chemical_formula_sum "Si O2"
_cell_formula_units_Z 64
_cell_length_a 17.375848
_cell_length_b 12.157541
_cell_length_c 16.305517
_cell_angle_alpha 90.000000
_cell_angle_beta 90.000000
_cell_angle_gamma 90.000000
_cell_volume 3444.501080
_symmetry_space_group_name_H-M "I M A 2"
_symmetry_group_IT_number 46
_symmetry_cell_setting 'orthorhombic'
loop_
_space_group_symop_operation_xyz
x,y,z
-x,-y,z
1/2-x,y,z
1/2+x,-y,z
1/2+x,1/2+y,1/2+z
1/2-x,1/2-y,1/2+z
-x,1/2+y,1/2+z
x,1/2-y,1/2+z
loop_
_atom_site_type_symbol
_atom_site_label
_atom_site_fract_x
_atom_site_fract_y
_atom_site_fract_z
Si Si1 0.908581 0.525829 0.445660
Si Si2 0.619106 0.182302 0.842087
Si Si3 0.659992 0.490780 0.624457
Si Si4 0.666107 0.405178 0.907924
Si Si5 0.586246 0.952236 0.282678
Si Si6 0.660683 0.269223 0.155625
Si Si7 0.541358 0.106749 0.537953
Si Si8 0.453411 0.240568 0.400054
O O1 0.875181 0.438307 0.380760
O O2 0.868999 0.508258 0.532704
O O3 0.903708 0.651967 0.418274
O O4 0.000000 0.500000 0.454159
O O5 0.662212 0.273756 0.896949
O O6 0.647496 0.193929 0.749442
O O7 0.530072 0.219609 0.851534
O O8 0.750000 0.516889 0.631620
O O9 0.611266 0.562057 0.689186
O O10 0.649659 0.361738 0.646206
O O11 0.750000 0.439564 0.935418
O O12 0.644660 0.459046 0.821402
O O13 0.599195 0.440040 0.968869
O O14 0.587454 0.847098 0.341544
O O15 0.500000 0.000000 0.286481
O O16 0.750000 0.293718 0.131904
O O17 0.596162 0.327481 0.099778
O O18 0.484131 0.184847 0.484910
O O19 0.500000 0.000000 0.575546
#
# Coordination Sequence:
#
# PCOD9379565 Si02
#       8
#     8   8   8   8   8   8   8   8
#     4  10  22  39  62  88 122 163 204 244 301 363
#     4  10  20  36  58  90 119 154 198 251 301 358
#     4  11  23  39  60  93 123 155 204 255 302 355
#     4  11  19  34  59  86 114 150 192 249 306 350
#     4  12  19  36  64  91 119 152 201 251 297 354
#     4  11  22  36  58  90 122 154 198 252 308 355
#     4  11  21  37  57  86 119 153 199 249 296 361
#     4  10  20  38  60  86 116 159 203 244 301 356
#
# _framework density 18.58034
#
# number of rings (size 3 to 8) (size 9 to 14) (size 15 to 20)
#    0.000    1.250    5.000    3.750    0.000    4.500 
#    0.000    1.250    0.000    1.500    0.000    0.000 
#    0.000    0.000    0.000    0.000    0.000    0.000 
#
# Total GULP energy -178649.757730 kJ/mol
# GULP energy per Si atom -5582.804929 kJ/mol
# Density = 1.853805 g / cm^3
# Si number density = 18.580340 Si / 1000 Ang^3
#
#
#
# Elastic Constant Matrix: (Units=GPa)
#
#
# Indices 1 2 3 4 5 6 
#
# 1 49.5756 46.9366 27.3585 0.0000 0.0000 0.0000
# 2 46.9366 122.5372 53.4813 0.0000 0.0000 0.0000
# 3 27.3585 53.4813 92.1615 0.0000 0.0000 0.0000
# 4 0.0000 0.0000 0.0000 27.5969 0.0000 0.0000
# 5 0.0000 0.0000 0.0000 0.0000 -4.0915 0.0000
# 6 0.0000 0.0000 0.0000 0.0000 0.0000 16.4090
#
#
#
# Elastic Compliance Matrix: (Units=1/GPa)
#
#
# Indices 1 2 3 4 5 6 
#
# 1 0.032351 -0.010982 -0.003231 0.000000 0.000000 0.000000
# 2 -0.010982 0.014656 -0.005245 0.000000 0.000000 0.000000
# 3 -0.003231 -0.005245 0.014853 0.000000 0.000000 0.000000
# 4 0.000000 0.000000 0.000000 0.036236 0.000000 0.000000
# 5 0.000000 0.000000 0.000000 0.000000 -0.244410 0.000000
# 6 0.000000 0.000000 0.000000 0.000000 0.000000 0.060942
#
#
# Mechanical properties :
#
#
# Convention : Reuss Voigt Hill
#
# Bulk Modulus (GPa) = 43.58135 57.75854 50.66995
# Shear Modulus (GPa) = -128.84388 17.08275 -55.88056
#
# Velocity S-wave (km/s) = -8.33635 3.03545 -5.49003
# Velocity P-wave (km/s) = 8.31583 6.59080 3.58570
#
# Compressibility (1/GPa) = 0.02294559
#
# Stress axis : x y z
#
# Youngs Moduli (GPa) = 30.91058 68.22920 67.32460
#
# Poissons Ratio (x) = 0.74927 0.21752
# Poissons Ratio (y) = 0.33945 0.35313
# Poissons Ratio (z) = 0.09987 0.35787
#
# Static dielectric constant tensor:
#      x y z
#    x 1.648730 0.000000 0.000000 
#    y 0.000000 1.645520 0.000000 
#    z 0.000000 0.000000 1.647960 
# 
# From -- ./inp_files/16796.got.cif
#   From: 2010.05.17/outbox.cif.g08.bks.cpg/sg46_9_cif.got.tgz:16796.got - 2010.06.03 19:58:25.
