data_PCOD9379630
_publ_section_title
;
Structure prediction by ZEFSAII (Michael W. Deem and Ramdas Pophale) SiO2 
 PCOD9379630
Probable space group: I M A 2
;
_chemical_formula_sum "Si O2"
_cell_formula_units_Z 64
_cell_length_a 8.585168
_cell_length_b 28.166287
_cell_length_c 15.003915
_cell_angle_alpha 90.000000
_cell_angle_beta 90.000000
_cell_angle_gamma 90.000000
_cell_volume 3628.131283
_symmetry_space_group_name_H-M "I M A 2"
_symmetry_group_IT_number 46
_symmetry_cell_setting 'orthorhombic'
loop_
_space_group_symop_operation_xyz
x,y,z
-x,-y,z
1/2-x,y,z
1/2+x,-y,z
1/2+x,1/2+y,1/2+z
1/2-x,1/2-y,1/2+z
-x,1/2+y,1/2+z
x,1/2-y,1/2+z
loop_
_atom_site_type_symbol
_atom_site_label
_atom_site_fract_x
_atom_site_fract_y
_atom_site_fract_z
Si Si1 0.437515 0.138833 0.622740
Si Si2 0.064218 0.862293 0.174009
Si Si3 0.436651 0.720196 0.995576
Si Si4 0.062434 0.052761 0.293068
Si Si5 0.436050 0.173552 0.995208
Si Si6 0.936726 0.780116 0.300264
Si Si7 0.936042 0.173705 0.801959
Si Si8 0.062653 0.052205 0.497946
O O1 0.250000 0.140396 0.625913
O O2 0.499362 0.184536 0.569332
O O3 0.505495 0.141053 0.721746
O O4 0.487679 0.092602 0.566751
O O5 0.250000 0.860622 0.169918
O O6 0.001732 0.816708 0.228394
O O7 0.007957 0.908512 0.227213
O O8 0.993803 0.859309 0.075196
O O9 0.250000 0.719767 0.993808
O O10 0.495902 0.773637 0.012101
O O11 0.503195 0.705813 0.898682
O O12 0.250000 0.219699 0.299005
O O13 0.016380 0.063890 0.395872
O O14 0.000000 0.000000 0.273784
O O15 0.250000 0.176331 0.993291
O O16 0.499007 0.158825 0.898309
O O17 0.250000 0.053625 0.287652
O O18 0.998171 0.726823 0.284571
O O19 0.750000 0.175957 0.804646
O O20 0.250000 0.050617 0.499264
O O21 0.000000 0.000000 0.519480
#
# Coordination Sequence:
#
# PCOD9379630 Si02
#       8
#     8   8   8   8   8   8   8   8
#     4  11  21  35  54  79 108 144 182 219 264 320
#     4  12  23  36  55  81 109 142 182 226 269 319
#     4  11  21  34  52  79 111 144 180 223 267 316
#     4  10  20  37  58  84 113 144 177 217 267 322
#     4  11  22  38  56  76 105 144 182 223 270 321
#     4  11  21  35  53  77 109 146 182 221 267 322
#     4  11  22  37  54  77 107 142 182 227 269 314
#     4   9  20  36  57  81 110 140 173 214 261 314
#
# _framework density 17.639935999999999
#
# number of rings (size 3 to 8) (size 9 to 14) (size 15 to 20)
#    0.000    1.250    0.000    9.375    0.000    2.500 
#    0.000    0.000    0.000    0.750    0.000    3.500 
#    0.000    0.000    0.000    0.000    0.000    0.000 
#
# Total GULP energy -178949.085665 kJ/mol
# GULP energy per Si atom -5592.158927 kJ/mol
# Density = 1.759979 g / cm^3
# Si number density = 17.639936 Si / 1000 Ang^3
#
#
#
# Elastic Constant Matrix: (Units=GPa)
#
#
# Indices 1 2 3 4 5 6 
#
# 1 136.3425 34.1949 55.3080 0.0001 0.0000 0.0000
# 2 34.1949 71.0957 85.2560 0.0000 0.0000 0.0000
# 3 55.3080 85.2560 153.8540 -0.0001 -0.0001 0.0000
# 4 0.0001 0.0000 -0.0001 30.1158 0.0000 0.0000
# 5 0.0000 0.0000 -0.0001 0.0000 27.7289 0.0000
# 6 0.0000 0.0000 0.0000 0.0000 0.0000 27.6435
#
#
#
# Elastic Compliance Matrix: (Units=1/GPa)
#
#
# Indices 1 2 3 4 5 6 
#
# 1 0.008626 -0.001283 -0.002390 0.000000 0.000000 0.000000
# 2 -0.001283 0.042115 -0.022877 0.000000 0.000000 0.000000
# 3 -0.002390 -0.022877 0.020036 0.000000 0.000000 0.000000
# 4 0.000000 0.000000 0.000000 0.033205 0.000000 0.000000
# 5 0.000000 0.000000 0.000000 0.000000 0.036064 0.000000
# 6 0.000000 0.000000 0.000000 0.000000 0.000000 0.036175
#
#
# Mechanical properties :
#
#
# Convention : Reuss Voigt Hill
#
# Bulk Modulus (GPa) = 56.56686 78.97890 67.77288
# Shear Modulus (GPa) = 21.25747 29.53318 25.39532
#
# Velocity S-wave (km/s) = 3.47519 4.09617 3.79839
# Velocity P-wave (km/s) = 6.94548 8.20009 7.59872
#
# Compressibility (1/GPa) = 0.01767819
#
# Stress axis : x y z
#
# Youngs Moduli (GPa) = 115.93277 23.74429 49.91117
#
# Poissons Ratio (x) = 0.03045 0.11929
# Poissons Ratio (y) = 0.14869 1.14180
# Poissons Ratio (z) = 0.27709 0.54319
#
# Static dielectric constant tensor:
#      x y z
#    x 1.587500 0.000000 0.000000 
#    y 0.000000 1.574870 0.000000 
#    z 0.000000 0.000000 1.612420 
# 
# From -- ./inp_files/14559.got.cif
#   From: 2010.05.17/outbox.cif.g08.bks.cpg/sg46_8_cif.got.tgz:14559.got - 2010.06.03 19:58:25.
