data_PCOD9379111
_publ_section_title
;
Structure prediction by ZEFSAII (Michael W. Deem and Ramdas Pophale) SiO2 
 PCOD9379111
Probable space group: I M A 2
;
_chemical_formula_sum "Si O2"
_cell_formula_units_Z 48
_cell_length_a 15.288787
_cell_length_b 16.260445
_cell_length_c 9.724501
_cell_angle_alpha 90.000000
_cell_angle_beta 90.000000
_cell_angle_gamma 90.000000
_cell_volume 2417.535067
_symmetry_space_group_name_H-M "I M A 2"
_symmetry_group_IT_number 46
_symmetry_cell_setting 'orthorhombic'
loop_
_space_group_symop_operation_xyz
x,y,z
-x,-y,z
1/2-x,y,z
1/2+x,-y,z
1/2+x,1/2+y,1/2+z
1/2-x,1/2-y,1/2+z
-x,1/2+y,1/2+z
x,1/2-y,1/2+z
loop_
_atom_site_type_symbol
_atom_site_label
_atom_site_fract_x
_atom_site_fract_y
_atom_site_fract_z
Si Si1 0.657519 0.162516 0.114590
Si Si2 0.966345 0.587578 0.054386
Si Si3 0.470133 0.085508 0.039383
Si Si4 0.432500 0.205166 0.807195
Si Si5 0.896846 0.202941 0.407418
Si Si6 0.852739 0.614458 0.796834
O O1 0.750000 0.120772 0.074241
O O2 0.563775 0.122326 0.083780
O O3 0.658404 0.174619 0.277955
O O4 0.651557 0.246300 0.025676
O O5 0.933482 0.650066 0.171231
O O6 0.000000 0.500000 0.107452
O O7 0.891165 0.579708 0.939383
O O8 0.047777 0.630731 0.977489
O O9 0.410084 0.075815 0.173789
O O10 0.500000 0.000000 0.972649
O O11 0.418190 0.145933 0.937504
O O12 0.529995 0.238886 0.835682
O O13 0.373385 0.286724 0.797207
O O14 0.750000 0.600206 0.781509
#
# Coordination Sequence:
#
# PCOD9379111 Si02
#       6
#     8   8   8   8   8   8
#     4  11  21  36  61  86 116 155 200 242 293 361
#     4  11  21  38  62  89 122 157 196 251 311 360
#     4  11  23  40  60  91 124 159 195 251 313 360
#     4  10  20  39  64  83 118 160 205 242 298 359
#     4  10  19  37  57  87 114 153 195 243 293 353
#     4  11  23  40  65  92 122 163 212 255 298 361
#
# _framework density 19.854934
#
# number of rings (size 3 to 8) (size 9 to 14) (size 15 to 20)
#    0.000    1.333    5.000    3.500    0.000    3.333 
#    0.000    0.833    0.000    2.000    0.000    0.000 
#    0.000    0.000    0.000    0.000    0.000    0.000 
#
# Total GULP energy -133875.409192 kJ/mol
# GULP energy per Si atom -5578.142050 kJ/mol
# Density = 1.980974 g / cm^3
# Si number density = 19.854934 Si / 1000 Ang^3
#
#
#
# Elastic Constant Matrix: (Units=GPa)
#
#
# Indices 1 2 3 4 5 6 
#
# 1 112.9082 -4.6568 9.0587 0.0000 0.0000 0.0000
# 2 -4.6568 43.2712 -2.1507 0.0000 0.0000 0.0000
# 3 9.0587 -2.1507 66.7063 0.0000 0.0000 0.0000
# 4 0.0000 0.0000 0.0000 15.8077 0.0000 0.0000
# 5 0.0000 0.0000 0.0000 0.0000 -50.2181 0.0000
# 6 0.0000 0.0000 0.0000 0.0000 0.0000 -1.1033
#
#
#
# Elastic Compliance Matrix: (Units=1/GPa)
#
#
# Indices 1 2 3 4 5 6 
#
# 1 0.008990 0.000908 -0.001192 0.000000 0.000000 0.000000
# 2 0.000908 0.023239 0.000626 0.000000 0.000000 0.000000
# 3 -0.001192 0.000626 0.015173 0.000000 0.000000 0.000000
# 4 0.000000 0.000000 0.000000 0.063260 0.000000 0.000000
# 5 0.000000 0.000000 0.000000 0.000000 -0.019913 0.000000
# 6 0.000000 0.000000 0.000000 0.000000 0.000000 -0.906384
#
#
# Mechanical properties :
#
#
# Convention : Reuss Voigt Hill
#
# Bulk Modulus (GPa) = 20.79558 25.26532 23.03045
# Shear Modulus (GPa) = -6.24772 7.60622 0.67925
#
# Velocity S-wave (km/s) = -1.77581 1.95939 0.58553
# Velocity P-wave (km/s) = 2.50835 4.22747 3.47587
#
# Compressibility (1/GPa) = 0.04808714
#
# Stress axis : x y z
#
# Youngs Moduli (GPa) = 111.23707 43.03124 65.90616
#
# Poissons Ratio (x) = -0.03908 0.07853
# Poissons Ratio (y) = -0.10103 -0.04125
# Poissons Ratio (z) = 0.13254 -0.02693
#
# Static dielectric constant tensor:
#      x y z
#    x 1.762880 0.000000 0.000000 
#    y 0.000000 1.763170 0.000000 
#    z 0.000000 0.000000 1.707490 
# 
# From -- ./inp_files/5703.got.cif
#   From: 2010.05.17/outbox.cif.g08.bks.cpg/sg46_3_cif.got.tgz:5703.got - 2010.06.03 19:58:25.
