data_PCOD9379934
_publ_section_title
;
Structure prediction by ZEFSAII (Michael W. Deem and Ramdas Pophale) SiO2 
 PCOD9379934
Probable space group: I M A 2
;
_chemical_formula_sum "Si O2"
_cell_formula_units_Z 56
_cell_length_a 14.883458
_cell_length_b 15.527854
_cell_length_c 10.323348
_cell_angle_alpha 90.000000
_cell_angle_beta 90.000000
_cell_angle_gamma 90.000000
_cell_volume 2385.809991
_symmetry_space_group_name_H-M "I M A 2"
_symmetry_group_IT_number 46
_symmetry_cell_setting 'orthorhombic'
loop_
_space_group_symop_operation_xyz
x,y,z
-x,-y,z
1/2-x,y,z
1/2+x,-y,z
1/2+x,1/2+y,1/2+z
1/2-x,1/2-y,1/2+z
-x,1/2+y,1/2+z
x,1/2-y,1/2+z
loop_
_atom_site_type_symbol
_atom_site_label
_atom_site_fract_x
_atom_site_fract_y
_atom_site_fract_z
Si Si1 0.250000 0.360849 0.182740
Si Si2 0.401213 0.009789 0.611856
Si Si3 0.609904 0.413480 0.480692
Si Si4 0.650726 0.157035 0.240345
Si Si5 0.360004 0.032013 0.325666
Si Si6 0.903294 0.895864 0.059247
Si Si7 0.851987 0.161946 0.708212
Si Si8 0.750000 0.726219 0.456359
O O1 0.164883 0.426339 0.188694
O O2 0.250000 0.290396 0.299671
O O3 0.250000 0.314394 0.040926
O O4 0.500000 0.000000 0.670481
O O5 0.399639 0.047847 0.467087
O O6 0.373446 0.909094 0.600412
O O7 0.658129 0.356001 0.586573
O O8 0.504670 0.394274 0.507089
O O9 0.632463 0.511783 0.511639
O O10 0.639127 0.392904 0.337748
O O11 0.750000 0.162265 0.303190
O O12 0.611803 0.066000 0.287691
O O13 0.599703 0.248238 0.245225
O O14 0.250000 0.035377 0.326678
O O15 0.395796 0.095895 0.214978
O O16 0.839261 0.822417 0.006177
O O17 0.750000 0.187551 0.682820
#
# Coordination Sequence:
#
# PCOD9379934 Si02
#       8
#     4   8   8   8   8   8   8   4
#     4  12  30  54  76 115 147 204 264 317 393 458
#     4  12  28  46  74 102 146 195 245 310 377 450
#     4  10  22  39  66  99 138 175 235 290 351 439
#     4   9  21  37  63 102 129 175 222 277 355 419
#     4  10  20  43  72 100 136 178 236 296 360 447
#     4  10  23  42  72 100 132 185 240 300 363 434
#     4  11  23  41  67  95 141 183 224 291 361 446
#     4  12  28  50  80 105 149 196 254 317 379 456
#
# _framework density 23.472111999999999
#
# number of rings (size 3 to 8) (size 9 to 14) (size 15 to 20)
#    0.000    1.429    2.143    1.286   14.000    1.143 
#    0.000    0.000    0.000    0.000    0.000    0.000 
#    0.000    0.000    0.000    0.000    0.000    0.000 
#
# Total GULP energy -156231.735739 kJ/mol
# GULP energy per Si atom -5579.704848 kJ/mol
# Density = 2.341869 g / cm^3
# Si number density = 23.472112 Si / 1000 Ang^3
#
#
#
# Elastic Constant Matrix: (Units=GPa)
#
#
# Indices 1 2 3 4 5 6 
#
# 1 92.3529 27.4705 -5.6238 0.0000 0.0000 0.0000
# 2 27.4705 83.6522 6.1442 0.0000 0.0000 0.0000
# 3 -5.6238 6.1442 91.3421 0.0000 0.0000 0.0000
# 4 0.0000 0.0000 0.0000 20.4518 0.0000 0.0000
# 5 0.0000 0.0000 0.0000 0.0000 -0.8531 0.0000
# 6 0.0000 0.0000 0.0000 0.0000 0.0000 11.9234
#
#
#
# Elastic Compliance Matrix: (Units=1/GPa)
#
#
# Indices 1 2 3 4 5 6 
#
# 1 0.012093 -0.004046 0.001017 0.000000 0.000000 0.000000
# 2 -0.004046 0.013367 -0.001148 0.000000 0.000000 0.000000
# 3 0.001017 -0.001148 0.011088 0.000000 0.000000 0.000000
# 4 0.000000 0.000000 0.000000 0.048895 0.000000 0.000000
# 5 0.000000 0.000000 0.000000 0.000000 -1.172190 0.000000
# 6 0.000000 0.000000 0.000000 0.000000 0.000000 0.083869
#
#
# Mechanical properties :
#
#
# Convention : Reuss Voigt Hill
#
# Bulk Modulus (GPa) = 35.46944 35.92543 35.69744
# Shear Modulus (GPa) = -5.07550 22.26151 8.59301
#
# Velocity S-wave (km/s) = -1.47209 3.08299 1.91543
# Velocity P-wave (km/s) = 3.50067 5.29263 4.48702
#
# Compressibility (1/GPa) = 0.02819328
#
# Stress axis : x y z
#
# Youngs Moduli (GPa) = 82.68938 74.80952 90.19010
#
# Poissons Ratio (x) = 0.30268 -0.09170
# Poissons Ratio (y) = 0.33456 0.10356
# Poissons Ratio (z) = -0.08407 0.08590
#
# Static dielectric constant tensor:
#      x y z
#    x 1.959660 0.000000 0.000000 
#    y 0.000000 2.020230 0.000000 
#    z 0.000000 0.000000 1.887880 
# 
# From -- ./inp_files/11175.got.cif
#   From: 2010.05.17/outbox.cif.g08.bks.cpg/sg46_6_cif.got.tgz:11175.got - 2010.06.03 19:58:25.
