data_PCOD9379398
_publ_section_title
;
Structure prediction by ZEFSAII (Michael W. Deem and Ramdas Pophale) SiO2 
 PCOD9379398
Probable space group: I M A 2
;
_chemical_formula_sum "Si O2"
_cell_formula_units_Z 48
_cell_length_a 8.490640
_cell_length_b 31.295048
_cell_length_c 10.212107
_cell_angle_alpha 90.000000
_cell_angle_beta 90.000000
_cell_angle_gamma 90.000000
_cell_volume 2713.509872
_symmetry_space_group_name_H-M "I M A 2"
_symmetry_group_IT_number 46
_symmetry_cell_setting 'orthorhombic'
loop_
_space_group_symop_operation_xyz
x,y,z
-x,-y,z
1/2-x,y,z
1/2+x,-y,z
1/2+x,1/2+y,1/2+z
1/2-x,1/2-y,1/2+z
-x,1/2+y,1/2+z
x,1/2-y,1/2+z
loop_
_atom_site_type_symbol
_atom_site_label
_atom_site_fract_x
_atom_site_fract_y
_atom_site_fract_z
Si Si1 0.440101 0.047064 0.498030
Si Si2 0.559185 0.213250 0.699534
Si Si3 0.441553 0.714313 0.499601
Si Si4 0.939051 0.618713 0.203330
Si Si5 0.938698 0.547152 0.697367
Si Si6 0.561074 0.382674 0.496226
O O1 0.250000 0.046420 0.499380
O O2 0.493417 0.083381 0.598787
O O3 0.490537 0.055602 0.347804
O O4 0.500000 0.000000 0.534760
O O5 0.750000 0.211953 0.696536
O O6 0.503418 0.249676 0.600022
O O7 0.497984 0.166050 0.666816
O O8 0.511554 0.222971 0.849423
O O9 0.250000 0.714876 0.503059
O O10 0.490424 0.665787 0.532020
O O11 0.750000 0.618728 0.206059
O O12 0.001006 0.608920 0.349096
O O13 0.750000 0.546798 0.694465
O O14 0.000000 0.500000 0.661489
O O15 0.000145 0.582787 0.598561
O O16 0.750000 0.383342 0.494222
#
# Coordination Sequence:
#
# PCOD9379398 Si02
#       6
#     8   8   8   8   8   8
#     4   9  20  36  54  75 102 133 169 210 255 304
#     4   9  17  32  51  72  98 132 171 212 253 301
#     4   8  16  30  49  71  97 127 165 208 250 295
#     4  10  20  35  52  75 106 138 170 212 259 305
#     4  10  20  36  55  77 104 135 170 213 259 308
#     4  10  20  35  54  78 105 137 174 213 256 307
#
# _framework density 17.689266
#
# number of rings (size 3 to 8) (size 9 to 14) (size 15 to 20)
#    0.000    2.667    0.000    2.500    0.000    4.000 
#    0.000    7.500    0.000    0.000    0.000    0.000 
#    0.000    0.000    0.000    0.000    0.000    0.000 
#
# Total GULP energy -133856.915003 kJ/mol
# GULP energy per Si atom -5577.371458 kJ/mol
# Density = 1.764900 g / cm^3
# Si number density = 17.689266 Si / 1000 Ang^3
#
#
#
# Elastic Constant Matrix: (Units=GPa)
#
#
# Indices 1 2 3 4 5 6 
#
# 1 30.1201 32.4214 28.8679 0.0000 0.0000 0.0000
# 2 32.4214 189.4004 146.4002 0.0000 0.0000 0.0000
# 3 28.8679 146.4002 131.9830 -0.0001 -0.0001 0.0001
# 4 0.0000 0.0000 -0.0001 45.5406 0.0000 0.0000
# 5 0.0000 0.0000 -0.0001 0.0000 16.4775 0.0000
# 6 0.0000 0.0000 0.0001 0.0000 0.0000 29.2252
#
#
#
# Elastic Compliance Matrix: (Units=1/GPa)
#
#
# Indices 1 2 3 4 5 6 
#
# 1 0.042017 -0.000623 -0.008499 0.000000 0.000000 0.000000
# 2 -0.000623 0.037035 -0.040944 0.000000 0.000000 0.000000
# 3 -0.008499 -0.040944 0.054853 0.000000 0.000000 0.000000
# 4 0.000000 0.000000 0.000000 0.021958 0.000000 0.000000
# 5 0.000000 0.000000 0.000000 0.000000 0.060689 0.000000
# 6 0.000000 0.000000 0.000000 0.000000 0.000000 0.034217
#
#
# Mechanical properties :
#
#
# Convention : Reuss Voigt Hill
#
# Bulk Modulus (GPa) = 29.61076 85.20918 57.40997
# Shear Modulus (GPa) = 13.80610 27.83628 20.82119
#
# Velocity S-wave (km/s) = 2.79674 3.97120 3.43454
# Velocity P-wave (km/s) = 5.21581 8.32477 6.94646
#
# Compressibility (1/GPa) = 0.03377151
#
# Stress axis : x y z
#
# Youngs Moduli (GPa) = 23.80012 27.00140 18.23059
#
# Poissons Ratio (x) = 0.01681 0.15495
# Poissons Ratio (y) = 0.01482 0.74644
# Poissons Ratio (z) = 0.20229 1.10556
#
# Static dielectric constant tensor:
#      x y z
#    x 1.605360 0.000000 0.000000 
#    y 0.000000 1.581180 0.000000 
#    z 0.000000 0.000000 1.593140 
# 
# From -- ./inp_files/3917.got.cif
#   From: 2010.05.17/outbox.cif.g08.bks.cpg/sg46_2_cif.got.tgz:3917.got - 2010.06.03 19:58:25.
