data_PCOD9379161
_publ_section_title
;
Structure prediction by ZEFSAII (Michael W. Deem and Ramdas Pophale) SiO2 
 PCOD9379161
Probable space group: I M A 2
;
_chemical_formula_sum "Si O2"
_cell_formula_units_Z 64
_cell_length_a 21.144999
_cell_length_b 9.836288
_cell_length_c 14.558964
_cell_angle_alpha 90.000000
_cell_angle_beta 90.000000
_cell_angle_gamma 90.000000
_cell_volume 3028.094171
_symmetry_space_group_name_H-M "I M A 2"
_symmetry_group_IT_number 46
_symmetry_cell_setting 'orthorhombic'
loop_
_space_group_symop_operation_xyz
x,y,z
-x,-y,z
1/2-x,y,z
1/2+x,-y,z
1/2+x,1/2+y,1/2+z
1/2-x,1/2-y,1/2+z
-x,1/2+y,1/2+z
x,1/2-y,1/2+z
loop_
_atom_site_type_symbol
_atom_site_label
_atom_site_fract_x
_atom_site_fract_y
_atom_site_fract_z
Si Si1 0.874663 0.750562 0.261000
Si Si2 0.818148 0.025980 0.280196
Si Si3 0.324516 0.012310 0.886386
Si Si4 0.075487 0.351846 0.077779
Si Si5 0.322854 0.616366 0.568635
Si Si6 0.026620 0.152701 0.390236
Si Si7 0.072064 0.671135 0.117791
Si Si8 0.597052 0.241833 0.830190
O O1 0.861782 0.618473 0.322950
O O2 0.880486 0.718005 0.153441
O O3 0.940144 0.819123 0.293664
O O4 0.824224 0.865183 0.284999
O O5 0.750000 0.072536 0.314539
O O6 0.823574 0.063376 0.172756
O O7 0.872969 0.108175 0.330325
O O8 0.250000 0.028930 0.868974
O O9 0.349797 0.863604 0.859677
O O10 0.335295 0.005286 0.996312
O O11 0.083989 0.513099 0.094687
O O12 0.002173 0.310620 0.096497
O O13 0.078591 0.323086 0.969434
O O14 0.250000 0.664725 0.550321
O O15 0.376855 0.732701 0.566517
O O16 0.966246 0.252714 0.390644
O O17 0.000000 0.000000 0.400520
O O18 0.080219 0.700887 0.225904
#
# Coordination Sequence:
#
# PCOD9379161 Si02
#       8
#     8   8   8   8   8   8   8   8
#     4  12  25  41  65  96 132 171 211 266 333 391
#     4  10  22  41  65  90 127 174 215 262 324 392
#     4  11  24  41  64  96 131 165 216 273 323 388
#     4  11  23  40  61  91 134 168 205 267 329 379
#     4   9  21  40  63  91 124 167 220 271 317 381
#     4  12  24  40  65  94 126 171 216 266 320 390
#     4  10  19  39  62  87 128 161 206 266 319 383
#     4  11  21  40  66  93 125 167 221 263 320 386
#
# _framework density 21.135407000000001
#
# number of rings (size 3 to 8) (size 9 to 14) (size 15 to 20)
#    0.000    1.250    5.000    1.500    1.750    1.000 
#    0.000    0.000    0.000    0.750    0.000    0.000 
#    0.000    0.000    0.000    0.000    0.000    0.000 
#
# Total GULP energy -178552.623347 kJ/mol
# GULP energy per Si atom -5579.769480 kJ/mol
# Density = 2.108730 g / cm^3
# Si number density = 21.135407 Si / 1000 Ang^3
#
#
#
# Elastic Constant Matrix: (Units=GPa)
#
#
# Indices 1 2 3 4 5 6 
#
# 1 54.7713 21.2352 13.2262 0.0000 0.0000 0.0000
# 2 21.2352 81.2772 18.9768 0.0000 0.0000 0.0000
# 3 13.2262 18.9768 67.6681 0.0000 0.0000 0.0000
# 4 0.0000 0.0000 0.0000 22.3945 0.0000 0.0000
# 5 0.0000 0.0000 0.0000 0.0000 28.6315 0.0000
# 6 0.0000 0.0000 0.0000 0.0000 0.0000 29.6949
#
#
#
# Elastic Compliance Matrix: (Units=1/GPa)
#
#
# Indices 1 2 3 4 5 6 
#
# 1 0.020772 -0.004793 -0.002716 0.000000 0.000000 0.000000
# 2 -0.004793 0.014272 -0.003066 0.000000 0.000000 0.000000
# 3 -0.002716 -0.003066 0.016169 0.000000 0.000000 0.000000
# 4 0.000000 0.000000 0.000000 0.044654 0.000000 0.000000
# 5 0.000000 0.000000 0.000000 0.000000 0.034927 0.000000
# 6 0.000000 0.000000 0.000000 0.000000 0.000000 0.033676
#
#
# Mechanical properties :
#
#
# Convention : Reuss Voigt Hill
#
# Bulk Modulus (GPa) = 33.26311 34.51033 33.88672
# Shear Modulus (GPa) = 25.55742 26.16272 25.86007
#
# Velocity S-wave (km/s) = 3.48116 3.52214 3.50171
# Velocity P-wave (km/s) = 5.65068 5.73623 5.69362
#
# Compressibility (1/GPa) = 0.03006334
#
# Stress axis : x y z
#
# Youngs Moduli (GPa) = 48.14211 70.06940 61.84856
#
# Poissons Ratio (x) = 0.33584 0.16797
# Poissons Ratio (y) = 0.23074 0.18960
# Poissons Ratio (z) = 0.13075 0.21480
#
# Static dielectric constant tensor:
#      x y z
#    x 1.755530 0.000000 0.000000 
#    y 0.000000 1.736400 0.000000 
#    z 0.000000 0.000000 1.811780 
# 
# From -- ./inp_files/17392.got.cif
#   From: 2010.05.17/outbox.cif.g08.bks.cpg/sg46_9_cif.got.tgz:17392.got - 2010.06.03 19:58:25.
