data_PCOD9379645
_publ_section_title
;
Structure prediction by ZEFSAII (Michael W. Deem and Ramdas Pophale) SiO2 
 PCOD9379645
Probable space group: I M A 2
;
_chemical_formula_sum "Si O2"
_cell_formula_units_Z 60
_cell_length_a 18.677418
_cell_length_b 12.358254
_cell_length_c 15.078751
_cell_angle_alpha 90.000000
_cell_angle_beta 90.000000
_cell_angle_gamma 90.000000
_cell_volume 3480.481463
_symmetry_space_group_name_H-M "I M A 2"
_symmetry_group_IT_number 46
_symmetry_cell_setting 'orthorhombic'
loop_
_space_group_symop_operation_xyz
x,y,z
-x,-y,z
1/2-x,y,z
1/2+x,-y,z
1/2+x,1/2+y,1/2+z
1/2-x,1/2-y,1/2+z
-x,1/2+y,1/2+z
x,1/2-y,1/2+z
loop_
_atom_site_type_symbol
_atom_site_label
_atom_site_fract_x
_atom_site_fract_y
_atom_site_fract_z
Si Si1 0.461782 0.115855 0.604520
Si Si2 0.500000 0.000000 0.171117
Si Si3 0.832900 0.260814 0.180569
Si Si4 0.023049 0.726300 0.756580
Si Si5 0.333414 0.060624 0.907779
Si Si6 0.831975 0.516700 0.201048
Si Si7 0.898413 0.397951 0.538686
Si Si8 0.034692 0.214255 0.948766
O O1 0.500886 0.188337 0.679861
O O2 0.384152 0.088786 0.643151
O O3 0.458696 0.183722 0.514252
O O4 0.500000 0.000000 0.593454
O O5 0.495298 0.109046 0.227139
O O6 0.570294 0.017260 0.110556
O O7 0.750000 0.233922 0.199037
O O8 0.890387 0.225981 0.255104
O O9 0.838062 0.390677 0.174250
O O10 0.859787 0.198167 0.092558
O O11 0.990562 0.756473 0.850290
O O12 0.250000 0.093632 0.913636
O O13 0.349568 0.030067 0.805437
O O14 0.391085 0.148968 0.940025
O O15 0.347461 0.956392 0.969157
O O16 0.750000 0.549677 0.189354
O O17 0.970250 0.356424 0.490466
#
# Coordination Sequence:
#
# PCOD9379645 Si02
#       8
#     8   4   8   8   8   8   8   8
#     4  12  22  39  62  92 114 159 205 245 298 364
#     4  10  20  38  56  84 120 156 198 244 304 348
#     4  10  20  37  59  88 123 154 194 251 310 356
#     4  11  22  38  61  87 120 158 199 249 292 363
#     4  11  22  36  59  91 122 158 205 253 303 360
#     4  10  21  37  58  85 121 160 199 248 304 361
#     4  11  19  36  59  88 118 156 202 253 302 360
#     4  12  23  37  62  90 119 157 206 252 298 359
#
# _framework density 17.238994000000002
#
# number of rings (size 3 to 8) (size 9 to 14) (size 15 to 20)
#    0.000    1.067    6.667    1.200    0.933    0.533 
#    0.000    0.667    0.000    4.000    0.000    0.000 
#    0.000    0.000    0.000    0.000    0.000    0.000 
#
# Total GULP energy -167415.082369 kJ/mol
# GULP energy per Si atom -5580.502746 kJ/mol
# Density = 1.719976 g / cm^3
# Si number density = 17.238994 Si / 1000 Ang^3
#
#
#
# Elastic Constant Matrix: (Units=GPa)
#
#
# Indices 1 2 3 4 5 6 
#
# 1 115.8440 58.4496 54.1126 0.0000 0.0000 0.0000
# 2 58.4496 105.8933 56.8959 0.0000 0.0000 0.0000
# 3 54.1126 56.8959 104.2209 0.0000 0.0000 0.0000
# 4 0.0000 0.0000 0.0000 21.9653 0.0000 0.0000
# 5 0.0000 0.0000 0.0000 0.0000 25.4056 0.0000
# 6 0.0000 0.0000 0.0000 0.0000 0.0000 27.1052
#
#
#
# Elastic Compliance Matrix: (Units=1/GPa)
#
#
# Indices 1 2 3 4 5 6 
#
# 1 0.013058 -0.005044 -0.004026 0.000000 0.000000 0.000000
# 2 -0.005044 0.015312 -0.005740 0.000000 0.000000 0.000000
# 3 -0.004026 -0.005740 0.014819 0.000000 0.000000 0.000000
# 4 0.000000 0.000000 0.000000 0.045526 0.000000 0.000000
# 5 0.000000 0.000000 0.000000 0.000000 0.039361 0.000000
# 6 0.000000 0.000000 0.000000 0.000000 0.000000 0.036893
#
#
# Mechanical properties :
#
#
# Convention : Reuss Voigt Hill
#
# Bulk Modulus (GPa) = 73.70245 73.87495 73.78870
# Shear Modulus (GPa) = 25.11132 25.32855 25.21994
#
# Velocity S-wave (km/s) = 3.82076 3.83725 3.82901
# Velocity P-wave (km/s) = 7.89369 7.91069 7.90220
#
# Compressibility (1/GPa) = 0.01356807
#
# Stress axis : x y z
#
# Youngs Moduli (GPa) = 76.58049 65.30899 67.48160
#
# Poissons Ratio (x) = 0.32945 0.27169
# Poissons Ratio (y) = 0.38631 0.38733
# Poissons Ratio (z) = 0.30832 0.37486
#
# Static dielectric constant tensor:
#      x y z
#    x 1.592770 0.000000 0.000000 
#    y 0.000000 1.580990 0.000000 
#    z 0.000000 0.000000 1.579210 
# 
# From -- ./inp_files/16709.got.cif
#   From: 2010.05.17/outbox.cif.g08.bks.cpg/sg46_9_cif.got.tgz:16709.got - 2010.06.03 19:58:25.
