data_PCOD9379595
_publ_section_title
;
Structure prediction by ZEFSAII (Michael W. Deem and Ramdas Pophale) SiO2 
 PCOD9379595
Probable space group: I M A 2
;
_chemical_formula_sum "Si O2"
_cell_formula_units_Z 60
_cell_length_a 19.732213
_cell_length_b 5.058726
_cell_length_c 28.913912
_cell_angle_alpha 90.000000
_cell_angle_beta 90.000000
_cell_angle_gamma 90.000000
_cell_volume 2886.182617
_symmetry_space_group_name_H-M "I M A 2"
_symmetry_group_IT_number 46
_symmetry_cell_setting 'orthorhombic'
loop_
_space_group_symop_operation_xyz
x,y,z
-x,-y,z
1/2-x,y,z
1/2+x,-y,z
1/2+x,1/2+y,1/2+z
1/2-x,1/2-y,1/2+z
-x,1/2+y,1/2+z
x,1/2-y,1/2+z
loop_
_atom_site_type_symbol
_atom_site_label
_atom_site_fract_x
_atom_site_fract_y
_atom_site_fract_z
Si Si1 0.175250 0.030722 0.728960
Si Si2 0.328095 0.758105 0.082171
Si Si3 0.080211 0.508470 0.442515
Si Si4 0.500000 0.000000 0.231717
Si Si5 0.867648 0.004022 0.283634
Si Si6 0.431622 0.897877 0.659487
Si Si7 0.580863 0.512802 0.883171
Si Si8 0.827866 0.739581 0.020608
O O1 0.250000 0.995709 0.708192
O O2 0.154514 0.766754 0.756591
O O3 0.118976 0.085034 0.689181
O O4 0.177507 0.265637 0.765743
O O5 0.250000 0.694979 0.095450
O O6 0.381461 0.734715 0.123260
O O7 0.346427 0.546830 0.041563
O O8 0.328788 0.053821 0.062883
O O9 0.092390 0.311087 0.399620
O O10 0.123899 0.377050 0.483114
O O11 0.000000 0.500000 0.454334
O O12 0.095753 0.803805 0.424446
O O13 0.558768 0.907043 0.265671
O O14 0.465646 0.788508 0.198103
O O15 0.875540 0.049274 0.337919
O O16 0.500000 0.000000 0.634799
O O17 0.500000 0.500000 0.873372
O O18 0.750000 0.723478 0.003128
#
# Coordination Sequence:
#
# PCOD9379595 Si02
#       8
#     8   8   8   4   8   8   8   8
#     4  11  24  40  59  85 124 167 202 252 303 361
#     4  10  23  40  63  87 120 161 202 246 303 367
#     4  10  21  37  61  90 120 149 199 249 307 360
#     4  10  22  38  60  94 122 160 206 250 306 348
#     4  11  21  39  63  86 124 161 209 245 300 369
#     4  11  23  39  61  92 122 156 208 255 301 360
#     4  10  20  36  60  91 119 156 195 252 306 362
#     4  10  22  42  62  86 118 162 200 241 306 372
#
# _framework density 20.788706000000001
#
# number of rings (size 3 to 8) (size 9 to 14) (size 15 to 20)
#    0.000    1.600    2.000    2.400    1.867    1.067 
#    0.000    6.667    0.000    0.000    0.000    0.000 
#    0.000    0.000    0.000    0.000    0.000    0.000 
#
# Total GULP energy -167346.118918 kJ/mol
# GULP energy per Si atom -5578.203964 kJ/mol
# Density = 2.074139 g / cm^3
# Si number density = 20.788706 Si / 1000 Ang^3
#
#
#
# Elastic Constant Matrix: (Units=GPa)
#
#
# Indices 1 2 3 4 5 6 
#
# 1 103.7037 -5.6024 23.0085 0.0000 0.0000 0.0000
# 2 -5.6024 68.3479 -14.9016 0.0000 0.0000 0.0000
# 3 23.0085 -14.9016 37.2140 0.0000 0.0000 0.0000
# 4 0.0000 0.0000 0.0000 -1.7812 0.0000 0.0000
# 5 0.0000 0.0000 0.0000 0.0000 6.6930 0.0000
# 6 0.0000 0.0000 0.0000 0.0000 0.0000 22.2814
#
#
#
# Elastic Compliance Matrix: (Units=1/GPa)
#
#
# Indices 1 2 3 4 5 6 
#
# 1 0.011202 -0.000648 -0.007186 0.000000 0.000000 0.000000
# 2 -0.000648 0.016068 0.006835 0.000000 0.000000 0.000000
# 3 -0.007186 0.006835 0.034051 0.000000 0.000000 0.000000
# 4 0.000000 0.000000 0.000000 -0.561407 0.000000 0.000000
# 5 0.000000 0.000000 0.000000 0.000000 0.149409 0.000000
# 6 0.000000 0.000000 0.000000 0.000000 0.000000 0.044881
#
#
# Mechanical properties :
#
#
# Convention : Reuss Voigt Hill
#
# Bulk Modulus (GPa) = 16.85673 23.80829 20.33251
# Shear Modulus (GPa) = -17.60423 19.22270 0.80924
#
# Velocity S-wave (km/s) = -2.91317 3.04414 0.62459
# Velocity P-wave (km/s) = 1.78583 4.88191 3.21278
#
# Compressibility (1/GPa) = 0.05932349
#
# Stress axis : x y z
#
# Youngs Moduli (GPa) = 89.26907 62.23511 29.36745
#
# Poissons Ratio (x) = 0.04036 0.21102
# Poissons Ratio (y) = 0.05789 -0.20073
# Poissons Ratio (z) = 0.64146 -0.42538
#
# Static dielectric constant tensor:
#      x y z
#    x 1.780490 0.000000 0.000000 
#    y 0.000000 1.751090 0.000000 
#    z 0.000000 0.000000 1.726750 
# 
# From -- ./inp_files/24690.got.cif
#   From: 2010.05.17/outbox.cif.g08.bks.cpg/sg46_13_cif.got.tgz:24690.got - 2010.06.03 19:58:25.
