data_PCOD9379653
_publ_section_title
;
Structure prediction by ZEFSAII (Michael W. Deem and Ramdas Pophale) SiO2 
 PCOD9379653
Probable space group: I M A 2
;
_chemical_formula_sum "Si O2"
_cell_formula_units_Z 64
_cell_length_a 21.379357
_cell_length_b 9.109866
_cell_length_c 16.621096
_cell_angle_alpha 90.000000
_cell_angle_beta 90.000000
_cell_angle_gamma 90.000000
_cell_volume 3237.175807
_symmetry_space_group_name_H-M "I M A 2"
_symmetry_group_IT_number 46
_symmetry_cell_setting 'orthorhombic'
loop_
_space_group_symop_operation_xyz
x,y,z
-x,-y,z
1/2-x,y,z
1/2+x,-y,z
1/2+x,1/2+y,1/2+z
1/2-x,1/2-y,1/2+z
-x,1/2+y,1/2+z
x,1/2-y,1/2+z
loop_
_atom_site_type_symbol
_atom_site_label
_atom_site_fract_x
_atom_site_fract_y
_atom_site_fract_z
Si Si1 0.678069 0.677276 0.100070
Si Si2 0.823023 0.838702 0.930375
Si Si3 0.386848 0.895234 0.026219
Si Si4 0.386123 0.055541 0.185623
Si Si5 0.066237 0.682035 0.900758
Si Si6 0.821091 0.137015 0.616845
Si Si7 0.820650 0.201096 0.278825
Si Si8 0.929734 0.645214 0.852352
O O1 0.750000 0.672019 0.129116
O O2 0.643860 0.795089 0.154769
O O3 0.646470 0.517836 0.101700
O O4 0.679206 0.736019 0.009343
O O5 0.750000 0.857251 0.902581
O O6 0.871939 0.754991 0.871307
O O7 0.852711 0.990042 0.966031
O O8 0.340680 0.777602 0.066503
O O9 0.412900 0.980130 0.104777
O O10 0.431580 0.787034 0.977711
O O11 0.429784 0.090191 0.260478
O O12 0.335545 0.946626 0.227584
O O13 0.125504 0.721548 0.844411
O O14 0.073672 0.504158 0.906744
O O15 0.997889 0.711821 0.865329
O O16 0.750000 0.111968 0.592717
O O17 0.824576 0.173922 0.711071
O O18 0.750000 0.195203 0.311807
#
# Coordination Sequence:
#
# PCOD9379653 Si02
#       8
#     8   8   8   8   8   8   8   8
#     4   9  17  31  53  83 116 151 196 251 302 353
#     4  10  21  36  57  86 117 152 199 251 304 360
#     4  10  20  37  60  85 117 157 203 253 304 359
#     4   9  19  36  58  82 116 158 203 250 302 361
#     4  10  22  39  59  84 119 157 199 249 301 359
#     4   9  17  31  53  82 116 152 195 249 303 355
#     4   9  18  33  54  81 113 153 198 246 304 362
#     4  10  22  41  60  85 122 162 201 249 304 363
#
# _framework density 19.770320999999999
#
# number of rings (size 3 to 8) (size 9 to 14) (size 15 to 20)
#    0.000    2.500    0.000    1.500    0.000    8.000 
#    0.000   15.000    0.000    1.500    0.000    0.000 
#    0.000    0.000    0.000    0.000    0.000    0.000 
#
# Total GULP energy -178142.370348 kJ/mol
# GULP energy per Si atom -5566.949073 kJ/mol
# Density = 1.972532 g / cm^3
# Si number density = 19.770321 Si / 1000 Ang^3
#
#
#
# Elastic Constant Matrix: (Units=GPa)
#
#
# Indices 1 2 3 4 5 6 
#
# 1 99.1248 16.1855 52.8370 0.0000 0.0000 0.0000
# 2 16.1855 80.2630 45.5785 0.0000 0.0000 0.0000
# 3 52.8370 45.5785 74.4937 0.0000 0.0000 0.0000
# 4 0.0000 0.0000 0.0000 20.3944 0.0000 0.0000
# 5 0.0000 0.0000 0.0000 0.0000 12.6780 0.0000
# 6 0.0000 0.0000 0.0000 0.0000 0.0000 -3.3559
#
#
#
# Elastic Compliance Matrix: (Units=1/GPa)
#
#
# Indices 1 2 3 4 5 6 
#
# 1 0.017645 0.005438 -0.015843 0.000000 0.000000 0.000000
# 2 0.005438 0.020769 -0.016564 0.000000 0.000000 0.000000
# 3 -0.015843 -0.016564 0.034796 0.000000 0.000000 0.000000
# 4 0.000000 0.000000 0.000000 0.049033 0.000000 0.000000
# 5 0.000000 0.000000 0.000000 0.000000 0.078877 0.000000
# 6 0.000000 0.000000 0.000000 0.000000 0.000000 -0.297980
#
#
# Mechanical properties :
#
#
# Convention : Reuss Voigt Hill
#
# Bulk Modulus (GPa) = 51.88946 53.67594 52.78270
# Shear Modulus (GPa) = -136.99089 15.22865 -60.88112
#
# Velocity S-wave (km/s) = -8.33316 2.77840 -5.55527
# Velocity P-wave (km/s) = 8.14160 6.12384 3.79370
#
# Compressibility (1/GPa) = 0.01927174
#
# Stress axis : x y z
#
# Youngs Moduli (GPa) = 56.67340 48.14930 28.73925
#
# Poissons Ratio (x) = -0.26185 0.45530
# Poissons Ratio (y) = -0.30820 0.47605
# Poissons Ratio (z) = 0.89785 0.79757
#
# Static dielectric constant tensor:
#      x y z
#    x 1.695070 0.000000 0.000000 
#    y 0.000000 1.748090 0.000000 
#    z 0.000000 0.000000 1.711770 
# 
# From -- ./inp_files/17442.got.cif
#   From: 2010.05.17/outbox.cif.g08.bks.cpg/sg46_9_cif.got.tgz:17442.got - 2010.06.03 19:58:25.
