data_PCOD9379597
_publ_section_title
;
Structure prediction by ZEFSAII (Michael W. Deem and Ramdas Pophale) SiO2 
 PCOD9379597
Probable space group: I M A 2
;
_chemical_formula_sum "Si O2"
_cell_formula_units_Z 64
_cell_length_a 29.119557
_cell_length_b 12.617470
_cell_length_c 8.907116
_cell_angle_alpha 90.000000
_cell_angle_beta 90.000000
_cell_angle_gamma 90.000000
_cell_volume 3272.609244
_symmetry_space_group_name_H-M "I M A 2"
_symmetry_group_IT_number 46
_symmetry_cell_setting 'orthorhombic'
loop_
_space_group_symop_operation_xyz
x,y,z
-x,-y,z
1/2-x,y,z
1/2+x,-y,z
1/2+x,1/2+y,1/2+z
1/2-x,1/2-y,1/2+z
-x,1/2+y,1/2+z
x,1/2-y,1/2+z
loop_
_atom_site_type_symbol
_atom_site_label
_atom_site_fract_x
_atom_site_fract_y
_atom_site_fract_z
Si Si1 0.896437 0.134853 0.775720
Si Si2 0.639001 0.900530 0.229302
Si Si3 0.081224 0.393049 0.235006
Si Si4 0.027277 0.391365 0.716922
Si Si5 0.802124 0.105493 0.268955
Si Si6 0.158866 0.749554 0.024691
Si Si7 0.372762 0.256166 0.985188
Si Si8 0.998075 0.184718 0.883797
O O1 0.881529 0.199974 0.627940
O O2 0.945290 0.169786 0.842329
O O3 0.899004 0.010688 0.737566
O O4 0.860670 0.164937 0.906644
O O5 0.582814 0.907110 0.219057
O O6 0.652453 0.841793 0.383203
O O7 0.662462 0.013401 0.225221
O O8 0.653873 0.820969 0.097161
O O9 0.102667 0.323354 0.369964
O O10 0.027761 0.390222 0.273461
O O11 0.093322 0.326666 0.087405
O O12 0.013295 0.303410 0.839051
O O13 0.010609 0.348047 0.553791
O O14 0.000000 0.500000 0.744189
O O15 0.750000 0.067185 0.277996
O O16 0.807031 0.194576 0.140547
O O17 0.817944 0.158525 0.424875
#
# Coordination Sequence:
#
# PCOD9379597 Si02
#       8
#     8   8   8   8   8   8   8   8
#     4  11  23  37  60  91 124 168 210 254 303 366
#     4  11  21  41  63  88 121 169 205 262 312 373
#     4  11  19  36  53  83 119 168 206 252 289 356
#     4  12  25  40  58  87 126 175 213 258 305 365
#     4  11  24  44  70  96 121 160 209 264 330 387
#     4  10  24  42  64  91 128 157 204 261 322 376
#     4  10  20  36  61  82 119 158 212 243 313 362
#     4  12  23  38  58  87 131 169 220 251 298 358
#
# _framework density 19.556260000000002
#
# number of rings (size 3 to 8) (size 9 to 14) (size 15 to 20)
#    0.000    1.000    3.750    3.750    5.250    0.000 
#    2.250    1.250    0.000    0.000    0.000    0.000 
#    0.000    0.000    0.000    0.000    0.000    0.000 
#
# Total GULP energy -178746.823525 kJ/mol
# GULP energy per Si atom -5585.838235 kJ/mol
# Density = 1.951175 g / cm^3
# Si number density = 19.556260 Si / 1000 Ang^3
#
#
#
# Elastic Constant Matrix: (Units=GPa)
#
#
# Indices 1 2 3 4 5 6 
#
# 1 67.3433 31.5772 15.8917 0.0000 0.0000 0.0000
# 2 31.5772 131.0761 37.1701 0.0000 0.0000 0.0000
# 3 15.8917 37.1701 102.1018 0.0000 0.0000 0.0000
# 4 0.0000 0.0000 0.0000 21.7922 0.0000 0.0000
# 5 0.0000 0.0000 0.0000 0.0000 7.2549 0.0000
# 6 0.0000 0.0000 0.0000 0.0000 0.0000 15.2864
#
#
#
# Elastic Compliance Matrix: (Units=1/GPa)
#
#
# Indices 1 2 3 4 5 6 
#
# 1 0.016889 -0.003706 -0.001280 0.000000 0.000000 0.000000
# 2 -0.003706 0.009321 -0.002816 0.000000 0.000000 0.000000
# 3 -0.001280 -0.002816 0.011019 0.000000 0.000000 0.000000
# 4 0.000000 0.000000 0.000000 0.045888 0.000000 0.000000
# 5 0.000000 0.000000 0.000000 0.000000 0.137837 0.000000
# 6 0.000000 0.000000 0.000000 0.000000 0.000000 0.065418
#
#
# Mechanical properties :
#
#
# Convention : Reuss Voigt Hill
#
# Bulk Modulus (GPa) = 46.24372 52.19994 49.22183
# Shear Modulus (GPa) = 16.17166 23.25884 19.71525
#
# Velocity S-wave (km/s) = 2.87876 3.45241 3.17855
# Velocity P-wave (km/s) = 5.89470 6.53011 6.22052
#
# Compressibility (1/GPa) = 0.02162456
#
# Stress axis : x y z
#
# Youngs Moduli (GPa) = 59.21056 107.28964 90.75564
#
# Poissons Ratio (x) = 0.39759 0.11613
# Poissons Ratio (y) = 0.21942 0.25560
# Poissons Ratio (z) = 0.07577 0.30217
#
# Static dielectric constant tensor:
#      x y z
#    x 1.678660 0.000000 0.000000 
#    y 0.000000 1.687060 0.000000 
#    z 0.000000 0.000000 1.714690 
# 
# From -- ./inp_files/8492.got.cif
#   From: 2010.05.17/outbox.cif.g08.bks.cpg/sg46_5_cif.got.tgz:8492.got - 2010.06.03 19:58:25.
