data_PCOD9379107
_publ_section_title
;
Structure prediction by ZEFSAII (Michael W. Deem and Ramdas Pophale) SiO2 
 PCOD9379107
Probable space group: I M A 2
;
_chemical_formula_sum "Si O2"
_cell_formula_units_Z 32
_cell_length_a 8.334183
_cell_length_b 29.599808
_cell_length_c 5.234656
_cell_angle_alpha 90.000000
_cell_angle_beta 90.000000
_cell_angle_gamma 90.000000
_cell_volume 1291.338423
_symmetry_space_group_name_H-M "I M A 2"
_symmetry_group_IT_number 46
_symmetry_cell_setting 'orthorhombic'
loop_
_space_group_symop_operation_xyz
x,y,z
-x,-y,z
1/2-x,y,z
1/2+x,-y,z
1/2+x,1/2+y,1/2+z
1/2-x,1/2-y,1/2+z
-x,1/2+y,1/2+z
x,1/2-y,1/2+z
loop_
_atom_site_type_symbol
_atom_site_label
_atom_site_fract_x
_atom_site_fract_y
_atom_site_fract_z
Si Si1 0.927173 0.852842 0.520980
Si Si2 0.750000 0.132498 0.649286
Si Si3 0.750000 0.072990 0.134315
Si Si4 0.565906 0.956625 0.378852
Si Si5 0.441770 0.224720 0.161094
O O1 0.750000 0.838658 0.614834
O O2 0.927383 0.907217 0.507164
O O3 0.954330 0.827607 0.250037
O O4 0.084334 0.841263 0.679967
O O5 0.750000 0.110769 0.363105
O O6 0.750000 0.093451 0.856138
O O7 0.579550 0.048072 0.176146
O O8 0.750000 0.964051 0.293578
O O9 0.500000 0.000000 0.536430
O O10 0.250000 0.231427 0.142573
O O11 0.505362 0.246705 0.902953
#
# Coordination Sequence:
#
# PCOD9379107 Si02
#       5
#     8   4   4   8   8
#     4   9  20  38  63  95 126 169 211 261 319 379
#     4  10  22  40  62  89 124 160 204 255 312 370
#     4  10  22  40  60  89 124 162 204 257 310 366
#     4  10  19  36  65  92 128 167 216 262 317 378
#     4   9  18  34  58  88 122 160 205 257 312 374
#
# _framework density 24.780488999999999
#
# number of rings (size 3 to 8) (size 9 to 14) (size 15 to 20)
#    0.000    2.500    1.250    0.000    0.000    5.000 
#    0.000   13.750    0.000    0.000    0.000    0.000 
#    0.000    0.000    0.000    0.000    0.000    0.000 
#
# Total GULP energy -89118.225098 kJ/mol
# GULP energy per Si atom -5569.889069 kJ/mol
# Density = 2.472409 g / cm^3
# Si number density = 24.780489 Si / 1000 Ang^3
#
#
#
# Elastic Constant Matrix: (Units=GPa)
#
#
# Indices 1 2 3 4 5 6 
#
# 1 226.5290 18.9950 21.2499 -0.0135 0.0024 -0.0029
# 2 18.9950 154.6528 29.5840 -0.0066 0.0025 -0.0018
# 3 21.2499 29.5840 68.6958 -0.0803 0.0350 -0.0132
# 4 -0.0135 -0.0066 -0.0803 21.9338 -0.0120 0.0010
# 5 0.0024 0.0025 0.0350 -0.0120 1.1492 -0.0036
# 6 -0.0029 -0.0018 -0.0132 0.0010 -0.0036 20.1578
#
#
#
# Elastic Compliance Matrix: (Units=1/GPa)
#
#
# Indices 1 2 3 4 5 6 
#
# 1 0.004561 -0.000316 -0.001275 -0.000002 0.000030 0.000000
# 2 -0.000316 0.007069 -0.002946 -0.000009 0.000075 -0.000001
# 3 -0.001275 -0.002946 0.016220 0.000057 -0.000484 0.000010
# 4 -0.000002 -0.000009 0.000057 0.045592 0.000476 -0.000002
# 5 0.000030 0.000075 -0.000484 0.000476 0.870186 0.000155
# 6 0.000000 -0.000001 0.000010 -0.000002 0.000155 0.049609
#
#
# Mechanical properties :
#
#
# Convention : Reuss Voigt Hill
#
# Bulk Modulus (GPa) = 53.26191 65.50393 59.38292
# Shear Modulus (GPa) = 4.95752 33.98473 19.47112
#
# Velocity S-wave (km/s) = 1.41595 3.70730 2.80615
# Velocity P-wave (km/s) = 4.92071 6.69451 5.87494
#
# Compressibility (1/GPa) = 0.01877514
#
# Stress axis : x y z
#
# Youngs Moduli (GPa) = 219.27289 141.47171 61.65108
#
# Poissons Ratio (x) = 0.04475 0.07857
# Poissons Ratio (y) = 0.06936 0.18164
# Poissons Ratio (z) = 0.27946 0.41682
#
# Static dielectric constant tensor:
#      x y z
#    x 2.014000 0.000000 -0.000010 
#    y 0.000000 2.075130 0.000000 
#    z -0.000010 0.000000 1.935160 
# 
# From -- ./inp_files/414.got.cif
#   From: 2010.05.17/outbox.cif.g08.bks.cpg/sg46_1_cif.got.tgz:414.got - 2010.06.03 19:58:25.
