data_PCOD9379128
_publ_section_title
;
Structure prediction by ZEFSAII (Michael W. Deem and Ramdas Pophale) SiO2 
 PCOD9379128
Probable space group: I M A 2
;
_chemical_formula_sum "Si O2"
_cell_formula_units_Z 36
_cell_length_a 13.632629
_cell_length_b 8.580485
_cell_length_c 15.358268
_cell_angle_alpha 90.000000
_cell_angle_beta 90.000000
_cell_angle_gamma 90.000000
_cell_volume 1796.526774
_symmetry_space_group_name_H-M "I M A 2"
_symmetry_group_IT_number 46
_symmetry_cell_setting 'orthorhombic'
loop_
_space_group_symop_operation_xyz
x,y,z
-x,-y,z
1/2-x,y,z
1/2+x,-y,z
1/2+x,1/2+y,1/2+z
1/2-x,1/2-y,1/2+z
-x,1/2+y,1/2+z
x,1/2-y,1/2+z
loop_
_atom_site_type_symbol
_atom_site_label
_atom_site_fract_x
_atom_site_fract_y
_atom_site_fract_z
Si Si1 0.861772 0.930042 0.482280
Si Si2 0.132856 0.254371 0.648454
Si Si3 0.477920 0.320796 0.816061
Si Si4 0.000000 0.500000 0.545913
Si Si5 0.136420 0.710898 0.424934
O O1 0.750000 0.879931 0.467228
O O2 0.885396 0.887659 0.581513
O O3 0.925637 0.840637 0.410219
O O4 0.867056 0.113906 0.464779
O O5 0.250000 0.284654 0.651488
O O6 0.090298 0.239833 0.745249
O O7 0.070210 0.391961 0.604012
O O8 0.500000 0.500000 0.789347
O O9 0.578795 0.230142 0.833841
O O10 0.925963 0.402042 0.485663
O O11 0.250000 0.665205 0.416544
#
# Coordination Sequence:
#
# PCOD9379128 Si02
#       5
#     8   8   8   4   8
#     4   9  19  38  65  90 123 163 203 253 310 374
#     4  11  22  37  63  95 123 163 211 259 316 370
#     4  10  19  37  63  91 124 163 204 254 309 371
#     4  12  22  40  62  88 126 162 212 272 310 364
#     4  10  22  41  65  91 123 168 211 256 318 373
#
# _framework density 20.038665999999999
#
# number of rings (size 3 to 8) (size 9 to 14) (size 15 to 20)
#    0.000    1.778    3.333    1.333    0.000    0.889 
#    0.000    2.222    0.000    2.667    0.000    0.000 
#    0.000    0.000    0.000    0.000    0.000    0.000 
#
# Total GULP energy -100454.926424 kJ/mol
# GULP energy per Si atom -5580.829246 kJ/mol
# Density = 1.999306 g / cm^3
# Si number density = 20.038666 Si / 1000 Ang^3
#
#
#
# Elastic Constant Matrix: (Units=GPa)
#
#
# Indices 1 2 3 4 5 6 
#
# 1 174.5011 33.8222 74.1358 0.0000 0.0000 0.0000
# 2 33.8222 14.1236 15.5633 0.0000 0.0000 0.0000
# 3 74.1358 15.5633 95.0329 0.0000 0.0000 0.0000
# 4 0.0000 0.0000 0.0000 16.1421 0.0000 0.0000
# 5 0.0000 0.0000 0.0000 0.0000 38.7342 0.0000
# 6 0.0000 0.0000 0.0000 0.0000 0.0000 29.5887
#
#
#
# Elastic Compliance Matrix: (Units=1/GPa)
#
#
# Indices 1 2 3 4 5 6 
#
# 1 0.013148 -0.024628 -0.006224 0.000000 0.000000 0.000000
# 2 -0.024628 0.132527 -0.002491 0.000000 0.000000 0.000000
# 3 -0.006224 -0.002491 0.015786 0.000000 0.000000 0.000000
# 4 0.000000 0.000000 0.000000 0.061950 0.000000 0.000000
# 5 0.000000 0.000000 0.000000 0.000000 0.025817 0.000000
# 6 0.000000 0.000000 0.000000 0.000000 0.000000 0.033797
#
#
# Mechanical properties :
#
#
# Convention : Reuss Voigt Hill
#
# Bulk Modulus (GPa) = 10.55131 58.96668 34.75899
# Shear Modulus (GPa) = 13.11298 27.56874 20.34086
#
# Velocity S-wave (km/s) = 2.56087 3.71317 3.18949
# Velocity P-wave (km/s) = 3.74446 6.91909 5.56304
#
# Compressibility (1/GPa) = 0.09477500
#
# Stress axis : x y z
#
# Youngs Moduli (GPa) = 76.05552 7.54565 63.34828
#
# Poissons Ratio (x) = 0.18584 0.39426
# Poissons Ratio (y) = 1.87313 0.15778
# Poissons Ratio (z) = 0.47335 0.01879
#
# Static dielectric constant tensor:
#      x y z
#    x 1.730770 0.000000 0.000000 
#    y 0.000000 1.714760 0.000000 
#    z 0.000000 0.000000 1.712170 
# 
# From -- ./inp_files/15610.got.cif
#   From: 2010.05.17/outbox.cif.g08.bks.cpg/sg46_8_cif.got.tgz:15610.got - 2010.06.03 19:58:25.
