data_PCOD9379349
_publ_section_title
;
Structure prediction by ZEFSAII (Michael W. Deem and Ramdas Pophale) SiO2 
 PCOD9379349
Probable space group: I M A 2
;
_chemical_formula_sum "Si O2"
_cell_formula_units_Z 64
_cell_length_a 10.909597
_cell_length_b 21.087143
_cell_length_c 15.261914
_cell_angle_alpha 90.000000
_cell_angle_beta 90.000000
_cell_angle_gamma 90.000000
_cell_volume 3511.037380
_symmetry_space_group_name_H-M "I M A 2"
_symmetry_group_IT_number 46
_symmetry_cell_setting 'orthorhombic'
loop_
_space_group_symop_operation_xyz
x,y,z
-x,-y,z
1/2-x,y,z
1/2+x,-y,z
1/2+x,1/2+y,1/2+z
1/2-x,1/2-y,1/2+z
-x,1/2+y,1/2+z
x,1/2-y,1/2+z
loop_
_atom_site_type_symbol
_atom_site_label
_atom_site_fract_x
_atom_site_fract_y
_atom_site_fract_z
Si Si1 0.117513 0.457057 0.625000
Si Si2 0.617387 0.843667 0.256401
Si Si3 0.386353 0.362576 0.460093
Si Si4 0.885154 0.751547 0.592092
Si Si5 0.609587 0.051012 0.665140
Si Si6 0.885071 0.168276 0.556727
Si Si7 0.615214 0.205784 0.352484
Si Si8 0.610863 0.357276 0.333622
O O1 0.250000 0.490701 0.624754
O O2 0.113184 0.411246 0.708873
O O3 0.113866 0.412603 0.539292
O O4 0.000000 0.500000 0.624301
O O5 0.750000 0.836642 0.302126
O O6 0.615321 0.793377 0.176798
O O7 0.499537 0.830814 0.313563
O O8 0.250000 0.364257 0.418345
O O9 0.400397 0.294343 0.507676
O O10 0.499108 0.376002 0.396691
O O11 0.750000 0.781960 0.586003
O O12 0.999012 0.797726 0.598943
O O13 0.750000 0.024784 0.670766
O O14 0.602112 0.093620 0.576876
O O15 0.598490 0.102854 0.743994
O O16 0.500000 0.000000 0.670389
O O17 0.750000 0.186495 0.593491
O O18 0.884887 0.190711 0.456094
O O19 0.750000 0.185937 0.318658
O O20 0.602273 0.280551 0.329411
O O21 0.750000 0.370411 0.367269
#
# Coordination Sequence:
#
# PCOD9379349 Si02
#       8
#     8   8   8   8   8   8   8   8
#     4   9  19  35  52  73 103 140 181 219 259 315
#     4   9  19  34  51  75 108 140 173 217 267 323
#     4   9  18  32  51  78 111 141 173 217 268 324
#     4   9  17  31  52  79 109 141 174 212 269 335
#     4  10  23  41  58  78 109 150 194 233 270 324
#     4  10  20  36  58  80 106 140 180 229 277 327
#     4  10  20  34  55  85 112 135 173 225 283 334
#     4  10  20  35  55  82 112 141 180 226 271 324
#
# _framework density 18.228231000000001
#
# number of rings (size 3 to 8) (size 9 to 14) (size 15 to 20)
#    0.000    2.500    1.250    2.250    0.000    5.000 
#    0.000    5.625    0.000    3.000    0.000    0.000 
#    0.000    0.000    0.000    0.000    0.000    0.000 
#
# Total GULP energy -178238.425946 kJ/mol
# GULP energy per Si atom -5569.950811 kJ/mol
# Density = 1.818674 g / cm^3
# Si number density = 18.228231 Si / 1000 Ang^3
#
#
#
# Elastic Constant Matrix: (Units=GPa)
#
#
# Indices 1 2 3 4 5 6 
#
# 1 201.7333 68.1830 36.7040 0.0000 0.0000 0.0002
# 2 68.1830 55.4539 18.1952 0.0000 0.0000 0.0004
# 3 36.7040 18.1952 29.0023 0.0000 0.0000 0.0001
# 4 0.0000 0.0000 0.0000 13.8470 0.0000 0.0001
# 5 0.0000 0.0000 0.0000 0.0000 29.1346 0.0001
# 6 0.0002 0.0004 0.0001 0.0001 0.0001 -16.9636
#
#
#
# Elastic Compliance Matrix: (Units=1/GPa)
#
#
# Indices 1 2 3 4 5 6 
#
# 1 0.009176 -0.009409 -0.005710 0.000000 0.000000 0.000000
# 2 -0.009409 0.032355 -0.008391 0.000000 0.000000 0.000001
# 3 -0.005710 -0.008391 0.046971 0.000000 0.000000 0.000000
# 4 0.000000 0.000000 0.000000 0.072218 0.000000 0.000000
# 5 0.000000 0.000000 0.000000 0.000000 0.034323 0.000000
# 6 0.000000 0.000001 0.000000 0.000000 0.000000 -0.058950
#
#
# Mechanical properties :
#
#
# Convention : Reuss Voigt Hill
#
# Bulk Modulus (GPa) = 24.10701 59.15042 41.62871
# Shear Modulus (GPa) = 25.38854 16.07742 20.73298
#
# Velocity S-wave (km/s) = 3.73609 2.97308 3.37621
# Velocity P-wave (km/s) = 5.64491 6.65627 6.17134
#
# Compressibility (1/GPa) = 0.04148171
#
# Stress axis : x y z
#
# Youngs Moduli (GPa) = 108.98082 30.90746 21.28991
#
# Poissons Ratio (x) = 0.29080 0.12156
# Poissons Ratio (y) = 1.02537 0.17865
# Poissons Ratio (z) = 0.62227 0.25935
#
# Static dielectric constant tensor:
#      x y z
#    x 1.654390 0.000000 0.000000 
#    y 0.000000 1.617070 0.000000 
#    z 0.000000 0.000000 1.635500 
# 
# From -- ./inp_files/15357.got.cif
#   From: 2010.05.17/outbox.cif.g08.bks.cpg/sg46_8_cif.got.tgz:15357.got - 2010.06.03 19:58:25.
