data_PCOD9379385
_publ_section_title
;
Structure prediction by ZEFSAII (Michael W. Deem and Ramdas Pophale) SiO2 
 PCOD9379385
Probable space group: I M A 2
;
_chemical_formula_sum "Si O2"
_cell_formula_units_Z 48
_cell_length_a 14.404609
_cell_length_b 8.983948
_cell_length_c 20.054097
_cell_angle_alpha 90.000000
_cell_angle_beta 90.000000
_cell_angle_gamma 90.000000
_cell_volume 2595.205871
_symmetry_space_group_name_H-M "I M A 2"
_symmetry_group_IT_number 46
_symmetry_cell_setting 'orthorhombic'
loop_
_space_group_symop_operation_xyz
x,y,z
-x,-y,z
1/2-x,y,z
1/2+x,-y,z
1/2+x,1/2+y,1/2+z
1/2-x,1/2-y,1/2+z
-x,1/2+y,1/2+z
x,1/2-y,1/2+z
loop_
_atom_site_type_symbol
_atom_site_label
_atom_site_fract_x
_atom_site_fract_y
_atom_site_fract_z
Si Si1 0.250000 0.272238 0.170511
Si Si2 0.417665 0.886094 0.461900
Si Si3 0.963174 0.831883 0.704113
Si Si4 0.250000 0.951553 0.236823
Si Si5 0.750000 0.977206 0.544631
Si Si6 0.547777 0.156975 0.077319
Si Si7 0.250000 0.717143 0.618255
Si Si8 0.430501 0.636381 0.813865
O O1 0.349717 0.326392 0.201720
O O2 0.250000 0.330955 0.092556
O O3 0.250000 0.095176 0.188185
O O4 0.336811 0.983506 0.497074
O O5 0.451081 0.759872 0.512632
O O6 0.398997 0.818154 0.388601
O O7 0.500000 0.000000 0.454360
O O8 0.998621 0.739333 0.639512
O O9 0.015388 0.757371 0.768029
O O10 0.000000 0.000000 0.697445
O O11 0.250000 0.797765 0.196446
O O12 0.157660 0.939108 0.278927
O O13 0.750000 0.112775 0.597158
O O14 0.656526 0.140053 0.093707
O O15 0.500000 0.000000 0.066920
O O16 0.500000 0.500000 0.819546
#
# Coordination Sequence:
#
# PCOD9379385 Si02
#       8
#     4   8   8   4   4   8   4   8
#     4  12  24  36  65  96 129 160 218 277 334 374
#     4  10  22  40  62  87 127 171 211 261 325 404
#     4  12  24  40  64  96 133 169 220 280 331 398
#     4  12  21  38  64  93 129 167 211 274 324 390
#     4  10  21  40  59  96 122 160 213 261 327 389
#     4  11  21  38  62  91 126 162 216 272 330 386
#     4  10  20  34  60  87 122 157 202 260 321 381
#     4  11  23  41  61  92 127 175 219 261 335 394
#
# _framework density 18.495643999999999
#
# number of rings (size 3 to 8) (size 9 to 14) (size 15 to 20)
#    0.000    1.000    3.333    5.500    0.000    0.667 
#    0.000    0.000    0.000    2.000    0.000    0.000 
#    0.000    0.000    0.000    0.000    0.000    0.000 
#
# Total GULP energy -133717.110769 kJ/mol
# GULP energy per Si atom -5571.546282 kJ/mol
# Density = 1.845355 g / cm^3
# Si number density = 18.495644 Si / 1000 Ang^3
#
#
#
# Elastic Constant Matrix: (Units=GPa)
#
#
# Indices 1 2 3 4 5 6 
#
# 1 142.6412 59.7828 49.8923 0.0000 0.0000 0.0000
# 2 59.7828 73.7792 48.8137 0.0000 0.0000 0.0000
# 3 49.8923 48.8137 145.1770 0.0000 0.0000 0.0000
# 4 0.0000 0.0000 0.0000 30.3235 0.0000 0.0000
# 5 0.0000 0.0000 0.0000 0.0000 38.5715 0.0000
# 6 0.0000 0.0000 0.0000 0.0000 0.0000 36.3998
#
#
#
# Elastic Compliance Matrix: (Units=1/GPa)
#
#
# Indices 1 2 3 4 5 6 
#
# 1 0.010724 -0.008039 -0.000982 0.000000 0.000000 0.000000
# 2 -0.008039 0.023459 -0.005125 0.000000 0.000000 0.000000
# 3 -0.000982 -0.005125 0.008949 0.000000 0.000000 0.000000
# 4 0.000000 0.000000 0.000000 0.032978 0.000000 0.000000
# 5 0.000000 0.000000 0.000000 0.000000 0.025926 0.000000
# 6 0.000000 0.000000 0.000000 0.000000 0.000000 0.027473
#
#
# Mechanical properties :
#
#
# Convention : Reuss Voigt Hill
#
# Bulk Modulus (GPa) = 67.39254 75.39722 71.39488
# Shear Modulus (GPa) = 30.72261 34.59955 32.66108
#
# Velocity S-wave (km/s) = 4.08005 4.32984 4.20680
# Velocity P-wave (km/s) = 7.66236 8.11480 7.89182
#
# Compressibility (1/GPa) = 0.01483844
#
# Stress axis : x y z
#
# Youngs Moduli (GPa) = 93.25268 42.62771 111.74623
#
# Poissons Ratio (x) = 0.34270 0.10975
# Poissons Ratio (y) = 0.74970 0.57268
# Poissons Ratio (z) = 0.09159 0.21846
#
# Static dielectric constant tensor:
#      x y z
#    x 1.495620 0.000000 0.000000 
#    y 0.000000 1.686060 0.000000 
#    z 0.000000 0.000000 1.711060 
# 
# From -- ./inp_files/19460.got.cif
#   From: 2010.05.17/outbox.cif.g08.bks.cpg/sg46_10_cif.got.tgz:19460.got - 2010.06.03 19:58:25.
