data_PCOD9379004
_publ_section_title
;
Structure prediction by ZEFSAII (Michael W. Deem and Ramdas Pophale) SiO2 
 PCOD9379004
Probable space group: I M A 2
;
_chemical_formula_sum "Si O2"
_cell_formula_units_Z 64
_cell_length_a 7.704199
_cell_length_b 20.847385
_cell_length_c 20.354935
_cell_angle_alpha 90.000000
_cell_angle_beta 90.000000
_cell_angle_gamma 90.000000
_cell_volume 3269.255017
_symmetry_space_group_name_H-M "I M A 2"
_symmetry_group_IT_number 46
_symmetry_cell_setting 'orthorhombic'
loop_
_space_group_symop_operation_xyz
x,y,z
-x,-y,z
1/2-x,y,z
1/2+x,-y,z
1/2+x,1/2+y,1/2+z
1/2-x,1/2-y,1/2+z
-x,1/2+y,1/2+z
x,1/2-y,1/2+z
loop_
_atom_site_type_symbol
_atom_site_label
_atom_site_fract_x
_atom_site_fract_y
_atom_site_fract_z
Si Si1 0.044735 0.244229 0.701960
Si Si2 0.462494 0.888233 0.550110
Si Si3 0.959560 0.260857 0.559045
Si Si4 0.543819 0.429254 0.908096
Si Si5 0.953584 0.798343 0.340596
Si Si6 0.550583 0.402315 0.192005
Si Si7 0.959098 0.430013 0.334549
Si Si8 0.950875 0.181363 0.928223
O O1 0.250000 0.231247 0.707160
O O2 0.988453 0.283100 0.766310
O O3 0.011991 0.278678 0.632714
O O4 0.952184 0.175223 0.698425
O O5 0.250000 0.889859 0.552081
O O6 0.514441 0.813191 0.547607
O O7 0.522867 0.921145 0.483163
O O8 0.526020 0.916214 0.619921
O O9 0.750000 0.260669 0.555857
O O10 0.027458 0.304949 0.500049
O O11 0.500000 0.500000 0.883600
O O12 0.750000 0.422462 0.911063
O O13 0.478537 0.370864 0.863859
O O14 0.750000 0.783234 0.344556
O O15 0.044569 0.748815 0.389755
O O16 0.750000 0.424760 0.190318
O O17 0.469262 0.426256 0.259933
O O18 0.750000 0.421825 0.329302
O O19 0.027336 0.373008 0.380712
O O20 0.000000 0.500000 0.361782
O O21 0.750000 0.162923 0.938453
#
# Coordination Sequence:
#
# PCOD9379004 Si02
#       8
#     8   8   8   8   8   8   8   8
#     4  10  20  32  50  80 111 136 171 221 270 315
#     4   8  15  29  50  74 101 135 175 215 253 305
#     4   9  17  32  54  78 104 135 177 221 264 319
#     4  11  22  37  54  76 109 145 184 225 267 318
#     4  11  22  35  54  81 110 140 177 223 271 321
#     4   9  17  32  52  73 102 144 184 214 254 311
#     4  10  21  34  52  76 107 144 181 220 265 316
#     4  10  19  35  57  80 104 140 184 223 265 318
#
# _framework density 19.576326000000002
#
# number of rings (size 3 to 8) (size 9 to 14) (size 15 to 20)
#    0.000    2.250    2.500    1.875    0.000    3.500 
#    0.000    0.625    0.000    0.750    0.000    3.500 
#    0.000    0.000    0.000    0.000    0.000    0.000 
#
# Total GULP energy -178557.637023 kJ/mol
# GULP energy per Si atom -5579.926157 kJ/mol
# Density = 1.953177 g / cm^3
# Si number density = 19.576326 Si / 1000 Ang^3
#
#
#
# Elastic Constant Matrix: (Units=GPa)
#
#
# Indices 1 2 3 4 5 6 
#
# 1 37.3542 -13.7227 -5.2911 0.0000 0.0000 0.0000
# 2 -13.7227 80.3222 40.0146 0.0000 0.0000 0.0000
# 3 -5.2911 40.0146 117.8668 0.0000 0.0000 0.0000
# 4 0.0000 0.0000 0.0000 25.5786 0.0000 0.0000
# 5 0.0000 0.0000 0.0000 0.0000 28.4944 0.0000
# 6 0.0000 0.0000 0.0000 0.0000 0.0000 13.8104
#
#
#
# Elastic Compliance Matrix: (Units=1/GPa)
#
#
# Indices 1 2 3 4 5 6 
#
# 1 0.028583 0.005108 -0.000451 0.000000 0.000000 0.000000
# 2 0.005108 0.015897 -0.005168 0.000000 0.000000 0.000000
# 3 -0.000451 -0.005168 0.010218 0.000000 0.000000 0.000000
# 4 0.000000 0.000000 0.000000 0.039095 0.000000 0.000000
# 5 0.000000 0.000000 0.000000 0.000000 0.035095 0.000000
# 6 0.000000 0.000000 0.000000 0.000000 0.000000 0.072409
#
#
# Mechanical properties :
#
#
# Convention : Reuss Voigt Hill
#
# Bulk Modulus (GPa) = 18.62979 30.83830 24.73404
# Shear Modulus (GPa) = 22.70547 27.87950 25.29248
#
# Velocity S-wave (km/s) = 3.40934 3.77788 3.59833
# Velocity P-wave (km/s) = 5.00353 5.90058 5.47047
#
# Compressibility (1/GPa) = 0.05367748
#
# Stress axis : x y z
#
# Youngs Moduli (GPa) = 34.98537 62.90540 97.86430
#
# Poissons Ratio (x) = -0.32132 0.04414
# Poissons Ratio (y) = -0.17871 0.50572
# Poissons Ratio (z) = 0.01578 0.32507
#
# Static dielectric constant tensor:
#      x y z
#    x 1.729100 0.000000 0.000000 
#    y 0.000000 1.623910 0.000000 
#    z 0.000000 0.000000 1.726110 
# 
# From -- ./inp_files/21434.got.cif
#   From: 2010.05.17/outbox.cif.g08.bks.cpg/sg46_11_cif.got.tgz:21434.got - 2010.06.03 19:58:25.
