data_PCOD9379205
_publ_section_title
;
Structure prediction by ZEFSAII (Michael W. Deem and Ramdas Pophale) SiO2 
 PCOD9379205
Probable space group: I M A 2
;
_chemical_formula_sum "Si O2"
_cell_formula_units_Z 64
_cell_length_a 8.744943
_cell_length_b 23.708465
_cell_length_c 19.487749
_cell_angle_alpha 90.000000
_cell_angle_beta 90.000000
_cell_angle_gamma 90.000000
_cell_volume 4040.378924
_symmetry_space_group_name_H-M "I M A 2"
_symmetry_group_IT_number 46
_symmetry_cell_setting 'orthorhombic'
loop_
_space_group_symop_operation_xyz
x,y,z
-x,-y,z
1/2-x,y,z
1/2+x,-y,z
1/2+x,1/2+y,1/2+z
1/2-x,1/2-y,1/2+z
-x,1/2+y,1/2+z
x,1/2-y,1/2+z
loop_
_atom_site_type_symbol
_atom_site_label
_atom_site_fract_x
_atom_site_fract_y
_atom_site_fract_z
Si Si1 0.568284 0.340540 0.389360
Si Si2 0.567157 0.742135 0.162812
Si Si3 0.431650 0.726901 0.803596
Si Si4 0.434127 0.061867 0.524633
Si Si5 0.067780 0.061746 0.801310
Si Si6 0.932621 0.723127 0.512722
Si Si7 0.432610 0.163807 0.427455
Si Si8 0.433049 0.616187 0.163045
O O1 0.750000 0.349460 0.385843
O O2 0.530589 0.286816 0.340454
O O3 0.481843 0.394554 0.360246
O O4 0.518009 0.321755 0.465213
O O5 0.750000 0.733472 0.162270
O O6 0.516292 0.774246 0.231175
O O7 0.525470 0.774163 0.092538
O O8 0.487533 0.681011 0.163318
O O9 0.250000 0.725138 0.793473
O O10 0.483976 0.679257 0.857047
O O11 0.250000 0.060357 0.529945
O O12 0.475526 0.105747 0.464303
O O13 0.501590 0.086003 0.595512
O O14 0.500000 0.000000 0.512201
O O15 0.250000 0.059183 0.795696
O O16 0.998379 0.085782 0.730459
O O17 0.000000 0.000000 0.814011
O O18 0.750000 0.714115 0.506835
O O19 0.965575 0.784895 0.480303
O O20 0.250000 0.163911 0.415753
O O21 0.250000 0.613599 0.163788
#
# Coordination Sequence:
#
# PCOD9379205 Si02
#       8
#     8   8   8   8   8   8   8   8
#     4  10  20  34  51  76 104 133 170 213 257 304
#     4  11  20  33  53  77 105 139 174 209 256 309
#     4  10  20  32  50  76 105 133 169 212 259 307
#     4  11  22  37  53  74 102 138 179 216 256 303
#     4  12  24  38  55  73 101 139 178 217 255 300
#     4   9  18  33  52  74 100 134 172 209 254 307
#     4   9  18  34  52  71  99 134 174 212 253 303
#     4  12  23  35  50  73 105 139 178 216 252 299
#
# _framework density 15.840097
#
# number of rings (size 3 to 8) (size 9 to 14) (size 15 to 20)
#    0.000    1.500    2.500    4.125    0.000    3.000 
#    0.000    0.000    0.000    0.000    0.000    0.875 
#    0.000    4.000    0.000    0.000    0.000    0.000 
#
# Total GULP energy -178751.582783 kJ/mol
# GULP energy per Si atom -5585.986962 kJ/mol
# Density = 1.580404 g / cm^3
# Si number density = 15.840097 Si / 1000 Ang^3
#
#
#
# Elastic Constant Matrix: (Units=GPa)
#
#
# Indices 1 2 3 4 5 6 
#
# 1 84.6225 48.6523 57.4523 0.0000 0.0000 0.0000
# 2 48.6523 94.1639 60.6816 0.0000 0.0000 0.0000
# 3 57.4523 60.6816 121.9602 0.0000 0.0000 0.0000
# 4 0.0000 0.0000 0.0000 14.0285 0.0000 0.0000
# 5 0.0000 0.0000 0.0000 0.0000 21.6062 0.0000
# 6 0.0000 0.0000 0.0000 0.0000 0.0000 25.6990
#
#
#
# Elastic Compliance Matrix: (Units=1/GPa)
#
#
# Indices 1 2 3 4 5 6 
#
# 1 0.019507 -0.006119 -0.006145 0.000000 0.000000 0.000000
# 2 -0.006119 0.017551 -0.005850 0.000000 0.000000 0.000000
# 3 -0.006145 -0.005850 0.014005 0.000000 0.000000 0.000000
# 4 0.000000 0.000000 0.000000 0.071284 0.000000 0.000000
# 5 0.000000 0.000000 0.000000 0.000000 0.046283 0.000000
# 6 0.000000 0.000000 0.000000 0.000000 0.000000 0.038912
#
#
# Mechanical properties :
#
#
# Convention : Reuss Voigt Hill
#
# Bulk Modulus (GPa) = 67.40686 70.47989 68.94338
# Shear Modulus (GPa) = 20.10335 21.19742 20.65038
#
# Velocity S-wave (km/s) = 3.56637 3.66213 3.61456
# Velocity P-wave (km/s) = 7.72047 7.90397 7.81276
#
# Compressibility (1/GPa) = 0.01483529
#
# Stress axis : x y z
#
# Youngs Moduli (GPa) = 51.26362 56.97559 71.40403
#
# Poissons Ratio (x) = 0.34863 0.43876
# Poissons Ratio (y) = 0.31368 0.41773
# Poissons Ratio (z) = 0.31500 0.33332
#
# Static dielectric constant tensor:
#      x y z
#    x 1.528780 0.000000 0.000000 
#    y 0.000000 1.505320 0.000000 
#    z 0.000000 0.000000 1.522130 
# 
# From -- ./inp_files/18570.got.cif
#   From: 2010.05.17/outbox.cif.g08.bks.cpg/sg46_10_cif.got.tgz:18570.got - 2010.06.03 19:58:25.
