data_PCOD9379822
_publ_section_title
;
Structure prediction by ZEFSAII (Michael W. Deem and Ramdas Pophale) SiO2 
 PCOD9379822
Probable space group: I M A 2
;
_chemical_formula_sum "Si O2"
_cell_formula_units_Z 60
_cell_length_a 9.991386
_cell_length_b 16.920456
_cell_length_c 17.006392
_cell_angle_alpha 90.000000
_cell_angle_beta 90.000000
_cell_angle_gamma 90.000000
_cell_volume 2875.080346
_symmetry_space_group_name_H-M "I M A 2"
_symmetry_group_IT_number 46
_symmetry_cell_setting 'orthorhombic'
loop_
_space_group_symop_operation_xyz
x,y,z
-x,-y,z
1/2-x,y,z
1/2+x,-y,z
1/2+x,1/2+y,1/2+z
1/2-x,1/2-y,1/2+z
-x,1/2+y,1/2+z
x,1/2-y,1/2+z
loop_
_atom_site_type_symbol
_atom_site_label
_atom_site_fract_x
_atom_site_fract_y
_atom_site_fract_z
Si Si1 0.095190 0.931508 0.376180
Si Si2 0.473880 0.304671 0.772050
Si Si3 0.003656 0.590863 0.376705
Si Si4 0.098680 0.827052 0.021868
Si Si5 0.250000 0.297954 0.360849
Si Si6 0.406429 0.423789 0.635770
Si Si7 0.590607 0.143928 0.709688
Si Si8 0.088583 0.857896 0.537368
O O1 0.250000 0.956080 0.378588
O O2 0.042934 0.908221 0.463122
O O3 0.079060 0.853875 0.323281
O O4 0.000000 0.000000 0.344794
O O5 0.366642 0.263656 0.828836
O O6 0.409825 0.365720 0.710717
O O7 0.541912 0.233377 0.724233
O O8 0.100745 0.639927 0.433460
O O9 0.043725 0.595056 0.284990
O O10 0.000000 0.500000 0.402108
O O11 0.865271 0.636937 0.383475
O O12 0.250000 0.834727 0.055821
O O13 0.060044 0.734792 0.024081
O O14 0.985895 0.876335 0.067673
O O15 0.500000 0.500000 0.650349
O O16 0.250000 0.442466 0.617413
O O17 0.750000 0.142288 0.707343
O O18 0.538749 0.117819 0.623796
O O19 0.250000 0.864529 0.536817
#
# Coordination Sequence:
#
# PCOD9379822 Si02
#       8
#     8   8   8   8   4   8   8   8
#     4  11  25  42  67 101 137 181 233 291 355 416
#     4  11  22  42  68  95 135 174 233 283 341 417
#     4  11  25  40  65  97 139 177 223 280 344 407
#     4  11  23  43  70  98 133 177 229 282 344 422
#     4  10  24  42  66 100 136 178 226 292 332 414
#     4  12  26  42  66  98 141 181 225 284 356 417
#     4  10  20  38  67  95 123 173 224 273 337 401
#     4   9  19  39  65  94 128 167 224 280 333 410
#
# _framework density 20.868981000000002
#
# number of rings (size 3 to 8) (size 9 to 14) (size 15 to 20)
#    0.000    1.333    2.000    3.600    3.733    4.267 
#    0.000    0.000    5.867    0.000    0.000    0.000 
#    0.000    0.000    0.000    0.000    0.000    0.000 
#
# Total GULP energy -167020.111370 kJ/mol
# GULP energy per Si atom -5567.337046 kJ/mol
# Density = 2.082148 g / cm^3
# Si number density = 20.868981 Si / 1000 Ang^3
#
#
#
# Elastic Constant Matrix: (Units=GPa)
#
#
# Indices 1 2 3 4 5 6 
#
# 1 119.7219 32.8778 6.3850 0.0000 0.0000 0.0000
# 2 32.8778 74.8876 3.7840 0.0000 0.0000 0.0000
# 3 6.3850 3.7840 68.7515 0.0000 0.0000 0.0000
# 4 0.0000 0.0000 0.0000 8.4350 0.0000 0.0000
# 5 0.0000 0.0000 0.0000 0.0000 -7.8157 0.0000
# 6 0.0000 0.0000 0.0000 0.0000 0.0000 19.2402
#
#
#
# Elastic Compliance Matrix: (Units=1/GPa)
#
#
# Indices 1 2 3 4 5 6 
#
# 1 0.009527 -0.004150 -0.000656 0.000000 0.000000 0.000000
# 2 -0.004150 0.015198 -0.000451 0.000000 0.000000 0.000000
# 3 -0.000656 -0.000451 0.014631 0.000000 0.000000 0.000000
# 4 0.000000 0.000000 0.000000 0.118553 0.000000 0.000000
# 5 0.000000 0.000000 0.000000 0.000000 -0.127948 0.000000
# 6 0.000000 0.000000 0.000000 0.000000 0.000000 0.051975
#
#
# Mechanical properties :
#
#
# Convention : Reuss Voigt Hill
#
# Bulk Modulus (GPa) = 34.67175 38.82830 36.75003
# Shear Modulus (GPa) = 48.98877 18.65951 33.82414
#
# Velocity S-wave (km/s) = 4.85030 2.99344 4.03027
# Velocity P-wave (km/s) = 6.92945 5.53116 6.26941
#
# Compressibility (1/GPa) = 0.02884192
#
# Stress axis : x y z
#
# Youngs Moduli (GPa) = 104.96215 65.79845 68.34840
#
# Poissons Ratio (x) = 0.27304 0.04487
# Poissons Ratio (y) = 0.43555 0.03083
# Poissons Ratio (z) = 0.06890 0.02968
#
# Static dielectric constant tensor:
#      x y z
#    x 1.734320 0.000000 0.000000 
#    y 0.000000 1.713870 0.000000 
#    z 0.000000 0.000000 1.823290 
# 
# From -- ./inp_files/18346.got.cif
#   From: 2010.05.17/outbox.cif.g08.bks.cpg/sg46_10_cif.got.tgz:18346.got - 2010.06.03 19:58:25.
