data_PCOD9379661
_publ_section_title
;
Structure prediction by ZEFSAII (Michael W. Deem and Ramdas Pophale) SiO2 
 PCOD9379661
Probable space group: I M A 2
;
_chemical_formula_sum "Si O2"
_cell_formula_units_Z 56
_cell_length_a 8.989912
_cell_length_b 21.010246
_cell_length_c 15.681990
_cell_angle_alpha 90.000000
_cell_angle_beta 90.000000
_cell_angle_gamma 90.000000
_cell_volume 2962.018390
_symmetry_space_group_name_H-M "I M A 2"
_symmetry_group_IT_number 46
_symmetry_cell_setting 'orthorhombic'
loop_
_space_group_symop_operation_xyz
x,y,z
-x,-y,z
1/2-x,y,z
1/2+x,-y,z
1/2+x,1/2+y,1/2+z
1/2-x,1/2-y,1/2+z
-x,1/2+y,1/2+z
x,1/2-y,1/2+z
loop_
_atom_site_type_symbol
_atom_site_label
_atom_site_fract_x
_atom_site_fract_y
_atom_site_fract_z
Si Si1 0.581109 0.312474 0.637580
Si Si2 0.921886 0.251270 0.961295
Si Si3 0.071703 0.698964 0.271726
Si Si4 0.575100 0.567163 0.698120
Si Si5 0.918915 0.630287 0.014541
Si Si6 0.920865 0.063878 0.373984
Si Si7 0.926062 0.570705 0.202878
O O1 0.750000 0.328826 0.667894
O O2 0.590760 0.299161 0.537307
O O3 0.535342 0.251639 0.697478
O O4 0.473383 0.372059 0.645653
O O5 0.750000 0.276948 0.953874
O O6 0.961891 0.227076 0.866242
O O7 0.049771 0.295345 0.003664
O O8 0.250000 0.689653 0.266531
O O9 0.995939 0.630029 0.255968
O O10 0.500000 0.500000 0.673599
O O11 0.750000 0.558339 0.700773
O O12 0.510771 0.584231 0.791297
O O13 0.750000 0.615002 0.986320
O O14 0.940320 0.597210 0.105647
O O15 0.049063 0.608529 0.952048
O O16 0.750000 0.054932 0.353155
O O17 0.000000 0.000000 0.402756
O O18 0.750000 0.564809 0.221307
O O19 0.000000 0.500000 0.211368
#
# Coordination Sequence:
#
# PCOD9379661 Si02
#       7
#     8   8   8   8   8   8   8
#     4  10  20  37  60  88 122 157 198 249 303 367
#     4  10  21  37  61  90 118 157 203 250 307 367
#     4  10  21  39  63  90 122 161 206 255 310 370
#     4  11  22  37  58  84 117 156 199 247 303 365
#     4  11  22  36  56  87 120 155 200 251 306 368
#     4  11  21  34  53  79 114 152 191 235 292 358
#     4  11  24  40  61  88 123 166 212 261 318 375
#
# _framework density 18.906026000000001
#
# number of rings (size 3 to 8) (size 9 to 14) (size 15 to 20)
#    0.000    1.429    1.429    5.571    0.000    5.714 
#    0.000    0.714    0.000    0.000    0.000    0.000 
#    0.000    0.000    0.000    0.000    0.000    0.000 
#
# Total GULP energy -155895.995021 kJ/mol
# GULP energy per Si atom -5567.714108 kJ/mol
# Density = 1.886300 g / cm^3
# Si number density = 18.906026 Si / 1000 Ang^3
#
#
#
# Elastic Constant Matrix: (Units=GPa)
#
#
# Indices 1 2 3 4 5 6 
#
# 1 120.0244 64.2803 25.5307 0.0000 0.0000 0.0000
# 2 64.2803 109.0482 28.3287 0.0000 0.0000 0.0000
# 3 25.5307 28.3287 86.7603 0.0000 0.0000 0.0000
# 4 0.0000 0.0000 0.0000 31.2920 0.0000 0.0000
# 5 0.0000 0.0000 0.0000 0.0000 15.4016 0.0000
# 6 0.0000 0.0000 0.0000 0.0000 0.0000 37.9664
#
#
#
# Elastic Compliance Matrix: (Units=1/GPa)
#
#
# Indices 1 2 3 4 5 6 
#
# 1 0.012323 -0.006908 -0.001371 0.000000 0.000000 0.000000
# 2 -0.006908 0.013892 -0.002503 0.000000 0.000000 0.000000
# 3 -0.001371 -0.002503 0.012747 0.000000 0.000000 0.000000
# 4 0.000000 0.000000 0.000000 0.031957 0.000000 0.000000
# 5 0.000000 0.000000 0.000000 0.000000 0.064928 0.000000
# 6 0.000000 0.000000 0.000000 0.000000 0.000000 0.026339
#
#
# Mechanical properties :
#
#
# Convention : Reuss Voigt Hill
#
# Bulk Modulus (GPa) = 57.47688 61.34580 59.41134
# Shear Modulus (GPa) = 26.37833 30.11155 28.24494
#
# Velocity S-wave (km/s) = 3.73934 3.99519 3.86938
# Velocity P-wave (km/s) = 7.00791 7.33486 7.17325
#
# Compressibility (1/GPa) = 0.01739830
#
# Stress axis : x y z
#
# Youngs Moduli (GPa) = 81.15093 71.98140 78.45133
#
# Poissons Ratio (x) = 0.49723 0.10753
# Poissons Ratio (y) = 0.56057 0.19639
# Poissons Ratio (z) = 0.11123 0.18020
#
# Static dielectric constant tensor:
#      x y z
#    x 1.594430 0.000000 0.000000 
#    y 0.000000 1.487810 0.000000 
#    z 0.000000 0.000000 1.647850 
# 
# From -- ./inp_files/14178.got.cif
#   From: 2010.05.17/outbox.cif.g08.bks.cpg/sg46_8_cif.got.tgz:14178.got - 2010.06.03 19:58:25.
