data_PCOD9379533
_publ_section_title
;
Structure prediction by ZEFSAII (Michael W. Deem and Ramdas Pophale) SiO2 
 PCOD9379533
Probable space group: I M A 2
;
_chemical_formula_sum "Si O2"
_cell_formula_units_Z 52
_cell_length_a 15.972961
_cell_length_b 13.815502
_cell_length_c 12.940870
_cell_angle_alpha 90.000000
_cell_angle_beta 90.000000
_cell_angle_gamma 90.000000
_cell_volume 2855.719689
_symmetry_space_group_name_H-M "I M A 2"
_symmetry_group_IT_number 46
_symmetry_cell_setting 'orthorhombic'
loop_
_space_group_symop_operation_xyz
x,y,z
-x,-y,z
1/2-x,y,z
1/2+x,-y,z
1/2+x,1/2+y,1/2+z
1/2-x,1/2-y,1/2+z
-x,1/2+y,1/2+z
x,1/2-y,1/2+z
loop_
_atom_site_type_symbol
_atom_site_label
_atom_site_fract_x
_atom_site_fract_y
_atom_site_fract_z
Si Si1 0.500000 0.000000 0.829840
Si Si2 0.653527 0.948291 0.177615
Si Si3 0.458780 0.687518 0.202337
Si Si4 0.850571 0.361994 0.785752
Si Si5 0.153023 0.101152 0.947321
Si Si6 0.099913 0.286759 0.828339
Si Si7 0.466143 0.890908 0.474425
O O1 0.538763 0.085667 0.761442
O O2 0.421404 0.040513 0.894452
O O3 0.750000 0.972864 0.162195
O O4 0.647268 0.872666 0.270862
O O5 0.614284 0.050362 0.213061
O O6 0.628689 0.901166 0.068713
O O7 0.388790 0.761617 0.244047
O O8 0.546260 0.735882 0.237477
O O9 0.451786 0.664017 0.081847
O O10 0.750000 0.358592 0.786107
O O11 0.885357 0.386544 0.899887
O O12 0.250000 0.066080 0.935834
O O13 0.149361 0.205816 0.892132
O O14 0.035797 0.334489 0.908530
O O15 0.500000 0.000000 0.491817
#
# Coordination Sequence:
#
# PCOD9379533 Si02
#       7
#     4   8   8   8   8   8   8
#     4  10  22  40  58  86 122 156 202 250 308 370
#     4  10  20  36  57  84 119 154 199 252 301 363
#     4  10  22  37  60  85 119 154 200 253 303 373
#     4  10  23  39  58  88 122 162 206 253 311 374
#     4  10  22  38  59  86 118 157 198 247 308 368
#     4  10  20  36  59  88 115 153 197 252 303 364
#     4  11  20  37  62  87 116 159 205 250 304 367
#
# _framework density 18.209071000000002
#
# number of rings (size 3 to 8) (size 9 to 14) (size 15 to 20)
#    0.000    1.846    2.308    1.385    0.000    7.385 
#    0.000    1.538    0.000    0.923    0.000    0.000 
#    0.000    0.000    0.000    0.000    0.000    0.000 
#
# Total GULP energy -144861.368889 kJ/mol
# GULP energy per Si atom -5571.591111 kJ/mol
# Density = 1.816763 g / cm^3
# Si number density = 18.209071 Si / 1000 Ang^3
#
#
#
# Elastic Constant Matrix: (Units=GPa)
#
#
# Indices 1 2 3 4 5 6 
#
# 1 72.4367 32.3242 41.3829 0.0000 0.0000 0.0000
# 2 32.3242 115.5667 55.9479 0.0000 0.0000 0.0000
# 3 41.3829 55.9479 139.5867 0.0000 0.0000 0.0000
# 4 0.0000 0.0000 0.0000 22.0273 0.0000 0.0000
# 5 0.0000 0.0000 0.0000 0.0000 21.3005 0.0000
# 6 0.0000 0.0000 0.0000 0.0000 0.0000 17.0915
#
#
#
# Elastic Compliance Matrix: (Units=1/GPa)
#
#
# Indices 1 2 3 4 5 6 
#
# 1 0.017389 -0.002938 -0.003978 0.000000 0.000000 0.000000
# 2 -0.002938 0.011233 -0.003631 0.000000 0.000000 0.000000
# 3 -0.003978 -0.003631 0.009799 0.000000 0.000000 0.000000
# 4 0.000000 0.000000 0.000000 0.045398 0.000000 0.000000
# 5 0.000000 0.000000 0.000000 0.000000 0.046947 0.000000
# 6 0.000000 0.000000 0.000000 0.000000 0.000000 0.058509
#
#
# Mechanical properties :
#
#
# Convention : Reuss Voigt Hill
#
# Bulk Modulus (GPa) = 57.71524 65.21113 61.46318
# Shear Modulus (GPa) = 23.13283 25.27953 24.20618
#
# Velocity S-wave (km/s) = 3.56814 3.73002 3.64998
# Velocity P-wave (km/s) = 6.98141 7.37841 7.18266
#
# Compressibility (1/GPa) = 0.01732645
#
# Stress axis : x y z
#
# Youngs Moduli (GPa) = 57.50898 89.02587 102.05501
#
# Poissons Ratio (x) = 0.26156 0.40593
# Poissons Ratio (y) = 0.16896 0.37058
# Poissons Ratio (z) = 0.22875 0.32327
#
# Static dielectric constant tensor:
#      x y z
#    x 1.630770 0.000000 0.000000 
#    y 0.000000 1.644040 0.000000 
#    z 0.000000 0.000000 1.628210 
# 
# From -- ./inp_files/11880.got.cif
#   From: 2010.05.17/outbox.cif.g08.bks.cpg/sg46_6_cif.got.tgz:11880.got - 2010.06.03 19:58:25.
