data_PCOD9379383
_publ_section_title
;
Structure prediction by ZEFSAII (Michael W. Deem and Ramdas Pophale) SiO2 
 PCOD9379383
Probable space group: I M A 2
;
_chemical_formula_sum "Si O2"
_cell_formula_units_Z 64
_cell_length_a 15.180586
_cell_length_b 9.045582
_cell_length_c 21.835942
_cell_angle_alpha 90.000000
_cell_angle_beta 90.000000
_cell_angle_gamma 90.000000
_cell_volume 2998.451189
_symmetry_space_group_name_H-M "I M A 2"
_symmetry_group_IT_number 46
_symmetry_cell_setting 'orthorhombic'
loop_
_space_group_symop_operation_xyz
x,y,z
-x,-y,z
1/2-x,y,z
1/2+x,-y,z
1/2+x,1/2+y,1/2+z
1/2-x,1/2-y,1/2+z
-x,1/2+y,1/2+z
x,1/2-y,1/2+z
loop_
_atom_site_type_symbol
_atom_site_label
_atom_site_fract_x
_atom_site_fract_y
_atom_site_fract_z
Si Si1 0.345284 0.115746 0.120180
Si Si2 0.851679 0.253478 0.841451
Si Si3 0.151144 0.166822 0.916934
Si Si4 0.976576 0.332699 0.955063
Si Si5 0.911204 0.088901 0.226281
Si Si6 0.902225 0.433436 0.506804
Si Si7 0.024793 0.339912 0.168783
Si Si8 0.853123 0.934339 0.783035
O O1 0.250000 0.187719 0.120254
O O2 0.420374 0.239227 0.121994
O O3 0.359584 0.016651 0.180222
O O4 0.353034 0.004326 0.063613
O O5 0.750000 0.242939 0.862792
O O6 0.920235 0.306293 0.892862
O O7 0.858063 0.369250 0.786013
O O8 0.877218 0.096850 0.809465
O O9 0.250000 0.218204 0.931903
O O10 0.140224 0.165499 0.843875
O O11 0.071611 0.256232 0.946077
O O12 0.140385 0.001273 0.945059
O O13 0.000000 0.500000 0.968533
O O14 0.917758 0.241026 0.003591
O O15 0.944164 0.237346 0.191355
O O16 0.000000 0.000000 0.243138
O O17 0.000000 0.500000 0.510014
O O18 0.085741 0.376944 0.228471
O O19 0.000000 0.500000 0.143551
O O20 0.750000 0.939184 0.764275
#
# Coordination Sequence:
#
# PCOD9379383 Si02
#       8
#     8   8   8   8   8   8   8   8
#     4  11  24  43  64  91 127 173 224 273 330 398
#     4  11  21  35  59  95 138 176 218 268 329 400
#     4  10  21  39  65  94 127 175 224 268 321 394
#     4  11  24  40  64  99 134 171 213 277 340 396
#     4  10  21  37  58  87 128 179 222 262 324 398
#     4  10  21  42  69  89 120 166 220 265 320 394
#     4  11  21  37  63  91 128 166 216 274 333 396
#     4  10  20  34  59  95 132 171 216 262 324 394
#
# _framework density 21.344353999999999
#
# number of rings (size 3 to 8) (size 9 to 14) (size 15 to 20)
#    0.000    1.500    2.500    3.375    0.000    2.000 
#    0.000    8.125    0.000    0.000    0.000    0.000 
#    0.000    0.000    0.000    0.000    0.000    0.000 
#
# Total GULP energy -178780.802037 kJ/mol
# GULP energy per Si atom -5586.900064 kJ/mol
# Density = 2.129577 g / cm^3
# Si number density = 21.344354 Si / 1000 Ang^3
#
#
#
# Elastic Constant Matrix: (Units=GPa)
#
#
# Indices 1 2 3 4 5 6 
#
# 1 84.4788 19.2625 17.4593 0.0000 0.0000 0.0000
# 2 19.2625 125.5419 18.3277 0.0000 0.0000 0.0000
# 3 17.4593 18.3277 53.1833 0.0000 0.0000 0.0000
# 4 0.0000 0.0000 0.0000 23.4776 0.0000 0.0000
# 5 0.0000 0.0000 0.0000 0.0000 14.9234 0.0000
# 6 0.0000 0.0000 0.0000 0.0000 0.0000 19.9689
#
#
#
# Elastic Compliance Matrix: (Units=1/GPa)
#
#
# Indices 1 2 3 4 5 6 
#
# 1 0.012941 -0.001438 -0.003753 0.000000 0.000000 0.000000
# 2 -0.001438 0.008547 -0.002473 0.000000 0.000000 0.000000
# 3 -0.003753 -0.002473 0.020887 0.000000 0.000000 0.000000
# 4 0.000000 0.000000 0.000000 0.042594 0.000000 0.000000
# 5 0.000000 0.000000 0.000000 0.000000 0.067009 0.000000
# 6 0.000000 0.000000 0.000000 0.000000 0.000000 0.050078
#
#
# Mechanical properties :
#
#
# Convention : Reuss Voigt Hill
#
# Bulk Modulus (GPa) = 36.97243 41.47812 39.22527
# Shear Modulus (GPa) = 22.08487 25.55095 23.81791
#
# Velocity S-wave (km/s) = 3.22016 3.46364 3.34411
# Velocity P-wave (km/s) = 5.58438 5.95573 5.77305
#
# Compressibility (1/GPa) = 0.02704718
#
# Stress axis : x y z
#
# Youngs Moduli (GPa) = 77.27557 116.99790 47.87598
#
# Poissons Ratio (x) = 0.16821 0.17967
# Poissons Ratio (y) = 0.11110 0.11842
# Poissons Ratio (z) = 0.29000 0.28939
#
# Static dielectric constant tensor:
#      x y z
#    x 1.776580 0.000000 0.000000 
#    y 0.000000 1.800280 0.000000 
#    z 0.000000 0.000000 1.789790 
# 
# From -- ./inp_files/23644.got.cif
#   From: 2010.05.17/outbox.cif.g08.bks.cpg/sg46_12_cif.got.tgz:23644.got - 2010.06.03 19:58:25.
