data_PCOD9379249
_publ_section_title
;
Structure prediction by ZEFSAII (Michael W. Deem and Ramdas Pophale) SiO2 
 PCOD9379249
Probable space group: I M A 2
;
_chemical_formula_sum "Si O2"
_cell_formula_units_Z 48
_cell_length_a 8.662381
_cell_length_b 9.541635
_cell_length_c 32.280553
_cell_angle_alpha 90.000000
_cell_angle_beta 90.000000
_cell_angle_gamma 90.000000
_cell_volume 2668.093512
_symmetry_space_group_name_H-M "I M A 2"
_symmetry_group_IT_number 46
_symmetry_cell_setting 'orthorhombic'
loop_
_space_group_symop_operation_xyz
x,y,z
-x,-y,z
1/2-x,y,z
1/2+x,-y,z
1/2+x,1/2+y,1/2+z
1/2-x,1/2-y,1/2+z
-x,1/2+y,1/2+z
x,1/2-y,1/2+z
loop_
_atom_site_type_symbol
_atom_site_label
_atom_site_fract_x
_atom_site_fract_y
_atom_site_fract_z
Si Si1 0.435385 0.343812 0.007720
Si Si2 0.434779 0.157377 0.086331
Si Si3 0.563733 0.342310 0.762942
Si Si4 0.563502 0.343583 0.340671
Si Si5 0.934932 0.158492 0.171514
Si Si6 0.064543 0.656713 0.919228
O O1 0.500000 0.500000 0.013977
O O2 0.250000 0.349101 0.005232
O O3 0.480275 0.246829 0.046274
O O4 0.501328 0.293513 0.963641
O O5 0.250000 0.150213 0.088424
O O6 0.496353 0.221949 0.129537
O O7 0.500000 0.000000 0.082611
O O8 0.500000 0.500000 0.767637
O O9 0.750000 0.351589 0.764328
O O10 0.511523 0.242934 0.800146
O O11 0.522172 0.284989 0.717045
O O12 0.500000 0.500000 0.340877
O O13 0.750000 0.348684 0.339910
O O14 0.517705 0.257876 0.381778
O O15 0.750000 0.155473 0.168135
O O16 0.000000 0.000000 0.172106
O O17 0.250000 0.649395 0.920845
O O18 0.000000 0.500000 0.912304
#
# Coordination Sequence:
#
# PCOD9379249 Si02
#       6
#     8   8   8   8   8   8
#     4  10  21  36  54  76 102 133 169 208 251 300
#     4  10  20  33  51  76 104 134 169 208 251 299
#     4   9  18  33  53  77 102 131 170 210 249 296
#     4  10  22  37  52  75 106 136 167 205 251 301
#     4   9  16  28  49  74 101 132 167 209 250 291
#     4  10  20  35  56  78 100 130 169 210 250 297
#
# _framework density 17.990375
#
# number of rings (size 3 to 8) (size 9 to 14) (size 15 to 20)
#    0.000    2.333    0.000    4.500    0.000    6.000 
#    0.000    4.167    0.000    4.000    0.000    0.000 
#    0.000    0.000    0.000    0.000    0.000    0.000 
#
# Total GULP energy -133858.981958 kJ/mol
# GULP energy per Si atom -5577.457582 kJ/mol
# Density = 1.794943 g / cm^3
# Si number density = 17.990375 Si / 1000 Ang^3
#
#
#
# Elastic Constant Matrix: (Units=GPa)
#
#
# Indices 1 2 3 4 5 6 
#
# 1 38.5918 23.6412 51.1586 0.0000 0.0000 0.0000
# 2 23.6412 74.3735 97.5463 0.0000 0.0000 0.0000
# 3 51.1586 97.5463 228.8626 0.0000 0.0000 0.0000
# 4 0.0000 0.0000 0.0000 38.5141 0.0000 0.0000
# 5 0.0000 0.0000 0.0000 0.0000 57.7471 0.0000
# 6 0.0000 0.0000 0.0000 0.0000 0.0000 25.7954
#
#
#
# Elastic Compliance Matrix: (Units=1/GPa)
#
#
# Indices 1 2 3 4 5 6 
#
# 1 0.036964 -0.002070 -0.007381 0.000000 0.000000 0.000000
# 2 -0.002070 0.030606 -0.012582 0.000000 0.000000 0.000000
# 3 -0.007381 -0.012582 0.011382 0.000000 0.000000 0.000000
# 4 0.000000 0.000000 0.000000 0.025965 0.000000 0.000000
# 5 0.000000 0.000000 0.000000 0.000000 0.017317 0.000000
# 6 0.000000 0.000000 0.000000 0.000000 0.000000 0.038767
#
#
# Mechanical properties :
#
#
# Convention : Reuss Voigt Hill
#
# Bulk Modulus (GPa) = 28.66378 76.28001 52.47190
# Shear Modulus (GPa) = 23.07388 35.71010 29.39199
#
# Velocity S-wave (km/s) = 3.58518 4.46012 4.04637
# Velocity P-wave (km/s) = 5.75374 8.30759 7.14568
#
# Compressibility (1/GPa) = 0.03488723
#
# Stress axis : x y z
#
# Youngs Moduli (GPa) = 27.05330 32.67291 87.85656
#
# Poissons Ratio (x) = 0.06762 0.64844
# Poissons Ratio (y) = 0.05599 1.10545
# Poissons Ratio (z) = 0.19967 0.41111
#
# Static dielectric constant tensor:
#      x y z
#    x 1.608920 0.000000 0.000000 
#    y 0.000000 1.130050 0.000000 
#    z 0.000000 0.000000 1.658730 
# 
# From -- ./inp_files/25010.got.cif
#   From: 2010.05.17/outbox.cif.g08.bks.cpg/sg46_13_cif.got.tgz:25010.got - 2010.06.03 19:58:25.
