data_PCOD9379747
_publ_section_title
;
Structure prediction by ZEFSAII (Michael W. Deem and Ramdas Pophale) SiO2 
 PCOD9379747
Probable space group: I M A 2
;
_chemical_formula_sum "Si O2"
_cell_formula_units_Z 64
_cell_length_a 15.154535
_cell_length_b 8.581063
_cell_length_c 20.161930
_cell_angle_alpha 90.000000
_cell_angle_beta 90.000000
_cell_angle_gamma 90.000000
_cell_volume 2621.898096
_symmetry_space_group_name_H-M "I M A 2"
_symmetry_group_IT_number 46
_symmetry_cell_setting 'orthorhombic'
loop_
_space_group_symop_operation_xyz
x,y,z
-x,-y,z
1/2-x,y,z
1/2+x,-y,z
1/2+x,1/2+y,1/2+z
1/2-x,1/2-y,1/2+z
-x,1/2+y,1/2+z
x,1/2-y,1/2+z
loop_
_atom_site_type_symbol
_atom_site_label
_atom_site_fract_x
_atom_site_fract_y
_atom_site_fract_z
Si Si1 0.850969 0.756656 0.509790
Si Si2 0.356985 0.430520 0.632380
Si Si3 0.905453 0.865112 0.877862
Si Si4 0.893006 0.194089 0.836654
Si Si5 0.646400 0.760703 0.253342
Si Si6 0.856364 0.072804 0.701152
Si Si7 0.858052 0.254927 0.069671
Si Si8 0.596032 0.428070 0.944506
O O1 0.750000 0.704273 0.504637
O O2 0.877702 0.716291 0.584483
O O3 0.902906 0.658757 0.455487
O O4 0.855467 0.932619 0.483458
O O5 0.250000 0.447886 0.635642
O O6 0.390610 0.394438 0.706099
O O7 0.386759 0.587572 0.597419
O O8 0.861326 0.731966 0.832308
O O9 0.005302 0.840120 0.854098
O O10 0.855718 0.026222 0.860310
O O11 0.879507 0.198670 0.758077
O O12 0.865625 0.343335 0.879414
O O13 0.750000 0.753374 0.239313
O O14 0.608838 0.593872 0.227499
O O15 0.750000 0.065733 0.699575
O O16 0.882891 0.123041 0.627727
O O17 0.750000 0.257985 0.060745
O O18 0.904658 0.295297 0.000942
O O19 0.500000 0.500000 0.929055
#
# Coordination Sequence:
#
# PCOD9379747 Si02
#       8
#     8   8   8   8   8   8   8   8
#     4  11  22  38  61  87 115 158 206 252 300 361
#     4   9  19  36  60  89 118 150 198 255 309 361
#     4  10  20  38  60  86 120 160 201 249 298 366
#     4  10  22  40  59  86 124 164 200 249 310 365
#     4   9  17  33  58  89 120 154 196 245 298 361
#     4   9  19  37  62  89 121 156 199 250 305 368
#     4  10  21  40  63  91 122 158 205 263 313 370
#     4  12  24  41  59  87 128 167 207 258 312 375
#
# _framework density 24.409797000000001
#
# number of rings (size 3 to 8) (size 9 to 14) (size 15 to 20)
#    0.000    2.000    1.250    2.250    0.000    4.500 
#    6.750    1.250    0.000    0.000    0.000    0.000 
#    0.000    0.000    0.000    0.000    0.000    0.000 
#
# Total GULP energy -178652.806701 kJ/mol
# GULP energy per Si atom -5582.900209 kJ/mol
# Density = 2.435424 g / cm^3
# Si number density = 24.409797 Si / 1000 Ang^3
#
#
#
# Elastic Constant Matrix: (Units=GPa)
#
#
# Indices 1 2 3 4 5 6 
#
# 1 34.2093 -6.2992 -3.1441 0.0000 0.0000 0.0000
# 2 -6.2992 64.0413 -3.5987 0.0000 0.0000 0.0000
# 3 -3.1441 -3.5987 68.2008 0.0000 0.0000 0.0000
# 4 0.0000 0.0000 0.0000 35.6514 0.0000 0.0000
# 5 0.0000 0.0000 0.0000 0.0000 19.7809 0.0000
# 6 0.0000 0.0000 0.0000 0.0000 0.0000 20.3440
#
#
#
# Elastic Compliance Matrix: (Units=1/GPa)
#
#
# Indices 1 2 3 4 5 6 
#
# 1 0.029931 0.003031 0.001540 0.000000 0.000000 0.000000
# 2 0.003031 0.015968 0.000982 0.000000 0.000000 0.000000
# 3 0.001540 0.000982 0.014785 0.000000 0.000000 0.000000
# 4 0.000000 0.000000 0.000000 0.028049 0.000000 0.000000
# 5 0.000000 0.000000 0.000000 0.000000 0.050554 0.000000
# 6 0.000000 0.000000 0.000000 0.000000 0.000000 0.049155
#
#
# Mechanical properties :
#
#
# Convention : Reuss Voigt Hill
#
# Bulk Modulus (GPa) = 13.92945 15.59638 14.76291
# Shear Modulus (GPa) = 24.84257 27.12150 25.98204
#
# Velocity S-wave (km/s) = 3.19365 3.33692 3.26607
# Velocity P-wave (km/s) = 4.39523 4.60977 4.50378
#
# Compressibility (1/GPa) = 0.07179035
#
# Stress axis : x y z
#
# Youngs Moduli (GPa) = 33.40978 62.62439 67.63431
#
# Poissons Ratio (x) = -0.18979 -0.10414
# Poissons Ratio (y) = -0.10125 -0.06644
# Poissons Ratio (z) = -0.05144 -0.06152
#
# Static dielectric constant tensor:
#      x y z
#    x 1.990010 0.000000 0.000000 
#    y 0.000000 2.067100 0.000000 
#    z 0.000000 0.000000 1.927990 
# 
# From -- ./inp_files/20251.got.cif
#   From: 2010.05.17/outbox.cif.g08.bks.cpg/sg46_11_cif.got.tgz:20251.got - 2010.06.03 19:58:25.
