data_PCOD9379290
_publ_section_title
;
Structure prediction by ZEFSAII (Michael W. Deem and Ramdas Pophale) SiO2 
 PCOD9379290
Probable space group: I M A 2
;
_chemical_formula_sum "Si O2"
_cell_formula_units_Z 56
_cell_length_a 8.660749
_cell_length_b 13.998621
_cell_length_c 30.206561
_cell_angle_alpha 90.000000
_cell_angle_beta 90.000000
_cell_angle_gamma 90.000000
_cell_volume 3662.199439
_symmetry_space_group_name_H-M "I M A 2"
_symmetry_group_IT_number 46
_symmetry_cell_setting 'orthorhombic'
loop_
_space_group_symop_operation_xyz
x,y,z
-x,-y,z
1/2-x,y,z
1/2+x,-y,z
1/2+x,1/2+y,1/2+z
1/2-x,1/2-y,1/2+z
-x,1/2+y,1/2+z
x,1/2-y,1/2+z
loop_
_atom_site_type_symbol
_atom_site_label
_atom_site_fract_x
_atom_site_fract_y
_atom_site_fract_z
Si Si1 0.935940 0.297084 0.646830
Si Si2 0.935324 0.107971 0.967699
Si Si3 0.434299 0.103879 0.234177
Si Si4 0.065826 0.108097 0.059392
Si Si5 0.563953 0.392566 0.370066
Si Si6 0.937056 0.214769 0.781901
Si Si7 0.434992 0.603924 0.193604
O O1 0.750000 0.303296 0.646091
O O2 0.980794 0.188763 0.660118
O O3 0.998065 0.363218 0.686638
O O4 0.004177 0.331766 0.600647
O O5 0.750000 0.106460 0.972010
O O6 0.976860 0.147037 0.918993
O O7 0.000000 0.000000 0.966471
O O8 0.007480 0.149795 0.012368
O O9 0.250000 0.101581 0.231851
O O10 0.490149 0.184322 0.268675
O O11 0.500000 0.000000 0.245213
O O12 0.250000 0.103202 0.059630
O O13 0.000000 0.000000 0.063402
O O14 0.500000 0.500000 0.365341
O O15 0.750000 0.399198 0.368593
O O16 0.514226 0.327220 0.329122
O O17 0.750000 0.224029 0.781053
O O18 0.980737 0.141002 0.742615
O O19 0.500000 0.500000 0.183941
O O20 0.250000 0.598628 0.193026
#
# Coordination Sequence:
#
# PCOD9379290 Si02
#       7
#     8   8   8   8   8   8   8
#     4  10  20  34  48  66  91 120 151 185 223 267
#     4   9  16  27  42  63  90 121 151 183 223 268
#     4  11  21  33  48  67  90 119 151 187 225 266
#     4  11  20  30  45  66  91 121 152 187 225 268
#     4   9  17  28  45  67  94 124 154 186 223 264
#     4   9  18  32  46  66  93 122 153 185 220 261
#     4   9  18  30  46  65  90 119 147 181 219 256
#
# _framework density 15.291357
#
# number of rings (size 3 to 8) (size 9 to 14) (size 15 to 20)
#    0.000    2.286    0.000    6.000    0.000    4.000 
#    0.000    0.000    0.000    0.000    0.000    1.000 
#    0.000    4.571    0.000    0.000    0.000    0.000 
#
# Total GULP energy -156107.698635 kJ/mol
# GULP energy per Si atom -5575.274951 kJ/mol
# Density = 1.525655 g / cm^3
# Si number density = 15.291357 Si / 1000 Ang^3
#
#
#
# Elastic Constant Matrix: (Units=GPa)
#
#
# Indices 1 2 3 4 5 6 
#
# 1 70.4134 33.5485 48.9424 0.0000 0.0000 0.0000
# 2 33.5485 93.8741 66.0720 0.0000 0.0000 0.0000
# 3 48.9424 66.0720 161.1888 0.0000 0.0000 0.0000
# 4 0.0000 0.0000 0.0000 17.0475 0.0000 0.0000
# 5 0.0000 0.0000 0.0000 0.0000 23.4391 0.0000
# 6 0.0000 0.0000 0.0000 0.0000 0.0000 24.4687
#
#
#
# Elastic Compliance Matrix: (Units=1/GPa)
#
#
# Indices 1 2 3 4 5 6 
#
# 1 0.018929 -0.003822 -0.004181 0.000000 0.000000 0.000000
# 2 -0.003822 0.015744 -0.005293 0.000000 0.000000 0.000000
# 3 -0.004181 -0.005293 0.009643 0.000000 0.000000 0.000000
# 4 0.000000 0.000000 0.000000 0.058660 0.000000 0.000000
# 5 0.000000 0.000000 0.000000 0.000000 0.042664 0.000000
# 6 0.000000 0.000000 0.000000 0.000000 0.000000 0.040869
#
#
# Mechanical properties :
#
#
# Convention : Reuss Voigt Hill
#
# Bulk Modulus (GPa) = 56.42089 69.17800 62.79945
# Shear Modulus (GPa) = 22.83029 24.78528 23.80778
#
# Velocity S-wave (km/s) = 3.86815 4.03037 3.95009
# Velocity P-wave (km/s) = 7.54503 8.18515 7.87160
#
# Compressibility (1/GPa) = 0.01772393
#
# Stress axis : x y z
#
# Youngs Moduli (GPa) = 52.82955 63.51665 103.70322
#
# Poissons Ratio (x) = 0.24277 0.43355
# Poissons Ratio (y) = 0.20193 0.54890
# Poissons Ratio (z) = 0.22086 0.33619
#
# Static dielectric constant tensor:
#      x y z
#    x 1.513450 0.000000 0.000000 
#    y 0.000000 1.513490 0.000000 
#    z 0.000000 0.000000 1.533680 
# 
# From -- ./inp_files/25252.got.cif
#   From: 2010.05.17/outbox.cif.g08.bks.cpg/sg46_13_cif.got.tgz:25252.got - 2010.06.03 19:58:25.
