data_PCOD9379719
_publ_section_title
;
Structure prediction by ZEFSAII (Michael W. Deem and Ramdas Pophale) SiO2 
 PCOD9379719
Probable space group: I M A 2
;
_chemical_formula_sum "Si O2"
_cell_formula_units_Z 48
_cell_length_a 13.521287
_cell_length_b 18.011425
_cell_length_c 9.487913
_cell_angle_alpha 90.000000
_cell_angle_beta 90.000000
_cell_angle_gamma 90.000000
_cell_volume 2310.664004
_symmetry_space_group_name_H-M "I M A 2"
_symmetry_group_IT_number 46
_symmetry_cell_setting 'orthorhombic'
loop_
_space_group_symop_operation_xyz
x,y,z
-x,-y,z
1/2-x,y,z
1/2+x,-y,z
1/2+x,1/2+y,1/2+z
1/2-x,1/2-y,1/2+z
-x,1/2+y,1/2+z
x,1/2-y,1/2+z
loop_
_atom_site_type_symbol
_atom_site_label
_atom_site_fract_x
_atom_site_fract_y
_atom_site_fract_z
Si Si1 0.502044 0.911307 0.285040
Si Si2 0.967542 0.203475 0.521176
Si Si3 0.640498 0.441284 0.532515
Si Si4 0.861564 0.594013 0.376294
Si Si5 0.934140 0.338794 0.305814
Si Si6 0.858680 0.701093 0.634396
O O1 0.472719 0.870316 0.428164
O O2 0.430036 0.905023 0.149151
O O3 0.597818 0.862913 0.236780
O O4 0.500000 0.000000 0.307409
O O5 0.065227 0.232624 0.605618
O O6 0.946124 0.268017 0.408716
O O7 0.897491 0.187992 0.654082
O O8 0.750000 0.445353 0.593745
O O9 0.614959 0.523570 0.477368
O O10 0.636258 0.392692 0.392322
O O11 0.750000 0.581841 0.313199
O O12 0.851217 0.662379 0.482928
O O13 0.961792 0.614186 0.292566
O O14 0.750000 0.725615 0.682145
#
# Coordination Sequence:
#
# PCOD9379719 Si02
#       6
#     8   8   8   8   8   8
#     4  12  22  40  64  98 132 168 211 269 323 388
#     4  11  23  39  63  90 128 161 216 259 326 383
#     4  11  21  38  63  87 118 167 219 261 312 382
#     4   9  18  33  60  91 118 157 206 253 314 383
#     4  11  20  39  60  86 123 164 209 267 316 385
#     4  10  20  37  64  94 125 163 207 258 319 386
#
# _framework density 20.773250000000001
#
# number of rings (size 3 to 8) (size 9 to 14) (size 15 to 20)
#    0.000    1.333    6.667    0.500    0.000    2.667 
#    0.000    4.167    0.000    0.000    0.000    0.000 
#    0.000    0.000    0.000    0.000    0.000    0.000 
#
# Total GULP energy -133644.687710 kJ/mol
# GULP energy per Si atom -5568.528655 kJ/mol
# Density = 2.072597 g / cm^3
# Si number density = 20.773250 Si / 1000 Ang^3
#
#
#
# Elastic Constant Matrix: (Units=GPa)
#
#
# Indices 1 2 3 4 5 6 
#
# 1 37.6184 19.2088 1.8747 0.0000 0.0000 0.0000
# 2 19.2088 83.2082 38.5744 0.0000 0.0000 0.0000
# 3 1.8747 38.5744 88.3928 0.0000 0.0000 0.0000
# 4 0.0000 0.0000 0.0000 35.8667 0.0000 0.0000
# 5 0.0000 0.0000 0.0000 0.0000 4.7437 0.0000
# 6 0.0000 0.0000 0.0000 0.0000 0.0000 9.2392
#
#
#
# Elastic Compliance Matrix: (Units=1/GPa)
#
#
# Indices 1 2 3 4 5 6 
#
# 1 0.030785 -0.008530 0.003069 0.000000 0.000000 0.000000
# 2 -0.008530 0.017429 -0.007425 0.000000 0.000000 0.000000
# 3 0.003069 -0.007425 0.014488 0.000000 0.000000 0.000000
# 4 0.000000 0.000000 0.000000 0.027881 0.000000 0.000000
# 5 0.000000 0.000000 0.000000 0.000000 0.210808 0.000000
# 6 0.000000 0.000000 0.000000 0.000000 0.000000 0.108235
#
#
# Mechanical properties :
#
#
# Convention : Reuss Voigt Hill
#
# Bulk Modulus (GPa) = 27.07686 36.50392 31.79039
# Shear Modulus (GPa) = 11.16798 19.94069 15.55433
#
# Velocity S-wave (km/s) = 2.32116 3.10162 2.73933
# Velocity P-wave (km/s) = 4.49961 5.51701 5.03408
#
# Compressibility (1/GPa) = 0.03693190
#
# Stress axis : x y z
#
# Youngs Moduli (GPa) = 32.48308 57.37422 69.02075
#
# Poissons Ratio (x) = 0.48939 -0.21186
# Poissons Ratio (y) = 0.27708 0.51250
# Poissons Ratio (z) = -0.09971 0.42602
#
# Static dielectric constant tensor:
#      x y z
#    x 1.883640 0.000000 0.000000 
#    y 0.000000 1.781570 0.000000 
#    z 0.000000 0.000000 1.727240 
# 
# From -- ./inp_files/5724.got.cif
#   From: 2010.05.17/outbox.cif.g08.bks.cpg/sg46_3_cif.got.tgz:5724.got - 2010.06.03 19:58:25.
