data_PCOD9379671
_publ_section_title
;
Structure prediction by ZEFSAII (Michael W. Deem and Ramdas Pophale) SiO2 
 PCOD9379671
Probable space group: I M A 2
;
_chemical_formula_sum "Si O2"
_cell_formula_units_Z 48
_cell_length_a 32.642966
_cell_length_b 9.167665
_cell_length_c 8.103147
_cell_angle_alpha 90.000000
_cell_angle_beta 90.000000
_cell_angle_gamma 90.000000
_cell_volume 2424.945963
_symmetry_space_group_name_H-M "I M A 2"
_symmetry_group_IT_number 46
_symmetry_cell_setting 'orthorhombic'
loop_
_space_group_symop_operation_xyz
x,y,z
-x,-y,z
1/2-x,y,z
1/2+x,-y,z
1/2+x,1/2+y,1/2+z
1/2-x,1/2-y,1/2+z
-x,1/2+y,1/2+z
x,1/2-y,1/2+z
loop_
_atom_site_type_symbol
_atom_site_label
_atom_site_fract_x
_atom_site_fract_y
_atom_site_fract_z
Si Si1 0.164492 0.608696 0.023460
Si Si2 0.383176 0.136776 0.713978
Si Si3 0.202815 0.616808 0.681341
Si Si4 0.125645 0.048111 0.086899
Si Si5 0.082703 0.820482 0.321249
Si Si6 0.045318 0.952464 0.626427
O O1 0.149299 0.465847 0.118616
O O2 0.186041 0.720706 0.146662
O O3 0.194998 0.579512 0.872574
O O4 0.124139 0.681823 0.935125
O O5 0.373944 0.306056 0.695930
O O6 0.426081 0.094535 0.630361
O O7 0.386420 0.091257 0.903592
O O8 0.250000 0.603842 0.635678
O O9 0.171418 0.516151 0.581911
O O10 0.095992 0.930979 0.175255
O O11 0.048470 0.885670 0.442756
O O12 0.066619 0.669450 0.244678
O O13 0.000000 0.000000 0.673930
#
# Coordination Sequence:
#
# PCOD9379671 Si02
#       6
#     8   8   8   8   8   8
#     4  10  20  37  61  84 115 153 196 236 286 351
#     4  11  22  40  62  86 114 155 197 236 290 353
#     4  11  21  36  58  88 117 151 195 244 289 338
#     4  11  22  40  63  84 116 157 196 235 288 356
#     4  10  21  40  61  84 118 157 194 232 286 352
#     4  11  23  39  61  90 119 151 195 245 289 336
#
# _framework density 19.794256000000001
#
# number of rings (size 3 to 8) (size 9 to 14) (size 15 to 20)
#    0.000    1.333    0.000   10.500    0.000    2.667 
#    0.000    6.667    0.000    0.000    0.000    0.000 
#    0.000    0.000    0.000    0.000    0.000    0.000 
#
# Total GULP energy -134077.697882 kJ/mol
# GULP energy per Si atom -5586.570745 kJ/mol
# Density = 1.974920 g / cm^3
# Si number density = 19.794256 Si / 1000 Ang^3
#
#
#
# Elastic Constant Matrix: (Units=GPa)
#
#
# Indices 1 2 3 4 5 6 
#
# 1 73.7987 42.8549 -13.1768 0.0000 0.0000 0.0000
# 2 42.8549 93.9342 6.5871 0.0000 0.0000 0.0000
# 3 -13.1768 6.5871 72.3029 0.0000 0.0000 0.0000
# 4 0.0000 0.0000 0.0000 34.9440 0.0000 0.0000
# 5 0.0000 0.0000 0.0000 0.0000 15.9741 0.0000
# 6 0.0000 0.0000 0.0000 0.0000 0.0000 6.8348
#
#
#
# Elastic Compliance Matrix: (Units=1/GPa)
#
#
# Indices 1 2 3 4 5 6 
#
# 1 0.019762 -0.009328 0.004451 0.000000 0.000000 0.000000
# 2 -0.009328 0.015117 -0.003077 0.000000 0.000000 0.000000
# 3 0.004451 -0.003077 0.014922 0.000000 0.000000 0.000000
# 4 0.000000 0.000000 0.000000 0.028617 0.000000 0.000000
# 5 0.000000 0.000000 0.000000 0.000000 0.062601 0.000000
# 6 0.000000 0.000000 0.000000 0.000000 0.000000 0.146310
#
#
# Mechanical properties :
#
#
# Convention : Reuss Voigt Hill
#
# Bulk Modulus (GPa) = 29.50408 34.72957 32.11683
# Shear Modulus (GPa) = 15.89647 25.13530 20.51588
#
# Velocity S-wave (km/s) = 2.83695 3.56733 3.22290
# Velocity P-wave (km/s) = 5.06644 5.87802 5.48726
#
# Compressibility (1/GPa) = 0.03389361
#
# Stress axis : x y z
#
# Youngs Moduli (GPa) = 50.60241 66.14992 67.01392
#
# Poissons Ratio (x) = 0.61704 -0.29830
# Poissons Ratio (y) = 0.47202 0.20622
# Poissons Ratio (z) = -0.22525 0.20356
#
# Static dielectric constant tensor:
#      x y z
#    x 1.686220 0.000000 0.000000 
#    y 0.000000 1.701330 0.000000 
#    z 0.000000 0.000000 1.744300 
# 
# From -- ./inp_files/8396.got.cif
#   From: 2010.05.17/outbox.cif.g08.bks.cpg/sg46_5_cif.got.tgz:8396.got - 2010.06.03 19:58:25.
