data_PCOD9379929
_publ_section_title
;
Structure prediction by ZEFSAII (Michael W. Deem and Ramdas Pophale) SiO2 
 PCOD9379929
Probable space group: I M A 2
;
_chemical_formula_sum "Si O2"
_cell_formula_units_Z 56
_cell_length_a 20.023017
_cell_length_b 11.872475
_cell_length_c 11.011135
_cell_angle_alpha 90.000000
_cell_angle_beta 90.000000
_cell_angle_gamma 90.000000
_cell_volume 2617.597499
_symmetry_space_group_name_H-M "I M A 2"
_symmetry_group_IT_number 46
_symmetry_cell_setting 'orthorhombic'
loop_
_space_group_symop_operation_xyz
x,y,z
-x,-y,z
1/2-x,y,z
1/2+x,-y,z
1/2+x,1/2+y,1/2+z
1/2-x,1/2-y,1/2+z
-x,1/2+y,1/2+z
x,1/2-y,1/2+z
loop_
_atom_site_type_symbol
_atom_site_label
_atom_site_fract_x
_atom_site_fract_y
_atom_site_fract_z
Si Si1 0.463722 0.738000 0.330370
Si Si2 0.750000 0.133980 0.350995
Si Si3 0.951265 0.897041 0.986376
Si Si4 0.250000 0.741632 0.099145
Si Si5 0.174122 0.362898 0.308483
Si Si6 0.871168 0.081859 0.673115
Si Si7 0.909395 0.666764 0.739011
Si Si8 0.606505 0.462039 0.908129
O O1 0.497394 0.704711 0.458452
O O2 0.415101 0.643767 0.275460
O O3 0.527693 0.749518 0.244380
O O4 0.429232 0.858522 0.340456
O O5 0.750000 0.163426 0.206498
O O6 0.750000 0.241588 0.448642
O O7 0.815235 0.062337 0.384544
O O8 0.884796 0.879630 0.906762
O O9 0.922961 0.906523 0.120823
O O10 0.000000 0.000000 0.954937
O O11 0.315982 0.671732 0.131515
O O12 0.250000 0.359430 0.355050
O O13 0.164926 0.470786 0.222576
O O14 0.155333 0.245873 0.241599
O O15 0.909345 0.047229 0.550522
O O16 0.910656 0.582564 0.852531
#
# Coordination Sequence:
#
# PCOD9379929 Si02
#       8
#     8   4   8   4   8   8   8   8
#     4  11  22  43  70 102 130 173 224 285 349 405
#     4  10  22  40  67 100 132 186 225 287 340 419
#     4  11  23  45  69 102 138 177 234 294 349 421
#     4  10  20  42  65  98 138 174 233 275 352 405
#     4  11  26  46  68  98 137 188 236 284 351 419
#     4  11  22  42  70  98 132 176 229 281 341 416
#     4  11  27  44  66  99 138 180 228 283 343 416
#     4  11  24  42  68  98 137 179 222 280 347 410
#
# _framework density 21.393663
#
# number of rings (size 3 to 8) (size 9 to 14) (size 15 to 20)
#    0.000    1.143    3.571    2.143    5.000    0.571 
#    7.714    0.000    0.000    0.000    0.000    0.000 
#    0.000    0.000    0.000    0.000    0.000    0.000 
#
# Total GULP energy -156159.489639 kJ/mol
# GULP energy per Si atom -5577.124630 kJ/mol
# Density = 2.134497 g / cm^3
# Si number density = 21.393663 Si / 1000 Ang^3
#
#
#
# Elastic Constant Matrix: (Units=GPa)
#
#
# Indices 1 2 3 4 5 6 
#
# 1 120.8433 28.8019 14.6076 0.0000 0.0000 0.0000
# 2 28.8019 72.5410 -10.0346 0.0000 0.0000 0.0000
# 3 14.6076 -10.0346 36.8601 0.0000 0.0000 0.0000
# 4 0.0000 0.0000 0.0000 22.4609 0.0000 0.0000
# 5 0.0000 0.0000 0.0000 0.0000 11.4130 0.0000
# 6 0.0000 0.0000 0.0000 0.0000 0.0000 19.3274
#
#
#
# Elastic Compliance Matrix: (Units=1/GPa)
#
#
# Indices 1 2 3 4 5 6 
#
# 1 0.010034 -0.004711 -0.005259 0.000000 0.000000 0.000000
# 2 -0.004711 0.016537 0.006369 0.000000 0.000000 0.000000
# 3 -0.005259 0.006369 0.030948 0.000000 0.000000 0.000000
# 4 0.000000 0.000000 0.000000 0.044522 0.000000 0.000000
# 5 0.000000 0.000000 0.000000 0.000000 0.087619 0.000000
# 6 0.000000 0.000000 0.000000 0.000000 0.000000 0.051740
#
#
# Mechanical properties :
#
#
# Convention : Reuss Voigt Hill
#
# Bulk Modulus (GPa) = 19.87449 32.99937 26.43693
# Shear Modulus (GPa) = 18.84137 23.76491 21.30314
#
# Velocity S-wave (km/s) = 2.97088 3.33654 3.15900
# Velocity P-wave (km/s) = 4.59110 5.50469 5.06852
#
# Compressibility (1/GPa) = 0.05031575
#
# Stress axis : x y z
#
# Youngs Moduli (GPa) = 99.66327 60.47073 32.31271
#
# Poissons Ratio (x) = 0.28490 0.16993
# Poissons Ratio (y) = 0.46955 -0.20580
# Poissons Ratio (z) = 0.52413 -0.38514
#
# Static dielectric constant tensor:
#      x y z
#    x 1.763060 0.000000 0.000000 
#    y 0.000000 1.770750 0.000000 
#    z 0.000000 0.000000 1.832910 
# 
# From -- ./inp_files/12425.got.cif
#   From: 2010.05.17/outbox.cif.g08.bks.cpg/sg46_7_cif.got.tgz:12425.got - 2010.06.03 19:58:25.
