data_PCOD9379387
_publ_section_title
;
Structure prediction by ZEFSAII (Michael W. Deem and Ramdas Pophale) SiO2 
 PCOD9379387
Probable space group: I M A 2
;
_chemical_formula_sum "Si O2"
_cell_formula_units_Z 48
_cell_length_a 23.531666
_cell_length_b 14.027879
_cell_length_c 5.406927
_cell_angle_alpha 90.000000
_cell_angle_beta 90.000000
_cell_angle_gamma 90.000000
_cell_volume 1784.823160
_symmetry_space_group_name_H-M "I M A 2"
_symmetry_group_IT_number 46
_symmetry_cell_setting 'orthorhombic'
loop_
_space_group_symop_operation_xyz
x,y,z
-x,-y,z
1/2-x,y,z
1/2+x,-y,z
1/2+x,1/2+y,1/2+z
1/2-x,1/2-y,1/2+z
-x,1/2+y,1/2+z
x,1/2-y,1/2+z
loop_
_atom_site_type_symbol
_atom_site_label
_atom_site_fract_x
_atom_site_fract_y
_atom_site_fract_z
Si Si1 0.486851 0.718113 0.414350
Si Si2 0.250000 0.643908 0.922914
Si Si3 0.682522 0.808562 0.407667
Si Si4 0.055763 0.973006 0.063110
Si Si5 0.862382 0.963161 0.725119
Si Si6 0.374782 0.651158 0.930760
Si Si7 0.750000 0.480632 0.426964
O O1 0.516287 0.738482 0.675775
O O2 0.472233 0.607847 0.389262
O O3 0.426071 0.774502 0.456356
O O4 0.311573 0.694352 0.895837
O O5 0.250000 0.569633 0.692658
O O6 0.250000 0.592288 0.191076
O O7 0.750000 0.833897 0.413354
O O8 0.671647 0.760191 0.144524
O O9 0.645474 0.900455 0.481966
O O10 0.085058 0.054665 0.903437
O O11 0.104171 0.916909 0.209609
O O12 0.000000 0.000000 0.223646
O O13 0.868486 0.074024 0.648278
O O14 0.805157 0.955569 0.883534
#
# Coordination Sequence:
#
# PCOD9379387 Si02
#       7
#     8   4   8   8   8   8   4
#     4  10  21  43  65  93 135 174 219 284 343 399
#     4  10  20  34  61 101 134 172 217 265 352 413
#     4  10  23  40  63  97 138 177 217 276 344 405
#     4  11  24  42  68  98 133 191 235 282 346 408
#     4  11  21  41  67  98 133 176 231 278 347 423
#     4  10  22  40  68 100 140 178 229 286 352 419
#     4  10  20  34  61 101 128 166 209 283 320 421
#
# _framework density 26.893419999999999
#
# number of rings (size 3 to 8) (size 9 to 14) (size 15 to 20)
#    0.000    1.667    4.167    0.000    2.333    0.667 
#    0.000    7.500    0.000    0.000    0.000    0.000 
#    0.000    0.000    0.000    0.000    0.000    0.000 
#
# Total GULP energy -134212.086507 kJ/mol
# GULP energy per Si atom -5592.170271 kJ/mol
# Density = 2.683221 g / cm^3
# Si number density = 26.893420 Si / 1000 Ang^3
#
#
#
# Elastic Constant Matrix: (Units=GPa)
#
#
# Indices 1 2 3 4 5 6 
#
# 1 121.8570 12.2183 15.7497 0.0000 0.0000 0.0000
# 2 12.2183 59.0650 30.0583 0.0000 0.0000 0.0000
# 3 15.7497 30.0583 127.8286 0.0000 0.0000 0.0000
# 4 0.0000 0.0000 0.0000 52.6342 0.0000 0.0000
# 5 0.0000 0.0000 0.0000 0.0000 -3.7198 0.0000
# 6 0.0000 0.0000 0.0000 0.0000 0.0000 7.7300
#
#
#
# Elastic Compliance Matrix: (Units=1/GPa)
#
#
# Indices 1 2 3 4 5 6 
#
# 1 0.008437 -0.001382 -0.000715 0.000000 0.000000 0.000000
# 2 -0.001382 0.019458 -0.004405 0.000000 0.000000 0.000000
# 3 -0.000715 -0.004405 0.008947 0.000000 0.000000 0.000000
# 4 0.000000 0.000000 0.000000 0.018999 0.000000 0.000000
# 5 0.000000 0.000000 0.000000 0.000000 -0.268833 0.000000
# 6 0.000000 0.000000 0.000000 0.000000 0.000000 0.129365
#
#
# Mechanical properties :
#
#
# Convention : Reuss Voigt Hill
#
# Bulk Modulus (GPa) = 41.94779 47.20035 44.57407
# Shear Modulus (GPa) = -79.77396 28.04386 -25.86505
#
# Velocity S-wave (km/s) = -5.45228 3.23271 -3.10459
# Velocity P-wave (km/s) = 4.89948 5.61452 1.93881
#
# Compressibility (1/GPa) = 0.02383916
#
# Stress axis : x y z
#
# Youngs Moduli (GPa) = 118.52218 51.39239 111.77055
#
# Poissons Ratio (x) = 0.07101 0.07988
# Poissons Ratio (y) = 0.16376 0.49238
# Poissons Ratio (z) = 0.08470 0.22640
#
# Static dielectric constant tensor:
#      x y z
#    x 2.151950 0.000000 0.000000 
#    y 0.000000 2.145070 0.000000 
#    z 0.000000 0.000000 2.179610 
# 
# From -- ./inp_files/2543.got.cif
#   From: 2010.05.17/outbox.cif.g08.bks.cpg/sg46_2_cif.got.tgz:2543.got - 2010.06.03 19:58:25.
