data_PCOD9379855
_publ_section_title
;
Structure prediction by ZEFSAII (Michael W. Deem and Ramdas Pophale) SiO2 
 PCOD9379855
Probable space group: I M A 2
;
_chemical_formula_sum "Si O2"
_cell_formula_units_Z 60
_cell_length_a 24.851928
_cell_length_b 13.027685
_cell_length_c 8.991912
_cell_angle_alpha 90.000000
_cell_angle_beta 90.000000
_cell_angle_gamma 90.000000
_cell_volume 2911.249211
_symmetry_space_group_name_H-M "I M A 2"
_symmetry_group_IT_number 46
_symmetry_cell_setting 'orthorhombic'
loop_
_space_group_symop_operation_xyz
x,y,z
-x,-y,z
1/2-x,y,z
1/2+x,-y,z
1/2+x,1/2+y,1/2+z
1/2-x,1/2-y,1/2+z
-x,1/2+y,1/2+z
x,1/2-y,1/2+z
loop_
_atom_site_type_symbol
_atom_site_label
_atom_site_fract_x
_atom_site_fract_y
_atom_site_fract_z
Si Si1 0.381202 0.458547 0.884420
Si Si2 0.906991 0.337409 0.033171
Si Si3 0.690636 0.654969 0.095657
Si Si4 0.811591 0.951428 0.896697
Si Si5 0.394385 0.879932 0.887060
Si Si6 0.389234 0.331520 0.602006
Si Si7 0.969769 0.654889 0.081990
Si Si8 0.000000 0.000000 0.839941
O O1 0.379116 0.576854 0.929914
O O2 0.391905 0.424829 0.716846
O O3 0.329701 0.396263 0.944469
O O4 0.429245 0.410440 0.982402
O O5 0.893911 0.224040 0.979349
O O6 0.896423 0.357857 0.208468
O O7 0.971278 0.346870 0.013510
O O8 0.750000 0.698859 0.079199
O O9 0.690820 0.567927 0.220849
O O10 0.649662 0.739797 0.155288
O O11 0.750000 0.941901 0.953336
O O12 0.840247 0.058925 0.923471
O O13 0.855037 0.871254 0.962252
O O14 0.448335 0.948592 0.919295
O O15 0.445483 0.270351 0.586663
O O16 0.975667 0.592250 0.236894
#
# Coordination Sequence:
#
# PCOD9379855 Si02
#       8
#     8   8   8   8   8   8   8   4
#     4  11  21  40  61  94 131 168 210 262 321 385
#     4  11  24  42  66  89 132 163 222 260 321 383
#     4  10  20  39  65  89 123 169 211 261 326 384
#     4  11  24  45  65  90 132 172 216 274 330 388
#     4  11  24  43  66  94 123 174 214 270 322 388
#     4  11  24  34  65  98 133 160 215 263 323 387
#     4  10  20  40  59  94 130 175 199 257 319 397
#     4  10  20  40  64  92 140 170 208 262 330 388
#
# _framework density 20.60971
#
# number of rings (size 3 to 8) (size 9 to 14) (size 15 to 20)
#    0.000    1.333    4.000    2.800    7.467    2.133 
#    0.000    1.333    0.000    0.000    0.000    0.000 
#    0.000    0.000    0.000    0.000    0.000    0.000 
#
# Total GULP energy -167428.723097 kJ/mol
# GULP energy per Si atom -5580.957437 kJ/mol
# Density = 2.056280 g / cm^3
# Si number density = 20.609710 Si / 1000 Ang^3
#
#
#
# Elastic Constant Matrix: (Units=GPa)
#
#
# Indices 1 2 3 4 5 6 
#
# 1 62.2642 13.9978 9.3903 0.0000 0.0000 0.0000
# 2 13.9978 100.6004 18.0808 0.0000 0.0000 0.0000
# 3 9.3903 18.0808 41.2077 0.0000 0.0000 0.0000
# 4 0.0000 0.0000 0.0000 31.5344 0.0000 0.0000
# 5 0.0000 0.0000 0.0000 0.0000 12.2158 0.0000
# 6 0.0000 0.0000 0.0000 0.0000 0.0000 20.8074
#
#
#
# Elastic Compliance Matrix: (Units=1/GPa)
#
#
# Indices 1 2 3 4 5 6 
#
# 1 0.016929 -0.001804 -0.003066 0.000000 0.000000 0.000000
# 2 -0.001804 0.010984 -0.004408 0.000000 0.000000 0.000000
# 3 -0.003066 -0.004408 0.026900 0.000000 0.000000 0.000000
# 4 0.000000 0.000000 0.000000 0.031711 0.000000 0.000000
# 5 0.000000 0.000000 0.000000 0.000000 0.081861 0.000000
# 6 0.000000 0.000000 0.000000 0.000000 0.000000 0.048060
#
#
# Mechanical properties :
#
#
# Convention : Reuss Voigt Hill
#
# Bulk Modulus (GPa) = 27.58207 31.89001 29.73604
# Shear Modulus (GPa) = 20.23582 23.75176 21.99379
#
# Velocity S-wave (km/s) = 3.13686 3.39847 3.27028
# Velocity P-wave (km/s) = 5.15092 5.55934 5.35902
#
# Compressibility (1/GPa) = 0.03625543
#
# Stress axis : x y z
#
# Youngs Moduli (GPa) = 59.07153 91.04434 37.17462
#
# Poissons Ratio (x) = 0.16429 0.11397
# Poissons Ratio (y) = 0.10659 0.16387
# Poissons Ratio (z) = 0.18111 0.40133
#
# Static dielectric constant tensor:
#      x y z
#    x 1.753270 0.000000 0.000000 
#    y 0.000000 1.768010 0.000000 
#    z 0.000000 0.000000 1.755950 
# 
# From -- ./inp_files/8212.got.cif
#   From: 2010.05.17/outbox.cif.g08.bks.cpg/sg46_5_cif.got.tgz:8212.got - 2010.06.03 19:58:25.
