data_PCOD9379342
_publ_section_title
;
Structure prediction by ZEFSAII (Michael W. Deem and Ramdas Pophale) SiO2 
 PCOD9379342
Probable space group: I M A 2
;
_chemical_formula_sum "Si O2"
_cell_formula_units_Z 48
_cell_length_a 14.796658
_cell_length_b 7.950647
_cell_length_c 19.279709
_cell_angle_alpha 90.000000
_cell_angle_beta 90.000000
_cell_angle_gamma 90.000000
_cell_volume 2268.122893
_symmetry_space_group_name_H-M "I M A 2"
_symmetry_group_IT_number 46
_symmetry_cell_setting 'orthorhombic'
loop_
_space_group_symop_operation_xyz
x,y,z
-x,-y,z
1/2-x,y,z
1/2+x,-y,z
1/2+x,1/2+y,1/2+z
1/2-x,1/2-y,1/2+z
-x,1/2+y,1/2+z
x,1/2-y,1/2+z
loop_
_atom_site_type_symbol
_atom_site_label
_atom_site_fract_x
_atom_site_fract_y
_atom_site_fract_z
Si Si1 0.638521 0.261893 0.739620
Si Si2 0.643910 0.266553 0.083345
Si Si3 0.140482 0.424776 0.992331
Si Si4 0.360789 0.070969 0.333609
Si Si5 0.645970 0.941582 0.823524
Si Si6 0.396012 0.039961 0.982860
O O1 0.750000 0.264654 0.740415
O O2 0.606340 0.259897 0.660333
O O3 0.610120 0.426461 0.781749
O O4 0.607223 0.096584 0.781016
O O5 0.750000 0.302448 0.093051
O O6 0.605902 0.428370 0.042560
O O7 0.637832 0.099641 0.036556
O O8 0.250000 0.429828 0.993040
O O9 0.112218 0.462353 0.913134
O O10 0.115518 0.231756 0.008490
O O11 0.250000 0.075227 0.333763
O O12 0.394338 0.256570 0.313544
O O13 0.750000 0.929282 0.800466
O O14 0.646535 0.974316 0.906249
O O15 0.500000 0.000000 0.972246
#
# Coordination Sequence:
#
# PCOD9379342 Si02
#       6
#     8   8   8   8   8   8
#     4   9  17  29  51  80 105 131 170 223 277 319
#     4  10  20  34  55  81 108 142 184 230 278 327
#     4   9  18  34  57  83 107 138 183 232 275 316
#     4   8  14  26  47  75 103 129 163 213 268 312
#     4   9  17  32  54  77 101 134 179 231 271 311
#     4  11  22  35  55  77 112 146 185 222 272 331
#
# _framework density 21.162876000000001
#
# number of rings (size 3 to 8) (size 9 to 14) (size 15 to 20)
#    0.000    2.667    0.000    3.500    0.000    4.667 
#    0.000    5.000   11.000    0.000    0.000    0.000 
#    0.000    0.000    0.000    0.000    0.000    0.000 
#
# Total GULP energy -133974.246402 kJ/mol
# GULP energy per Si atom -5582.260267 kJ/mol
# Density = 2.111471 g / cm^3
# Si number density = 21.162876 Si / 1000 Ang^3
#
#
#
# Elastic Constant Matrix: (Units=GPa)
#
#
# Indices 1 2 3 4 5 6 
#
# 1 37.6552 4.6392 -2.3212 0.0000 0.0000 0.0000
# 2 4.6392 217.4790 153.9255 0.0000 0.0000 0.0000
# 3 -2.3212 153.9255 131.7924 0.0000 0.0000 0.0000
# 4 0.0000 0.0000 0.0000 -24.6001 0.0000 0.0000
# 5 0.0000 0.0000 0.0000 0.0000 68.4327 0.0000
# 6 0.0000 0.0000 0.0000 0.0000 0.0000 3.6310
#
#
#
# Elastic Compliance Matrix: (Units=1/GPa)
#
#
# Indices 1 2 3 4 5 6 
#
# 1 0.027639 -0.005388 0.006780 0.000000 0.000000 0.000000
# 2 -0.005388 0.027573 -0.032299 0.000000 0.000000 0.000000
# 3 0.006780 -0.032299 0.045430 0.000000 0.000000 0.000000
# 4 0.000000 0.000000 0.000000 -0.040650 0.000000 0.000000
# 5 0.000000 0.000000 0.000000 0.000000 0.014613 0.000000
# 6 0.000000 0.000000 0.000000 0.000000 0.000000 0.275410
#
#
# Mechanical properties :
#
#
# Convention : Reuss Voigt Hill
#
# Bulk Modulus (GPa) = 25.75486 77.71263 51.73374
# Shear Modulus (GPa) = 11.77105 24.87158 18.32132
#
# Velocity S-wave (km/s) = 2.36097 3.43191 2.94552
# Velocity P-wave (km/s) = 4.43041 7.24603 6.00556
#
# Compressibility (1/GPa) = 0.03882763
#
# Stress axis : x y z
#
# Youngs Moduli (GPa) = 36.18141 36.26712 22.01189
#
# Poissons Ratio (x) = 0.19541 -0.14924
# Poissons Ratio (y) = 0.19495 0.71096
# Poissons Ratio (z) = -0.24530 1.17138
#
# Static dielectric constant tensor:
#      x y z
#    x 1.782120 0.000000 0.000000 
#    y 0.000000 1.753380 0.000000 
#    z 0.000000 0.000000 1.738570 
# 
# From -- ./inp_files/16557.got.cif
#   From: 2010.05.17/outbox.cif.g08.bks.cpg/sg46_9_cif.got.tgz:16557.got - 2010.06.03 19:58:25.
