data_PCOD9379369
_publ_section_title
;
Structure prediction by ZEFSAII (Michael W. Deem and Ramdas Pophale) SiO2 
 PCOD9379369
Probable space group: I M A 2
;
_chemical_formula_sum "Si O2"
_cell_formula_units_Z 56
_cell_length_a 21.390187
_cell_length_b 24.444140
_cell_length_c 5.207187
_cell_angle_alpha 90.000000
_cell_angle_beta 90.000000
_cell_angle_gamma 90.000000
_cell_volume 2722.654402
_symmetry_space_group_name_H-M "I M A 2"
_symmetry_group_IT_number 46
_symmetry_cell_setting 'orthorhombic'
loop_
_space_group_symop_operation_xyz
x,y,z
-x,-y,z
1/2-x,y,z
1/2+x,-y,z
1/2+x,1/2+y,1/2+z
1/2-x,1/2-y,1/2+z
-x,1/2+y,1/2+z
x,1/2-y,1/2+z
loop_
_atom_site_type_symbol
_atom_site_label
_atom_site_fract_x
_atom_site_fract_y
_atom_site_fract_z
Si Si1 0.182161 0.988011 0.238920
Si Si2 0.376240 0.100648 0.235443
Si Si3 0.581584 0.054806 0.630569
Si Si4 0.674808 0.279768 0.741566
Si Si5 0.180700 0.883432 0.900796
Si Si6 0.440585 0.066367 0.749674
Si Si7 0.174712 0.219237 0.111080
O O1 0.250000 0.983330 0.379726
O O2 0.171213 0.050962 0.170215
O O3 0.121027 0.967825 0.390878
O O4 0.186804 0.944489 0.011934
O O5 0.395597 0.091274 0.531126
O O6 0.347268 0.159386 0.188806
O O7 0.432022 0.093464 0.027476
O O8 0.622244 0.106914 0.717902
O O9 0.509247 0.070971 0.624604
O O10 0.575918 0.997896 0.791900
O O11 0.750000 0.274498 0.759143
O O12 0.651680 0.237202 0.522809
O O13 0.665075 0.339915 0.623284
O O14 0.250000 0.867744 0.793333
O O15 0.250000 0.219522 0.108753
O O16 0.153282 0.261528 0.330813
#
# Coordination Sequence:
#
# PCOD9379369 Si02
#       7
#     8   8   8   8   8   8   8
#     4  10  21  35  57  91 125 154 186 245 318 367
#     4  11  21  40  59  90 119 159 198 249 296 363
#     4  10  21  36  55  84 120 156 198 240 289 366
#     4   9  19  34  52  75 104 142 183 219 266 334
#     4  10  20  34  57  84 115 148 185 240 302 352
#     4  10  23  36  61  82 119 160 204 236 291 352
#     4  10  21  38  63  92 122 159 203 251 304 364
#
# _framework density 20.568161
#
# number of rings (size 3 to 8) (size 9 to 14) (size 15 to 20)
#    0.000    2.000    1.429    1.714    4.000    1.143 
#    0.000    1.429    0.000    5.143    0.000    0.000 
#    0.000    0.000    0.000    0.000    0.000    0.000 
#
# Total GULP energy -155970.230906 kJ/mol
# GULP energy per Si atom -5570.365389 kJ/mol
# Density = 2.052135 g / cm^3
# Si number density = 20.568161 Si / 1000 Ang^3
#
#
#
# Elastic Constant Matrix: (Units=GPa)
#
#
# Indices 1 2 3 4 5 6 
#
# 1 58.4679 8.9769 5.7614 0.0000 0.0000 0.0000
# 2 8.9769 69.9486 -3.5866 0.0000 0.0000 0.0000
# 3 5.7614 -3.5866 49.0639 0.0000 0.0000 0.0000
# 4 0.0000 0.0000 0.0000 31.4569 0.0000 0.0000
# 5 0.0000 0.0000 0.0000 0.0000 67.0468 0.0000
# 6 0.0000 0.0000 0.0000 0.0000 0.0000 10.4226
#
#
#
# Elastic Compliance Matrix: (Units=1/GPa)
#
#
# Indices 1 2 3 4 5 6 
#
# 1 0.017692 -0.002386 -0.002252 0.000000 0.000000 0.000000
# 2 -0.002386 0.014672 0.001353 0.000000 0.000000 0.000000
# 3 -0.002252 0.001353 0.020745 0.000000 0.000000 0.000000
# 4 0.000000 0.000000 0.000000 0.031790 0.000000 0.000000
# 5 0.000000 0.000000 0.000000 0.000000 0.014915 0.000000
# 6 0.000000 0.000000 0.000000 0.000000 0.000000 0.095946
#
#
# Mechanical properties :
#
#
# Convention : Reuss Voigt Hill
#
# Bulk Modulus (GPa) = 21.48778 22.19819 21.84298
# Shear Modulus (GPa) = 22.95250 32.87384 27.91317
#
# Velocity S-wave (km/s) = 3.34417 4.00220 3.68789
# Velocity P-wave (km/s) = 5.03796 5.67210 5.36441
#
# Compressibility (1/GPa) = 0.04653808
#
# Stress axis : x y z
#
# Youngs Moduli (GPa) = 56.52395 68.15808 48.20462
#
# Poissons Ratio (x) = 0.16262 0.10855
# Poissons Ratio (y) = 0.13486 -0.06521
# Poissons Ratio (z) = 0.12728 -0.09220
#
# Static dielectric constant tensor:
#      x y z
#    x 1.212070 0.000000 0.000000 
#    y 0.000000 1.735220 0.000000 
#    z 0.000000 0.000000 1.797270 
# 
# From -- ./inp_files/2134.got.cif
#   From: 2010.05.17/outbox.cif.g08.bks.cpg/sg46_2_cif.got.tgz:2134.got - 2010.06.03 19:58:25.
