data_PCOD9379778
_publ_section_title
;
Structure prediction by ZEFSAII (Michael W. Deem and Ramdas Pophale) SiO2 
 PCOD9379778
Probable space group: I M A 2
;
_chemical_formula_sum "Si O2"
_cell_formula_units_Z 40
_cell_length_a 20.643579
_cell_length_b 9.761907
_cell_length_c 8.620200
_cell_angle_alpha 90.000000
_cell_angle_beta 90.000000
_cell_angle_gamma 90.000000
_cell_volume 1737.148724
_symmetry_space_group_name_H-M "I M A 2"
_symmetry_group_IT_number 46
_symmetry_cell_setting 'orthorhombic'
loop_
_space_group_symop_operation_xyz
x,y,z
-x,-y,z
1/2-x,y,z
1/2+x,-y,z
1/2+x,1/2+y,1/2+z
1/2-x,1/2-y,1/2+z
-x,1/2+y,1/2+z
x,1/2-y,1/2+z
loop_
_atom_site_type_symbol
_atom_site_label
_atom_site_fract_x
_atom_site_fract_y
_atom_site_fract_z
Si Si1 0.413564 0.117796 0.551440
Si Si2 0.750000 0.041129 0.778790
Si Si3 0.443726 0.660966 0.923634
Si Si4 0.250000 0.705060 0.588601
Si Si5 0.130119 0.145358 0.882274
Si Si6 0.889817 0.093997 0.099529
O O1 0.482132 0.158722 0.476067
O O2 0.415442 0.152113 0.732572
O O3 0.360364 0.205023 0.456406
O O4 0.407795 0.956175 0.524266
O O5 0.750000 0.132896 0.624313
O O6 0.810145 0.941417 0.812935
O O7 0.750000 0.161492 0.908133
O O8 0.434854 0.620016 0.746105
O O9 0.411344 0.804530 0.962384
O O10 0.316507 0.634825 0.647648
O O11 0.105784 0.056287 0.027896
#
# Coordination Sequence:
#
# PCOD9379778 Si02
#       6
#     8   4   8   4   8   8
#     4  11  24  42  60  91 131 171 215 270 329 393
#     4  10  22  40  68 100 132 174 218 270 330 396
#     4  11  23  40  64  92 125 171 220 267 326 390
#     4  10  20  38  62  94 130 162 208 260 318 388
#     4  11  24  42  65  95 132 171 219 274 332 392
#     4  11  22  40  66  96 125 167 219 271 323 393
#
# _framework density 23.026237999999999
#
# number of rings (size 3 to 8) (size 9 to 14) (size 15 to 20)
#    0.000    1.200    0.000    7.200    0.000    4.800 
#    0.000    4.000    0.000    0.000    0.000    0.000 
#    0.000    0.000    0.000    0.000    0.000    0.000 
#
# Total GULP energy -111835.600022 kJ/mol
# GULP energy per Si atom -5591.780001 kJ/mol
# Density = 2.297383 g / cm^3
# Si number density = 23.026238 Si / 1000 Ang^3
#
#
#
# Elastic Constant Matrix: (Units=GPa)
#
#
# Indices 1 2 3 4 5 6 
#
# 1 87.3219 7.2413 37.5464 0.0000 0.0000 0.0000
# 2 7.2413 66.2123 -7.9855 0.0000 0.0000 0.0000
# 3 37.5464 -7.9855 88.7221 0.0000 0.0000 0.0000
# 4 0.0000 0.0000 0.0000 41.9586 0.0000 0.0000
# 5 0.0000 0.0000 0.0000 0.0000 26.6048 0.0000
# 6 0.0000 0.0000 0.0000 0.0000 0.0000 19.7113
#
#
#
# Elastic Compliance Matrix: (Units=1/GPa)
#
#
# Indices 1 2 3 4 5 6 
#
# 1 0.014345 -0.002326 -0.006280 0.000000 0.000000 0.000000
# 2 -0.002326 0.015646 0.002393 0.000000 0.000000 0.000000
# 3 -0.006280 0.002393 0.014144 0.000000 0.000000 0.000000
# 4 0.000000 0.000000 0.000000 0.023833 0.000000 0.000000
# 5 0.000000 0.000000 0.000000 0.000000 0.037587 0.000000
# 6 0.000000 0.000000 0.000000 0.000000 0.000000 0.050732
#
#
# Mechanical properties :
#
#
# Convention : Reuss Voigt Hill
#
# Bulk Modulus (GPa) = 31.53794 35.09563 33.31678
# Shear Modulus (GPa) = 27.88864 31.35187 29.62025
#
# Velocity S-wave (km/s) = 3.48396 3.69395 3.59049
# Velocity P-wave (km/s) = 5.46902 5.78518 5.62932
#
# Compressibility (1/GPa) = 0.03170784
#
# Stress axis : x y z
#
# Youngs Moduli (GPa) = 69.71031 63.91446 70.70041
#
# Poissons Ratio (x) = 0.14868 0.44400
# Poissons Ratio (y) = 0.16216 -0.16916
# Poissons Ratio (z) = 0.43779 -0.15293
#
# Static dielectric constant tensor:
#      x y z
#    x 1.906600 0.000000 0.000000 
#    y 0.000000 1.838080 0.000000 
#    z 0.000000 0.000000 1.854790 
# 
# From -- ./inp_files/7728.got.cif
#   From: 2010.05.17/outbox.cif.g08.bks.cpg/sg46_4_cif.got.tgz:7728.got - 2010.06.03 19:58:25.
