data_PCOD9379269
_publ_section_title
;
Structure prediction by ZEFSAII (Michael W. Deem and Ramdas Pophale) SiO2 
 PCOD9379269
Probable space group: I M A 2
;
_chemical_formula_sum "Si O2"
_cell_formula_units_Z 48
_cell_length_a 9.558072
_cell_length_b 29.992232
_cell_length_c 8.779969
_cell_angle_alpha 90.000000
_cell_angle_beta 90.000000
_cell_angle_gamma 90.000000
_cell_volume 2516.935389
_symmetry_space_group_name_H-M "I M A 2"
_symmetry_group_IT_number 46
_symmetry_cell_setting 'orthorhombic'
loop_
_space_group_symop_operation_xyz
x,y,z
-x,-y,z
1/2-x,y,z
1/2+x,-y,z
1/2+x,1/2+y,1/2+z
1/2-x,1/2-y,1/2+z
-x,1/2+y,1/2+z
x,1/2-y,1/2+z
loop_
_atom_site_type_symbol
_atom_site_label
_atom_site_fract_x
_atom_site_fract_y
_atom_site_fract_z
Si Si1 0.905033 0.892861 0.093050
Si Si2 0.596696 0.119900 0.517554
Si Si3 0.413490 0.232511 0.009027
Si Si4 0.414424 0.656099 0.357109
Si Si5 0.584886 0.954735 0.369890
Si Si6 0.018832 0.188571 0.302019
O O1 0.750000 0.896138 0.023031
O O2 0.932792 0.935542 0.198009
O O3 0.902771 0.850959 0.211028
O O4 0.023788 0.881419 0.971078
O O5 0.750000 0.098354 0.513806
O O6 0.574072 0.140673 0.683493
O O7 0.480333 0.083754 0.476039
O O8 0.594391 0.159425 0.392073
O O9 0.250000 0.222140 0.038045
O O10 0.486098 0.198128 0.892613
O O11 0.416370 0.281331 0.935290
O O12 0.501643 0.223677 0.163701
O O13 0.250000 0.665240 0.389625
O O14 0.750000 0.960221 0.396933
O O15 0.500000 0.000000 0.389867
#
# Coordination Sequence:
#
# PCOD9379269 Si02
#       6
#     8   8   8   8   8   8
#     4   9  19  37  58  82 109 140 180 222 270 327
#     4  10  22  39  57  79 111 147 184 225 273 325
#     4  11  21  34  53  78 109 144 187 233 275 326
#     4  10  21  36  55  80 109 145 184 226 274 322
#     4  10  21  37  61  88 113 142 178 219 267 325
#     4  10  20  33  53  77 105 144 185 227 273 317
#
# _framework density 19.070812
#
# number of rings (size 3 to 8) (size 9 to 14) (size 15 to 20)
#    0.000    2.000    0.000    4.500    0.000   10.000 
#    0.000    2.500    0.000    2.000    0.000    0.000 
#    0.000    0.000    0.000    0.000    0.000    0.000 
#
# Total GULP energy -133610.410534 kJ/mol
# GULP energy per Si atom -5567.100439 kJ/mol
# Density = 1.902741 g / cm^3
# Si number density = 19.070812 Si / 1000 Ang^3
#
#
#
# Elastic Constant Matrix: (Units=GPa)
#
#
# Indices 1 2 3 4 5 6 
#
# 1 93.0904 35.3861 41.2984 -0.0020 -0.0051 -0.2874
# 2 35.3861 67.9910 32.7525 -0.0011 -0.0031 -0.1201
# 3 41.2984 32.7525 86.3735 -0.0017 -0.0079 -0.7050
# 4 -0.0020 -0.0011 -0.0017 19.1140 -0.0008 -0.0998
# 5 -0.0051 -0.0031 -0.0079 -0.0008 17.1027 -0.0902
# 6 -0.2874 -0.1201 -0.7050 -0.0998 -0.0902 -732.7902
#
#
#
# Elastic Compliance Matrix: (Units=1/GPa)
#
#
# Indices 1 2 3 4 5 6 
#
# 1 0.015073 -0.005351 -0.005178 0.000001 0.000001 0.000000
# 2 -0.005351 0.019894 -0.004985 0.000000 0.000000 0.000004
# 3 -0.005178 -0.004985 0.015944 0.000001 0.000005 -0.000012
# 4 0.000001 0.000000 0.000001 0.052318 0.000002 -0.000007
# 5 0.000001 0.000000 0.000005 0.000002 0.058470 -0.000007
# 6 0.000000 0.000004 -0.000012 -0.000007 -0.000007 -0.001365
#
#
# Mechanical properties :
#
#
# Convention : Reuss Voigt Hill
#
# Bulk Modulus (GPa) = 50.29437 51.81432 51.05435
# Shear Modulus (GPa) = 25.25369 -130.11350 -52.42990
#
# Velocity S-wave (km/s) = 3.64291 -8.26890 -5.24899
# Velocity P-wave (km/s) = 6.64260 7.99611 3.14751
#
# Compressibility (1/GPa) = 0.01988294
#
# Stress axis : x y z
#
# Youngs Moduli (GPa) = 66.34214 50.26619 62.71986
#
# Poissons Ratio (x) = 0.26895 0.32478
# Poissons Ratio (y) = 0.35496 0.31269
# Poissons Ratio (z) = 0.34354 0.25060
#
# Static dielectric constant tensor:
#      x y z
#    x 1.656510 0.000000 0.000000 
#    y 0.000000 1.678130 0.000000 
#    z 0.000000 0.000000 1.678690 
# 
# From -- ./inp_files/3921.got.cif
#   From: 2010.05.17/outbox.cif.g08.bks.cpg/sg46_2_cif.got.tgz:3921.got - 2010.06.03 19:58:25.
