data_PCOD9379660
_publ_section_title
;
Structure prediction by ZEFSAII (Michael W. Deem and Ramdas Pophale) SiO2 
 PCOD9379660
Probable space group: I M A 2
;
_chemical_formula_sum "Si O2"
_cell_formula_units_Z 64
_cell_length_a 31.218076
_cell_length_b 12.192496
_cell_length_c 7.018026
_cell_angle_alpha 90.000000
_cell_angle_beta 90.000000
_cell_angle_gamma 90.000000
_cell_volume 2671.245036
_symmetry_space_group_name_H-M "I M A 2"
_symmetry_group_IT_number 46
_symmetry_cell_setting 'orthorhombic'
loop_
_space_group_symop_operation_xyz
x,y,z
-x,-y,z
1/2-x,y,z
1/2+x,-y,z
1/2+x,1/2+y,1/2+z
1/2-x,1/2-y,1/2+z
-x,1/2+y,1/2+z
x,1/2-y,1/2+z
loop_
_atom_site_type_symbol
_atom_site_label
_atom_site_fract_x
_atom_site_fract_y
_atom_site_fract_z
Si Si1 0.342945 0.245300 0.598560
Si Si2 0.550343 0.995923 0.764354
Si Si3 0.454279 0.464581 0.812324
Si Si4 0.625742 0.361791 0.147832
Si Si5 0.409749 0.259822 0.343628
Si Si6 0.298698 0.010633 0.600660
Si Si7 0.797704 0.973731 0.144147
Si Si8 0.879164 0.396159 0.695861
O O1 0.397285 0.249588 0.591668
O O2 0.355580 0.262513 0.847790
O O3 0.322547 0.125884 0.630259
O O4 0.311027 0.349526 0.591464
O O5 0.547586 0.998682 0.533317
O O6 0.571027 0.881879 0.833361
O O7 0.500000 0.000000 0.824506
O O8 0.587884 0.088911 0.780944
O O9 0.500000 0.500000 0.740811
O O10 0.444335 0.336700 0.827210
O O11 0.420461 0.526477 0.678143
O O12 0.672570 0.413609 0.189754
O O13 0.620728 0.231419 0.147237
O O14 0.623424 0.398125 0.926930
O O15 0.250000 0.011362 0.669266
O O16 0.295873 0.007329 0.371558
O O17 0.750000 0.999596 0.074389
O O18 0.838717 0.047418 0.096312
#
# Coordination Sequence:
#
# PCOD9379660 Si02
#       8
#     8   8   8   8   8   8   8   8
#     4  12  20  38  62  89 124 153 198 249 311 360
#     4  10  22  40  62  87 121 161 201 249 306 364
#     4  10  21  39  61  86 121 164 201 243 308 365
#     4  10  21  39  59  82 115 159 197 245 298 355
#     4  12  21  38  65  90 122 160 198 250 307 362
#     4  10  20  37  60  87 119 159 201 244 304 366
#     4  10  21  38  61  87 118 159 200 246 304 366
#     4  10  21  39  59  82 116 157 199 244 297 356
#
# _framework density 23.958864999999999
#
# number of rings (size 3 to 8) (size 9 to 14) (size 15 to 20)
#    0.000    1.500    5.000    1.125    1.750    1.500 
#    0.000    0.625    0.000    0.000    0.000    0.000 
#    0.000    0.000    0.000    0.000    0.000    0.000 
#
# Total GULP energy -178468.087931 kJ/mol
# GULP energy per Si atom -5577.127748 kJ/mol
# Density = 2.390433 g / cm^3
# Si number density = 23.958865 Si / 1000 Ang^3
#
#
#
# Elastic Constant Matrix: (Units=GPa)
#
#
# Indices 1 2 3 4 5 6 
#
# 1 182.4226 87.9636 9.4989 0.0000 0.0000 0.0000
# 2 87.9636 133.3470 -26.8689 -0.0001 -0.0001 0.0000
# 3 9.4989 -26.8689 127.2299 -0.0003 -0.0003 -0.0002
# 4 0.0000 -0.0001 -0.0003 46.1755 -0.0001 0.0000
# 5 0.0000 -0.0001 -0.0003 -0.0001 -6.2588 0.0000
# 6 0.0000 0.0000 -0.0002 0.0000 0.0000 22.2532
#
#
#
# Elastic Compliance Matrix: (Units=1/GPa)
#
#
# Indices 1 2 3 4 5 6 
#
# 1 0.008452 -0.005956 -0.001889 0.000000 0.000000 0.000000
# 2 -0.005956 0.012030 0.002985 0.000000 0.000000 0.000000
# 3 -0.001889 0.002985 0.008631 0.000000 0.000000 0.000000
# 4 0.000000 0.000000 0.000000 0.021656 0.000000 0.000000
# 5 0.000000 0.000000 0.000000 0.000000 -0.159775 0.000000
# 6 0.000000 0.000000 0.000000 0.000000 0.000000 0.044937
#
#
# Mechanical properties :
#
#
# Convention : Reuss Voigt Hill
#
# Bulk Modulus (GPa) = 51.56381 64.90964 58.23673
# Shear Modulus (GPa) = -104.42014 37.26104 -33.57955
#
# Velocity S-wave (km/s) = -6.60891 3.94789 -3.74779
# Velocity P-wave (km/s) = 6.05544 6.92330 2.37315
#
# Compressibility (1/GPa) = 0.01939345
#
# Stress axis : x y z
#
# Youngs Moduli (GPa) = 118.31272 83.12710 115.85837
#
# Poissons Ratio (x) = 0.49512 0.21884
# Poissons Ratio (y) = 0.70469 -0.34586
# Poissons Ratio (z) = 0.22348 -0.24815
#
# Static dielectric constant tensor:
#      x y z
#    x 1.932430 0.000000 0.000000 
#    y 0.000000 1.621040 0.000000 
#    z 0.000000 0.000000 2.320240 
# 
# From -- ./inp_files/8490.got.cif
#   From: 2010.05.17/outbox.cif.g08.bks.cpg/sg46_5_cif.got.tgz:8490.got - 2010.06.03 19:58:25.
