data_PCOD9379794
_publ_section_title
;
Structure prediction by ZEFSAII (Michael W. Deem and Ramdas Pophale) SiO2 
 PCOD9379794
Probable space group: I M A 2
;
_chemical_formula_sum "Si O2"
_cell_formula_units_Z 44
_cell_length_a 14.848927
_cell_length_b 10.047969
_cell_length_c 12.413436
_cell_angle_alpha 90.000000
_cell_angle_beta 90.000000
_cell_angle_gamma 90.000000
_cell_volume 1852.103994
_symmetry_space_group_name_H-M "I M A 2"
_symmetry_group_IT_number 46
_symmetry_cell_setting 'orthorhombic'
loop_
_space_group_symop_operation_xyz
x,y,z
-x,-y,z
1/2-x,y,z
1/2+x,-y,z
1/2+x,1/2+y,1/2+z
1/2-x,1/2-y,1/2+z
-x,1/2+y,1/2+z
x,1/2-y,1/2+z
loop_
_atom_site_type_symbol
_atom_site_label
_atom_site_fract_x
_atom_site_fract_y
_atom_site_fract_z
Si Si1 0.855628 0.137908 0.169070
Si Si2 0.250000 0.358402 0.075939
Si Si3 0.409054 0.563181 0.106845
Si Si4 0.959561 0.332951 0.870385
Si Si5 0.152740 0.230273 0.884074
Si Si6 0.355281 0.928907 0.929964
O O1 0.750000 0.123771 0.192185
O O2 0.879145 0.293244 0.150009
O O3 0.912976 0.095606 0.270753
O O4 0.875744 0.063668 0.057493
O O5 0.173588 0.270286 0.007820
O O6 0.328926 0.459205 0.118077
O O7 0.500000 0.500000 0.154105
O O8 0.430856 0.594655 0.980686
O O9 0.065074 0.310141 0.851589
O O10 0.916740 0.185621 0.882262
O O11 0.250000 0.260125 0.826260
O O12 0.135669 0.073506 0.878742
O O13 0.250000 0.887690 0.920747
#
# Coordination Sequence:
#
# PCOD9379794 Si02
#       6
#     8   4   8   8   8   8
#     4  10  22  37  61  95 119 153 204 248 300 352
#     4  10  20  38  64  86 118 162 202 244 304 362
#     4  11  21  40  65  87 123 159 201 250 304 359
#     4  11  21  36  63  91 121 158 200 248 300 357
#     4   9  19  37  64  85 117 161 204 237 299 358
#     4   9  19  37  61  87 120 159 196 247 299 353
#
# _framework density 23.756762999999999
#
# number of rings (size 3 to 8) (size 9 to 14) (size 15 to 20)
#    0.545    1.455    2.727    1.091    2.545    1.455 
#    0.000    3.636    2.000    5.455    0.000    0.000 
#    0.000    0.000    0.000    0.000    0.000    0.000 
#
# Total GULP energy -122538.168450 kJ/mol
# GULP energy per Si atom -5569.916748 kJ/mol
# Density = 2.370269 g / cm^3
# Si number density = 23.756763 Si / 1000 Ang^3
#
#
#
# Elastic Constant Matrix: (Units=GPa)
#
#
# Indices 1 2 3 4 5 6 
#
# 1 164.2451 34.2976 51.7325 0.0000 0.0000 0.0000
# 2 34.2976 83.0205 17.7266 0.0000 0.0000 0.0000
# 3 51.7325 17.7266 85.0165 0.0000 0.0000 0.0000
# 4 0.0000 0.0000 0.0000 -9.6190 0.0000 0.0000
# 5 0.0000 0.0000 0.0000 0.0000 17.7977 0.0000
# 6 0.0000 0.0000 0.0000 0.0000 0.0000 45.9902
#
#
#
# Elastic Compliance Matrix: (Units=1/GPa)
#
#
# Indices 1 2 3 4 5 6 
#
# 1 0.007949 -0.002356 -0.004346 0.000000 0.000000 0.000000
# 2 -0.002356 0.013305 -0.001340 0.000000 0.000000 0.000000
# 3 -0.004346 -0.001340 0.014686 0.000000 0.000000 0.000000
# 4 0.000000 0.000000 0.000000 -0.103961 0.000000 0.000000
# 5 0.000000 0.000000 0.000000 0.000000 0.056187 0.000000
# 6 0.000000 0.000000 0.000000 0.000000 0.000000 0.021744
#
#
# Mechanical properties :
#
#
# Convention : Reuss Voigt Hill
#
# Bulk Modulus (GPa) = 50.36368 59.97729 55.17048
# Shear Modulus (GPa) = 153.31147 26.06881 89.69014
#
# Velocity S-wave (km/s) = 8.04201 3.31618 6.15106
# Velocity P-wave (km/s) = 10.36714 6.32170 8.58608
#
# Compressibility (1/GPa) = 0.01985558
#
# Stress axis : x y z
#
# Youngs Moduli (GPa) = 125.79743 75.16090 68.09028
#
# Poissons Ratio (x) = 0.17709 0.29591
# Poissons Ratio (y) = 0.29639 0.09127
# Poissons Ratio (z) = 0.54670 0.10075
#
# Static dielectric constant tensor:
#      x y z
#    x 1.871510 0.000000 0.000000 
#    y 0.000000 1.868300 0.000000 
#    z 0.000000 0.000000 2.007600 
# 
# From -- ./inp_files/15823.got.cif
#   From: 2010.05.17/outbox.cif.g08.bks.cpg/sg46_8_cif.got.tgz:15823.got - 2010.06.03 19:58:25.
