data_PCOD9379477
_publ_section_title
;
Structure prediction by ZEFSAII (Michael W. Deem and Ramdas Pophale) SiO2 
 PCOD9379477
Probable space group: I M A 2
;
_chemical_formula_sum "Si O2"
_cell_formula_units_Z 60
_cell_length_a 9.748974
_cell_length_b 12.492074
_cell_length_c 21.308998
_cell_angle_alpha 90.000000
_cell_angle_beta 90.000000
_cell_angle_gamma 90.000000
_cell_volume 2595.114289
_symmetry_space_group_name_H-M "I M A 2"
_symmetry_group_IT_number 46
_symmetry_cell_setting 'orthorhombic'
loop_
_space_group_symop_operation_xyz
x,y,z
-x,-y,z
1/2-x,y,z
1/2+x,-y,z
1/2+x,1/2+y,1/2+z
1/2-x,1/2-y,1/2+z
-x,1/2+y,1/2+z
x,1/2-y,1/2+z
loop_
_atom_site_type_symbol
_atom_site_label
_atom_site_fract_x
_atom_site_fract_y
_atom_site_fract_z
Si Si1 0.096538 0.231223 0.561590
Si Si2 0.593765 0.164312 0.330964
Si Si3 0.093320 0.603334 0.502326
Si Si4 0.403314 0.089374 0.441931
Si Si5 0.750000 0.506278 0.218779
Si Si6 0.404264 0.601612 0.353789
Si Si7 0.909869 0.398289 0.692194
Si Si8 0.505270 0.651263 0.184807
O O1 0.250000 0.273784 0.577785
O O2 0.106869 0.182644 0.492072
O O3 0.975316 0.315414 0.550580
O O4 0.057087 0.141577 0.612122
O O5 0.750000 0.165778 0.356737
O O6 0.482538 0.124636 0.379845
O O7 0.562999 0.289706 0.317832
O O8 0.595171 0.096368 0.268153
O O9 0.250000 0.581630 0.518270
O O10 0.093846 0.633760 0.427770
O O11 0.000000 0.500000 0.504636
O O12 0.250000 0.051116 0.427797
O O13 0.500000 0.000000 0.471436
O O14 0.629434 0.600480 0.223923
O O15 0.629346 0.416428 0.200689
O O16 0.500000 0.500000 0.346337
O O17 0.250000 0.566359 0.333066
O O18 0.750000 0.400214 0.670767
O O19 0.977436 0.280104 0.684643
O O20 0.000000 0.500000 0.669158
#
# Coordination Sequence:
#
# PCOD9379477 Si02
#       8
#     8   8   8   8   4   8   8   8
#     4  11  24  39  62  95 133 170 221 271 328 403
#     4  10  21  43  64  93 131 172 219 271 331 395
#     4  10  20  35  58  85 124 174 219 273 330 389
#     4  11  24  38  59  91 126 167 211 257 317 389
#     4  10  24  46  76  96 140 174 226 284 356 424
#     4   9  18  34  56  85 123 166 213 265 325 386
#     4  11  26  47  73 100 138 179 232 290 345 413
#     4  11  24  47  70 104 135 181 226 289 355 408
#
# _framework density 23.120367999999999
#
# number of rings (size 3 to 8) (size 9 to 14) (size 15 to 20)
#    0.000    1.600    2.667    1.200    3.733    3.733 
#    2.400    0.000    0.000    0.000    0.000    0.000 
#    0.000    0.000    0.000    0.000    0.000    0.000 
#
# Total GULP energy -167123.461378 kJ/mol
# GULP energy per Si atom -5570.782046 kJ/mol
# Density = 2.306774 g / cm^3
# Si number density = 23.120368 Si / 1000 Ang^3
#
#
#
# Elastic Constant Matrix: (Units=GPa)
#
#
# Indices 1 2 3 4 5 6 
#
# 1 214.1177 63.4677 4.4910 0.0000 0.0000 0.0000
# 2 63.4677 117.7453 -14.5865 0.0000 0.0000 0.0000
# 3 4.4910 -14.5865 35.8074 0.0000 0.0000 0.0000
# 4 0.0000 0.0000 0.0000 22.5948 0.0000 0.0000
# 5 0.0000 0.0000 0.0000 0.0000 7.7481 0.0000
# 6 0.0000 0.0000 0.0000 0.0000 0.0000 -56.2151
#
#
#
# Elastic Compliance Matrix: (Units=1/GPa)
#
#
# Indices 1 2 3 4 5 6 
#
# 1 0.005701 -0.003329 -0.002071 0.000000 0.000000 0.000000
# 2 -0.003329 0.010889 0.004853 0.000000 0.000000 0.000000
# 3 -0.002071 0.004853 0.030164 0.000000 0.000000 0.000000
# 4 0.000000 0.000000 0.000000 0.044258 0.000000 0.000000
# 5 0.000000 0.000000 0.000000 0.000000 0.129065 0.000000
# 6 0.000000 0.000000 0.000000 0.000000 0.000000 -0.017789
#
#
# Mechanical properties :
#
#
# Convention : Reuss Voigt Hill
#
# Bulk Modulus (GPa) = 21.90167 52.71277 37.30722
# Shear Modulus (GPa) = 22.87267 15.77875 19.32571
#
# Velocity S-wave (km/s) = 3.14870 2.61523 2.89428
# Velocity P-wave (km/s) = 4.76577 5.65403 5.22879
#
# Compressibility (1/GPa) = 0.04565861
#
# Stress axis : x y z
#
# Youngs Moduli (GPa) = 175.41849 91.83782 33.15208
#
# Poissons Ratio (x) = 0.30576 0.06867
# Poissons Ratio (y) = 0.58404 -0.16089
# Poissons Ratio (z) = 0.36334 -0.44571
#
# Static dielectric constant tensor:
#      x y z
#    x 1.875320 0.000000 0.000000 
#    y 0.000000 1.937100 0.000000 
#    z 0.000000 0.000000 2.086420 
# 
# From -- ./inp_files/24244.got.cif
#   From: 2010.05.17/outbox.cif.g08.bks.cpg/sg46_13_cif.got.tgz:24244.got - 2010.06.03 19:58:25.
