data_PCOD9379289
_publ_section_title
;
Structure prediction by ZEFSAII (Michael W. Deem and Ramdas Pophale) SiO2 
 PCOD9379289
Probable space group: I M A 2
;
_chemical_formula_sum "Si O2"
_cell_formula_units_Z 60
_cell_length_a 20.546016
_cell_length_b 8.478050
_cell_length_c 18.325653
_cell_angle_alpha 90.000000
_cell_angle_beta 90.000000
_cell_angle_gamma 90.000000
_cell_volume 3192.148262
_symmetry_space_group_name_H-M "I M A 2"
_symmetry_group_IT_number 46
_symmetry_cell_setting 'orthorhombic'
loop_
_space_group_symop_operation_xyz
x,y,z
-x,-y,z
1/2-x,y,z
1/2+x,-y,z
1/2+x,1/2+y,1/2+z
1/2-x,1/2-y,1/2+z
-x,1/2+y,1/2+z
x,1/2-y,1/2+z
loop_
_atom_site_type_symbol
_atom_site_label
_atom_site_fract_x
_atom_site_fract_y
_atom_site_fract_z
Si Si1 0.601499 0.407499 0.768560
Si Si2 0.500000 0.500000 0.333090
Si Si3 0.676602 0.929371 0.997101
Si Si4 0.921281 0.351843 0.047072
Si Si5 0.178340 0.670384 0.632673
Si Si6 0.935809 0.724091 0.069573
Si Si7 0.614633 0.312655 0.401971
Si Si8 0.542713 0.723331 0.739232
O O1 0.654055 0.412433 0.705125
O O2 0.628925 0.297932 0.832767
O O3 0.580421 0.587470 0.784069
O O4 0.533558 0.329084 0.739926
O O5 0.545120 0.389847 0.382200
O O6 0.456348 0.389656 0.280670
O O7 0.750000 0.860914 0.989361
O O8 0.659190 0.040789 0.927884
O O9 0.617300 0.813133 0.019595
O O10 0.678578 0.047433 0.066225
O O11 0.874112 0.300042 0.111607
O O12 0.929733 0.537529 0.055532
O O13 0.987993 0.250777 0.051270
O O14 0.890151 0.303906 0.970505
O O15 0.250000 0.738011 0.640902
O O16 0.931331 0.764893 0.156126
#
# Coordination Sequence:
#
# PCOD9379289 Si02
#       8
#     8   4   8   8   8   8   8   8
#     4  10  20  35  57  84 119 157 198 249 311 360
#     4  10  20  36  58  86 126 158 190 250 318 356
#     4  10  22  39  60  85 118 161 205 251 304 366
#     4  10  22  35  58  91 118 155 199 250 311 368
#     4  10  20  37  58  82 113 156 203 242 296 367
#     4  11  20  35  63  87 124 149 204 258 309 366
#     4  10  22  36  56  84 121 155 198 242 301 371
#     4  10  20  33  58  90 120 148 200 259 306 360
#
# _framework density 18.796119999999998
#
# number of rings (size 3 to 8) (size 9 to 14) (size 15 to 20)
#    0.000    1.867    2.667    1.600    1.867    8.000 
#    0.000    0.000    0.000    2.400    0.000    0.000 
#    0.000    0.000    0.000    0.000    0.000    0.000 
#
# Total GULP energy -167140.001111 kJ/mol
# GULP energy per Si atom -5571.333370 kJ/mol
# Density = 1.875334 g / cm^3
# Si number density = 18.796120 Si / 1000 Ang^3
#
#
#
# Elastic Constant Matrix: (Units=GPa)
#
#
# Indices 1 2 3 4 5 6 
#
# 1 101.1083 27.4697 22.2287 0.0000 0.0000 0.0000
# 2 27.4697 76.1884 31.2241 0.0000 0.0000 0.0000
# 3 22.2287 31.2241 65.0224 0.0000 0.0000 0.0000
# 4 0.0000 0.0000 0.0000 21.8348 0.0000 0.0000
# 5 0.0000 0.0000 0.0000 0.0000 9.4269 0.0000
# 6 0.0000 0.0000 0.0000 0.0000 0.0000 10.7757
#
#
#
# Elastic Compliance Matrix: (Units=1/GPa)
#
#
# Indices 1 2 3 4 5 6 
#
# 1 0.011249 -0.003087 -0.002363 0.000000 0.000000 0.000000
# 2 -0.003087 0.017189 -0.007199 0.000000 0.000000 0.000000
# 3 -0.002363 -0.007199 0.019644 0.000000 0.000000 0.000000
# 4 0.000000 0.000000 0.000000 0.045798 0.000000 0.000000
# 5 0.000000 0.000000 0.000000 0.000000 0.106079 0.000000
# 6 0.000000 0.000000 0.000000 0.000000 0.000000 0.092801
#
#
# Mechanical properties :
#
#
# Convention : Reuss Voigt Hill
#
# Bulk Modulus (GPa) = 43.89148 44.90712 44.39930
# Shear Modulus (GPa) = 15.35380 19.16726 17.26053
#
# Velocity S-wave (km/s) = 2.86118 3.19681 3.03364
# Velocity P-wave (km/s) = 5.85808 6.12941 5.99528
#
# Compressibility (1/GPa) = 0.02278347
#
# Stress axis : x y z
#
# Youngs Moduli (GPa) = 88.89945 58.17779 50.90622
#
# Poissons Ratio (x) = 0.17961 0.12029
# Poissons Ratio (y) = 0.27446 0.36646
# Poissons Ratio (z) = 0.21007 0.41880
#
# Static dielectric constant tensor:
#      x y z
#    x 1.683110 0.000000 0.000000 
#    y 0.000000 1.672340 0.000000 
#    z 0.000000 0.000000 1.659370 
# 
# From -- ./inp_files/19957.got.cif
#   From: 2010.05.17/outbox.cif.g08.bks.cpg/sg46_10_cif.got.tgz:19957.got - 2010.06.03 19:58:25.
