data_PCOD9379309
_publ_section_title
;
Structure prediction by ZEFSAII (Michael W. Deem and Ramdas Pophale) SiO2 
 PCOD9379309
Probable space group: I M A 2
;
_chemical_formula_sum "Si O2"
_cell_formula_units_Z 64
_cell_length_a 8.435751
_cell_length_b 29.217611
_cell_length_c 14.640819
_cell_angle_alpha 90.000000
_cell_angle_beta 90.000000
_cell_angle_gamma 90.000000
_cell_volume 3608.559132
_symmetry_space_group_name_H-M "I M A 2"
_symmetry_group_IT_number 46
_symmetry_cell_setting 'orthorhombic'
loop_
_space_group_symop_operation_xyz
x,y,z
-x,-y,z
1/2-x,y,z
1/2+x,-y,z
1/2+x,1/2+y,1/2+z
1/2-x,1/2-y,1/2+z
-x,1/2+y,1/2+z
x,1/2-y,1/2+z
loop_
_atom_site_type_symbol
_atom_site_label
_atom_site_fract_x
_atom_site_fract_y
_atom_site_fract_z
Si Si1 0.060103 0.948429 0.093490
Si Si2 0.941790 0.197633 0.091184
Si Si3 0.060103 0.551571 0.085456
Si Si4 0.943164 0.376028 0.235472
Si Si5 0.443164 0.623972 0.443474
Si Si6 0.440032 0.374821 0.734652
Si Si7 0.058210 0.697633 0.087763
Si Si8 0.059969 0.374821 0.944294
O O1 0.250000 0.948272 0.095058
O O2 0.000178 0.919155 0.179683
O O3 0.008001 0.919986 0.003424
O O4 0.000000 0.000000 0.093575
O O5 0.750000 0.197553 0.093141
O O6 0.996444 0.250000 0.089473
O O7 0.000219 0.169134 0.178354
O O8 0.991250 0.168557 0.001862
O O9 0.250000 0.551728 0.083889
O O10 0.008001 0.580014 0.175523
O O11 0.000000 0.500000 0.085371
O O12 0.000178 0.580845 0.999263
O O13 0.750000 0.376060 0.237821
O O14 0.000086 0.376376 0.339473
O O15 0.991250 0.331443 0.177084
O O16 0.250000 0.623940 0.441126
O O17 0.250000 0.375039 0.733610
O O18 0.494834 0.374473 0.839473
O O19 0.250000 0.697553 0.085806
O O20 0.999781 0.669135 0.000593
O O21 0.250000 0.375039 0.945337
#
# Coordination Sequence:
#
# PCOD9379309 Si02
#       8
#     8   8   8   8   8   8   8   8
#     4  10  20  34  53  75 100 131 167 209 257 306
#     4   9  18  32  52  78 105 135 170 208 252 298
#     4  10  20  34  53  75 100 131 167 209 257 306
#     4   8  15  29  48  71 100 132 166 204 245 293
#     4   8  15  29  48  71 100 132 166 204 245 293
#     4  10  21  36  53  74 102 136 172 210 252 298
#     4   9  18  32  52  78 105 135 170 208 252 298
#     4  10  21  36  53  74 102 136 172 210 252 298
#
# _framework density 17.735610000000001
#
# number of rings (size 3 to 8) (size 9 to 14) (size 15 to 20)
#    0.000    2.750    0.000    3.000    0.000    4.500 
#    0.000    2.500    0.000   18.000    0.000    0.000 
#    0.000    0.000    0.000    0.000    0.000    0.000 
#
# Total GULP energy -178446.516080 kJ/mol
# GULP energy per Si atom -5576.453627 kJ/mol
# Density = 1.769524 g / cm^3
# Si number density = 17.735610 Si / 1000 Ang^3
#
#
#
# Elastic Constant Matrix: (Units=GPa)
#
#
# Indices 1 2 3 4 5 6 
#
# 1 20.2370 26.9199 25.1200 0.0000 0.0000 0.0000
# 2 26.9199 203.9995 112.5423 -0.0001 0.0000 0.0000
# 3 25.1200 112.5423 204.8098 -0.0003 0.0000 0.0000
# 4 0.0000 -0.0001 -0.0003 4.3384 0.0000 0.0000
# 5 0.0000 0.0000 0.0000 0.0000 14.3858 0.0000
# 6 0.0000 0.0000 0.0000 0.0000 0.0000 21.9785
#
#
#
# Elastic Compliance Matrix: (Units=1/GPa)
#
#
# Indices 1 2 3 4 5 6 
#
# 1 0.062712 -0.005786 -0.004512 0.000000 0.000000 0.000000
# 2 -0.005786 0.007568 -0.003449 0.000000 0.000000 0.000000
# 3 -0.004512 -0.003449 0.007331 0.000000 0.000000 0.000000
# 4 0.000000 0.000000 0.000000 0.230498 0.000000 0.000000
# 5 0.000000 0.000000 0.000000 0.000000 0.069513 0.000000
# 6 0.000000 0.000000 0.000000 0.000000 0.000000 0.045499
#
#
# Mechanical properties :
#
#
# Convention : Reuss Voigt Hill
#
# Bulk Modulus (GPa) = 19.95334 84.24564 52.09949
# Shear Modulus (GPa) = 10.69923 25.77148 18.23536
#
# Velocity S-wave (km/s) = 2.45881 3.81608 3.21000
# Velocity P-wave (km/s) = 4.39725 8.18661 6.57101
#
# Compressibility (1/GPa) = 0.05011692
#
# Stress axis : x y z
#
# Youngs Moduli (GPa) = 15.94580 132.12978 136.40243
#
# Poissons Ratio (x) = 0.76454 0.61547
# Poissons Ratio (y) = 0.09227 0.47046
# Poissons Ratio (z) = 0.07195 0.45572
#
# Static dielectric constant tensor:
#      x y z
#    x 1.606530 0.000000 0.000000 
#    y 0.000000 1.586360 0.000000 
#    z 0.000000 0.000000 1.597190 
# 
# From -- ./inp_files/14719.got.cif
#   From: 2010.05.17/outbox.cif.g08.bks.cpg/sg46_8_cif.got.tgz:14719.got - 2010.06.03 19:58:25.
