data_PCOD9379825
_publ_section_title
;
Structure prediction by ZEFSAII (Michael W. Deem and Ramdas Pophale) SiO2 
 PCOD9379825
Probable space group: I M A 2
;
_chemical_formula_sum "Si O2"
_cell_formula_units_Z 64
_cell_length_a 14.191713
_cell_length_b 24.093562
_cell_length_c 9.126342
_cell_angle_alpha 90.000000
_cell_angle_beta 90.000000
_cell_angle_gamma 90.000000
_cell_volume 3120.560237
_symmetry_space_group_name_H-M "I M A 2"
_symmetry_group_IT_number 46
_symmetry_cell_setting 'orthorhombic'
loop_
_space_group_symop_operation_xyz
x,y,z
-x,-y,z
1/2-x,y,z
1/2+x,-y,z
1/2+x,1/2+y,1/2+z
1/2-x,1/2-y,1/2+z
-x,1/2+y,1/2+z
x,1/2-y,1/2+z
loop_
_atom_site_type_symbol
_atom_site_label
_atom_site_fract_x
_atom_site_fract_y
_atom_site_fract_z
Si Si1 0.023964 0.697032 0.469360
Si Si2 0.973333 0.188612 0.628636
Si Si3 0.353620 0.385741 0.199807
Si Si4 0.359853 0.581298 0.467013
Si Si5 0.489233 0.940449 0.225402
Si Si6 0.889300 0.488871 0.167451
Si Si7 0.138719 0.375195 0.547056
Si Si8 0.355026 0.607020 0.953614
O O1 0.046339 0.755776 0.539190
O O2 0.018157 0.705905 0.296586
O O3 0.092703 0.642885 0.475565
O O4 0.925494 0.679758 0.546785
O O5 0.888557 0.148626 0.580557
O O6 0.067699 0.150061 0.615186
O O7 0.250000 0.359715 0.185051
O O8 0.349808 0.449435 0.153429
O O9 0.374445 0.391510 0.375026
O O10 0.250000 0.585251 0.503017
O O11 0.419550 0.548710 0.588442
O O12 0.367868 0.547243 0.314442
O O13 0.585845 0.916248 0.158940
O O14 0.434363 0.896772 0.328141
O O15 0.500000 0.000000 0.301394
O O16 0.000000 0.500000 0.168872
O O17 0.856007 0.452194 0.032545
O O18 0.250000 0.369800 0.574954
O O19 0.250000 0.620032 0.899086
#
# Coordination Sequence:
#
# PCOD9379825 Si02
#       8
#     8   8   8   8   8   8   8   8
#     4  10  23  41  66  95 128 172 222 277 333 392
#     4  11  24  43  65  92 130 171 222 280 334 400
#     4  10  20  38  68 103 131 167 222 277 337 405
#     4  11  22  40  66  98 131 174 230 276 330 399
#     4  11  24  40  61  96 137 177 213 269 332 402
#     4  12  20  39  67  96 131 172 220 280 337 405
#     4   9  20  41  67  96 130 171 220 272 327 393
#     4  12  26  43  62  90 133 177 220 275 340 400
#
# _framework density 20.509138
#
# number of rings (size 3 to 8) (size 9 to 14) (size 15 to 20)
#    0.000    1.250    2.500    4.500    3.500    3.000 
#    0.000    0.625    0.000    0.000    0.000    0.000 
#    0.000    0.000    0.000    0.000    0.000    0.000 
#
# Total GULP energy -178418.747107 kJ/mol
# GULP energy per Si atom -5575.585847 kJ/mol
# Density = 2.046246 g / cm^3
# Si number density = 20.509138 Si / 1000 Ang^3
#
#
#
# Elastic Constant Matrix: (Units=GPa)
#
#
# Indices 1 2 3 4 5 6 
#
# 1 139.0897 13.7433 10.0439 -0.0001 0.0002 0.0001
# 2 13.7433 89.7153 4.4159 0.0001 0.0004 0.0001
# 3 10.0439 4.4159 40.7689 0.0000 0.0012 0.0002
# 4 -0.0001 0.0001 0.0000 26.9960 0.0004 0.0001
# 5 0.0002 0.0004 0.0012 0.0004 25.8748 0.0000
# 6 0.0001 0.0001 0.0002 0.0001 0.0000 1.4500
#
#
#
# Elastic Compliance Matrix: (Units=1/GPa)
#
#
# Indices 1 2 3 4 5 6 
#
# 1 0.007417 -0.001052 -0.001713 0.000000 0.000000 0.000000
# 2 -0.001052 0.011355 -0.000971 0.000000 0.000000 -0.000001
# 3 -0.001713 -0.000971 0.025056 0.000000 -0.000001 -0.000004
# 4 0.000000 0.000000 0.000000 0.037042 -0.000001 -0.000004
# 5 0.000000 0.000000 -0.000001 -0.000001 0.038648 0.000000
# 6 0.000000 -0.000001 -0.000004 -0.000004 0.000000 0.689665
#
#
# Mechanical properties :
#
#
# Convention : Reuss Voigt Hill
#
# Bulk Modulus (GPa) = 27.50567 36.22001 31.86284
# Shear Modulus (GPa) = 6.03301 26.95553 16.49427
#
# Velocity S-wave (km/s) = 1.71698 3.62929 2.83899
# Velocity P-wave (km/s) = 4.16788 5.93810 5.12993
#
# Compressibility (1/GPa) = 0.03635613
#
# Stress axis : x y z
#
# Youngs Moduli (GPa) = 134.82048 88.06460 39.91095
#
# Poissons Ratio (x) = 0.09264 0.06838
# Poissons Ratio (y) = 0.14182 0.03875
# Poissons Ratio (z) = 0.23100 0.08549
#
# Static dielectric constant tensor:
#      x y z
#    x 1.108710 0.000010 0.000000 
#    y 0.000010 1.757020 0.000000 
#    z 0.000000 0.000000 1.756080 
# 
# From -- ./inp_files/6097.got.cif
#   From: 2010.05.17/outbox.cif.g08.bks.cpg/sg46_4_cif.got.tgz:6097.got - 2010.06.03 19:58:25.
