data_PCOD9379481
_publ_section_title
;
Structure prediction by ZEFSAII (Michael W. Deem and Ramdas Pophale) SiO2 
 PCOD9379481
Probable space group: I M A 2
;
_chemical_formula_sum "Si O2"
_cell_formula_units_Z 64
_cell_length_a 8.379205
_cell_length_b 25.763999
_cell_length_c 15.461851
_cell_angle_alpha 90.000000
_cell_angle_beta 90.000000
_cell_angle_gamma 90.000000
_cell_volume 3337.932677
_symmetry_space_group_name_H-M "I M A 2"
_symmetry_group_IT_number 46
_symmetry_cell_setting 'orthorhombic'
loop_
_space_group_symop_operation_xyz
x,y,z
-x,-y,z
1/2-x,y,z
1/2+x,-y,z
1/2+x,1/2+y,1/2+z
1/2-x,1/2-y,1/2+z
-x,1/2+y,1/2+z
x,1/2-y,1/2+z
loop_
_atom_site_type_symbol
_atom_site_label
_atom_site_fract_x
_atom_site_fract_y
_atom_site_fract_z
Si Si1 0.061614 0.233377 0.560120
Si Si2 0.438061 0.058030 0.505983
Si Si3 0.056549 0.653690 0.530026
Si Si4 0.561501 0.134290 0.652769
Si Si5 0.443656 0.782704 0.365493
Si Si6 0.057332 0.943261 0.146365
Si Si7 0.943990 0.167866 0.832596
Si Si8 0.441976 0.603705 0.824918
O O1 0.250000 0.227506 0.573263
O O2 0.009629 0.293071 0.570246
O O3 0.968686 0.192721 0.619404
O O4 0.016111 0.218536 0.461486
O O5 0.250000 0.056557 0.495246
O O6 0.481025 0.095200 0.585912
O O7 0.509475 0.080738 0.417137
O O8 0.500000 0.000000 0.520702
O O9 0.250000 0.657267 0.531992
O O10 0.006815 0.602925 0.582470
O O11 0.006543 0.651658 0.429123
O O12 0.750000 0.123511 0.651326
O O13 0.500920 0.133809 0.751679
O O14 0.250000 0.782692 0.373703
O O15 0.490392 0.728409 0.321703
O O16 0.492574 0.835959 0.319789
O O17 0.250000 0.943392 0.147113
O O18 0.999049 0.929044 0.243115
O O19 0.000000 0.000000 0.120531
O O20 0.750000 0.166341 0.831096
O O21 0.250000 0.603389 0.821321
#
# Coordination Sequence:
#
# PCOD9379481 Si02
#       8
#     8   8   8   8   8   8   8   8
#     4  11  21  33  52  84 118 149 187 232 285 337
#     4  12  25  41  60  83 115 153 196 240 288 341
#     4   9  19  39  62  83 110 151 196 237 285 344
#     4  11  21  36  59  85 116 153 191 234 285 341
#     4   9  17  33  56  82 115 152 190 225 274 341
#     4  10  22  38  60  86 114 150 195 241 288 344
#     4   8  17  33  58  86 112 147 190 235 278 334
#     4  10  20  35  58  87 117 153 192 231 282 342
#
# _framework density 19.173544
#
# number of rings (size 3 to 8) (size 9 to 14) (size 15 to 20)
#    0.000    2.000    1.250    3.750    1.750    2.000 
#    0.000    5.625    0.000    1.500    0.000    0.000 
#    0.000    0.000    0.000    0.000    0.000    0.000 
#
# Total GULP energy -178669.627740 kJ/mol
# GULP energy per Si atom -5583.425867 kJ/mol
# Density = 1.912990 g / cm^3
# Si number density = 19.173544 Si / 1000 Ang^3
#
#
#
# Elastic Constant Matrix: (Units=GPa)
#
#
# Indices 1 2 3 4 5 6 
#
# 1 12.7745 6.0757 -5.8011 0.0000 0.0000 0.0000
# 2 6.0757 125.2507 52.8769 0.0001 0.0000 0.0000
# 3 -5.8011 52.8769 80.2085 0.0003 0.0000 0.0000
# 4 0.0000 0.0001 0.0003 31.8602 0.0001 0.0000
# 5 0.0000 0.0000 0.0000 0.0001 -2.5160 0.0000
# 6 0.0000 0.0000 0.0000 0.0000 0.0000 27.1752
#
#
#
# Elastic Compliance Matrix: (Units=1/GPa)
#
#
# Indices 1 2 3 4 5 6 
#
# 1 0.088726 -0.009718 0.012823 0.000000 0.000000 0.000000
# 2 -0.009718 0.012127 -0.008698 0.000000 0.000000 0.000000
# 3 0.012823 -0.008698 0.019129 0.000000 0.000000 0.000000
# 4 0.000000 0.000000 0.000000 0.031387 0.000001 0.000000
# 5 0.000000 0.000000 0.000000 0.000001 -0.397463 0.000000
# 6 0.000000 0.000000 0.000000 0.000000 0.000000 0.036798
#
#
# Mechanical properties :
#
#
# Convention : Reuss Voigt Hill
#
# Bulk Modulus (GPa) = 9.19130 36.05961 22.62546
# Shear Modulus (GPa) = -30.89351 22.30938 -4.29207
#
# Velocity S-wave (km/s) = -4.01840 3.41479 -1.49780
# Velocity P-wave (km/s) = 4.08973 5.86477 2.97233
#
# Compressibility (1/GPa) = 0.10879854
#
# Stress axis : x y z
#
# Youngs Moduli (GPa) = 11.27065 82.45917 52.27721
#
# Poissons Ratio (x) = 0.80130 -0.67037
# Poissons Ratio (y) = 0.10952 0.45469
# Poissons Ratio (z) = -0.14453 0.71720
#
# Static dielectric constant tensor:
#      x y z
#    x 1.658490 0.000000 0.000000 
#    y 0.000000 1.649620 0.000000 
#    z 0.000000 0.000000 1.682940 
# 
# From -- ./inp_files/14459.got.cif
#   From: 2010.05.17/outbox.cif.g08.bks.cpg/sg46_8_cif.got.tgz:14459.got - 2010.06.03 19:58:25.
