data_PCOD9379158
_publ_section_title
;
Structure prediction by ZEFSAII (Michael W. Deem and Ramdas Pophale) SiO2 
 PCOD9379158
Probable space group: I M A 2
;
_chemical_formula_sum "Si O2"
_cell_formula_units_Z 64
_cell_length_a 22.556643
_cell_length_b 16.924562
_cell_length_c 8.429310
_cell_angle_alpha 90.000000
_cell_angle_beta 90.000000
_cell_angle_gamma 90.000000
_cell_volume 3217.984369
_symmetry_space_group_name_H-M "I M A 2"
_symmetry_group_IT_number 46
_symmetry_cell_setting 'orthorhombic'
loop_
_space_group_symop_operation_xyz
x,y,z
-x,-y,z
1/2-x,y,z
1/2+x,-y,z
1/2+x,1/2+y,1/2+z
1/2-x,1/2-y,1/2+z
-x,1/2+y,1/2+z
x,1/2-y,1/2+z
loop_
_atom_site_type_symbol
_atom_site_label
_atom_site_fract_x
_atom_site_fract_y
_atom_site_fract_z
Si Si1 0.682541 0.789644 0.560400
Si Si2 0.487780 0.200559 0.154333
Si Si3 0.579951 0.008962 0.903843
Si Si4 0.318854 0.509410 0.891852
Si Si5 0.317367 0.436667 0.245849
Si Si6 0.496928 0.637882 0.311424
Si Si7 0.857616 0.849041 0.240849
Si Si8 0.054634 0.557140 0.769902
O O1 0.750000 0.812506 0.517027
O O2 0.662804 0.847676 0.702116
O O3 0.642274 0.804760 0.410197
O O4 0.680819 0.701295 0.619849
O O5 0.487918 0.293949 0.187688
O O6 0.423974 0.158794 0.177427
O O7 0.530974 0.146685 0.261460
O O8 0.506080 0.185600 0.974837
O O9 0.562801 0.085797 0.799531
O O10 0.646309 0.982386 0.876812
O O11 0.543797 0.933150 0.837776
O O12 0.564755 0.028205 0.086382
O O13 0.250000 0.538633 0.866792
O O14 0.329728 0.432783 0.780771
O O15 0.381199 0.554539 0.855814
O O16 0.321593 0.480896 0.075355
O O17 0.250000 0.431360 0.295015
O O18 0.000000 0.500000 0.831439
#
# Coordination Sequence:
#
# PCOD9379158 Si02
#       8
#     8   8   8   8   8   8   8   8
#     4  10  20  32  46  73 111 149 191 234 272 329
#     4  11  21  35  56  83 113 146 190 238 284 337
#     4  10  19  39  58  78 117 154 185 237 288 338
#     4  10  21  37  56  80 112 149 191 237 289 345
#     4   9  20  36  53  78 109 145 191 237 280 343
#     4  10  21  36  55  82 113 148 187 235 284 339
#     4  11  19  32  51  72 110 151 190 231 278 329
#     4  11  20  40  58  83 118 151 187 241 285 341
#
# _framework density 19.888226
#
# number of rings (size 3 to 8) (size 9 to 14) (size 15 to 20)
#    0.000    1.750    3.750    3.375    0.000    3.500 
#    2.250    1.250    0.000    0.750    0.000    0.000 
#    0.000    0.000    0.000    0.000    0.000    0.000 
#
# Total GULP energy -178430.212033 kJ/mol
# GULP energy per Si atom -5575.944126 kJ/mol
# Density = 1.984296 g / cm^3
# Si number density = 19.888226 Si / 1000 Ang^3
#
#
#
# Elastic Constant Matrix: (Units=GPa)
#
#
# Indices 1 2 3 4 5 6 
#
# 1 80.9377 18.1282 7.4879 0.0000 0.0000 0.0000
# 2 18.1282 78.1982 14.8179 0.0000 0.0000 0.0000
# 3 7.4879 14.8179 12.9140 0.0000 0.0000 0.0000
# 4 0.0000 0.0000 0.0000 28.6019 0.0000 0.0000
# 5 0.0000 0.0000 0.0000 0.0000 26.1017 0.0000
# 6 0.0000 0.0000 0.0000 0.0000 0.0000 26.4124
#
#
#
# Elastic Compliance Matrix: (Units=1/GPa)
#
#
# Indices 1 2 3 4 5 6 
#
# 1 0.013314 -0.002075 -0.005339 0.000000 0.000000 0.000000
# 2 -0.002075 0.016664 -0.017918 0.000000 0.000000 0.000000
# 3 -0.005339 -0.017918 0.101092 0.000000 0.000000 0.000000
# 4 0.000000 0.000000 0.000000 0.034963 0.000000 0.000000
# 5 0.000000 0.000000 0.000000 0.000000 0.038312 0.000000
# 6 0.000000 0.000000 0.000000 0.000000 0.000000 0.037861
#
#
# Mechanical properties :
#
#
# Convention : Reuss Voigt Hill
#
# Bulk Modulus (GPa) = 12.43698 28.10198 20.26948
# Shear Modulus (GPa) = 15.64107 24.99759 20.31933
#
# Velocity S-wave (km/s) = 2.80741 3.54913 3.19983
# Velocity P-wave (km/s) = 4.09582 5.56379 4.88526
#
# Compressibility (1/GPa) = 0.08040538
#
# Stress axis : x y z
#
# Youngs Moduli (GPa) = 75.10995 60.00825 9.89203
#
# Poissons Ratio (x) = 0.12450 0.05281
# Poissons Ratio (y) = 0.15583 0.17725
# Poissons Ratio (z) = 0.40102 1.07525
#
# Static dielectric constant tensor:
#      x y z
#    x 1.776820 0.000000 0.000000 
#    y 0.000000 1.741030 0.000000 
#    z 0.000000 0.000000 1.747450 
# 
# From -- ./inp_files/7572.got.cif
#   From: 2010.05.17/outbox.cif.g08.bks.cpg/sg46_4_cif.got.tgz:7572.got - 2010.06.03 19:58:25.
