data_PCOD9379200
_publ_section_title
;
Structure prediction by ZEFSAII (Michael W. Deem and Ramdas Pophale) SiO2 
 PCOD9379200
Probable space group: I M A 2
;
_chemical_formula_sum "Si O2"
_cell_formula_units_Z 64
_cell_length_a 9.843049
_cell_length_b 17.014218
_cell_length_c 22.532532
_cell_angle_alpha 90.000000
_cell_angle_beta 90.000000
_cell_angle_gamma 90.000000
_cell_volume 3773.563275
_symmetry_space_group_name_H-M "I M A 2"
_symmetry_group_IT_number 46
_symmetry_cell_setting 'orthorhombic'
loop_
_space_group_symop_operation_xyz
x,y,z
-x,-y,z
1/2-x,y,z
1/2+x,-y,z
1/2+x,1/2+y,1/2+z
1/2-x,1/2-y,1/2+z
-x,1/2+y,1/2+z
x,1/2-y,1/2+z
loop_
_atom_site_type_symbol
_atom_site_label
_atom_site_fract_x
_atom_site_fract_y
_atom_site_fract_z
Si Si1 0.588454 0.736792 0.766850
Si Si2 0.591816 0.423327 0.067546
Si Si3 0.897462 0.302867 0.171576
Si Si4 0.495342 0.830545 0.088207
Si Si5 0.590424 0.922778 0.202316
Si Si6 0.102359 0.195308 0.509098
Si Si7 0.089488 0.920949 0.971162
Si Si8 0.907930 0.697692 0.396626
O O1 0.750000 0.742184 0.759100
O O2 0.513968 0.790890 0.719067
O O3 0.552592 0.646969 0.748656
O O4 0.556158 0.766852 0.832615
O O5 0.500000 0.500000 0.068222
O O6 0.750000 0.437597 0.053946
O O7 0.585073 0.379054 0.130855
O O8 0.520936 0.362255 0.022768
O O9 0.750000 0.304894 0.200884
O O10 0.902991 0.228013 0.127157
O O11 0.565483 0.887019 0.136304
O O12 0.593218 0.769348 0.054103
O O13 0.423795 0.878490 0.035554
O O14 0.750000 0.940673 0.208939
O O15 0.500000 0.000000 0.209963
O O16 0.250000 0.156688 0.517271
O O17 0.092353 0.231824 0.444139
O O18 0.250000 0.933577 0.958767
O O19 0.013955 0.865641 0.922585
O O20 0.000000 0.000000 0.973938
O O21 0.750000 0.667659 0.394881
#
# Coordination Sequence:
#
# PCOD9379200 Si02
#       8
#     8   8   8   8   8   8   8   8
#     4   9  19  36  55  73  97 132 171 208 246 293
#     4  10  20  33  50  74 104 132 163 207 257 305
#     4   9  18  32  51  76 101 128 166 208 248 294
#     4   9  18  31  51  75 104 136 166 198 242 299
#     4  10  20  32  49  75 105 135 167 202 244 293
#     4   9  17  31  53  76  98 128 167 208 252 302
#     4  11  22  34  51  77 107 136 167 205 249 297
#     4   9  19  37  57  74  97 133 173 210 249 295
#
# _framework density 16.960097000000001
#
# number of rings (size 3 to 8) (size 9 to 14) (size 15 to 20)
#    0.000    2.500    0.000    1.875    0.000   12.000 
#    0.000    1.250    0.000    3.000    0.000    0.000 
#    0.000    0.000    0.000    0.000    0.000    0.000 
#
# Total GULP energy -178265.996832 kJ/mol
# GULP energy per Si atom -5570.812401 kJ/mol
# Density = 1.692150 g / cm^3
# Si number density = 16.960097 Si / 1000 Ang^3
#
#
#
# Elastic Constant Matrix: (Units=GPa)
#
#
# Indices 1 2 3 4 5 6 
#
# 1 113.7094 61.4402 44.5324 0.0000 0.0000 0.0000
# 2 61.4402 86.2663 36.5761 0.0000 0.0000 0.0000
# 3 44.5324 36.5761 99.6864 0.0000 0.0000 0.0000
# 4 0.0000 0.0000 0.0000 9.1001 0.0000 0.0000
# 5 0.0000 0.0000 0.0000 0.0000 9.3349 0.0000
# 6 0.0000 0.0000 0.0000 0.0000 0.0000 16.4822
#
#
#
# Elastic Compliance Matrix: (Units=1/GPa)
#
#
# Indices 1 2 3 4 5 6 
#
# 1 0.015176 -0.009396 -0.003332 0.000000 0.000000 0.000000
# 2 -0.009396 0.019545 -0.002974 0.000000 0.000000 0.000000
# 3 -0.003332 -0.002974 0.012611 0.000000 0.000000 0.000000
# 4 0.000000 0.000000 0.000000 0.109888 0.000000 0.000000
# 5 0.000000 0.000000 0.000000 0.000000 0.107125 0.000000
# 6 0.000000 0.000000 0.000000 0.000000 0.000000 0.060671
#
#
# Mechanical properties :
#
#
# Convention : Reuss Voigt Hill
#
# Bulk Modulus (GPa) = 62.78092 64.97327 63.87710
# Shear Modulus (GPa) = 13.82247 17.45768 15.64008
#
# Velocity S-wave (km/s) = 2.85792 3.21181 3.04002
# Velocity P-wave (km/s) = 6.92730 7.22129 7.07582
#
# Compressibility (1/GPa) = 0.01592841
#
# Stress axis : x y z
#
# Youngs Moduli (GPa) = 65.89272 51.16448 79.29508
#
# Poissons Ratio (x) = 0.48074 0.26422
# Poissons Ratio (y) = 0.61912 0.23581
# Poissons Ratio (z) = 0.21956 0.15215
#
# Static dielectric constant tensor:
#      x y z
#    x 1.582880 0.000000 0.000000 
#    y 0.000000 1.571860 0.000000 
#    z 0.000000 0.000000 1.557130 
# 
# From -- ./inp_files/23291.got.cif
#   From: 2010.05.17/outbox.cif.g08.bks.cpg/sg46_12_cif.got.tgz:23291.got - 2010.06.03 19:58:25.
