data_PCOD9379017
_publ_section_title
;
Structure prediction by ZEFSAII (Michael W. Deem and Ramdas Pophale) SiO2 
 PCOD9379017
Probable space group: I M A 2
;
_chemical_formula_sum "Si O2"
_cell_formula_units_Z 64
_cell_length_a 8.521694
_cell_length_b 28.823897
_cell_length_c 12.907215
_cell_angle_alpha 90.000000
_cell_angle_beta 90.000000
_cell_angle_gamma 90.000000
_cell_volume 3170.378958
_symmetry_space_group_name_H-M "I M A 2"
_symmetry_group_IT_number 46
_symmetry_cell_setting 'orthorhombic'
loop_
_space_group_symop_operation_xyz
x,y,z
-x,-y,z
1/2-x,y,z
1/2+x,-y,z
1/2+x,1/2+y,1/2+z
1/2-x,1/2-y,1/2+z
-x,1/2+y,1/2+z
x,1/2-y,1/2+z
loop_
_atom_site_type_symbol
_atom_site_label
_atom_site_fract_x
_atom_site_fract_y
_atom_site_fract_z
Si Si1 0.061628 0.909103 0.565490
Si Si2 0.061357 0.379565 0.671070
Si Si3 0.435525 0.206832 0.045868
Si Si4 0.062031 0.551495 0.845354
Si Si5 0.569646 0.333165 0.336657
Si Si6 0.568420 0.571120 0.281994
Si Si7 0.566393 0.196719 0.609486
Si Si8 0.938581 0.546582 0.501656
O O1 0.250000 0.908296 0.564198
O O2 0.006118 0.933632 0.460679
O O3 0.011959 0.854812 0.574422
O O4 0.010464 0.934539 0.670884
O O5 0.250000 0.381396 0.683520
O O6 0.017028 0.326750 0.642273
O O7 0.017110 0.408948 0.568427
O O8 0.989186 0.407901 0.766330
O O9 0.250000 0.199164 0.029512
O O10 0.470536 0.260381 0.066252
O O11 0.526140 0.191166 0.942988
O O12 0.250000 0.549364 0.845466
O O13 0.000000 0.500000 0.819120
O O14 0.750000 0.350947 0.339271
O O15 0.451481 0.375002 0.313143
O O16 0.559116 0.301694 0.234408
O O17 0.750000 0.558354 0.272387
O O18 0.496643 0.548323 0.384825
O O19 0.750000 0.201281 0.579490
O O20 0.750000 0.545768 0.496573
O O21 0.000000 0.500000 0.553904
#
# Coordination Sequence:
#
# PCOD9379017 Si02
#       8
#     8   8   8   8   8   8   8   8
#     4   9  21  41  61  84 119 158 201 249 299 362
#     4  10  22  41  59  82 119 156 198 250 301 359
#     4  11  22  37  59  88 121 155 198 252 306 361
#     4  11  24  42  64  89 120 162 210 259 311 369
#     4  10  20  36  58  81 113 154 192 237 292 354
#     4  10  19  35  58  84 114 147 188 240 297 348
#     4   9  20  38  58  85 117 155 202 248 297 357
#     4  10  21  36  54  81 115 147 182 235 289 346
#
# _framework density 20.186861
#
# number of rings (size 3 to 8) (size 9 to 14) (size 15 to 20)
#    0.000    2.000    1.250    2.625    0.000    8.500 
#    0.000    6.250    0.000    0.000    0.000    0.000 
#    0.000    0.000    0.000    0.000    0.000    0.000 
#
# Total GULP energy -178532.035754 kJ/mol
# GULP energy per Si atom -5579.126117 kJ/mol
# Density = 2.014091 g / cm^3
# Si number density = 20.186861 Si / 1000 Ang^3
#
#
#
# Elastic Constant Matrix: (Units=GPa)
#
#
# Indices 1 2 3 4 5 6 
#
# 1 18.0317 6.6260 15.4298 0.0000 0.0000 0.0000
# 2 6.6260 45.8769 9.6344 0.0000 0.0000 -0.0001
# 3 15.4298 9.6344 99.0084 0.0001 0.0000 0.0002
# 4 0.0000 0.0000 0.0001 16.3798 0.0000 0.0000
# 5 0.0000 0.0000 0.0000 0.0000 24.7484 0.0000
# 6 0.0000 -0.0001 0.0002 0.0000 0.0000 6.8061
#
#
#
# Elastic Compliance Matrix: (Units=1/GPa)
#
#
# Indices 1 2 3 4 5 6 
#
# 1 0.066477 -0.007581 -0.009622 0.000000 0.000000 0.000000
# 2 -0.007581 0.023117 -0.001068 0.000000 0.000000 0.000000
# 3 -0.009622 -0.001068 0.011704 0.000000 0.000000 0.000000
# 4 0.000000 0.000000 0.000000 0.061051 0.000000 0.000000
# 5 0.000000 0.000000 0.000000 0.000000 0.040407 0.000000
# 6 0.000000 0.000000 0.000000 0.000000 0.000000 0.146926
#
#
# Mechanical properties :
#
#
# Convention : Reuss Voigt Hill
#
# Bulk Modulus (GPa) = 15.44272 25.14418 20.29345
# Shear Modulus (GPa) = 12.26066 18.33533 15.29799
#
# Velocity S-wave (km/s) = 2.46714 3.01704 2.75584
# Velocity P-wave (km/s) = 3.97268 4.96180 4.49453
#
# Compressibility (1/GPa) = 0.06475544
#
# Stress axis : x y z
#
# Youngs Moduli (GPa) = 15.04274 43.25889 85.44331
#
# Poissons Ratio (x) = 0.32793 0.82217
# Poissons Ratio (y) = 0.11403 0.09126
# Poissons Ratio (z) = 0.14475 0.04620
#
# Static dielectric constant tensor:
#      x y z
#    x 1.695740 0.000000 0.000000 
#    y 0.000000 1.721570 0.000000 
#    z 0.000000 0.000000 1.727880 
# 
# From -- ./inp_files/9672.got.cif
#   From: 2010.05.17/outbox.cif.g08.bks.cpg/sg46_5_cif.got.tgz:9672.got - 2010.06.03 19:58:25.
