data_PCOD9379463
_publ_section_title
;
Structure prediction by ZEFSAII (Michael W. Deem and Ramdas Pophale) SiO2 
 PCOD9379463
Probable space group: I M A 2
;
_chemical_formula_sum "Si O2"
_cell_formula_units_Z 48
_cell_length_a 8.874276
_cell_length_b 23.528939
_cell_length_c 11.878671
_cell_angle_alpha 90.000000
_cell_angle_beta 90.000000
_cell_angle_gamma 90.000000
_cell_volume 2480.293810
_symmetry_space_group_name_H-M "I M A 2"
_symmetry_group_IT_number 46
_symmetry_cell_setting 'orthorhombic'
loop_
_space_group_symop_operation_xyz
x,y,z
-x,-y,z
1/2-x,y,z
1/2+x,-y,z
1/2+x,1/2+y,1/2+z
1/2-x,1/2-y,1/2+z
-x,1/2+y,1/2+z
x,1/2-y,1/2+z
loop_
_atom_site_type_symbol
_atom_site_label
_atom_site_fract_x
_atom_site_fract_y
_atom_site_fract_z
Si Si1 0.069582 0.767572 0.114240
Si Si2 0.571012 0.649203 0.164173
Si Si3 0.576812 0.344135 0.403254
Si Si4 0.070360 0.139655 0.267163
Si Si5 0.931312 0.937333 0.478685
Si Si6 0.423346 0.559713 0.582741
O O1 0.250000 0.770524 0.120527
O O2 0.010510 0.703913 0.112100
O O3 0.004648 0.802118 0.222081
O O4 0.024731 0.799286 0.998263
O O5 0.750000 0.655997 0.151787
O O6 0.524020 0.650314 0.294022
O O7 0.527935 0.591718 0.097898
O O8 0.750000 0.329794 0.370640
O O9 0.578507 0.403355 0.469893
O O10 0.250000 0.147615 0.268816
O O11 0.024430 0.109691 0.384301
O O12 0.019408 0.094157 0.173761
O O13 0.750000 0.943131 0.471973
O O14 0.000000 0.000000 0.461816
O O15 0.500000 0.500000 0.564202
O O16 0.250000 0.554364 0.622099
#
# Coordination Sequence:
#
# PCOD9379463 Si02
#       6
#     8   8   8   8   8   8
#     4  10  22  40  62  90 120 153 199 249 306 365
#     4  11  24  40  60  87 120 158 200 248 302 362
#     4   9  21  40  58  83 116 151 196 244 295 357
#     4  10  20  37  61  90 121 155 198 249 302 358
#     4  10  24  42  60  88 123 162 206 248 300 359
#     4  10  20  35  57  86 118 153 195 244 297 352
#
# _framework density 19.352544999999999
#
# number of rings (size 3 to 8) (size 9 to 14) (size 15 to 20)
#    0.000    2.000    0.000    3.500    2.333    8.667 
#    0.000    3.333    0.000    0.000    0.000    0.000 
#    0.000    0.000    0.000    0.000    0.000    0.000 
#
# Total GULP energy -133968.669337 kJ/mol
# GULP energy per Si atom -5582.027889 kJ/mol
# Density = 1.930850 g / cm^3
# Si number density = 19.352545 Si / 1000 Ang^3
#
#
#
# Elastic Constant Matrix: (Units=GPa)
#
#
# Indices 1 2 3 4 5 6 
#
# 1 42.4196 11.2566 25.4902 0.0000 0.0000 0.0000
# 2 11.2566 66.2357 15.7000 0.0000 0.0000 0.0000
# 3 25.4902 15.7000 78.2490 0.0004 -0.0001 0.0004
# 4 0.0000 0.0000 0.0004 23.1662 -0.0001 0.0003
# 5 0.0000 0.0000 -0.0001 -0.0001 24.4921 0.0000
# 6 0.0000 0.0000 0.0004 0.0003 0.0000 19.8886
#
#
#
# Elastic Compliance Matrix: (Units=1/GPa)
#
#
# Indices 1 2 3 4 5 6 
#
# 1 0.029835 -0.002905 -0.009136 0.000000 0.000000 0.000000
# 2 -0.002905 0.016134 -0.002291 0.000000 0.000000 0.000000
# 3 -0.009136 -0.002291 0.016216 0.000000 0.000000 0.000000
# 4 0.000000 0.000000 0.000000 0.043166 0.000000 -0.000001
# 5 0.000000 0.000000 0.000000 0.000000 0.040829 0.000000
# 6 0.000000 0.000000 0.000000 -0.000001 0.000000 0.050280
#
#
# Mechanical properties :
#
#
# Convention : Reuss Voigt Hill
#
# Bulk Modulus (GPa) = 29.83211 32.42199 31.12705
# Shear Modulus (GPa) = 21.15977 22.47324 21.81651
#
# Velocity S-wave (km/s) = 3.31022 3.41142 3.36120
# Velocity P-wave (km/s) = 5.48258 5.68390 5.58415
#
# Compressibility (1/GPa) = 0.03352093
#
# Stress axis : x y z
#
# Youngs Moduli (GPa) = 33.51798 61.97982 61.66935
#
# Poissons Ratio (x) = 0.18004 0.56342
# Poissons Ratio (y) = 0.09736 0.14128
# Poissons Ratio (z) = 0.30622 0.14199
#
# Static dielectric constant tensor:
#      x y z
#    x 1.661960 0.000000 0.000000 
#    y 0.000000 1.572610 0.000000 
#    z 0.000000 0.000000 1.686420 
# 
# From -- ./inp_files/9306.got.cif
#   From: 2010.05.17/outbox.cif.g08.bks.cpg/sg46_5_cif.got.tgz:9306.got - 2010.06.03 19:58:25.
