data_PCOD9379996
_publ_section_title
;
Structure prediction by ZEFSAII (Michael W. Deem and Ramdas Pophale) SiO2 
 PCOD9379996
Probable space group: I M A 2
;
_chemical_formula_sum "Si O2"
_cell_formula_units_Z 64
_cell_length_a 8.799457
_cell_length_b 32.757567
_cell_length_c 12.035917
_cell_angle_alpha 90.000000
_cell_angle_beta 90.000000
_cell_angle_gamma 90.000000
_cell_volume 3469.338659
_symmetry_space_group_name_H-M "I M A 2"
_symmetry_group_IT_number 46
_symmetry_cell_setting 'orthorhombic'
loop_
_space_group_symop_operation_xyz
x,y,z
-x,-y,z
1/2-x,y,z
1/2+x,-y,z
1/2+x,1/2+y,1/2+z
1/2-x,1/2-y,1/2+z
-x,1/2+y,1/2+z
x,1/2-y,1/2+z
loop_
_atom_site_type_symbol
_atom_site_label
_atom_site_fract_x
_atom_site_fract_y
_atom_site_fract_z
Si Si1 0.566994 0.119977 0.178160
Si Si2 0.567645 0.954164 0.046305
Si Si3 0.067172 0.355375 0.915142
Si Si4 0.421465 0.183094 0.754743
Si Si5 0.930874 0.220667 0.547935
Si Si6 0.070364 0.544689 0.313601
Si Si7 0.077797 0.096779 0.628857
Si Si8 0.432476 0.686401 0.491552
O O1 0.750000 0.116343 0.180246
O O2 0.494222 0.077410 0.137522
O O3 0.506298 0.134249 0.297515
O O4 0.524699 0.154607 0.087543
O O5 0.750000 0.956032 0.046936
O O6 0.500000 0.000000 0.060165
O O7 0.508989 0.938465 0.925563
O O8 0.250000 0.353685 0.907454
O O9 0.029076 0.390945 0.004863
O O10 0.008802 0.312741 0.967721
O O11 0.250000 0.199285 0.763245
O O12 0.520585 0.211371 0.674271
O O13 0.415397 0.139917 0.692323
O O14 0.491904 0.176560 0.874652
O O15 0.750000 0.216233 0.536571
O O16 0.973930 0.266983 0.520199
O O17 0.750000 0.457026 0.332542
O O18 0.030607 0.569243 0.202829
O O19 0.000000 0.500000 0.300301
O O20 0.250000 0.079622 0.626992
O O21 0.250000 0.684459 0.480042
#
# Coordination Sequence:
#
# PCOD9379996 Si02
#       8
#     8   8   8   8   8   8   8   8
#     4  11  23  40  61  88 119 156 201 246 296 358
#     4  11  22  39  62  89 122 158 196 243 299 354
#     4  10  22  40  60  84 115 154 197 244 296 350
#     4  10  21  36  56  82 109 142 184 235 287 337
#     4  10  21  38  58  80 112 153 194 238 291 349
#     4  11  21  34  57  88 119 150 188 234 290 347
#     4   9  19  37  57  79 112 147 185 231 285 342
#     4  10  23  38  56  82 114 152 192 237 288 347
#
# _framework density 18.447320999999999
#
# number of rings (size 3 to 8) (size 9 to 14) (size 15 to 20)
#    0.000    1.750    0.000    6.000    1.750    7.000 
#    0.000    0.625    0.000    3.000    0.000    0.000 
#    0.000    0.000    0.000    0.000    0.000    0.000 
#
# Total GULP energy -178705.331935 kJ/mol
# GULP energy per Si atom -5584.541623 kJ/mol
# Density = 1.840533 g / cm^3
# Si number density = 18.447321 Si / 1000 Ang^3
#
#
#
# Elastic Constant Matrix: (Units=GPa)
#
#
# Indices 1 2 3 4 5 6 
#
# 1 86.8045 43.8078 56.8572 0.0000 0.0000 0.0000
# 2 43.8078 69.1663 54.9548 0.0002 0.0000 0.0000
# 3 56.8572 54.9548 161.5120 0.0002 0.0002 0.0001
# 4 0.0000 0.0002 0.0002 9.1543 0.0001 0.0000
# 5 0.0000 0.0000 0.0002 0.0001 27.8675 0.0000
# 6 0.0000 0.0000 0.0001 0.0000 0.0000 20.0315
#
#
#
# Elastic Compliance Matrix: (Units=1/GPa)
#
#
# Indices 1 2 3 4 5 6 
#
# 1 0.018204 -0.008824 -0.003406 0.000000 0.000000 0.000000
# 2 -0.008824 0.024092 -0.005091 0.000000 0.000000 0.000000
# 3 -0.003406 -0.005091 0.009123 0.000000 0.000000 0.000000
# 4 0.000000 0.000000 0.000000 0.109238 0.000000 0.000000
# 5 0.000000 0.000000 0.000000 0.000000 0.035884 0.000000
# 6 0.000000 0.000000 0.000000 0.000000 0.000000 0.049921
#
#
# Mechanical properties :
#
#
# Convention : Reuss Voigt Hill
#
# Bulk Modulus (GPa) = 59.60594 69.85804 64.73199
# Shear Modulus (GPa) = 17.44005 22.20153 19.82079
#
# Velocity S-wave (km/s) = 3.07807 3.47293 3.28144
# Velocity P-wave (km/s) = 6.70927 7.35070 7.03729
#
# Compressibility (1/GPa) = 0.01677685
#
# Stress axis : x y z
#
# Youngs Moduli (GPa) = 54.93214 41.50837 109.61566
#
# Poissons Ratio (x) = 0.36626 0.37337
# Poissons Ratio (y) = 0.48471 0.55805
# Poissons Ratio (z) = 0.18711 0.21132
#
# Static dielectric constant tensor:
#      x y z
#    x 1.628970 0.000000 0.000000 
#    y 0.000000 1.657930 0.000000 
#    z 0.000000 0.000000 1.628240 
# 
# From -- ./inp_files/9755.got.cif
#   From: 2010.05.17/outbox.cif.g08.bks.cpg/sg46_5_cif.got.tgz:9755.got - 2010.06.03 19:58:25.
