data_PCOD9379648
_publ_section_title
;
Structure prediction by ZEFSAII (Michael W. Deem and Ramdas Pophale) SiO2 
 PCOD9379648
Probable space group: I M A 2
;
_chemical_formula_sum "Si O2"
_cell_formula_units_Z 56
_cell_length_a 14.573634
_cell_length_b 11.673000
_cell_length_c 14.663542
_cell_angle_alpha 90.000000
_cell_angle_beta 90.000000
_cell_angle_gamma 90.000000
_cell_volume 2494.532873
_symmetry_space_group_name_H-M "I M A 2"
_symmetry_group_IT_number 46
_symmetry_cell_setting 'orthorhombic'
loop_
_space_group_symop_operation_xyz
x,y,z
-x,-y,z
1/2-x,y,z
1/2+x,-y,z
1/2+x,1/2+y,1/2+z
1/2-x,1/2-y,1/2+z
-x,1/2+y,1/2+z
x,1/2-y,1/2+z
loop_
_atom_site_type_symbol
_atom_site_label
_atom_site_fract_x
_atom_site_fract_y
_atom_site_fract_z
Si Si1 0.094196 0.548307 0.348900
Si Si2 0.861428 0.437334 0.019473
Si Si3 0.854643 0.321801 0.525011
Si Si4 0.643287 0.612064 0.859686
Si Si5 0.145181 0.105828 0.684159
Si Si6 0.142662 0.931696 0.210843
Si Si7 0.506594 0.746092 0.767804
O O1 0.144465 0.613157 0.429412
O O2 0.140982 0.454713 0.284160
O O3 0.000000 0.500000 0.390605
O O4 0.058581 0.645684 0.281109
O O5 0.750000 0.431789 0.014755
O O6 0.898026 0.306302 0.020911
O O7 0.885694 0.515314 0.932160
O O8 0.883272 0.511772 0.109123
O O9 0.750000 0.296009 0.549165
O O10 0.881742 0.409742 0.605180
O O11 0.750000 0.643817 0.876461
O O12 0.637276 0.554628 0.758908
O O13 0.572662 0.716145 0.853194
O O14 0.250000 0.140739 0.665571
O O15 0.075999 0.212369 0.688799
O O16 0.250000 0.896125 0.228107
O O17 0.065024 0.855562 0.257575
#
# Coordination Sequence:
#
# PCOD9379648 Si02
#       7
#     8   8   8   8   8   8   8
#     4  10  22  36  53  82 117 151 192 237 285 343
#     4   9  19  35  60  89 114 145 190 238 286 341
#     4  10  20  37  60  83 109 150 196 239 288 339
#     4  10  21  39  60  87 120 152 191 239 287 342
#     4  10  21  40  62  86 118 154 191 237 289 345
#     4  10  22  38  57  83 117 152 192 240 288 339
#     4  11  22  37  59  86 116 154 191 234 292 345
#
# _framework density 22.449093000000001
#
# number of rings (size 3 to 8) (size 9 to 14) (size 15 to 20)
#    0.000    2.000    0.000    3.000    0.000    5.714 
#    0.000    7.143    0.000    6.857    0.000    0.000 
#    0.000    1.143    0.000    0.000    0.000    0.000 
#
# Total GULP energy -156052.986390 kJ/mol
# GULP energy per Si atom -5573.320943 kJ/mol
# Density = 2.239800 g / cm^3
# Si number density = 22.449093 Si / 1000 Ang^3
#
#
#
# Elastic Constant Matrix: (Units=GPa)
#
#
# Indices 1 2 3 4 5 6 
#
# 1 69.4387 4.5018 3.8124 0.0000 0.0000 0.0000
# 2 4.5018 50.5924 27.3881 0.0000 0.0000 0.0000
# 3 3.8124 27.3881 87.1482 0.0000 0.0000 0.0000
# 4 0.0000 0.0000 0.0000 3.4711 0.0000 0.0000
# 5 0.0000 0.0000 0.0000 0.0000 0.0060 0.0000
# 6 0.0000 0.0000 0.0000 0.0000 0.0000 30.8830
#
#
#
# Elastic Compliance Matrix: (Units=1/GPa)
#
#
# Indices 1 2 3 4 5 6 
#
# 1 0.014490 -0.001140 -0.000276 0.000000 0.000000 0.000000
# 2 -0.001140 0.023908 -0.007464 0.000000 0.000000 0.000000
# 3 -0.000276 -0.007464 0.013832 0.000000 0.000000 0.000000
# 4 0.000000 0.000000 0.000000 0.288093 0.000000 0.000000
# 5 0.000000 0.000000 0.000000 0.000000166.498724 0.000000
# 6 0.000000 0.000000 0.000000 0.000000 0.000000 0.032380
#
#
# Mechanical properties :
#
#
# Convention : Reuss Voigt Hill
#
# Bulk Modulus (GPa) = 29.00942 30.95378 29.98160
# Shear Modulus (GPa) = 0.02996 18.30382 9.16689
#
# Velocity S-wave (km/s) = 0.11565 2.85853 2.02294
# Velocity P-wave (km/s) = 3.60114 4.97124 4.34059
#
# Compressibility (1/GPa) = 0.03447156
#
# Stress axis : x y z
#
# Youngs Moduli (GPa) = 69.01192 41.82756 72.29430
#
# Poissons Ratio (x) = 0.04769 0.01992
# Poissons Ratio (y) = 0.07869 0.53958
# Poissons Ratio (z) = 0.01902 0.31218
#
# Static dielectric constant tensor:
#      x y z
#    x 2.290170 0.000000 0.000000 
#    y 0.000000 1.869740 0.000000 
#    z 0.000000 0.000000 1.851360 
# 
# From -- ./inp_files/15934.got.cif
#   From: 2010.05.17/outbox.cif.g08.bks.cpg/sg46_8_cif.got.tgz:15934.got - 2010.06.03 19:58:25.
