data_PCOD9379924
_publ_section_title
;
Structure prediction by ZEFSAII (Michael W. Deem and Ramdas Pophale) SiO2 
 PCOD9379924
Probable space group: I M A 2
;
_chemical_formula_sum "Si O2"
_cell_formula_units_Z 48
_cell_length_a 8.396210
_cell_length_b 29.065897
_cell_length_c 9.113965
_cell_angle_alpha 90.000000
_cell_angle_beta 90.000000
_cell_angle_gamma 90.000000
_cell_volume 2224.202779
_symmetry_space_group_name_H-M "I M A 2"
_symmetry_group_IT_number 46
_symmetry_cell_setting 'orthorhombic'
loop_
_space_group_symop_operation_xyz
x,y,z
-x,-y,z
1/2-x,y,z
1/2+x,-y,z
1/2+x,1/2+y,1/2+z
1/2-x,1/2-y,1/2+z
-x,1/2+y,1/2+z
x,1/2-y,1/2+z
loop_
_atom_site_type_symbol
_atom_site_label
_atom_site_fract_x
_atom_site_fract_y
_atom_site_fract_z
Si Si1 0.250000 0.685621 0.355891
Si Si2 0.572930 0.680683 0.749614
Si Si3 0.250000 0.766596 0.163204
Si Si4 0.438395 0.552020 0.249112
Si Si5 0.575352 0.455877 0.711562
Si Si6 0.932302 0.903116 0.468770
Si Si7 0.499587 0.381850 0.483047
O O1 0.250000 0.713396 0.206511
O O2 0.250000 0.722008 0.490753
O O3 0.398796 0.652729 0.383967
O O4 0.750000 0.702400 0.773437
O O5 0.414442 0.711375 0.727390
O O6 0.542171 0.645364 0.884570
O O7 0.588290 0.651289 0.598192
O O8 0.500000 0.500000 0.227524
O O9 0.250000 0.551534 0.293228
O O10 0.549329 0.578968 0.367383
O O11 0.455719 0.581752 0.100799
O O12 0.500000 0.500000 0.634731
O O13 0.750000 0.466317 0.770045
O O14 0.460330 0.440683 0.841727
O O15 0.587801 0.413711 0.601422
O O16 0.750000 0.904101 0.519588
#
# Coordination Sequence:
#
# PCOD9379924 Si02
#       7
#     4   8   4   8   8   8   8
#     4  10  20  42  62  96 118 160 206 258 316 386
#     4   9  21  41  67  94 124 164 210 261 313 374
#     4  10  22  38  70  96 132 156 212 260 318 390
#     4  12  24  37  56  85 125 168 211 261 313 371
#     4  11  20  34  57  83 115 160 211 263 301 358
#     4  10  22  38  56  83 121 165 215 259 311 370
#     4  10  21  39  62  85 121 159 209 250 311 378
#
# _framework density 21.580766000000001
#
# number of rings (size 3 to 8) (size 9 to 14) (size 15 to 20)
#    0.000    1.667    1.667    2.500    4.667    3.333 
#    0.000    3.333    0.000    0.000    0.000    0.000 
#    0.000    0.000    0.000    0.000    0.000    0.000 
#
# Total GULP energy -133640.664735 kJ/mol
# GULP energy per Si atom -5568.361031 kJ/mol
# Density = 2.153165 g / cm^3
# Si number density = 21.580766 Si / 1000 Ang^3
#
#
#
# Elastic Constant Matrix: (Units=GPa)
#
#
# Indices 1 2 3 4 5 6 
#
# 1 77.8014 3.0061 -6.3382 -0.0007 0.0004 -0.0003
# 2 3.0061 33.6740 6.9468 -0.0014 0.0003 -0.0031
# 3 -6.3382 6.9468 62.3806 -0.0008 0.0016 0.0004
# 4 -0.0007 -0.0014 -0.0008 36.3893 0.0003 -0.0008
# 5 0.0004 0.0003 0.0016 0.0003 1.1719 0.0028
# 6 -0.0003 -0.0031 0.0004 -0.0008 0.0028 -56.2911
#
#
#
# Elastic Compliance Matrix: (Units=1/GPa)
#
#
# Indices 1 2 3 4 5 6 
#
# 1 0.013031 -0.001470 0.001488 0.000000 -0.000006 0.000000
# 2 -0.001470 0.030561 -0.003553 0.000001 -0.000004 -0.000002
# 3 0.001488 -0.003553 0.016577 0.000000 -0.000022 0.000000
# 4 0.000000 0.000001 0.000000 0.027481 -0.000006 0.000000
# 5 -0.000006 -0.000004 -0.000022 -0.000006 0.853337 0.000042
# 6 0.000000 -0.000002 0.000000 0.000000 0.000042 -0.017765
#
#
# Mechanical properties :
#
#
# Convention : Reuss Voigt Hill
#
# Bulk Modulus (GPa) = 18.83271 20.12059 19.47665
# Shear Modulus (GPa) = 5.27431 7.60343 6.43887
#
# Velocity S-wave (km/s) = 1.56502 1.87907 1.72919
# Velocity P-wave (km/s) = 3.46573 3.74853 3.60990
#
# Compressibility (1/GPa) = 0.05309910
#
# Stress axis : x y z
#
# Youngs Moduli (GPa) = 76.73863 32.72186 60.32300
#
# Poissons Ratio (x) = 0.04811 -0.08975
# Poissons Ratio (y) = 0.11282 0.21431
# Poissons Ratio (z) = -0.11417 0.11625
#
# Static dielectric constant tensor:
#      x y z
#    x 1.846580 0.000000 0.000000 
#    y 0.000000 1.783890 0.000000 
#    z 0.000000 0.000000 1.789820 
# 
# From -- ./inp_files/3998.got.cif
#   From: 2010.05.17/outbox.cif.g08.bks.cpg/sg46_2_cif.got.tgz:3998.got - 2010.06.03 19:58:25.
