data_PCOD9379324
_publ_section_title
;
Structure prediction by ZEFSAII (Michael W. Deem and Ramdas Pophale) SiO2 
 PCOD9379324
Probable space group: I M A 2
;
_chemical_formula_sum "Si O2"
_cell_formula_units_Z 48
_cell_length_a 9.784382
_cell_length_b 12.739716
_cell_length_c 23.891993
_cell_angle_alpha 90.000000
_cell_angle_beta 90.000000
_cell_angle_gamma 90.000000
_cell_volume 2978.142851
_symmetry_space_group_name_H-M "I M A 2"
_symmetry_group_IT_number 46
_symmetry_cell_setting 'orthorhombic'
loop_
_space_group_symop_operation_xyz
x,y,z
-x,-y,z
1/2-x,y,z
1/2+x,-y,z
1/2+x,1/2+y,1/2+z
1/2-x,1/2-y,1/2+z
-x,1/2+y,1/2+z
x,1/2-y,1/2+z
loop_
_atom_site_type_symbol
_atom_site_label
_atom_site_fract_x
_atom_site_fract_y
_atom_site_fract_z
Si Si1 0.250000 0.071385 0.008201
Si Si2 0.000000 0.000000 0.806734
Si Si3 0.409941 0.093983 0.608443
Si Si4 0.750000 0.339608 0.483259
Si Si5 0.914271 0.169022 0.715068
Si Si6 0.499096 0.801388 0.053548
Si Si7 0.590624 0.104397 0.173037
Si Si8 0.250000 0.002616 0.888341
O O1 0.386744 0.118975 0.032521
O O2 0.250000 0.947900 0.018690
O O3 0.250000 0.080299 0.941105
O O4 0.958928 0.099785 0.768299
O O5 0.876688 0.979658 0.848586
O O6 0.250000 0.068938 0.618007
O O7 0.490937 0.124087 0.665306
O O8 0.424914 0.194538 0.569298
O O9 0.500000 0.000000 0.583882
O O10 0.885565 0.283960 0.505646
O O11 0.750000 0.387720 0.420258
O O12 0.750000 0.153950 0.705174
O O13 0.937069 0.295412 0.714054
O O14 0.436140 0.847342 0.111096
O O15 0.750000 0.076378 0.177883
O O16 0.500000 0.000000 0.181286
#
# Coordination Sequence:
#
# PCOD9379324 Si02
#       8
#     4   4   8   4   8   8   8   4
#     4  10  20  36  50  80 114 136 179 229 273 334
#     4  12  20  40  56  82 112 150 186 242 282 336
#     4  11  23  35  53  81 110 148 192 226 264 348
#     4  10  20  34  54  80 112 142 171 229 279 336
#     4  10  22  37  56  77 115 150 184 232 287 327
#     4  11  20  34  54  78 114 154 176 218 288 331
#     4  10  21  34  51  83 112 148 187 216 265 352
#     4  10  24  34  58  84 110 140 198 230 288 328
#
# _framework density 16.117428
#
# number of rings (size 3 to 8) (size 9 to 14) (size 15 to 20)
#    0.500    1.000    3.333    3.000    4.667    0.667 
#    0.000    0.000    0.000    0.000    0.000    7.000 
#    0.000    0.000    0.000    0.000    0.000    0.000 
#
# Total GULP energy -133663.247909 kJ/mol
# GULP energy per Si atom -5569.301996 kJ/mol
# Density = 1.608074 g / cm^3
# Si number density = 16.117428 Si / 1000 Ang^3
#
#
#
# Elastic Constant Matrix: (Units=GPa)
#
#
# Indices 1 2 3 4 5 6 
#
# 1 124.3098 36.0986 25.9496 0.0000 0.0000 0.0000
# 2 36.0986 88.3238 24.9343 0.0000 0.0000 0.0000
# 3 25.9496 24.9343 53.0532 0.0000 0.0000 0.0000
# 4 0.0000 0.0000 0.0000 17.8249 0.0000 0.0000
# 5 0.0000 0.0000 0.0000 0.0000 21.2134 0.0000
# 6 0.0000 0.0000 0.0000 0.0000 0.0000 25.4192
#
#
#
# Elastic Compliance Matrix: (Units=1/GPa)
#
#
# Indices 1 2 3 4 5 6 
#
# 1 0.009601 -0.002996 -0.003288 0.000000 0.000000 0.000000
# 2 -0.002996 0.013989 -0.005109 0.000000 0.000000 0.000000
# 3 -0.003288 -0.005109 0.022859 0.000000 0.000000 0.000000
# 4 0.000000 0.000000 0.000000 0.056101 0.000000 0.000000
# 5 0.000000 0.000000 0.000000 0.000000 0.047140 0.000000
# 6 0.000000 0.000000 0.000000 0.000000 0.000000 0.039340
#
#
# Mechanical properties :
#
#
# Convention : Reuss Voigt Hill
#
# Bulk Modulus (GPa) = 42.26171 48.85021 45.55596
# Shear Modulus (GPa) = 22.75799 24.80510 23.78155
#
# Velocity S-wave (km/s) = 3.76175 3.92729 3.84541
# Velocity P-wave (km/s) = 6.71906 7.13720 6.93128
#
# Compressibility (1/GPa) = 0.02366208
#
# Stress axis : x y z
#
# Youngs Moduli (GPa) = 104.15897 71.48622 43.74728
#
# Poissons Ratio (x) = 0.21415 0.14384
# Poissons Ratio (y) = 0.31202 0.22352
# Poissons Ratio (z) = 0.34248 0.36524
#
# Static dielectric constant tensor:
#      x y z
#    x 1.539660 0.000000 0.000000 
#    y 0.000000 1.568510 0.000000 
#    z 0.000000 0.000000 1.530360 
# 
# From -- ./inp_files/22960.got.cif
#   From: 2010.05.17/outbox.cif.g08.bks.cpg/sg46_12_cif.got.tgz:22960.got - 2010.06.03 19:58:25.
