data_PCOD9379566
_publ_section_title
;
Structure prediction by ZEFSAII (Michael W. Deem and Ramdas Pophale) SiO2 
 PCOD9379566
Probable space group: I M A 2
;
_chemical_formula_sum "Si O2"
_cell_formula_units_Z 56
_cell_length_a 22.555772
_cell_length_b 19.862579
_cell_length_c 5.372360
_cell_angle_alpha 90.000000
_cell_angle_beta 90.000000
_cell_angle_gamma 90.000000
_cell_volume 2406.902181
_symmetry_space_group_name_H-M "I M A 2"
_symmetry_group_IT_number 46
_symmetry_cell_setting 'orthorhombic'
loop_
_space_group_symop_operation_xyz
x,y,z
-x,-y,z
1/2-x,y,z
1/2+x,-y,z
1/2+x,1/2+y,1/2+z
1/2-x,1/2-y,1/2+z
-x,1/2+y,1/2+z
x,1/2-y,1/2+z
loop_
_atom_site_type_symbol
_atom_site_label
_atom_site_fract_x
_atom_site_fract_y
_atom_site_fract_z
Si Si1 0.684514 0.945287 0.073220
Si Si2 0.316687 0.910852 0.346195
Si Si3 0.000000 0.000000 0.052432
Si Si4 0.750000 0.793064 0.586663
Si Si5 0.110781 0.521207 0.202697
Si Si6 0.618697 0.793865 0.630397
Si Si7 0.927574 0.909027 0.346838
Si Si8 0.678115 0.213466 0.026394
O O1 0.750000 0.914317 0.071940
O O2 0.686869 0.013250 0.240376
O O3 0.631265 0.899481 0.176263
O O4 0.664445 0.975863 0.810437
O O5 0.250000 0.890656 0.425831
O O6 0.336197 0.861254 0.126464
O O7 0.360778 0.913586 0.578219
O O8 0.059447 0.979397 0.905120
O O9 0.016658 0.071215 0.183537
O O10 0.750000 0.738389 0.810433
O O11 0.685373 0.825775 0.619435
O O12 0.080918 0.479771 0.982778
O O13 0.613114 0.759070 0.899628
O O14 0.572429 0.851619 0.554200
O O15 0.750000 0.216019 0.014279
O O16 0.657991 0.238811 0.756477
#
# Coordination Sequence:
#
# PCOD9379566 Si02
#       8
#     8   8   4   4   8   8   8   8
#     4   9  19  33  53  87 119 151 190 240 300 360
#     4   9  18  32  53  82 120 151 188 242 300 362
#     4  10  22  40  62  84 110 150 206 268 302 362
#     4   8  16  34  52  82 122 168 202 232 284 354
#     4  10  20  36  59  83 111 152 197 250 309 359
#     4  10  22  38  61  90 128 166 206 246 299 372
#     4  10  22  38  59  89 117 156 204 251 307 354
#     4   9  18  30  48  77 112 157 198 229 276 350
#
# _framework density 23.26642
#
# number of rings (size 3 to 8) (size 9 to 14) (size 15 to 20)
#    0.000    2.571    0.000    0.857    7.000    0.571 
#    0.000    0.000    0.000    1.714    0.000    0.000 
#    0.000    0.000    0.000    0.000    0.000    0.000 
#
# Total GULP energy -156213.416543 kJ/mol
# GULP energy per Si atom -5579.050591 kJ/mol
# Density = 2.321346 g / cm^3
# Si number density = 23.266420 Si / 1000 Ang^3
#
#
#
# Elastic Constant Matrix: (Units=GPa)
#
#
# Indices 1 2 3 4 5 6 
#
# 1 61.1113 18.6137 9.3667 0.0000 0.0000 0.0000
# 2 18.6137 59.9610 14.2977 0.0000 0.0000 0.0000
# 3 9.3667 14.2977 70.8043 0.0000 0.0000 0.0000
# 4 0.0000 0.0000 0.0000 34.7578 0.0000 0.0000
# 5 0.0000 0.0000 0.0000 0.0000 20.4360 0.0000
# 6 0.0000 0.0000 0.0000 0.0000 0.0000 13.8226
#
#
#
# Elastic Compliance Matrix: (Units=1/GPa)
#
#
# Indices 1 2 3 4 5 6 
#
# 1 0.018191 -0.005330 -0.001330 0.000000 0.000000 0.000000
# 2 -0.005330 0.019083 -0.003148 0.000000 0.000000 0.000000
# 3 -0.001330 -0.003148 0.014935 0.000000 0.000000 0.000000
# 4 0.000000 0.000000 0.000000 0.028771 0.000000 0.000000
# 5 0.000000 0.000000 0.000000 0.000000 0.048933 0.000000
# 6 0.000000 0.000000 0.000000 0.000000 0.000000 0.072345
#
#
# Mechanical properties :
#
#
# Convention : Reuss Voigt Hill
#
# Bulk Modulus (GPa) = 30.68233 30.71476 30.69855
# Shear Modulus (GPa) = 21.48333 23.77651 22.62992
#
# Velocity S-wave (km/s) = 3.04198 3.20022 3.12211
# Velocity P-wave (km/s) = 5.05512 5.18510 5.12052
#
# Compressibility (1/GPa) = 0.03259205
#
# Stress axis : x y z
#
# Youngs Moduli (GPa) = 54.97267 52.40329 66.95608
#
# Poissons Ratio (x) = 0.27930 0.08906
# Poissons Ratio (y) = 0.29299 0.21080
# Poissons Ratio (z) = 0.07312 0.16498
#
# Static dielectric constant tensor:
#      x y z
#    x 1.888470 0.000000 0.000000 
#    y 0.000000 1.907940 0.000000 
#    z 0.000000 0.000000 1.969270 
# 
# From -- ./inp_files/2375.got.cif
#   From: 2010.05.17/outbox.cif.g08.bks.cpg/sg46_2_cif.got.tgz:2375.got - 2010.06.03 19:58:25.
