data_PCOD9379510
_publ_section_title
;
Structure prediction by ZEFSAII (Michael W. Deem and Ramdas Pophale) SiO2 
 PCOD9379510
Probable space group: I M A 2
;
_chemical_formula_sum "Si O2"
_cell_formula_units_Z 48
_cell_length_a 8.637790
_cell_length_b 9.671281
_cell_length_c 32.018497
_cell_angle_alpha 90.000000
_cell_angle_beta 90.000000
_cell_angle_gamma 90.000000
_cell_volume 2674.777029
_symmetry_space_group_name_H-M "I M A 2"
_symmetry_group_IT_number 46
_symmetry_cell_setting 'orthorhombic'
loop_
_space_group_symop_operation_xyz
x,y,z
-x,-y,z
1/2-x,y,z
1/2+x,-y,z
1/2+x,1/2+y,1/2+z
1/2-x,1/2-y,1/2+z
-x,1/2+y,1/2+z
x,1/2-y,1/2+z
loop_
_atom_site_type_symbol
_atom_site_label
_atom_site_fract_x
_atom_site_fract_y
_atom_site_fract_z
Si Si1 0.437399 0.654657 0.291310
Si Si2 0.936041 0.346290 0.619883
Si Si3 0.063539 0.847045 0.215248
Si Si4 0.934342 0.844197 0.547131
Si Si5 0.936618 0.155738 0.368589
Si Si6 0.064360 0.656541 0.960912
O O1 0.500000 0.500000 0.292377
O O2 0.250000 0.650266 0.291502
O O3 0.487752 0.736830 0.249694
O O4 0.488082 0.744036 0.331520
O O5 0.750000 0.346297 0.617107
O O6 0.980796 0.309615 0.667705
O O7 0.000000 0.500000 0.612210
O O8 0.005139 0.243217 0.586013
O O9 0.250000 0.854320 0.216651
O O10 0.000000 0.000000 0.224544
O O11 0.750000 0.849872 0.546694
O O12 0.993363 0.781195 0.503006
O O13 0.000000 0.000000 0.550108
O O14 0.750000 0.146321 0.367224
O O15 0.978023 0.211871 0.414929
O O16 0.000000 0.000000 0.363524
O O17 0.250000 0.654680 0.964797
O O18 0.000000 0.500000 0.960024
#
# Coordination Sequence:
#
# PCOD9379510 Si02
#       6
#     8   8   8   8   8   8
#     4  10  21  36  51  75 107 137 168 207 253 303
#     4  10  20  36  55  78 106 137 172 214 259 309
#     4   9  19  35  56  78 102 132 171 212 252 300
#     4  11  21  34  53  78 106 139 175 216 261 308
#     4   9  18  32  53  77 102 132 171 213 254 300
#     4   9  16  29  49  74 102 133 169 214 257 300
#
# _framework density 17.945419999999999
#
# number of rings (size 3 to 8) (size 9 to 14) (size 15 to 20)
#    0.000    2.333    0.000    4.000    0.000    3.333 
#    0.000    2.500    0.000    2.000    0.000    0.000 
#    0.000    0.000    0.000    0.000    0.000    0.000 
#
# Total GULP energy -133858.051146 kJ/mol
# GULP energy per Si atom -5577.418798 kJ/mol
# Density = 1.790458 g / cm^3
# Si number density = 17.945420 Si / 1000 Ang^3
#
#
#
# Elastic Constant Matrix: (Units=GPa)
#
#
# Indices 1 2 3 4 5 6 
#
# 1 59.2284 31.4233 53.0724 0.0000 0.0000 0.0000
# 2 31.4233 97.8337 108.9895 0.0000 0.0000 0.0000
# 3 53.0724 108.9895 191.6948 0.0000 0.0000 0.0000
# 4 0.0000 0.0000 0.0000 28.9652 0.0000 0.0000
# 5 0.0000 0.0000 0.0000 0.0000 39.1521 0.0000
# 6 0.0000 0.0000 0.0000 0.0000 0.0000 30.6410
#
#
#
# Elastic Compliance Matrix: (Units=1/GPa)
#
#
# Indices 1 2 3 4 5 6 
#
# 1 0.022476 -0.000782 -0.005778 0.000000 0.000000 0.000000
# 2 -0.000782 0.027908 -0.015651 0.000000 0.000000 0.000000
# 3 -0.005778 -0.015651 0.015715 0.000000 0.000000 0.000000
# 4 0.000000 0.000000 0.000000 0.034524 0.000000 0.000000
# 5 0.000000 0.000000 0.000000 0.000000 0.025541 0.000000
# 6 0.000000 0.000000 0.000000 0.000000 0.000000 0.032636
#
#
# Mechanical properties :
#
#
# Convention : Reuss Voigt Hill
#
# Bulk Modulus (GPa) = 46.13209 81.74749 63.93979
# Shear Modulus (GPa) = 23.75879 30.10311 26.93095
#
# Velocity S-wave (km/s) = 3.64256 4.10015 3.87811
# Velocity P-wave (km/s) = 6.59194 8.25029 7.46729
#
# Compressibility (1/GPa) = 0.02167688
#
# Stress axis : x y z
#
# Youngs Moduli (GPa) = 44.49137 35.83187 63.63493
#
# Poissons Ratio (x) = 0.02804 0.36768
# Poissons Ratio (y) = 0.03481 0.99593
# Poissons Ratio (z) = 0.25707 0.56080
#
# Static dielectric constant tensor:
#      x y z
#    x 1.601870 0.000000 0.000000 
#    y 0.000000 1.546770 0.000000 
#    z 0.000000 0.000000 1.657470 
# 
# From -- ./inp_files/24973.got.cif
#   From: 2010.05.17/outbox.cif.g08.bks.cpg/sg46_13_cif.got.tgz:24973.got - 2010.06.03 19:58:25.
