data_PCOD9379739
_publ_section_title
;
Structure prediction by ZEFSAII (Michael W. Deem and Ramdas Pophale) SiO2 
 PCOD9379739
Probable space group: I M A 2
;
_chemical_formula_sum "Si O2"
_cell_formula_units_Z 64
_cell_length_a 14.321824
_cell_length_b 18.011409
_cell_length_c 13.286904
_cell_angle_alpha 90.000000
_cell_angle_beta 90.000000
_cell_angle_gamma 90.000000
_cell_volume 3427.439660
_symmetry_space_group_name_H-M "I M A 2"
_symmetry_group_IT_number 46
_symmetry_cell_setting 'orthorhombic'
loop_
_space_group_symop_operation_xyz
x,y,z
-x,-y,z
1/2-x,y,z
1/2+x,-y,z
1/2+x,1/2+y,1/2+z
1/2-x,1/2-y,1/2+z
-x,1/2+y,1/2+z
x,1/2-y,1/2+z
loop_
_atom_site_type_symbol
_atom_site_label
_atom_site_fract_x
_atom_site_fract_y
_atom_site_fract_z
Si Si1 0.637716 0.049991 0.805970
Si Si2 0.476364 0.816486 0.901671
Si Si3 0.141048 0.924279 0.587439
Si Si4 0.140596 0.421027 0.466433
Si Si5 0.853439 0.579405 0.696351
Si Si6 0.362918 0.754334 0.582017
Si Si7 0.471315 0.678881 0.763972
Si Si8 0.899067 0.036011 0.364883
O O1 0.750000 0.063162 0.813133
O O2 0.580445 0.122136 0.838812
O O3 0.610760 0.034178 0.689491
O O4 0.618017 0.984116 0.884383
O O5 0.567596 0.854861 0.949360
O O6 0.503483 0.746898 0.832929
O O7 0.405865 0.786144 0.985722
O O8 0.250000 0.912507 0.603321
O O9 0.102628 0.840261 0.582175
O O10 0.133601 0.964172 0.480103
O O11 0.250000 0.400050 0.452669
O O12 0.131205 0.448828 0.581921
O O13 0.750000 0.615249 0.698117
O O14 0.851690 0.513448 0.778390
O O15 0.938613 0.634284 0.722535
O O16 0.250000 0.751143 0.582076
O O17 0.406616 0.712645 0.677328
O O18 0.409853 0.620150 0.827287
O O19 0.000000 0.000000 0.369570
#
# Coordination Sequence:
#
# PCOD9379739 Si02
#       8
#     8   8   8   8   8   8   8   8
#     4  10  22  38  58  90 123 160 201 245 298 357
#     4  12  22  38  63  89 121 157 199 245 302 357
#     4  10  20  38  58  84 124 158 192 238 299 363
#     4  10  23  41  63  89 119 157 205 251 294 347
#     4  10  22  42  64  87 119 159 203 251 296 345
#     4  11  23  37  58  90 124 155 191 241 303 363
#     4  11  23  39  60  91 121 155 201 246 298 359
#     4  10  22  37  59  88 120 157 201 246 297 352
#
# _framework density 18.672830000000001
#
# number of rings (size 3 to 8) (size 9 to 14) (size 15 to 20)
#    0.000    1.500    3.750    1.125    1.750    4.000 
#    0.000    0.000    0.000    0.000    0.000    0.000 
#    0.000    0.000    0.000    0.000    0.000    0.000 
#
# Total GULP energy -178437.027218 kJ/mol
# GULP energy per Si atom -5576.157101 kJ/mol
# Density = 1.863033 g / cm^3
# Si number density = 18.672830 Si / 1000 Ang^3
#
#
#
# Elastic Constant Matrix: (Units=GPa)
#
#
# Indices 1 2 3 4 5 6 
#
# 1 76.1748 36.0457 41.0149 0.0000 0.0000 0.0000
# 2 36.0457 79.4390 58.1351 0.0000 0.0000 0.0000
# 3 41.0149 58.1351 170.3241 0.0000 0.0000 0.0000
# 4 0.0000 0.0000 0.0000 24.9536 0.0000 0.0000
# 5 0.0000 0.0000 0.0000 0.0000 31.2798 0.0000
# 6 0.0000 0.0000 0.0000 0.0000 0.0000 -5.4378
#
#
#
# Elastic Compliance Matrix: (Units=1/GPa)
#
#
# Indices 1 2 3 4 5 6 
#
# 1 0.017199 -0.006362 -0.001970 0.000000 0.000000 0.000000
# 2 -0.006362 0.019133 -0.004998 0.000000 0.000000 0.000000
# 3 -0.001970 -0.004998 0.008052 0.000000 0.000000 0.000000
# 4 0.000000 0.000000 0.000000 0.040074 0.000000 0.000000
# 5 0.000000 0.000000 0.000000 0.000000 0.031970 0.000000
# 6 0.000000 0.000000 0.000000 0.000000 0.000000 -0.183898
#
#
# Mechanical properties :
#
#
# Convention : Reuss Voigt Hill
#
# Bulk Modulus (GPa) = 56.42660 66.25880 61.34270
# Shear Modulus (GPa) = -143.26240 22.87525 -60.19357
#
# Velocity S-wave (km/s) = -8.76863 3.50388 -5.68383
# Velocity P-wave (km/s) = 8.49908 7.20629 3.18620
#
# Compressibility (1/GPa) = 0.01772214
#
# Stress axis : x y z
#
# Youngs Moduli (GPa) = 58.14256 52.26513 124.19866
#
# Poissons Ratio (x) = 0.33253 0.24467
# Poissons Ratio (y) = 0.36993 0.62080
# Poissons Ratio (z) = 0.11454 0.26124
#
# Static dielectric constant tensor:
#      x y z
#    x 1.648000 0.000000 0.000000 
#    y 0.000000 1.634080 0.000000 
#    z 0.000000 0.000000 1.690070 
# 
# From -- ./inp_files/11299.got.cif
#   From: 2010.05.17/outbox.cif.g08.bks.cpg/sg46_6_cif.got.tgz:11299.got - 2010.06.03 19:58:25.
