data_PCOD9379041
_publ_section_title
;
Structure prediction by ZEFSAII (Michael W. Deem and Ramdas Pophale) SiO2 
 PCOD9379041
Probable space group: I M A 2
;
_chemical_formula_sum "Si O2"
_cell_formula_units_Z 64
_cell_length_a 8.316725
_cell_length_b 28.634364
_cell_length_c 12.846012
_cell_angle_alpha 90.000000
_cell_angle_beta 90.000000
_cell_angle_gamma 90.000000
_cell_volume 3059.202364
_symmetry_space_group_name_H-M "I M A 2"
_symmetry_group_IT_number 46
_symmetry_cell_setting 'orthorhombic'
loop_
_space_group_symop_operation_xyz
x,y,z
-x,-y,z
1/2-x,y,z
1/2+x,-y,z
1/2+x,1/2+y,1/2+z
1/2-x,1/2-y,1/2+z
-x,1/2+y,1/2+z
x,1/2-y,1/2+z
loop_
_atom_site_type_symbol
_atom_site_label
_atom_site_fract_x
_atom_site_fract_y
_atom_site_fract_z
Si Si1 0.439456 0.692028 0.204770
Si Si2 0.937065 0.665822 0.998486
Si Si3 0.935715 0.433315 0.042905
Si Si4 0.939073 0.376007 0.670753
Si Si5 0.435861 0.450999 0.823175
Si Si6 0.939756 0.712816 0.780026
Si Si7 0.054514 0.587759 0.267423
Si Si8 0.055287 0.947704 0.992707
O O1 0.250000 0.688306 0.182699
O O2 0.470498 0.738329 0.269860
O O3 0.490694 0.642613 0.256653
O O4 0.538018 0.698329 0.098095
O O5 0.750000 0.650378 0.992148
O O6 0.980041 0.689696 0.890880
O O7 0.050296 0.622177 0.023663
O O8 0.750000 0.448434 0.033991
O O9 0.038580 0.452214 0.947336
O O10 0.996760 0.438813 0.161338
O O11 0.750000 0.368267 0.656416
O O12 0.999244 0.407989 0.574665
O O13 0.968528 0.408551 0.771871
O O14 0.018215 0.326065 0.693174
O O15 0.500000 0.500000 0.780578
O O16 0.250000 0.444730 0.798584
O O17 0.750000 0.721603 0.777874
O O18 0.250000 0.586295 0.266102
O O19 0.000223 0.565579 0.375765
O O20 0.250000 0.947289 0.994477
O O21 0.000000 0.000000 0.019227
#
# Coordination Sequence:
#
# PCOD9379041 Si02
#       8
#     8   8   8   8   8   8   8   8
#     4  10  21  37  60  88 119 161 209 258 308 370
#     4  10  20  36  57  82 117 156 193 246 307 362
#     4  10  19  35  60  86 114 151 194 242 298 361
#     4  11  23  39  61  87 118 159 206 255 306 370
#     4  12  24  38  57  84 118 153 192 246 303 362
#     4  11  23  38  59  88 123 160 202 256 314 376
#     4   8  18  38  61  86 119 156 200 252 302 359
#     4  10  22  41  63  89 122 162 207 257 311 370
#
# _framework density 20.920486
#
# number of rings (size 3 to 8) (size 9 to 14) (size 15 to 20)
#    0.000    1.750    1.250    4.125    0.000    5.000 
#    0.000    6.250    0.000    0.000    0.000    0.000 
#    0.000    0.000    0.000    0.000    0.000    0.000 
#
# Total GULP energy -178696.598388 kJ/mol
# GULP energy per Si atom -5584.268700 kJ/mol
# Density = 2.087287 g / cm^3
# Si number density = 20.920486 Si / 1000 Ang^3
#
#
#
# Elastic Constant Matrix: (Units=GPa)
#
#
# Indices 1 2 3 4 5 6 
#
# 1 22.6757 2.1669 4.9883 0.0000 0.0000 0.0000
# 2 2.1669 60.9837 9.2047 -0.0001 0.0000 0.0000
# 3 4.9883 9.2047 99.8190 0.0001 0.0001 0.0000
# 4 0.0000 -0.0001 0.0001 21.9729 0.0000 0.0000
# 5 0.0000 0.0000 0.0001 0.0000 15.9020 0.0000
# 6 0.0000 0.0000 0.0000 0.0000 0.0000 23.5416
#
#
#
# Elastic Compliance Matrix: (Units=1/GPa)
#
#
# Indices 1 2 3 4 5 6 
#
# 1 0.044687 -0.001268 -0.002116 0.000000 0.000000 0.000000
# 2 -0.001268 0.016665 -0.001473 0.000000 0.000000 0.000000
# 3 -0.002116 -0.001473 0.010260 0.000000 0.000000 0.000000
# 4 0.000000 0.000000 0.000000 0.045511 0.000000 0.000000
# 5 0.000000 0.000000 0.000000 0.000000 0.062885 0.000000
# 6 0.000000 0.000000 0.000000 0.000000 0.000000 0.042478
#
#
# Mechanical properties :
#
#
# Convention : Reuss Voigt Hill
#
# Bulk Modulus (GPa) = 16.15616 24.02202 20.08909
# Shear Modulus (GPa) = 19.77585 23.42453 21.60019
#
# Velocity S-wave (km/s) = 3.07789 3.34981 3.21672
# Velocity P-wave (km/s) = 4.51338 5.14481 4.83941
#
# Compressibility (1/GPa) = 0.06189591
#
# Stress axis : x y z
#
# Youngs Moduli (GPa) = 22.37795 60.00496 97.46819
#
# Poissons Ratio (x) = 0.07611 0.20626
# Poissons Ratio (y) = 0.02838 0.14361
# Poissons Ratio (z) = 0.04736 0.08841
#
# Static dielectric constant tensor:
#      x y z
#    x 1.706530 0.000000 0.000000 
#    y 0.000000 1.752240 0.000000 
#    z 0.000000 0.000000 1.782360 
# 
# From -- ./inp_files/9800.got.cif
#   From: 2010.05.17/outbox.cif.g08.bks.cpg/sg46_5_cif.got.tgz:9800.got - 2010.06.03 19:58:25.
