data_PCOD9379834
_publ_section_title
;
Structure prediction by ZEFSAII (Michael W. Deem and Ramdas Pophale) SiO2 
 PCOD9379834
Probable space group: I M A 2
;
_chemical_formula_sum "Si O2"
_cell_formula_units_Z 64
_cell_length_a 29.612171
_cell_length_b 9.821082
_cell_length_c 9.123306
_cell_angle_alpha 90.000000
_cell_angle_beta 90.000000
_cell_angle_gamma 90.000000
_cell_volume 2653.272326
_symmetry_space_group_name_H-M "I M A 2"
_symmetry_group_IT_number 46
_symmetry_cell_setting 'orthorhombic'
loop_
_space_group_symop_operation_xyz
x,y,z
-x,-y,z
1/2-x,y,z
1/2+x,-y,z
1/2+x,1/2+y,1/2+z
1/2-x,1/2-y,1/2+z
-x,1/2+y,1/2+z
x,1/2-y,1/2+z
loop_
_atom_site_type_symbol
_atom_site_label
_atom_site_fract_x
_atom_site_fract_y
_atom_site_fract_z
Si Si1 0.832307 0.465526 0.543370
Si Si2 0.504555 0.810097 0.971582
Si Si3 0.629104 0.989266 0.343626
Si Si4 0.955904 0.878051 0.260038
Si Si5 0.424871 0.962624 0.859077
Si Si6 0.110986 0.351419 0.132679
Si Si7 0.298081 0.081623 0.763085
Si Si8 0.198524 0.840567 0.532207
O O1 0.841899 0.532256 0.698539
O O2 0.880048 0.454837 0.456178
O O3 0.801656 0.551293 0.434163
O O4 0.812063 0.315597 0.565867
O O5 0.523511 0.665929 0.916737
O O6 0.457127 0.836500 0.892203
O O7 0.542472 0.913959 0.909004
O O8 0.504179 0.855039 0.141115
O O9 0.577308 0.005859 0.286440
O O10 0.622064 0.869023 0.462379
O O11 0.658053 0.103087 0.429864
O O12 0.921276 0.769012 0.184369
O O13 0.410278 0.006707 0.695815
O O14 0.158679 0.337251 0.212108
O O15 0.250000 0.143761 0.724047
O O16 0.301623 0.936913 0.676124
O O17 0.250000 0.851791 0.470311
#
# Coordination Sequence:
#
# PCOD9379834 Si02
#       8
#     8   8   8   8   8   8   8   8
#     4  11  20  35  60  88 121 163 207 263 318 380
#     4  10  20  39  62  87 125 166 214 263 316 379
#     4  11  22  38  65  95 125 165 214 264 315 395
#     4  11  20  39  65  92 121 169 212 262 324 383
#     4   9  20  39  59  84 125 166 211 262 313 371
#     4   9  20  38  63  89 125 170 208 257 326 387
#     4   9  19  36  57  84 118 160 203 251 312 380
#     4  10  22  40  60  87 124 164 206 261 321 384
#
# _framework density 24.121155999999999
#
# number of rings (size 3 to 8) (size 9 to 14) (size 15 to 20)
#    0.000    2.000    2.500    1.125    0.000    2.000 
#    9.000    0.625    2.750    3.000    0.000    0.000 
#    0.000    0.000    0.000    0.000    0.000    0.000 
#
# Total GULP energy -178552.181330 kJ/mol
# GULP energy per Si atom -5579.755667 kJ/mol
# Density = 2.406626 g / cm^3
# Si number density = 24.121156 Si / 1000 Ang^3
#
#
#
# Elastic Constant Matrix: (Units=GPa)
#
#
# Indices 1 2 3 4 5 6 
#
# 1 143.3807 34.8410 27.7054 0.0000 0.0000 0.0000
# 2 34.8410 52.7125 19.0575 0.0000 0.0000 0.0000
# 3 27.7054 19.0575 140.7116 0.0000 0.0000 0.0000
# 4 0.0000 0.0000 0.0000 14.9697 0.0000 0.0000
# 5 0.0000 0.0000 0.0000 0.0000 14.0681 0.0000
# 6 0.0000 0.0000 0.0000 0.0000 0.0000 31.9911
#
#
#
# Elastic Compliance Matrix: (Units=1/GPa)
#
#
# Indices 1 2 3 4 5 6 
#
# 1 0.008428 -0.005227 -0.000952 0.000000 0.000000 0.000000
# 2 -0.005227 0.023189 -0.002111 0.000000 0.000000 0.000000
# 3 -0.000952 -0.002111 0.007580 0.000000 0.000000 0.000000
# 4 0.000000 0.000000 0.000000 0.066801 0.000000 0.000000
# 5 0.000000 0.000000 0.000000 0.000000 0.071083 0.000000
# 6 0.000000 0.000000 0.000000 0.000000 0.000000 0.031259
#
#
# Mechanical properties :
#
#
# Convention : Reuss Voigt Hill
#
# Bulk Modulus (GPa) = 44.21337 55.55695 49.88516
# Shear Modulus (GPa) = 21.50912 29.21917 25.36415
#
# Velocity S-wave (km/s) = 2.98939 3.48422 3.24625
# Velocity P-wave (km/s) = 5.50316 6.26649 5.89719
#
# Compressibility (1/GPa) = 0.02261759
#
# Stress axis : x y z
#
# Youngs Moduli (GPa) = 118.64627 43.12398 131.92480
#
# Poissons Ratio (x) = 0.22540 0.12554
# Poissons Ratio (y) = 0.62014 0.27856
# Poissons Ratio (z) = 0.11291 0.09106
#
# Static dielectric constant tensor:
#      x y z
#    x 1.963500 0.000000 0.000000 
#    y 0.000000 1.956070 0.000000 
#    z 0.000000 0.000000 1.949640 
# 
# From -- ./inp_files/8491.got.cif
#   From: 2010.05.17/outbox.cif.g08.bks.cpg/sg46_5_cif.got.tgz:8491.got - 2010.06.03 19:58:25.
