data_PCOD9379294
_publ_section_title
;
Structure prediction by ZEFSAII (Michael W. Deem and Ramdas Pophale) SiO2 
 PCOD9379294
Probable space group: I M A 2
;
_chemical_formula_sum "Si O2"
_cell_formula_units_Z 60
_cell_length_a 16.871498
_cell_length_b 7.078521
_cell_length_c 19.445909
_cell_angle_alpha 90.000000
_cell_angle_beta 90.000000
_cell_angle_gamma 90.000000
_cell_volume 2322.332600
_symmetry_space_group_name_H-M "I M A 2"
_symmetry_group_IT_number 46
_symmetry_cell_setting 'orthorhombic'
loop_
_space_group_symop_operation_xyz
x,y,z
-x,-y,z
1/2-x,y,z
1/2+x,-y,z
1/2+x,1/2+y,1/2+z
1/2-x,1/2-y,1/2+z
-x,1/2+y,1/2+z
x,1/2-y,1/2+z
loop_
_atom_site_type_symbol
_atom_site_label
_atom_site_fract_x
_atom_site_fract_y
_atom_site_fract_z
Si Si1 0.617119 0.336015 0.668450
Si Si2 0.471898 0.250000 0.266075
Si Si3 0.250000 0.750002 0.266076
Si Si4 0.617118 0.163986 0.863701
Si Si5 0.084590 0.799872 0.016076
Si Si6 0.157955 0.214822 0.665092
Si Si7 0.095474 0.258729 0.016076
Si Si8 0.157955 0.285177 0.867058
O O1 0.532842 0.321594 0.707183
O O2 0.681406 0.220637 0.708897
O O3 0.617275 0.259563 0.591171
O O4 0.644883 0.555629 0.670199
O O5 0.532841 0.321593 0.324967
O O6 0.408512 0.363668 0.218036
O O7 0.408512 0.136333 0.314114
O O8 0.181406 0.779366 0.323255
O O9 0.617273 0.240437 0.940980
O O10 0.644882 0.944372 0.861951
O O11 0.997960 0.707468 0.016076
O O12 0.091485 0.029275 0.016076
O O13 0.250000 0.179498 0.682813
O O14 0.137446 0.173977 0.585689
O O15 0.137445 0.326022 0.946461
O O16 0.250000 0.320501 0.849338
#
# Coordination Sequence:
#
# PCOD9379294 Si02
#       8
#     8   8   4   8   8   8   8   8
#     4  10  20  35  54  77 111 138 179 217 263 320
#     4  11  21  31  51  76 112 144 173 211 267 323
#     4  10  20  34  50  86 106 138 174 218 264 316
#     4  10  20  35  54  77 111 138 179 217 263 320
#     4   9  16  31  54  75 102 141 171 214 271 320
#     4  11  20  34  52  81 111 138 173 220 267 314
#     4   9  17  30  51  78 103 138 168 214 272 325
#     4  11  20  34  52  81 111 138 173 220 267 314
#
# _framework density 25.836093000000002
#
# number of rings (size 3 to 8) (size 9 to 14) (size 15 to 20)
#    0.000    1.867    4.000    1.600    0.000    0.533 
#    0.000    0.000    0.000    0.000    0.000   39.200 
#    0.000    0.000    0.000    0.000    0.000    0.000 
#
# Total GULP energy -167161.243872 kJ/mol
# GULP energy per Si atom -5572.041462 kJ/mol
# Density = 2.577729 g / cm^3
# Si number density = 25.836093 Si / 1000 Ang^3
#
#
#
# Elastic Constant Matrix: (Units=GPa)
#
#
# Indices 1 2 3 4 5 6 
#
# 1 216.6807 34.1745 115.4480 0.0000 0.0000 0.0000
# 2 34.1745 115.0921 5.9348 0.0000 0.0000 0.0000
# 3 115.4480 5.9348 272.3049 0.0000 0.0000 0.0000
# 4 0.0000 0.0000 0.0000 1.7105 0.0000 0.0000
# 5 0.0000 0.0000 0.0000 0.0000 33.4147 0.0000
# 6 0.0000 0.0000 0.0000 0.0000 0.0000 11.3088
#
#
#
# Elastic Compliance Matrix: (Units=1/GPa)
#
#
# Indices 1 2 3 4 5 6 
#
# 1 0.006289 -0.001732 -0.002628 0.000000 0.000000 0.000000
# 2 -0.001732 0.009175 0.000534 0.000000 0.000000 0.000000
# 3 -0.002628 0.000534 0.004775 0.000000 0.000000 0.000000
# 4 0.000000 0.000000 0.000000 0.584621 0.000000 0.000000
# 5 0.000000 0.000000 0.000000 0.000000 0.029927 0.000000
# 6 0.000000 0.000000 0.000000 0.000000 0.000000 0.088427
#
#
# Mechanical properties :
#
#
# Convention : Reuss Voigt Hill
#
# Bulk Modulus (GPa) = 79.44600 101.68804 90.56702
# Shear Modulus (GPa) = 6.80215 39.18815 22.99515
#
# Velocity S-wave (km/s) = 1.62435 3.89884 2.98659
# Velocity P-wave (km/s) = 5.85959 7.72737 6.85737
#
# Compressibility (1/GPa) = 0.01258717
#
# Stress axis : x y z
#
# Youngs Moduli (GPa) = 159.01660 108.98755 209.42078
#
# Poissons Ratio (x) = 0.18874 0.55045
# Poissons Ratio (y) = 0.27538 -0.11188
# Poissons Ratio (z) = 0.41796 -0.05822
#
# Static dielectric constant tensor:
#      x y z
#    x 1.927990 0.000000 0.000000 
#    y 0.000000 2.269780 0.000000 
#    z 0.000000 0.000000 2.073640 
# 
# From -- ./inp_files/19591.got.cif
#   From: 2010.05.17/outbox.cif.g08.bks.cpg/sg46_10_cif.got.tgz:19591.got - 2010.06.03 19:58:25.
