data_PCOD9379409
_publ_section_title
;
Structure prediction by ZEFSAII (Michael W. Deem and Ramdas Pophale) SiO2 
 PCOD9379409
Probable space group: I M A 2
;
_chemical_formula_sum "Si O2"
_cell_formula_units_Z 64
_cell_length_a 8.382969
_cell_length_b 20.960234
_cell_length_c 20.367987
_cell_angle_alpha 90.000000
_cell_angle_beta 90.000000
_cell_angle_gamma 90.000000
_cell_volume 3578.838462
_symmetry_space_group_name_H-M "I M A 2"
_symmetry_group_IT_number 46
_symmetry_cell_setting 'orthorhombic'
loop_
_space_group_symop_operation_xyz
x,y,z
-x,-y,z
1/2-x,y,z
1/2+x,-y,z
1/2+x,1/2+y,1/2+z
1/2-x,1/2-y,1/2+z
-x,1/2+y,1/2+z
x,1/2-y,1/2+z
loop_
_atom_site_type_symbol
_atom_site_label
_atom_site_fract_x
_atom_site_fract_y
_atom_site_fract_z
Si Si1 0.555571 0.322196 0.508790
Si Si2 0.441127 0.570576 0.760938
Si Si3 0.560619 0.821706 0.359822
Si Si4 0.557095 0.177635 0.507280
Si Si5 0.942762 0.070379 0.759176
Si Si6 0.557179 0.429573 0.609973
Si Si7 0.942954 0.320232 0.358477
Si Si8 0.942769 0.429695 0.108418
O O1 0.750000 0.323171 0.509912
O O2 0.505796 0.249752 0.525000
O O3 0.499860 0.375026 0.560259
O O4 0.506639 0.334808 0.433473
O O5 0.500000 0.500000 0.780251
O O6 0.250000 0.570891 0.761910
O O7 0.502544 0.625095 0.809075
O O8 0.494626 0.581725 0.685387
O O9 0.750000 0.820960 0.361418
O O10 0.497126 0.835685 0.433141
O O11 0.499419 0.750946 0.341637
O O12 0.750000 0.177233 0.507643
O O13 0.500563 0.124877 0.558844
O O14 0.750000 0.070502 0.759772
O O15 0.998542 0.125911 0.807855
O O16 0.995190 0.081431 0.683776
O O17 0.000000 0.000000 0.779052
O O18 0.500000 0.500000 0.590455
O O19 0.750000 0.429233 0.609428
O O20 0.750000 0.319546 0.357716
O O21 0.750000 0.429259 0.108083
O O22 0.000000 0.500000 0.088652
#
# Coordination Sequence:
#
# PCOD9379409 Si02
#       8
#     8   8   8   8   8   8   8   8
#     4   8  15  30  51  73  96 126 165 205 242 284
#     4  10  20  35  54  75 101 133 168 206 249 298
#     4  11  22  35  52  75 102 130 165 210 256 301
#     4   9  18  34  53  71  96 131 169 206 245 294
#     4   9  18  32  51  76 104 135 170 207 248 294
#     4   9  18  32  51  74 100 130 164 203 245 292
#     4   9  18  34  54  74 101 137 173 206 244 295
#     4   9  18  32  51  74 100 130 164 203 245 292
#
# _framework density 17.882898000000001
#
# number of rings (size 3 to 8) (size 9 to 14) (size 15 to 20)
#    0.000    2.750    0.000    2.250    0.000    3.500 
#    0.000    7.500    0.000    3.000    0.000    0.000 
#    0.000    0.000    0.000    0.000    0.000    0.000 
#
# Total GULP energy -178452.040467 kJ/mol
# GULP energy per Si atom -5576.626265 kJ/mol
# Density = 1.784220 g / cm^3
# Si number density = 17.882898 Si / 1000 Ang^3
#
#
#
# Elastic Constant Matrix: (Units=GPa)
#
#
# Indices 1 2 3 4 5 6 
#
# 1 14.2251 22.0135 18.1557 0.0000 0.0000 0.0000
# 2 22.0135 193.4376 138.9665 0.0000 0.0000 0.0000
# 3 18.1557 138.9665 119.1087 0.0000 0.0000 0.0000
# 4 0.0000 0.0000 0.0000 45.2155 0.0000 0.0000
# 5 0.0000 0.0000 0.0000 0.0000 12.5899 0.0000
# 6 0.0000 0.0000 0.0000 0.0000 0.0000 29.3771
#
#
#
# Elastic Compliance Matrix: (Units=1/GPa)
#
#
# Indices 1 2 3 4 5 6 
#
# 1 0.087447 -0.002321 -0.010621 0.000000 0.000000 0.000000
# 2 -0.002321 0.032008 -0.036990 0.000000 0.000000 0.000000
# 3 -0.010621 -0.036990 0.053172 0.000000 0.000000 0.000000
# 4 0.000000 0.000000 0.000000 0.022116 0.000000 0.000000
# 5 0.000000 0.000000 0.000000 0.000000 0.079428 0.000000
# 6 0.000000 0.000000 0.000000 0.000000 0.000000 0.034040
#
#
# Mechanical properties :
#
#
# Convention : Reuss Voigt Hill
#
# Bulk Modulus (GPa) = 13.74364 76.11583 44.92973
# Shear Modulus (GPa) = 11.56523 27.27889 19.42206
#
# Velocity S-wave (km/s) = 2.54583 3.90990 3.29913
# Velocity P-wave (km/s) = 4.04273 7.93971 6.30010
#
# Compressibility (1/GPa) = 0.07276095
#
# Stress axis : x y z
#
# Youngs Moduli (GPa) = 11.43554 31.24243 18.80691
#
# Poissons Ratio (x) = 0.07252 0.19975
# Poissons Ratio (y) = 0.02654 0.69567
# Poissons Ratio (z) = 0.12146 1.15567
#
# Static dielectric constant tensor:
#      x y z
#    x 1.620070 0.000000 0.000000 
#    y 0.000000 1.588710 0.000000 
#    z 0.000000 0.000000 1.607180 
# 
# From -- ./inp_files/18542.got.cif
#   From: 2010.05.17/outbox.cif.g08.bks.cpg/sg46_10_cif.got.tgz:18542.got - 2010.06.03 19:58:25.
