data_PCOD9379239
_publ_section_title
;
Structure prediction by ZEFSAII (Michael W. Deem and Ramdas Pophale) SiO2 
 PCOD9379239
Probable space group: I M A 2
;
_chemical_formula_sum "Si O2"
_cell_formula_units_Z 64
_cell_length_a 8.845958
_cell_length_b 28.436737
_cell_length_c 14.707646
_cell_angle_alpha 90.000000
_cell_angle_beta 90.000000
_cell_angle_gamma 90.000000
_cell_volume 3699.711016
_symmetry_space_group_name_H-M "I M A 2"
_symmetry_group_IT_number 46
_symmetry_cell_setting 'orthorhombic'
loop_
_space_group_symop_operation_xyz
x,y,z
-x,-y,z
1/2-x,y,z
1/2+x,-y,z
1/2+x,1/2+y,1/2+z
1/2-x,1/2-y,1/2+z
-x,1/2+y,1/2+z
x,1/2-y,1/2+z
loop_
_atom_site_type_symbol
_atom_site_label
_atom_site_fract_x
_atom_site_fract_y
_atom_site_fract_z
Si Si1 0.422020 0.766526 0.402350
Si Si2 0.431607 0.948803 0.438272
Si Si3 0.079855 0.771073 0.695560
Si Si4 0.070400 0.363038 0.257034
Si Si5 0.567981 0.169128 0.143478
Si Si6 0.070144 0.949425 0.651429
Si Si7 0.068687 0.139741 0.335834
Si Si8 0.069570 0.171224 0.958290
O O1 0.250000 0.770080 0.437918
O O2 0.411578 0.748324 0.298531
O O3 0.502098 0.816872 0.395345
O O4 0.515976 0.725330 0.449252
O O5 0.250000 0.948977 0.426853
O O6 0.465576 0.939618 0.545093
O O7 0.506586 0.908382 0.377979
O O8 0.500000 0.000000 0.416461
O O9 0.250000 0.783686 0.666143
O O10 0.025610 0.724730 0.643927
O O11 0.978590 0.817135 0.699298
O O12 0.250000 0.367883 0.254045
O O13 0.026376 0.353261 0.362403
O O14 0.993601 0.408512 0.214587
O O15 0.750000 0.166438 0.150862
O O16 0.493361 0.146698 0.232965
O O17 0.509620 0.149922 0.047368
O O18 0.250000 0.951856 0.659838
O O19 0.000000 0.000000 0.674267
O O20 0.250000 0.141408 0.335867
O O21 0.250000 0.169071 0.967464
#
# Coordination Sequence:
#
# PCOD9379239 Si02
#       8
#     8   8   8   8   8   8   8   8
#     4   9  17  31  49  70  99 136 176 216 256 303
#     4  10  21  38  58  81 106 133 168 212 263 319
#     4   8  16  30  47  68  96 131 172 212 252 296
#     4  10  20  33  52  77 106 138 174 214 258 309
#     4  10  20  34  52  75 106 145 183 220 261 310
#     4  10  21  37  58  80 104 132 166 210 260 313
#     4  11  21  34  54  79 107 140 177 219 264 314
#     4  10  20  33  50  76 108 143 181 221 262 308
#
# _framework density 17.298648
#
# number of rings (size 3 to 8) (size 9 to 14) (size 15 to 20)
#    0.000    2.250    0.000    4.125    0.000    7.500 
#    0.000    1.250    0.000    0.750    0.000    1.750 
#    0.000    0.000    0.000    0.000    0.000    0.000 
#
# Total GULP energy -178507.985650 kJ/mol
# GULP energy per Si atom -5578.374552 kJ/mol
# Density = 1.725928 g / cm^3
# Si number density = 17.298648 Si / 1000 Ang^3
#
#
#
# Elastic Constant Matrix: (Units=GPa)
#
#
# Indices 1 2 3 4 5 6 
#
# 1 88.4442 65.6063 48.3089 0.0000 0.0000 0.0000
# 2 65.6063 130.7237 67.8306 0.0000 0.0000 0.0000
# 3 48.3089 67.8306 89.9485 0.0001 0.0000 0.0000
# 4 0.0000 0.0000 0.0001 20.6434 0.0000 0.0000
# 5 0.0000 0.0000 0.0000 0.0000 22.3314 0.0000
# 6 0.0000 0.0000 0.0000 0.0000 0.0000 31.2115
#
#
#
# Elastic Compliance Matrix: (Units=1/GPa)
#
#
# Indices 1 2 3 4 5 6 
#
# 1 0.019305 -0.007078 -0.005030 0.000000 0.000000 0.000000
# 2 -0.007078 0.015163 -0.007633 0.000000 0.000000 0.000000
# 3 -0.005030 -0.007633 0.019575 0.000000 0.000000 0.000000
# 4 0.000000 0.000000 0.000000 0.048442 0.000000 0.000000
# 5 0.000000 0.000000 0.000000 0.000000 0.044780 0.000000
# 6 0.000000 0.000000 0.000000 0.000000 0.000000 0.032039
#
#
# Mechanical properties :
#
#
# Convention : Reuss Voigt Hill
#
# Bulk Modulus (GPa) = 68.68220 74.73424 71.70822
# Shear Modulus (GPa) = 22.35747 23.32861 22.84304
#
# Velocity S-wave (km/s) = 3.59895 3.67629 3.63782
# Velocity P-wave (km/s) = 7.55380 7.83047 7.69338
#
# Compressibility (1/GPa) = 0.01455981
#
# Stress axis : x y z
#
# Youngs Moduli (GPa) = 51.80082 65.95188 51.08600
#
# Poissons Ratio (x) = 0.46683 0.25697
# Poissons Ratio (y) = 0.36666 0.38992
# Poissons Ratio (z) = 0.26057 0.50338
#
# Static dielectric constant tensor:
#      x y z
#    x 1.583200 0.000000 0.000000 
#    y 0.000000 1.558260 0.000000 
#    z 0.000000 0.000000 1.615300 
# 
# From -- ./inp_files/14522.got.cif
#   From: 2010.05.17/outbox.cif.g08.bks.cpg/sg46_8_cif.got.tgz:14522.got - 2010.06.03 19:58:25.
