data_PCOD9379285
_publ_section_title
;
Structure prediction by ZEFSAII (Michael W. Deem and Ramdas Pophale) SiO2 
 PCOD9379285
Probable space group: I M A 2
;
_chemical_formula_sum "Si O2"
_cell_formula_units_Z 44
_cell_length_a 14.943281
_cell_length_b 8.819489
_cell_length_c 15.469872
_cell_angle_alpha 90.000000
_cell_angle_beta 90.000000
_cell_angle_gamma 90.000000
_cell_volume 2038.806955
_symmetry_space_group_name_H-M "I M A 2"
_symmetry_group_IT_number 46
_symmetry_cell_setting 'orthorhombic'
loop_
_space_group_symop_operation_xyz
x,y,z
-x,-y,z
1/2-x,y,z
1/2+x,-y,z
1/2+x,1/2+y,1/2+z
1/2-x,1/2-y,1/2+z
-x,1/2+y,1/2+z
x,1/2-y,1/2+z
loop_
_atom_site_type_symbol
_atom_site_label
_atom_site_fract_x
_atom_site_fract_y
_atom_site_fract_z
Si Si1 0.250000 0.506338 0.224780
Si Si2 0.398701 0.470729 0.517753
Si Si3 0.750000 0.288626 0.458864
Si Si4 0.750000 0.537571 0.946241
Si Si5 0.750000 0.726570 0.592212
Si Si6 0.583488 0.893895 0.822374
Si Si7 0.601442 0.550618 0.801085
Si Si8 0.750000 0.326973 0.756002
O O1 0.250000 0.362250 0.160950
O O2 0.166033 0.485605 0.286384
O O3 0.250000 0.680865 0.194947
O O4 0.500000 0.500000 0.550065
O O5 0.337306 0.615059 0.488120
O O6 0.338485 0.376767 0.585068
O O7 0.412996 0.382115 0.426478
O O8 0.750000 0.241346 0.355624
O O9 0.750000 0.119595 0.497849
O O10 0.661328 0.544591 0.887763
O O11 0.750000 0.684821 0.002657
O O12 0.592033 0.728383 0.780016
O O13 0.500000 0.000000 0.800640
O O14 0.500000 0.500000 0.811999
O O15 0.662354 0.433523 0.745497
#
# Coordination Sequence:
#
# PCOD9379285 Si02
#       8
#     4   8   4   4   4   8   8   4
#     4  12  22  41  60  87 133 172 208 271 337 399
#     4  10  20  37  64  93 123 163 223 277 325 384
#     4   9  18  33  56  88 118 157 206 270 325 382
#     4  10  21  33  52  87 123 154 212 256 318 387
#     4  11  23  40  60  93 128 177 213 261 337 396
#     4  11  21  36  65  95 124 162 221 278 322 380
#     4  10  20  34  59  89 120 151 206 275 325 370
#     4  10  20  33  54  89 124 162 207 258 327 390
#
# _framework density 21.581251000000002
#
# number of rings (size 3 to 8) (size 9 to 14) (size 15 to 20)
#    0.000    1.818    3.636    2.727    7.636    0.000 
#    0.000    7.273    0.000    0.000    0.000    0.000 
#    0.000    0.000    0.000    0.000    0.000    0.000 
#
# Total GULP energy -122652.763233 kJ/mol
# GULP energy per Si atom -5575.125602 kJ/mol
# Density = 2.153213 g / cm^3
# Si number density = 21.581251 Si / 1000 Ang^3
#
#
#
# Elastic Constant Matrix: (Units=GPa)
#
#
# Indices 1 2 3 4 5 6 
#
# 1 232.1979 91.9345 34.8324 0.0000 0.0000 0.0000
# 2 91.9345 186.6986 31.1743 0.0000 0.0000 0.0000
# 3 34.8324 31.1743 50.1962 0.0000 0.0000 0.0000
# 4 0.0000 0.0000 0.0000 37.2408 0.0000 0.0000
# 5 0.0000 0.0000 0.0000 0.0000 0.1459 0.0000
# 6 0.0000 0.0000 0.0000 0.0000 0.0000 47.3417
#
#
#
# Elastic Compliance Matrix: (Units=1/GPa)
#
#
# Indices 1 2 3 4 5 6 
#
# 1 0.005603 -0.002354 -0.002426 0.000000 0.000000 0.000000
# 2 -0.002354 0.006965 -0.002692 0.000000 0.000000 0.000000
# 3 -0.002426 -0.002692 0.023277 0.000000 0.000000 0.000000
# 4 0.000000 0.000000 0.000000 0.026852 0.000000 0.000000
# 5 0.000000 0.000000 0.000000 0.000000 6.853702 0.000000
# 6 0.000000 0.000000 0.000000 0.000000 0.000000 0.021123
#
#
# Mechanical properties :
#
#
# Convention : Reuss Voigt Hill
#
# Bulk Modulus (GPa) = 47.84492 87.21945 67.53218
# Shear Modulus (GPa) = 0.71845 37.68911 19.20378
#
# Velocity S-wave (km/s) = 0.57760 4.18351 2.98625
# Velocity P-wave (km/s) = 4.76053 7.98986 6.57649
#
# Compressibility (1/GPa) = 0.02090086
#
# Stress axis : x y z
#
# Youngs Moduli (GPa) = 178.49165 143.57968 42.96042
#
# Poissons Ratio (x) = 0.33795 0.10422
# Poissons Ratio (y) = 0.42012 0.11566
# Poissons Ratio (z) = 0.43301 0.38654
#
# Static dielectric constant tensor:
#      x y z
#    x 1.745520 0.000000 0.000000 
#    y 0.000000 1.849950 0.000000 
#    z 0.000000 0.000000 1.846280 
# 
# From -- ./inp_files/19375.got.cif
#   From: 2010.05.17/outbox.cif.g08.bks.cpg/sg46_10_cif.got.tgz:19375.got - 2010.06.03 19:58:25.
