data_PCOD9379117
_publ_section_title
;
Structure prediction by ZEFSAII (Michael W. Deem and Ramdas Pophale) SiO2 
 PCOD9379117
Probable space group: I M A 2
;
_chemical_formula_sum "Si O2"
_cell_formula_units_Z 56
_cell_length_a 18.716142
_cell_length_b 16.651684
_cell_length_c 9.085415
_cell_angle_alpha 90.000000
_cell_angle_beta 90.000000
_cell_angle_gamma 90.000000
_cell_volume 2831.517576
_symmetry_space_group_name_H-M "I M A 2"
_symmetry_group_IT_number 46
_symmetry_cell_setting 'orthorhombic'
loop_
_space_group_symop_operation_xyz
x,y,z
-x,-y,z
1/2-x,y,z
1/2+x,-y,z
1/2+x,1/2+y,1/2+z
1/2-x,1/2-y,1/2+z
-x,1/2+y,1/2+z
x,1/2-y,1/2+z
loop_
_atom_site_type_symbol
_atom_site_label
_atom_site_fract_x
_atom_site_fract_y
_atom_site_fract_z
Si Si1 0.401172 0.020861 0.427330
Si Si2 0.535562 0.364612 0.996571
Si Si3 0.837761 0.830164 0.078133
Si Si4 0.167687 0.173717 0.414896
Si Si5 0.586992 0.251848 0.243630
Si Si6 0.415731 0.009685 0.072814
Si Si7 0.164868 0.649628 0.492697
O O1 0.466967 0.078829 0.474346
O O2 0.338158 0.081932 0.466600
O O3 0.402673 0.933300 0.499431
O O4 0.406226 0.006517 0.251257
O O5 0.545276 0.308004 0.853841
O O6 0.538840 0.309664 0.140991
O O7 0.750000 0.841225 0.069243
O O8 0.858927 0.824928 0.248791
O O9 0.880488 0.907032 0.018980
O O10 0.863363 0.746812 0.007241
O O11 0.250000 0.195066 0.407278
O O12 0.637189 0.305232 0.347686
O O13 0.634324 0.199940 0.131038
O O14 0.500000 0.000000 0.041950
O O15 0.371855 0.936928 0.003952
O O16 0.250000 0.644331 0.497777
#
# Coordination Sequence:
#
# PCOD9379117 Si02
#       7
#     8   8   8   8   8   8   8
#     4  10  19  37  60  86 119 157 198 246 297 364
#     4  10  20  39  60  86 125 156 203 254 303 368
#     4   9  19  36  57  82 112 149 192 239 290 352
#     4   9  19  35  55  81 110 148 194 237 294 354
#     4  10  22  39  62  89 118 160 203 253 310 366
#     4  11  20  37  60  87 121 160 203 241 299 367
#     4  11  22  40  62  89 122 160 207 258 311 368
#
# _framework density 19.777380000000001
#
# number of rings (size 3 to 8) (size 9 to 14) (size 15 to 20)
#    0.000    2.000    2.857    0.857    0.000    5.143 
#    5.143    1.429    0.000    0.000    0.000    0.000 
#    0.000    0.000    0.000    0.000    0.000    0.000 
#
# Total GULP energy -156091.502846 kJ/mol
# GULP energy per Si atom -5574.696530 kJ/mol
# Density = 1.973237 g / cm^3
# Si number density = 19.777380 Si / 1000 Ang^3
#
#
#
# Elastic Constant Matrix: (Units=GPa)
#
#
# Indices 1 2 3 4 5 6 
#
# 1 35.9613 3.9071 14.1977 0.0000 0.0000 0.0000
# 2 3.9071 131.3781 43.0164 0.0000 0.0000 0.0000
# 3 14.1977 43.0164 62.5247 0.0000 0.0000 0.0000
# 4 0.0000 0.0000 0.0000 31.8766 0.0000 0.0000
# 5 0.0000 0.0000 0.0000 0.0000 9.5879 0.0000
# 6 0.0000 0.0000 0.0000 0.0000 0.0000 34.2279
#
#
#
# Elastic Compliance Matrix: (Units=1/GPa)
#
#
# Indices 1 2 3 4 5 6 
#
# 1 0.030864 0.001777 -0.008231 0.000000 0.000000 0.000000
# 2 0.001777 0.009927 -0.007233 0.000000 0.000000 0.000000
# 3 -0.008231 -0.007233 0.022839 0.000000 0.000000 0.000000
# 4 0.000000 0.000000 0.000000 0.031371 0.000000 0.000000
# 5 0.000000 0.000000 0.000000 0.000000 0.104299 0.000000
# 6 0.000000 0.000000 0.000000 0.000000 0.000000 0.029216
#
#
# Mechanical properties :
#
#
# Convention : Reuss Voigt Hill
#
# Bulk Modulus (GPa) = 27.58159 39.12295 33.35227
# Shear Modulus (GPa) = 18.65837 26.38799 22.52318
#
# Velocity S-wave (km/s) = 3.07485 3.65670 3.37832
# Velocity P-wave (km/s) = 5.15583 6.13622 5.66727
#
# Compressibility (1/GPa) = 0.03625607
#
# Stress axis : x y z
#
# Youngs Moduli (GPa) = 32.39987 100.73393 43.78431
#
# Poissons Ratio (x) = -0.17902 0.36040
# Poissons Ratio (y) = -0.05758 0.31671
# Poissons Ratio (z) = 0.26669 0.72864
#
# Static dielectric constant tensor:
#      x y z
#    x 1.788560 0.000000 0.000000 
#    y 0.000000 1.742950 0.000000 
#    z 0.000000 0.000000 1.697390 
# 
# From -- ./inp_files/7417.got.cif
#   From: 2010.05.17/outbox.cif.g08.bks.cpg/sg46_4_cif.got.tgz:7417.got - 2010.06.03 19:58:25.
