data_PCOD9379558
_publ_section_title
;
Structure prediction by ZEFSAII (Michael W. Deem and Ramdas Pophale) SiO2 
 PCOD9379558
Probable space group: I M A 2
;
_chemical_formula_sum "Si O2"
_cell_formula_units_Z 64
_cell_length_a 8.621427
_cell_length_b 15.867471
_cell_length_c 24.350555
_cell_angle_alpha 90.000000
_cell_angle_beta 90.000000
_cell_angle_gamma 90.000000
_cell_volume 3331.161839
_symmetry_space_group_name_H-M "I M A 2"
_symmetry_group_IT_number 46
_symmetry_cell_setting 'orthorhombic'
loop_
_space_group_symop_operation_xyz
x,y,z
-x,-y,z
1/2-x,y,z
1/2+x,-y,z
1/2+x,1/2+y,1/2+z
1/2-x,1/2-y,1/2+z
-x,1/2+y,1/2+z
x,1/2-y,1/2+z
loop_
_atom_site_type_symbol
_atom_site_label
_atom_site_fract_x
_atom_site_fract_y
_atom_site_fract_z
Si Si1 0.562633 0.754943 0.848170
Si Si2 0.565424 0.090013 0.778281
Si Si3 0.065424 0.909987 0.545980
Si Si4 0.062633 0.245058 0.476092
Si Si5 0.562941 0.910440 0.043879
Si Si6 0.937059 0.910440 0.280384
Si Si7 0.436557 0.349607 0.162131
Si Si8 0.938448 0.651905 0.662131
O O1 0.750000 0.762147 0.843816
O O2 0.490212 0.834652 0.817509
O O3 0.521307 0.750001 0.912131
O O4 0.516059 0.668825 0.817512
O O5 0.750000 0.087040 0.776395
O O6 0.500707 0.108726 0.717296
O O7 0.500000 0.000000 0.797034
O O8 0.250000 0.912960 0.547866
O O9 0.009787 0.834652 0.506753
O O10 0.000708 0.891274 0.606966
O O11 0.000000 0.000000 0.527228
O O12 0.250000 0.237854 0.480446
O O13 0.016059 0.331175 0.506751
O O14 0.750000 0.913247 0.044112
O O15 0.508216 0.892006 0.106212
O O16 0.500000 0.000000 0.024699
O O17 0.750000 0.913247 0.280151
O O18 0.991784 0.892005 0.218051
O O19 0.000000 0.000000 0.299564
O O20 0.250000 0.354995 0.162131
O O21 0.480869 0.250544 0.162131
O O22 0.750000 0.649580 0.662131
#
# Coordination Sequence:
#
# PCOD9379558 Si02
#       8
#     8   8   8   8   8   8   8   8
#     4  10  22  42  65  88 119 162 209 257 308 358
#     4  12  25  41  63  93 126 162 206 253 310 372
#     4  12  25  41  63  93 126 162 206 253 310 372
#     4  10  22  42  65  88 119 162 209 257 308 358
#     4  10  20  36  58  87 119 154 194 241 299 359
#     4  10  20  36  58  87 119 154 194 241 299 359
#     4  11  20  39  66  91 124 160 202 251 310 373
#     4   9  17  33  59  85 115 153 191 236 296 359
#
# _framework density 19.212515
#
# number of rings (size 3 to 8) (size 9 to 14) (size 15 to 20)
#    0.000    1.500    2.500    3.375    0.000    2.500 
#    0.000    2.500    0.000    0.000    0.000    0.000 
#    0.000    0.000    0.000    0.000    0.000    0.000 
#
# Total GULP energy -178897.227575 kJ/mol
# GULP energy per Si atom -5590.538362 kJ/mol
# Density = 1.916879 g / cm^3
# Si number density = 19.212515 Si / 1000 Ang^3
#
#
#
# Elastic Constant Matrix: (Units=GPa)
#
#
# Indices 1 2 3 4 5 6 
#
# 1 58.1466 55.4464 50.8196 0.0000 0.0000 0.0000
# 2 55.4464 202.6852 88.0802 0.0000 0.0000 0.0000
# 3 50.8196 88.0802 145.4967 0.0000 0.0000 0.0000
# 4 0.0000 0.0000 0.0000 -5.0312 0.0000 0.0000
# 5 0.0000 0.0000 0.0000 0.0000 -367.9675 0.0000
# 6 0.0000 0.0000 0.0000 0.0000 0.0000 33.5739
#
#
#
# Elastic Compliance Matrix: (Units=1/GPa)
#
#
# Indices 1 2 3 4 5 6 
#
# 1 0.027535 -0.004550 -0.006863 0.000000 0.000000 0.000000
# 2 -0.004550 0.007447 -0.002919 0.000000 0.000000 0.000000
# 3 -0.006863 -0.002919 0.011037 0.000000 0.000000 0.000000
# 4 0.000000 0.000000 0.000000 -0.198761 0.000000 0.000000
# 5 0.000000 0.000000 0.000000 0.000000 -0.002718 0.000000
# 6 0.000000 0.000000 0.000000 0.000000 0.000000 0.029785
#
#
# Mechanical properties :
#
#
# Convention : Reuss Voigt Hill
#
# Bulk Modulus (GPa) = 57.62007 88.33564 72.97786
# Shear Modulus (GPa) = -54.80912 -53.75278 -54.28095
#
# Velocity S-wave (km/s) = -5.34694 -5.29516 -5.32111
# Velocity P-wave (km/s) = 2.83966 2.94839 0.56096
#
# Compressibility (1/GPa) = 0.01735506
#
# Stress axis : x y z
#
# Youngs Moduli (GPa) = 36.31769 134.28352 90.60266
#
# Poissons Ratio (x) = 0.61099 0.62181
# Poissons Ratio (y) = 0.16524 0.26447
# Poissons Ratio (z) = 0.24925 0.39197
#
# Static dielectric constant tensor:
#      x y z
#    x 1.656250 0.000000 0.000000 
#    y 0.000000 1.652260 0.000000 
#    z 0.000000 0.000000 1.651770 
# 
# From -- ./inp_files/23140.got.cif
#   From: 2010.05.17/outbox.cif.g08.bks.cpg/sg46_12_cif.got.tgz:23140.got - 2010.06.03 19:58:25.
