data_PCOD9379568
_publ_section_title
;
Structure prediction by ZEFSAII (Michael W. Deem and Ramdas Pophale) SiO2 
 PCOD9379568
Probable space group: I M A 2
;
_chemical_formula_sum "Si O2"
_cell_formula_units_Z 56
_cell_length_a 18.118810
_cell_length_b 7.556034
_cell_length_c 20.459400
_cell_angle_alpha 90.000000
_cell_angle_beta 90.000000
_cell_angle_gamma 90.000000
_cell_volume 2801.021663
_symmetry_space_group_name_H-M "I M A 2"
_symmetry_group_IT_number 46
_symmetry_cell_setting 'orthorhombic'
loop_
_space_group_symop_operation_xyz
x,y,z
-x,-y,z
1/2-x,y,z
1/2+x,-y,z
1/2+x,1/2+y,1/2+z
1/2-x,1/2-y,1/2+z
-x,1/2+y,1/2+z
x,1/2-y,1/2+z
loop_
_atom_site_type_symbol
_atom_site_label
_atom_site_fract_x
_atom_site_fract_y
_atom_site_fract_z
Si Si1 0.835431 0.644231 0.324230
Si Si2 0.338245 0.200385 0.460163
Si Si3 0.087695 0.694891 0.279218
Si Si4 0.472029 0.201780 0.178636
Si Si5 0.018084 0.292071 0.535165
Si Si6 0.334286 0.456534 0.728304
Si Si7 0.567795 0.380802 0.914886
O O1 0.750000 0.591577 0.321515
O O2 0.855827 0.665971 0.399997
O O3 0.878450 0.499572 0.282544
O O4 0.840755 0.841205 0.294557
O O5 0.250000 0.205871 0.473437
O O6 0.396912 0.253156 0.515753
O O7 0.364334 0.005863 0.435680
O O8 0.136683 0.846223 0.243229
O O9 0.083568 0.750695 0.355265
O O10 0.010900 0.704628 0.239820
O O11 0.495328 0.276838 0.108637
O O12 0.500000 0.000000 0.183702
O O13 0.384907 0.163461 0.181419
O O14 0.000000 0.500000 0.535804
O O15 0.966153 0.206760 0.479996
O O16 0.250000 0.462535 0.707144
O O17 0.500000 0.500000 0.888800
#
# Coordination Sequence:
#
# PCOD9379568 Si02
#       7
#     8   8   8   8   8   8   8
#     4  10  21  35  55  89 119 148 194 245 298 359
#     4  10  21  38  60  88 123 157 203 256 305 365
#     4  11  20  36  61  88 118 153 197 245 302 354
#     4   9  21  38  59  86 116 155 205 244 293 361
#     4  10  21  40  61  86 121 160 207 254 300 363
#     4  10  20  37  57  82 122 154 187 244 302 356
#     4  10  20  36  59  84 116 157 197 243 305 356
#
# _framework density 19.992705999999998
#
# number of rings (size 3 to 8) (size 9 to 14) (size 15 to 20)
#    0.000    2.000    1.429    2.571    2.000    1.714 
#    7.714    0.714    0.000    3.429    0.000    0.000 
#    0.000    0.000    0.000    0.000    0.000    0.000 
#
# Total GULP energy -156097.802513 kJ/mol
# GULP energy per Si atom -5574.921518 kJ/mol
# Density = 1.994720 g / cm^3
# Si number density = 19.992706 Si / 1000 Ang^3
#
#
#
# Elastic Constant Matrix: (Units=GPa)
#
#
# Indices 1 2 3 4 5 6 
#
# 1 98.3776 41.8585 27.5374 0.0000 0.0000 0.0000
# 2 41.8585 88.2741 20.2588 0.0000 0.0000 0.0000
# 3 27.5374 20.2588 80.3684 0.0000 0.0000 0.0000
# 4 0.0000 0.0000 0.0000 9.7358 0.0000 0.0000
# 5 0.0000 0.0000 0.0000 0.0000 15.6341 0.0000
# 6 0.0000 0.0000 0.0000 0.0000 0.0000 26.2520
#
#
#
# Elastic Compliance Matrix: (Units=1/GPa)
#
#
# Indices 1 2 3 4 5 6 
#
# 1 0.013462 -0.005652 -0.003188 0.000000 0.000000 0.000000
# 2 -0.005652 0.014397 -0.001692 0.000000 0.000000 0.000000
# 3 -0.003188 -0.001692 0.013962 0.000000 0.000000 0.000000
# 4 0.000000 0.000000 0.000000 0.102713 0.000000 0.000000
# 5 0.000000 0.000000 0.000000 0.000000 0.063963 0.000000
# 6 0.000000 0.000000 0.000000 0.000000 0.000000 0.038092
#
#
# Mechanical properties :
#
#
# Convention : Reuss Voigt Hill
#
# Bulk Modulus (GPa) = 48.17919 49.59219 48.88569
# Shear Modulus (GPa) = 18.21011 22.14873 20.17942
#
# Velocity S-wave (km/s) = 3.02128 3.33203 3.18046
# Velocity P-wave (km/s) = 6.02674 6.29780 6.16376
#
# Compressibility (1/GPa) = 0.02075585
#
# Stress axis : x y z
#
# Youngs Moduli (GPa) = 74.28258 69.45963 71.62473
#
# Poissons Ratio (x) = 0.39258 0.22834
# Poissons Ratio (y) = 0.41984 0.12122
# Poissons Ratio (z) = 0.23681 0.11756
#
# Static dielectric constant tensor:
#      x y z
#    x 1.735630 0.000000 0.000000 
#    y 0.000000 1.736790 0.000000 
#    z 0.000000 0.000000 1.728690 
# 
# From -- ./inp_files/22170.got.cif
#   From: 2010.05.17/outbox.cif.g08.bks.cpg/sg46_12_cif.got.tgz:22170.got - 2010.06.03 19:58:25.
