data_PCOD9379813
_publ_section_title
;
Structure prediction by ZEFSAII (Michael W. Deem and Ramdas Pophale) SiO2 
 PCOD9379813
Probable space group: I M A 2
;
_chemical_formula_sum "Si O2"
_cell_formula_units_Z 52
_cell_length_a 32.414209
_cell_length_b 5.155510
_cell_length_c 14.971840
_cell_angle_alpha 90.000000
_cell_angle_beta 90.000000
_cell_angle_gamma 90.000000
_cell_volume 2501.970812
_symmetry_space_group_name_H-M "I M A 2"
_symmetry_group_IT_number 46
_symmetry_cell_setting 'orthorhombic'
loop_
_space_group_symop_operation_xyz
x,y,z
-x,-y,z
1/2-x,y,z
1/2+x,-y,z
1/2+x,1/2+y,1/2+z
1/2-x,1/2-y,1/2+z
-x,1/2+y,1/2+z
x,1/2-y,1/2+z
loop_
_atom_site_type_symbol
_atom_site_label
_atom_site_fract_x
_atom_site_fract_y
_atom_site_fract_z
Si Si1 0.000000 0.000000 0.170650
Si Si2 0.093113 0.208627 0.356017
Si Si3 0.750000 0.828513 0.004247
Si Si4 0.421669 0.703935 0.245536
Si Si5 0.661450 0.665646 0.481664
Si Si6 0.474483 0.258568 0.498603
Si Si7 0.250000 0.671433 0.128649
Si Si8 0.344200 0.667423 0.109878
O O1 0.966964 0.185160 0.218339
O O2 0.028149 0.170182 0.102646
O O3 0.074748 0.418398 0.287639
O O4 0.136227 0.309933 0.391236
O O5 0.066927 0.219197 0.446585
O O6 0.093284 0.922029 0.316136
O O7 0.791475 0.827133 0.950453
O O8 0.750000 0.584610 0.069339
O O9 0.750000 0.078341 0.066479
O O10 0.385398 0.687907 0.170853
O O11 0.654294 0.406948 0.539866
O O12 0.654354 0.906047 0.549937
O O13 0.500000 0.500000 0.458646
O O14 0.500000 0.000000 0.488722
O O15 0.299044 0.674518 0.162158
#
# Coordination Sequence:
#
# PCOD9379813 Si02
#       8
#     4   8   4   8   8   8   4   8
#     4  10  28  40  68  84 118 154 214 254 300 360
#     4  12  26  41  61  90 126 159 197 249 318 366
#     4   8  16  32  58  94 114 156 210 252 284 340
#     4  12  27  40  60  93 127 156 198 254 319 367
#     4  10  20  38  66  88 124 163 209 249 293 363
#     4  10  24  42  65  85 109 154 211 242 302 358
#     4   8  16  32  60  90 118 154 204 254 294 346
#     4  10  20  39  64  91 121 162 209 251 297 362
#
# _framework density 20.783615999999999
#
# number of rings (size 3 to 8) (size 9 to 14) (size 15 to 20)
#    0.462    1.231    0.000    3.692    7.538    0.000 
#    0.000    1.538    0.000    0.000    0.000    0.000 
#    0.000    0.000    0.000    0.000    0.000    0.000 
#
# Total GULP energy -144886.048725 kJ/mol
# GULP energy per Si atom -5572.540336 kJ/mol
# Density = 2.073631 g / cm^3
# Si number density = 20.783616 Si / 1000 Ang^3
#
#
#
# Elastic Constant Matrix: (Units=GPa)
#
#
# Indices 1 2 3 4 5 6 
#
# 1 64.6634 -18.6208 24.6851 0.0000 0.0000 0.0000
# 2 -18.6208 109.2631 -6.8214 0.0000 0.0000 0.0000
# 3 24.6851 -6.8214 34.0828 0.0000 0.0000 0.0000
# 4 0.0000 0.0000 0.0000 133.2455 0.0000 0.0000
# 5 0.0000 0.0000 0.0000 0.0000 -9.9105 0.0000
# 6 0.0000 0.0000 0.0000 0.0000 0.0000 19.9982
#
#
#
# Elastic Compliance Matrix: (Units=1/GPa)
#
#
# Indices 1 2 3 4 5 6 
#
# 1 0.022197 0.002814 -0.015514 0.000000 0.000000 0.000000
# 2 0.002814 0.009625 -0.000112 0.000000 0.000000 0.000000
# 3 -0.015514 -0.000112 0.040554 0.000000 0.000000 0.000000
# 4 0.000000 0.000000 0.000000 0.007505 0.000000 0.000000
# 5 0.000000 0.000000 0.000000 0.000000 -0.100903 0.000000
# 6 0.000000 0.000000 0.000000 0.000000 0.000000 0.050004
#
#
# Mechanical properties :
#
#
# Convention : Reuss Voigt Hill
#
# Bulk Modulus (GPa) = 21.38869 22.94390 22.16630
# Shear Modulus (GPa) = 71.23565 42.58440 56.91002
#
# Velocity S-wave (km/s) = 5.86083 4.53143 5.23847
# Velocity P-wave (km/s) = 7.49083 6.20015 6.87584
#
# Compressibility (1/GPa) = 0.04675367
#
# Stress axis : x y z
#
# Youngs Moduli (GPa) = 45.05021 103.89760 24.65853
#
# Poissons Ratio (x) = -0.29241 0.38254
# Poissons Ratio (y) = -0.12679 0.00276
# Poissons Ratio (z) = 0.69889 0.01164
#
# Static dielectric constant tensor:
#      x y z
#    x 1.924770 0.000000 0.000000 
#    y 0.000000 1.699670 0.000000 
#    z 0.000000 0.000000 1.729420 
# 
# From -- ./inp_files/20517.got.cif
#   From: 2010.05.17/outbox.cif.g08.bks.cpg/sg46_11_cif.got.tgz:20517.got - 2010.06.03 19:58:25.
