data_PCOD9379022
_publ_section_title
;
Structure prediction by ZEFSAII (Michael W. Deem and Ramdas Pophale) SiO2 
 PCOD9379022
Probable space group: I M A 2
;
_chemical_formula_sum "Si O2"
_cell_formula_units_Z 64
_cell_length_a 8.904871
_cell_length_b 25.310086
_cell_length_c 15.025450
_cell_angle_alpha 90.000000
_cell_angle_beta 90.000000
_cell_angle_gamma 90.000000
_cell_volume 3386.481761
_symmetry_space_group_name_H-M "I M A 2"
_symmetry_group_IT_number 46
_symmetry_cell_setting 'orthorhombic'
loop_
_space_group_symop_operation_xyz
x,y,z
-x,-y,z
1/2-x,y,z
1/2+x,-y,z
1/2+x,1/2+y,1/2+z
1/2-x,1/2-y,1/2+z
-x,1/2+y,1/2+z
x,1/2-y,1/2+z
loop_
_atom_site_type_symbol
_atom_site_label
_atom_site_fract_x
_atom_site_fract_y
_atom_site_fract_z
Si Si1 0.928772 0.889962 0.448580
Si Si2 0.569967 0.132025 0.787618
Si Si3 0.573682 0.278998 0.978416
Si Si4 0.429045 0.556248 0.780365
Si Si5 0.426085 0.760381 0.689501
Si Si6 0.071528 0.333445 0.459243
Si Si7 0.927895 0.649577 0.667560
Si Si8 0.570999 0.942305 0.639841
O O1 0.750000 0.890280 0.433040
O O2 0.958213 0.910909 0.548123
O O3 0.993091 0.830837 0.441751
O O4 0.009586 0.927096 0.377340
O O5 0.750000 0.128532 0.787600
O O6 0.527471 0.189798 0.748455
O O7 0.504854 0.129218 0.886646
O O8 0.501343 0.089077 0.721627
O O9 0.750000 0.279544 0.955656
O O10 0.498248 0.224845 0.947236
O O11 0.559785 0.277783 0.086100
O O12 0.500000 0.500000 0.755243
O O13 0.250000 0.552817 0.781206
O O14 0.484460 0.602625 0.715170
O O15 0.250000 0.749111 0.706026
O O16 0.518545 0.706855 0.702496
O O17 0.250000 0.331647 0.446191
O O18 0.042487 0.349917 0.561363
O O19 0.750000 0.643567 0.682196
O O20 0.750000 0.945899 0.651325
O O21 0.500000 0.000000 0.632880
#
# Coordination Sequence:
#
# PCOD9379022 Si02
#       8
#     8   8   8   8   8   8   8   8
#     4  11  23  39  61  91 125 163 204 248 303 364
#     4  11  22  38  61  90 125 164 208 253 304 363
#     4  10  19  35  58  87 124 163 203 246 299 361
#     4  12  26  44  66  90 121 158 205 257 308 366
#     4   9  19  35  57  87 122 161 201 245 298 359
#     4  10  22  39  60  89 126 163 203 254 308 365
#     4  10  22  41  64  89 121 160 204 255 309 363
#     4  11  24  41  63  89 123 164 207 254 306 363
#
# _framework density 18.898669999999999
#
# number of rings (size 3 to 8) (size 9 to 14) (size 15 to 20)
#    0.000    1.500    1.250    3.750    1.750    5.500 
#    0.000    0.625    0.000    3.000    0.000    0.000 
#    0.000    0.000    0.000    0.000    0.000    0.000 
#
# Total GULP energy -178960.414595 kJ/mol
# GULP energy per Si atom -5592.512956 kJ/mol
# Density = 1.885566 g / cm^3
# Si number density = 18.898670 Si / 1000 Ang^3
#
#
#
# Elastic Constant Matrix: (Units=GPa)
#
#
# Indices 1 2 3 4 5 6 
#
# 1 95.3845 51.4018 37.3781 0.0000 0.0000 0.0000
# 2 51.4018 89.4274 22.5012 0.0000 0.0000 0.0000
# 3 37.3781 22.5012 49.8083 0.0000 0.0000 0.0000
# 4 0.0000 0.0000 0.0000 23.9645 0.0000 0.0000
# 5 0.0000 0.0000 0.0000 0.0000 29.9511 0.0000
# 6 0.0000 0.0000 0.0000 0.0000 0.0000 35.3188
#
#
#
# Elastic Compliance Matrix: (Units=1/GPa)
#
#
# Indices 1 2 3 4 5 6 
#
# 1 0.019119 -0.008326 -0.010586 0.000000 0.000000 0.000000
# 2 -0.008326 0.016242 -0.001089 0.000000 0.000000 0.000000
# 3 -0.010586 -0.001089 0.028514 0.000000 0.000000 0.000000
# 4 0.000000 0.000000 0.000000 0.041728 0.000000 0.000000
# 5 0.000000 0.000000 0.000000 0.000000 0.033388 0.000000
# 6 0.000000 0.000000 0.000000 0.000000 0.000000 0.028314
#
#
# Mechanical properties :
#
#
# Convention : Reuss Voigt Hill
#
# Bulk Modulus (GPa) = 41.89128 50.79805 46.34466
# Shear Modulus (GPa) = 23.22723 26.06947 24.64835
#
# Velocity S-wave (km/s) = 3.50957 3.71810 3.61534
# Velocity P-wave (km/s) = 6.21588 6.73572 6.48101
#
# Compressibility (1/GPa) = 0.02387132
#
# Stress axis : x y z
#
# Youngs Moduli (GPa) = 52.30397 61.56933 35.07093
#
# Poissons Ratio (x) = 0.51261 0.37128
# Poissons Ratio (y) = 0.43547 0.03821
# Poissons Ratio (z) = 0.55372 0.06708
#
# Static dielectric constant tensor:
#      x y z
#    x 1.624540 0.000000 0.000000 
#    y 0.000000 1.616930 0.000000 
#    z 0.000000 0.000000 1.672010 
# 
# From -- ./inp_files/14473.got.cif
#   From: 2010.05.17/outbox.cif.g08.bks.cpg/sg46_8_cif.got.tgz:14473.got - 2010.06.03 19:58:25.
