data_PCOD9379381
_publ_section_title
;
Structure prediction by ZEFSAII (Michael W. Deem and Ramdas Pophale) SiO2 
 PCOD9379381
Probable space group: I M A 2
;
_chemical_formula_sum "Si O2"
_cell_formula_units_Z 48
_cell_length_a 14.471588
_cell_length_b 12.679846
_cell_length_c 12.453380
_cell_angle_alpha 90.000000
_cell_angle_beta 90.000000
_cell_angle_gamma 90.000000
_cell_volume 2285.164186
_symmetry_space_group_name_H-M "I M A 2"
_symmetry_group_IT_number 46
_symmetry_cell_setting 'orthorhombic'
loop_
_space_group_symop_operation_xyz
x,y,z
-x,-y,z
1/2-x,y,z
1/2+x,-y,z
1/2+x,1/2+y,1/2+z
1/2-x,1/2-y,1/2+z
-x,1/2+y,1/2+z
x,1/2-y,1/2+z
loop_
_atom_site_type_symbol
_atom_site_label
_atom_site_fract_x
_atom_site_fract_y
_atom_site_fract_z
Si Si1 0.250000 0.083477 0.086540
Si Si2 0.050197 0.330791 0.558301
Si Si3 0.445696 0.663856 0.764253
Si Si4 0.250000 0.893000 0.923371
Si Si5 0.542619 0.388823 0.014623
Si Si6 0.548950 0.398611 0.339717
Si Si7 0.750000 0.351926 0.998771
Si Si8 0.250000 0.572736 0.761949
O O1 0.341501 0.146855 0.055746
O O2 0.250000 0.042739 0.209525
O O3 0.250000 0.973183 0.022221
O O4 0.013002 0.374921 0.671318
O O5 0.020095 0.208861 0.551371
O O6 0.998360 0.382058 0.456778
O O7 0.457261 0.617744 0.883713
O O8 0.461189 0.788590 0.778795
O O9 0.341879 0.635714 0.728837
O O10 0.157383 0.914274 0.857598
O O11 0.250000 0.770530 0.960099
O O12 0.500000 0.500000 0.045538
O O13 0.649758 0.372518 0.051297
O O14 0.500000 0.500000 0.290319
O O15 0.750000 0.424204 0.891301
#
# Coordination Sequence:
#
# PCOD9379381 Si02
#       8
#     4   8   8   4   8   8   4   4
#     4  12  26  35  65  98 128 167 208 271 332 372
#     4  11  24  40  58  94 127 161 214 264 320 379
#     4  10  22  38  61  90 127 159 213 268 311 386
#     4  12  18  38  61  91 126 158 213 261 320 378
#     4  10  23  41  64  90 125 173 209 264 325 381
#     4  11  21  39  63  91 125 171 212 266 320 376
#     4  10  20  39  60  93 122 159 220 258 305 396
#     4  10  20  34  58  92 120 152 205 266 319 368
#
# _framework density 21.005054999999999
#
# number of rings (size 3 to 8) (size 9 to 14) (size 15 to 20)
#    0.000    1.333    6.667    1.000    4.667    1.333 
#    0.000    4.167    0.000    2.000    0.000    0.000 
#    0.000    0.000    0.000    0.000    0.000    0.000 
#
# Total GULP energy -134147.514727 kJ/mol
# GULP energy per Si atom -5589.479780 kJ/mol
# Density = 2.095725 g / cm^3
# Si number density = 21.005055 Si / 1000 Ang^3
#
#
#
# Elastic Constant Matrix: (Units=GPa)
#
#
# Indices 1 2 3 4 5 6 
#
# 1 175.8224 60.9908 38.1523 0.0000 0.0000 0.0000
# 2 60.9908 137.5075 7.4044 0.0000 0.0000 0.0000
# 3 38.1523 7.4044 84.4891 0.0000 0.0000 0.0000
# 4 0.0000 0.0000 0.0000 4.2263 0.0000 0.0000
# 5 0.0000 0.0000 0.0000 0.0000 -2.1986 0.0000
# 6 0.0000 0.0000 0.0000 0.0000 0.0000 30.3034
#
#
#
# Elastic Compliance Matrix: (Units=1/GPa)
#
#
# Indices 1 2 3 4 5 6 
#
# 1 0.007445 -0.003136 -0.003087 0.000000 0.000000 0.000000
# 2 -0.003136 0.008628 0.000660 0.000000 0.000000 0.000000
# 3 -0.003087 0.000660 0.013172 0.000000 0.000000 0.000000
# 4 0.000000 0.000000 0.000000 0.236615 0.000000 0.000000
# 5 0.000000 0.000000 0.000000 0.000000 -0.454840 0.000000
# 6 0.000000 0.000000 0.000000 0.000000 0.000000 0.033000
#
#
# Mechanical properties :
#
#
# Convention : Reuss Voigt Hill
#
# Bulk Modulus (GPa) = 55.19176 67.87934 61.53555
# Shear Modulus (GPa) = -36.01919 25.88433 -5.06743
#
# Velocity S-wave (km/s) = -4.14549 3.51421 -1.55490
# Velocity P-wave (km/s) = 1.84907 6.98943 5.11230
#
# Compressibility (1/GPa) = 0.01811865
#
# Stress axis : x y z
#
# Youngs Moduli (GPa) = 134.31211 115.90445 75.91821
#
# Poissons Ratio (x) = 0.36349 0.23438
# Poissons Ratio (y) = 0.42122 -0.05011
# Poissons Ratio (z) = 0.41465 -0.07650
#
# Static dielectric constant tensor:
#      x y z
#    x 1.727580 0.000000 0.000000 
#    y 0.000000 1.737650 0.000000 
#    z 0.000000 0.000000 1.812470 
# 
# From -- ./inp_files/15917.got.cif
#   From: 2010.05.17/outbox.cif.g08.bks.cpg/sg46_8_cif.got.tgz:15917.got - 2010.06.03 19:58:25.
