data_PCOD9379005
_publ_section_title
;
Structure prediction by ZEFSAII (Michael W. Deem and Ramdas Pophale) SiO2 
 PCOD9379005
Probable space group: I M A 2
;
_chemical_formula_sum "Si O2"
_cell_formula_units_Z 64
_cell_length_a 8.905655
_cell_length_b 28.492157
_cell_length_c 12.868693
_cell_angle_alpha 90.000000
_cell_angle_beta 90.000000
_cell_angle_gamma 90.000000
_cell_volume 3265.319154
_symmetry_space_group_name_H-M "I M A 2"
_symmetry_group_IT_number 46
_symmetry_cell_setting 'orthorhombic'
loop_
_space_group_symop_operation_xyz
x,y,z
-x,-y,z
1/2-x,y,z
1/2+x,-y,z
1/2+x,1/2+y,1/2+z
1/2-x,1/2-y,1/2+z
-x,1/2+y,1/2+z
x,1/2-y,1/2+z
loop_
_atom_site_type_symbol
_atom_site_label
_atom_site_fract_x
_atom_site_fract_y
_atom_site_fract_z
Si Si1 0.069904 0.909911 0.556300
Si Si2 0.070329 0.378253 0.661694
Si Si3 0.570514 0.203063 0.041646
Si Si4 0.068553 0.551442 0.829907
Si Si5 0.420687 0.321149 0.325391
Si Si6 0.578989 0.569017 0.266000
Si Si7 0.569853 0.195300 0.613093
Si Si8 0.070367 0.454313 0.489190
O O1 0.250000 0.910460 0.561205
O O2 0.026182 0.933556 0.447801
O O3 0.020871 0.854935 0.565189
O O4 0.006995 0.935838 0.658205
O O5 0.250000 0.375500 0.676626
O O6 0.039782 0.409020 0.557953
O O7 0.002174 0.327574 0.634394
O O8 0.995382 0.408196 0.753855
O O9 0.750000 0.197990 0.046965
O O10 0.531543 0.258149 0.049608
O O11 0.509278 0.185240 0.931641
O O12 0.250000 0.549605 0.821295
O O13 0.000000 0.500000 0.807243
O O14 0.250000 0.304537 0.338935
O O15 0.414679 0.375788 0.293676
O O16 0.501035 0.298069 0.227185
O O17 0.750000 0.551846 0.253300
O O18 0.508922 0.549226 0.371934
O O19 0.750000 0.192955 0.622387
O O20 0.250000 0.458773 0.482748
O O21 0.000000 0.500000 0.540842
#
# Coordination Sequence:
#
# PCOD9379005 Si02
#       8
#     8   8   8   8   8   8   8   8
#     4   9  20  39  61  84 115 154 200 249 298 360
#     4  11  23  41  61  84 119 157 203 256 305 363
#     4  11  22  36  59  88 120 159 202 250 308 372
#     4  11  24  42  63  89 122 164 211 259 315 372
#     4  10  19  35  57  81 114 151 190 242 299 356
#     4   9  18  35  56  80 112 147 184 235 295 349
#     4   9  20  38  58  85 117 155 202 251 304 363
#     4  10  21  36  54  81 114 146 182 235 290 346
#
# _framework density 19.599920000000001
#
# number of rings (size 3 to 8) (size 9 to 14) (size 15 to 20)
#    0.000    2.000    1.250    1.875    0.000    6.500 
#    0.000    5.000    0.000    0.000    0.000    0.000 
#    0.000    0.000    0.000    0.000    0.000    0.000 
#
# Total GULP energy -178556.623665 kJ/mol
# GULP energy per Si atom -5579.894490 kJ/mol
# Density = 1.955531 g / cm^3
# Si number density = 19.599920 Si / 1000 Ang^3
#
#
#
# Elastic Constant Matrix: (Units=GPa)
#
#
# Indices 1 2 3 4 5 6 
#
# 1 22.9187 18.1943 25.5496 0.0002 -0.0001 0.0000
# 2 18.1943 49.1077 10.5738 0.0001 -0.0002 0.0000
# 3 25.5496 10.5738 101.9382 0.0009 -0.0001 -0.0001
# 4 0.0002 0.0001 0.0009 12.3539 0.0002 0.0000
# 5 -0.0001 -0.0002 -0.0001 0.0002 27.2771 0.0000
# 6 0.0000 0.0000 -0.0001 0.0000 0.0000 23.3232
#
#
#
# Elastic Compliance Matrix: (Units=1/GPa)
#
#
# Indices 1 2 3 4 5 6 
#
# 1 0.087090 -0.028196 -0.018903 0.000000 0.000000 0.000000
# 2 -0.028196 0.029957 0.003960 0.000000 0.000000 0.000000
# 3 -0.018903 0.003960 0.014137 -0.000001 0.000000 0.000000
# 4 0.000000 0.000000 -0.000001 0.080946 -0.000001 0.000000
# 5 0.000000 0.000000 0.000000 -0.000001 0.036661 0.000000
# 6 0.000000 0.000000 0.000000 0.000000 0.000000 0.042876
#
#
# Mechanical properties :
#
#
# Convention : Reuss Voigt Hill
#
# Bulk Modulus (GPa) = 22.26955 31.40000 26.83477
# Shear Modulus (GPa) = 12.72542 20.56730 16.64636
#
# Velocity S-wave (km/s) = 2.55082 3.24289 2.91745
# Velocity P-wave (km/s) = 4.47910 5.48425 5.00696
#
# Compressibility (1/GPa) = 0.04490436
#
# Stress axis : x y z
#
# Youngs Moduli (GPa) = 11.48243 33.38067 70.73628
#
# Poissons Ratio (x) = 0.94121 1.33714
# Poissons Ratio (y) = 0.32376 -0.28009
# Poissons Ratio (z) = 0.21706 -0.13218
#
# Static dielectric constant tensor:
#      x y z
#    x 1.670480 0.000000 0.000000 
#    y 0.000000 1.736060 0.000000 
#    z 0.000000 0.000000 1.678260 
# 
# From -- ./inp_files/9741.got.cif
#   From: 2010.05.17/outbox.cif.g08.bks.cpg/sg46_5_cif.got.tgz:9741.got - 2010.06.03 19:58:25.
