data_PCOD9379609
_publ_section_title
;
Structure prediction by ZEFSAII (Michael W. Deem and Ramdas Pophale) SiO2 
 PCOD9379609
Probable space group: I M A 2
;
_chemical_formula_sum "Si O2"
_cell_formula_units_Z 60
_cell_length_a 16.338964
_cell_length_b 18.966649
_cell_length_c 9.750507
_cell_angle_alpha 90.000000
_cell_angle_beta 90.000000
_cell_angle_gamma 90.000000
_cell_volume 3021.637220
_symmetry_space_group_name_H-M "I M A 2"
_symmetry_group_IT_number 46
_symmetry_cell_setting 'orthorhombic'
loop_
_space_group_symop_operation_xyz
x,y,z
-x,-y,z
1/2-x,y,z
1/2+x,-y,z
1/2+x,1/2+y,1/2+z
1/2-x,1/2-y,1/2+z
-x,1/2+y,1/2+z
x,1/2-y,1/2+z
loop_
_atom_site_type_symbol
_atom_site_label
_atom_site_fract_x
_atom_site_fract_y
_atom_site_fract_z
Si Si1 0.000000 0.000000 0.411381
Si Si2 0.342566 0.670542 0.078035
Si Si3 0.841095 0.426367 0.806975
Si Si4 0.078724 0.678934 0.614340
Si Si5 0.531725 0.573499 0.452405
Si Si6 0.656200 0.819163 0.002576
Si Si7 0.505118 0.608032 0.152864
Si Si8 0.927135 0.747442 0.744873
O O1 0.918436 0.021657 0.328675
O O2 0.019306 0.064666 0.514870
O O3 0.250000 0.672691 0.132795
O O4 0.341345 0.628058 0.935442
O O5 0.377610 0.749786 0.064790
O O6 0.409066 0.627429 0.165692
O O7 0.750000 0.458824 0.801353
O O8 0.858683 0.376433 0.678138
O O9 0.028738 0.636658 0.498868
O O10 0.010519 0.701430 0.729971
O O11 0.500000 0.500000 0.510713
O O12 0.619661 0.601983 0.497359
O O13 0.533428 0.568517 0.288641
O O14 0.750000 0.816365 0.963319
O O15 0.604339 0.772064 0.892947
O O16 0.640718 0.792006 0.155824
O O17 0.552029 0.681734 0.160101
#
# Coordination Sequence:
#
# PCOD9379609 Si02
#       8
#     4   8   8   8   8   8   8   8
#     4  10  20  36  62  78 118 156 190 238 284 334
#     4   9  19  34  56  86 113 139 182 239 288 333
#     4  10  22  38  58  86 119 153 195 239 288 351
#     4  10  21  34  59  82 114 151 186 231 289 347
#     4  10  21  38  57  79 108 154 191 224 284 354
#     4  10  20  37  57  84 113 143 187 246 289 340
#     4   9  18  35  59  82 106 148 191 230 282 344
#     4   9  20  33  60  83 111 144 191 231 297 347
#
# _framework density 19.856784000000001
#
# number of rings (size 3 to 8) (size 9 to 14) (size 15 to 20)
#    0.000    2.400    0.667    0.800   12.133    0.000 
#    0.000    6.000    0.000    0.000    0.000    0.000 
#    0.000    0.000    0.000    0.000    0.000    0.000 
#
# Total GULP energy -167238.002251 kJ/mol
# GULP energy per Si atom -5574.600075 kJ/mol
# Density = 1.981159 g / cm^3
# Si number density = 19.856784 Si / 1000 Ang^3
#
#
#
# Elastic Constant Matrix: (Units=GPa)
#
#
# Indices 1 2 3 4 5 6 
#
# 1 116.0194 37.8822 15.1017 0.0000 0.0000 0.0000
# 2 37.8822 70.8545 6.1359 0.0000 0.0000 0.0000
# 3 15.1017 6.1359 35.8298 0.0000 0.0000 0.0000
# 4 0.0000 0.0000 0.0000 1.9109 0.0000 0.0000
# 5 0.0000 0.0000 0.0000 0.0000 15.6754 0.0000
# 6 0.0000 0.0000 0.0000 0.0000 0.0000 23.8846
#
#
#
# Elastic Compliance Matrix: (Units=1/GPa)
#
#
# Indices 1 2 3 4 5 6 
#
# 1 0.010892 -0.005508 -0.003648 0.000000 0.000000 0.000000
# 2 -0.005508 0.017111 -0.000609 0.000000 0.000000 0.000000
# 3 -0.003648 -0.000609 0.029551 0.000000 0.000000 0.000000
# 4 0.000000 0.000000 0.000000 0.523323 0.000000 0.000000
# 5 0.000000 0.000000 0.000000 0.000000 0.063794 0.000000
# 6 0.000000 0.000000 0.000000 0.000000 0.000000 0.041868
#
#
# Mechanical properties :
#
#
# Convention : Reuss Voigt Hill
#
# Bulk Modulus (GPa) = 26.29778 37.88261 32.09019
# Shear Modulus (GPa) = 6.95658 19.19975 13.07816
#
# Velocity S-wave (km/s) = 1.87376 3.11289 2.56915
# Velocity P-wave (km/s) = 4.23719 5.66034 4.99966
#
# Compressibility (1/GPa) = 0.03802603
#
# Stress axis : x y z
#
# Youngs Moduli (GPa) = 91.80690 58.44244 33.83929
#
# Poissons Ratio (x) = 0.32188 0.12344
# Poissons Ratio (y) = 0.50565 0.02060
# Poissons Ratio (z) = 0.33489 0.03558
#
# Static dielectric constant tensor:
#      x y z
#    x 1.712880 0.000000 0.000000 
#    y 0.000000 1.740000 0.000000 
#    z 0.000000 0.000000 1.706420 
# 
# From -- ./inp_files/11271.got.cif
#   From: 2010.05.17/outbox.cif.g08.bks.cpg/sg46_6_cif.got.tgz:11271.got - 2010.06.03 19:58:25.
