data_PCOD9379505
_publ_section_title
;
Structure prediction by ZEFSAII (Michael W. Deem and Ramdas Pophale) SiO2 
 PCOD9379505
Probable space group: I M A 2
;
_chemical_formula_sum "Si O2"
_cell_formula_units_Z 56
_cell_length_a 16.039093
_cell_length_b 9.281455
_cell_length_c 16.432341
_cell_angle_alpha 90.000000
_cell_angle_beta 90.000000
_cell_angle_gamma 90.000000
_cell_volume 2446.218846
_symmetry_space_group_name_H-M "I M A 2"
_symmetry_group_IT_number 46
_symmetry_cell_setting 'orthorhombic'
loop_
_space_group_symop_operation_xyz
x,y,z
-x,-y,z
1/2-x,y,z
1/2+x,-y,z
1/2+x,1/2+y,1/2+z
1/2-x,1/2-y,1/2+z
-x,1/2+y,1/2+z
x,1/2-y,1/2+z
loop_
_atom_site_type_symbol
_atom_site_label
_atom_site_fract_x
_atom_site_fract_y
_atom_site_fract_z
Si Si1 0.444269 0.858993 0.530240
Si Si2 0.591338 0.418401 0.197753
Si Si3 0.148523 0.900792 0.210671
Si Si4 0.655179 0.687099 0.261502
Si Si5 0.156241 0.241790 0.935701
Si Si6 0.081635 0.345245 0.604361
Si Si7 0.656459 0.067232 0.393888
O O1 0.383955 0.911106 0.602415
O O2 0.496816 0.730093 0.570777
O O3 0.402249 0.826810 0.444505
O O4 0.500000 0.000000 0.515211
O O5 0.500000 0.500000 0.203432
O O6 0.603581 0.253195 0.222272
O O7 0.652887 0.516766 0.248344
O O8 0.250000 0.891018 0.194737
O O9 0.136900 0.968740 0.300462
O O10 0.100980 0.998030 0.143472
O O11 0.750000 0.745809 0.259409
O O12 0.612071 0.711791 0.349153
O O13 0.611101 0.748938 0.180940
O O14 0.250000 0.192544 0.920113
O O15 0.155121 0.414979 0.941383
O O16 0.131590 0.170959 0.020191
O O17 0.750000 0.125295 0.394219
#
# Coordination Sequence:
#
# PCOD9379505 Si02
#       7
#     8   8   8   8   8   8   8
#     4  11  22  42  64 103 142 185 247 291 362 454
#     4  11  24  46  66  96 140 190 245 300 374 447
#     4  11  25  46  75 110 146 190 252 316 378 448
#     4  11  21  39  69  99 140 195 248 309 373 445
#     4  10  20  35  65 107 143 189 249 304 371 446
#     4  12  22  42  71 105 151 185 241 314 381 450
#     4  10  21  41  70 106 147 199 253 302 363 453
#
# _framework density 22.892474
#
# number of rings (size 3 to 8) (size 9 to 14) (size 15 to 20)
#    0.000    1.143    5.714    1.714    0.000    4.000 
#    5.143    0.000    0.000    0.000    0.000    0.000 
#    0.000    0.000    0.000    0.000    0.000    0.000 
#
# Total GULP energy -155932.412373 kJ/mol
# GULP energy per Si atom -5569.014728 kJ/mol
# Density = 2.284037 g / cm^3
# Si number density = 22.892474 Si / 1000 Ang^3
#
#
#
# Elastic Constant Matrix: (Units=GPa)
#
#
# Indices 1 2 3 4 5 6 
#
# 1 59.9944 40.4265 60.6483 0.0000 0.0000 0.0000
# 2 40.4265 124.5536 43.0641 0.0000 0.0000 0.0000
# 3 60.6483 43.0641 173.4094 0.0000 0.0000 0.0000
# 4 0.0000 0.0000 0.0000 23.1268 0.0000 0.0000
# 5 0.0000 0.0000 0.0000 0.0000 38.7894 0.0000
# 6 0.0000 0.0000 0.0000 0.0000 0.0000 26.0575
#
#
#
# Elastic Compliance Matrix: (Units=1/GPa)
#
#
# Indices 1 2 3 4 5 6 
#
# 1 0.030182 -0.006724 -0.008886 0.000000 0.000000 0.000000
# 2 -0.006724 0.010281 -0.000201 0.000000 0.000000 0.000000
# 3 -0.008886 -0.000201 0.008925 0.000000 0.000000 0.000000
# 4 0.000000 0.000000 0.000000 0.043240 0.000000 0.000000
# 5 0.000000 0.000000 0.000000 0.000000 0.025780 0.000000
# 6 0.000000 0.000000 0.000000 0.000000 0.000000 0.038377
#
#
# Mechanical properties :
#
#
# Convention : Reuss Voigt Hill
#
# Bulk Modulus (GPa) = 56.29240 71.80392 64.04816
# Shear Modulus (GPa) = 25.72966 31.84930 28.78948
#
# Velocity S-wave (km/s) = 3.35615 3.73400 3.55011
# Velocity P-wave (km/s) = 6.29775 7.07278 6.69648
#
# Compressibility (1/GPa) = 0.01776439
#
# Stress axis : x y z
#
# Youngs Moduli (GPa) = 33.13243 97.26956 112.05054
#
# Poissons Ratio (x) = 0.65403 0.99569
# Poissons Ratio (y) = 0.22278 0.02258
# Poissons Ratio (z) = 0.29442 0.01960
#
# Static dielectric constant tensor:
#      x y z
#    x 2.004600 0.000000 0.000000 
#    y 0.000000 1.910630 0.000000 
#    z 0.000000 0.000000 1.937850 
# 
# From -- ./inp_files/16079.got.cif
#   From: 2010.05.17/outbox.cif.g08.bks.cpg/sg46_9_cif.got.tgz:16079.got - 2010.06.03 19:58:25.
