data_PCOD9379840
_publ_section_title
;
Structure prediction by ZEFSAII (Michael W. Deem and Ramdas Pophale) SiO2 
 PCOD9379840
Probable space group: I M A 2
;
_chemical_formula_sum "Si O2"
_cell_formula_units_Z 48
_cell_length_a 16.772236
_cell_length_b 14.609664
_cell_length_c 8.491879
_cell_angle_alpha 90.000000
_cell_angle_beta 90.000000
_cell_angle_gamma 90.000000
_cell_volume 2080.822283
_symmetry_space_group_name_H-M "I M A 2"
_symmetry_group_IT_number 46
_symmetry_cell_setting 'orthorhombic'
loop_
_space_group_symop_operation_xyz
x,y,z
-x,-y,z
1/2-x,y,z
1/2+x,-y,z
1/2+x,1/2+y,1/2+z
1/2-x,1/2-y,1/2+z
-x,1/2+y,1/2+z
x,1/2-y,1/2+z
loop_
_atom_site_type_symbol
_atom_site_label
_atom_site_fract_x
_atom_site_fract_y
_atom_site_fract_z
Si Si1 0.345511 0.372091 0.797090
Si Si2 0.898792 0.695627 0.457441
Si Si3 0.843067 0.448883 0.943640
Si Si4 0.919304 0.366016 0.436622
Si Si5 0.654576 0.222145 0.624543
Si Si6 0.660057 0.529462 0.294853
O O1 0.250000 0.371871 0.825308
O O2 0.363053 0.334953 0.623723
O O3 0.386236 0.301502 0.917731
O O4 0.375959 0.476201 0.822885
O O5 0.854109 0.635701 0.324650
O O6 0.990281 0.664954 0.451949
O O7 0.750000 0.434602 0.902938
O O8 0.874838 0.348293 0.986816
O O9 0.847696 0.500849 0.113256
O O10 0.872807 0.323806 0.584499
O O11 0.881406 0.317111 0.283566
O O12 0.901121 0.471578 0.401248
O O13 0.750000 0.217081 0.632777
O O14 0.750000 0.504104 0.343855
#
# Coordination Sequence:
#
# PCOD9379840 Si02
#       6
#     8   8   8   8   8   8
#     4  11  22  39  61  88 120 162 209 251 297 365
#     4  12  24  38  58  88 124 160 201 257 312 357
#     4   8  18  36  61  87 112 145 198 252 295 348
#     4  11  23  39  59  89 125 157 198 258 312 357
#     4  10  20  39  64  90 119 160 205 248 300 367
#     4  10  20  39  63  86 114 158 205 250 304 370
#
# _framework density 23.067803999999999
#
# number of rings (size 3 to 8) (size 9 to 14) (size 15 to 20)
#    0.000    1.667    0.000    6.500    0.000    2.667 
#    0.000    7.500    0.000    0.000    0.000    0.000 
#    0.000    0.000    0.000    0.000    0.000    0.000 
#
# Total GULP energy -134187.380609 kJ/mol
# GULP energy per Si atom -5591.140859 kJ/mol
# Density = 2.301530 g / cm^3
# Si number density = 23.067804 Si / 1000 Ang^3
#
#
#
# Elastic Constant Matrix: (Units=GPa)
#
#
# Indices 1 2 3 4 5 6 
#
# 1 67.9421 40.4872 0.1350 0.0000 0.0000 0.0000
# 2 40.4872 33.8148 -4.4184 0.0000 0.0000 0.0000
# 3 0.1350 -4.4184 31.6093 0.0000 0.0000 0.0000
# 4 0.0000 0.0000 0.0000 46.9807 0.0000 0.0000
# 5 0.0000 0.0000 0.0000 0.0000 -309.6374 0.0000
# 6 0.0000 0.0000 0.0000 0.0000 0.0000 31.1378
#
#
#
# Elastic Compliance Matrix: (Units=1/GPa)
#
#
# Indices 1 2 3 4 5 6 
#
# 1 0.054003 -0.065892 -0.009441 0.000000 0.000000 0.000000
# 2 -0.065892 0.110523 0.015731 0.000000 0.000000 0.000000
# 3 -0.009441 0.015731 0.033875 0.000000 0.000000 0.000000
# 4 0.000000 0.000000 0.000000 0.021285 0.000000 0.000000
# 5 0.000000 0.000000 0.000000 0.000000 -0.003230 0.000000
# 6 0.000000 0.000000 0.000000 0.000000 0.000000 0.032115
#
#
# Mechanical properties :
#
#
# Convention : Reuss Voigt Hill
#
# Bulk Modulus (GPa) = 12.62709 22.86374 17.74542
# Shear Modulus (GPa) = 12.68468 -39.82630 -13.57081
#
# Velocity S-wave (km/s) = 2.34751 -4.15961 -2.42812
# Velocity P-wave (km/s) = 3.58239 3.62447 0.38938
#
# Compressibility (1/GPa) = 0.07919479
#
# Stress axis : x y z
#
# Youngs Moduli (GPa) = 18.51752 9.04793 29.51986
#
# Poissons Ratio (x) = 0.59619 0.27871
# Poissons Ratio (y) = 1.22016 -0.46437
# Poissons Ratio (z) = 0.17483 -0.14233
#
# Static dielectric constant tensor:
#      x y z
#    x 2.092650 0.000000 0.000000 
#    y 0.000000 1.868460 0.000000 
#    z 0.000000 0.000000 1.949910 
# 
# From -- ./inp_files/6624.got.cif
#   From: 2010.05.17/outbox.cif.g08.bks.cpg/sg46_4_cif.got.tgz:6624.got - 2010.06.03 19:58:25.
