data_PCOD9379927
_publ_section_title
;
Structure prediction by ZEFSAII (Michael W. Deem and Ramdas Pophale) SiO2 
 PCOD9379927
Probable space group: I M A 2
;
_chemical_formula_sum "Si O2"
_cell_formula_units_Z 48
_cell_length_a 9.723378
_cell_length_b 7.406296
_cell_length_c 32.776005
_cell_angle_alpha 90.000000
_cell_angle_beta 90.000000
_cell_angle_gamma 90.000000
_cell_volume 2360.338290
_symmetry_space_group_name_H-M "I M A 2"
_symmetry_group_IT_number 46
_symmetry_cell_setting 'orthorhombic'
loop_
_space_group_symop_operation_xyz
x,y,z
-x,-y,z
1/2-x,y,z
1/2+x,-y,z
1/2+x,1/2+y,1/2+z
1/2-x,1/2-y,1/2+z
-x,1/2+y,1/2+z
x,1/2-y,1/2+z
loop_
_atom_site_type_symbol
_atom_site_label
_atom_site_fract_x
_atom_site_fract_y
_atom_site_fract_z
Si Si1 0.982691 0.718168 0.181210
Si Si2 0.500000 0.500000 0.498555
Si Si3 0.750000 0.208858 0.135019
Si Si4 0.585847 0.177996 0.347282
Si Si5 0.414849 0.182918 0.769723
Si Si6 0.250000 0.141062 0.619526
Si Si7 0.087507 0.814903 0.437551
Si Si8 0.250000 0.067415 0.058391
O O1 0.933183 0.781313 0.225880
O O2 0.875944 0.725099 0.144569
O O3 0.000000 0.500000 0.184383
O O4 0.119285 0.810607 0.164660
O O5 0.463576 0.669509 0.470007
O O6 0.622747 0.539583 0.529119
O O7 0.750000 0.422506 0.121036
O O8 0.750000 0.074929 0.096449
O O9 0.750000 0.157020 0.337560
O O10 0.498271 0.243060 0.308498
O O11 0.577498 0.271837 0.391622
O O12 0.500000 0.000000 0.356985
O O13 0.250000 0.161977 0.777221
O O14 0.500000 0.000000 0.764018
O O15 0.250000 0.229530 0.575673
O O16 0.250000 0.856044 0.443076
O O17 0.000000 0.000000 0.441470
#
# Coordination Sequence:
#
# PCOD9379927 Si02
#       8
#     8   4   4   8   8   4   8   4
#     4   9  19  36  61  86 123 171 221 268 331 394
#     4  12  26  46  68 104 142 170 224 296 340 420
#     4  10  22  40  62  91 127 173 221 276 334 406
#     4  10  22  42  64  94 132 171 221 271 333 405
#     4  11  22  37  60  95 132 175 224 275 324 391
#     4  10  20  42  64  87 125 175 215 276 336 400
#     4  10  24  46  73 101 134 184 226 276 348 416
#     4  12  26  42  68 100 132 170 228 282 342 410
#
# _framework density 20.336068000000001
#
# number of rings (size 3 to 8) (size 9 to 14) (size 15 to 20)
#    0.000    1.667    1.667    2.000    7.000    2.000 
#    3.000    0.000    0.000    0.000    0.000    0.000 
#    0.000    0.000    0.000    0.000    0.000    0.000 
#
# Total GULP energy -133667.253449 kJ/mol
# GULP energy per Si atom -5569.468894 kJ/mol
# Density = 2.028978 g / cm^3
# Si number density = 20.336068 Si / 1000 Ang^3
#
#
#
# Elastic Constant Matrix: (Units=GPa)
#
#
# Indices 1 2 3 4 5 6 
#
# 1 183.8272 27.4571 73.7925 0.0000 0.0000 0.0000
# 2 27.4571 60.0699 44.9853 0.0000 0.0000 0.0000
# 3 73.7925 44.9853 152.3286 0.0000 0.0000 0.0000
# 4 0.0000 0.0000 0.0000 90.6681 0.0000 0.0000
# 5 0.0000 0.0000 0.0000 0.0000 -108.7217 -0.0001
# 6 0.0000 0.0000 0.0000 0.0000 -0.0001 55.6678
#
#
#
# Elastic Compliance Matrix: (Units=1/GPa)
#
#
# Indices 1 2 3 4 5 6 
#
# 1 0.006785 -0.000821 -0.003044 0.000000 0.000000 0.000000
# 2 -0.000821 0.021474 -0.005944 0.000000 0.000000 0.000000
# 3 -0.003044 -0.005944 0.009795 0.000000 0.000000 0.000000
# 4 0.000000 0.000000 0.000000 0.011029 0.000000 0.000000
# 5 0.000000 0.000000 0.000000 0.000000 -0.009198 0.000000
# 6 0.000000 0.000000 0.000000 0.000000 0.000000 0.017964
#
#
# Mechanical properties :
#
#
# Convention : Reuss Voigt Hill
#
# Bulk Modulus (GPa) = 54.24553 76.52171 65.38362
# Shear Modulus (GPa) = 59.80041 24.18888 41.99465
#
# Velocity S-wave (km/s) = 5.42862 3.45259 4.54919
# Velocity P-wave (km/s) = 8.12562 7.32148 7.73401
#
# Compressibility (1/GPa) = 0.01843470
#
# Stress axis : x y z
#
# Youngs Moduli (GPa) = 147.39399 46.56821 102.09668
#
# Poissons Ratio (x) = 0.03826 0.31079
# Poissons Ratio (y) = 0.12108 0.60683
# Poissons Ratio (z) = 0.44867 0.27679
#
# Static dielectric constant tensor:
#      x y z
#    x 1.679460 0.000000 0.000000 
#    y 0.000000 1.642180 0.000000 
#    z 0.000000 0.000000 1.812550 
# 
# From -- ./inp_files/25097.got.cif
#   From: 2010.05.17/outbox.cif.g08.bks.cpg/sg46_13_cif.got.tgz:25097.got - 2010.06.03 19:58:25.
