data_PCOD9379937
_publ_section_title
;
Structure prediction by ZEFSAII (Michael W. Deem and Ramdas Pophale) SiO2 
 PCOD9379937
Probable space group: I M A 2
;
_chemical_formula_sum "Si O2"
_cell_formula_units_Z 40
_cell_length_a 13.935187
_cell_length_b 8.989361
_cell_length_c 15.578915
_cell_angle_alpha 90.000000
_cell_angle_beta 90.000000
_cell_angle_gamma 90.000000
_cell_volume 1951.546169
_symmetry_space_group_name_H-M "I M A 2"
_symmetry_group_IT_number 46
_symmetry_cell_setting 'orthorhombic'
loop_
_space_group_symop_operation_xyz
x,y,z
-x,-y,z
1/2-x,y,z
1/2+x,-y,z
1/2+x,1/2+y,1/2+z
1/2-x,1/2-y,1/2+z
-x,1/2+y,1/2+z
x,1/2-y,1/2+z
loop_
_atom_site_type_symbol
_atom_site_label
_atom_site_fract_x
_atom_site_fract_y
_atom_site_fract_z
Si Si1 0.952632 0.162750 0.820060
Si Si2 0.750000 0.710747 0.940565
Si Si3 0.542049 0.666272 0.485061
Si Si4 0.250000 0.469935 0.117819
Si Si5 0.750000 0.291225 0.247453
Si Si6 0.086153 0.248032 0.670129
Si Si7 0.750000 0.562489 0.749219
O O1 0.842506 0.153523 0.798496
O O2 0.007188 0.240529 0.742759
O O3 0.000000 0.000000 0.824525
O O4 0.977568 0.238499 0.910525
O O5 0.750000 0.637470 0.845096
O O6 0.846728 0.809497 0.954766
O O7 0.750000 0.586385 0.018280
O O8 0.500000 0.500000 0.495375
O O9 0.537483 0.736359 0.578327
O O10 0.250000 0.638916 0.151293
O O11 0.343410 0.393793 0.161390
O O12 0.750000 0.113894 0.251115
O O13 0.158143 0.379918 0.696086
#
# Coordination Sequence:
#
# PCOD9379937 Si02
#       7
#     8   4   8   4   4   8   4
#     4  11  23  43  68  95 135 182 228 283 339 423
#     4  10  20  46  68 104 138 192 233 281 366 411
#     4  10  23  39  70 102 132 180 232 282 335 426
#     4   9  20  42  71  91 133 174 233 270 332 430
#     4  12  26  42  64 106 128 177 236 288 346 399
#     4  10  21  43  68  95 133 184 217 275 354 405
#     4  11  24  42  73  99 143 173 222 297 346 422
#
# _framework density 20.496568
#
# number of rings (size 3 to 8) (size 9 to 14) (size 15 to 20)
#    0.000    1.600    4.000    0.600    2.800    3.200 
#    3.600    0.000    0.000    0.000    0.000    0.000 
#    0.000    0.000    0.000    0.000    0.000    0.000 
#
# Total GULP energy -111584.328329 kJ/mol
# GULP energy per Si atom -5579.216416 kJ/mol
# Density = 2.044992 g / cm^3
# Si number density = 20.496568 Si / 1000 Ang^3
#
#
#
# Elastic Constant Matrix: (Units=GPa)
#
#
# Indices 1 2 3 4 5 6 
#
# 1 115.2925 20.5368 52.1908 0.0000 0.0000 0.0000
# 2 20.5368 75.6619 26.1358 0.0000 0.0000 0.0000
# 3 52.1908 26.1358 160.5751 0.0000 0.0000 0.0000
# 4 0.0000 0.0000 0.0000 23.8152 0.0000 0.0000
# 5 0.0000 0.0000 0.0000 0.0000 15.8008 0.0000
# 6 0.0000 0.0000 0.0000 0.0000 0.0000 33.2498
#
#
#
# Elastic Compliance Matrix: (Units=1/GPa)
#
#
# Indices 1 2 3 4 5 6 
#
# 1 0.010384 -0.001751 -0.003090 0.000000 0.000000 0.000000
# 2 -0.001751 0.014299 -0.001758 0.000000 0.000000 0.000000
# 3 -0.003090 -0.001758 0.007518 0.000000 0.000000 0.000000
# 4 0.000000 0.000000 0.000000 0.041990 0.000000 0.000000
# 5 0.000000 0.000000 0.000000 0.000000 0.063288 0.000000
# 6 0.000000 0.000000 0.000000 0.000000 0.000000 0.030075
#
#
# Mechanical properties :
#
#
# Convention : Reuss Voigt Hill
#
# Bulk Modulus (GPa) = 52.62393 61.02848 56.82620
# Shear Modulus (GPa) = 26.72531 31.41756 29.07144
#
# Velocity S-wave (km/s) = 3.61486 3.91937 3.77019
# Velocity P-wave (km/s) = 6.56911 7.09377 6.83648
#
# Compressibility (1/GPa) = 0.01900276
#
# Stress axis : x y z
#
# Youngs Moduli (GPa) = 96.29854 69.93315 133.01115
#
# Poissons Ratio (x) = 0.12247 0.41102
# Poissons Ratio (y) = 0.16864 0.23387
# Poissons Ratio (z) = 0.29758 0.12296
#
# Static dielectric constant tensor:
#      x y z
#    x 1.701980 0.000000 0.000000 
#    y 0.000000 1.761450 0.000000 
#    z 0.000000 0.000000 1.773870 
# 
# From -- ./inp_files/15719.got.cif
#   From: 2010.05.17/outbox.cif.g08.bks.cpg/sg46_8_cif.got.tgz:15719.got - 2010.06.03 19:58:25.
