data_PCOD9379206
_publ_section_title
;
Structure prediction by ZEFSAII (Michael W. Deem and Ramdas Pophale) SiO2 
 PCOD9379206
Probable space group: I M A 2
;
_chemical_formula_sum "Si O2"
_cell_formula_units_Z 64
_cell_length_a 9.027480
_cell_length_b 28.881440
_cell_length_c 12.863891
_cell_angle_alpha 90.000000
_cell_angle_beta 90.000000
_cell_angle_gamma 90.000000
_cell_volume 3353.958846
_symmetry_space_group_name_H-M "I M A 2"
_symmetry_group_IT_number 46
_symmetry_cell_setting 'orthorhombic'
loop_
_space_group_symop_operation_xyz
x,y,z
-x,-y,z
1/2-x,y,z
1/2+x,-y,z
1/2+x,1/2+y,1/2+z
1/2-x,1/2-y,1/2+z
-x,1/2+y,1/2+z
x,1/2-y,1/2+z
loop_
_atom_site_type_symbol
_atom_site_label
_atom_site_fract_x
_atom_site_fract_y
_atom_site_fract_z
Si Si1 0.076258 0.175310 0.995810
Si Si2 0.573102 0.196442 0.788040
Si Si3 0.428174 0.592047 0.225824
Si Si4 0.075861 0.919778 0.952920
Si Si5 0.071905 0.623907 0.826688
Si Si6 0.921864 0.454997 0.674943
Si Si7 0.429366 0.550050 0.007449
Si Si8 0.926025 0.790407 0.228460
O O1 0.250000 0.182639 0.974750
O O2 0.978247 0.199555 0.907788
O O3 0.031445 0.122072 0.981726
O O4 0.044156 0.190698 0.112576
O O5 0.750000 0.198836 0.780211
O O6 0.525395 0.145812 0.743540
O O7 0.497862 0.239938 0.734193
O O8 0.250000 0.593386 0.215455
O O9 0.460615 0.566052 0.334964
O O10 0.482190 0.567359 0.121582
O O11 0.250000 0.903993 0.951120
O O12 0.064409 0.953384 0.050501
O O13 0.250000 0.630980 0.825422
O O14 0.025708 0.592199 0.727983
O O15 0.994773 0.673316 0.811086
O O16 0.035961 0.591267 0.925473
O O17 0.750000 0.458371 0.701517
O O18 0.000000 0.500000 0.717810
O O19 0.500000 0.500000 0.983354
O O20 0.250000 0.545025 0.006946
O O21 0.750000 0.787704 0.244031
#
# Coordination Sequence:
#
# PCOD9379206 Si02
#       8
#     8   8   8   8   8   8   8   8
#     4  10  20  35  55  80 112 145 180 234 295 345
#     4  10  21  37  59  84 113 155 200 242 289 351
#     4   8  17  35  57  80 108 145 190 236 281 335
#     4   9  17  33  55  76 104 143 185 229 277 341
#     4  10  21  37  56  79 110 151 196 240 284 350
#     4  10  20  32  50  77 107 139 181 229 281 340
#     4  10  21  38  59  84 116 154 199 245 294 351
#     4  11  23  37  57  86 118 150 190 245 302 357
#
# _framework density 19.081928000000001
#
# number of rings (size 3 to 8) (size 9 to 14) (size 15 to 20)
#    0.000    2.250    1.250    2.250    0.000    4.500 
#    0.000    4.375    0.000    0.000    0.000    0.000 
#    0.000    0.000    0.000    0.000    0.000    0.000 
#
# Total GULP energy -178348.238708 kJ/mol
# GULP energy per Si atom -5573.382460 kJ/mol
# Density = 1.903850 g / cm^3
# Si number density = 19.081928 Si / 1000 Ang^3
#
#
#
# Elastic Constant Matrix: (Units=GPa)
#
#
# Indices 1 2 3 4 5 6 
#
# 1 18.1250 18.7166 28.4218 0.0001 0.0000 0.0000
# 2 18.7166 48.3228 9.6122 0.0001 0.0000 0.0000
# 3 28.4218 9.6122 83.8557 0.0003 0.0000 0.0001
# 4 0.0001 0.0001 0.0003 -1.7383 0.0000 0.0000
# 5 0.0000 0.0000 0.0000 0.0000 20.2493 0.0000
# 6 0.0000 0.0000 0.0001 0.0000 0.0000 26.9201
#
#
#
# Elastic Compliance Matrix: (Units=1/GPa)
#
#
# Indices 1 2 3 4 5 6 
#
# 1 0.291454 -0.095413 -0.087848 -0.000006 0.000000 0.000000
# 2 -0.095413 0.052412 0.026331 0.000003 0.000000 0.000000
# 3 -0.087848 0.026331 0.038682 0.000003 0.000000 0.000000
# 4 -0.000006 0.000003 0.000003 -0.575260 0.000000 0.000000
# 5 0.000000 0.000000 0.000000 0.000000 0.049384 0.000000
# 6 0.000000 0.000000 0.000000 0.000000 0.000000 0.037147
#
#
# Mechanical properties :
#
#
# Convention : Reuss Voigt Hill
#
# Bulk Modulus (GPa) = 14.55837 29.31165 21.93501
# Shear Modulus (GPa) = 21.68496 15.32306 18.50401
#
# Velocity S-wave (km/s) = 3.37473 2.83682 3.11740
# Velocity P-wave (km/s) = 4.77818 5.11120 4.94750
#
# Compressibility (1/GPa) = 0.06868900
#
# Stress axis : x y z
#
# Youngs Moduli (GPa) = 3.43107 19.07950 25.85192
#
# Poissons Ratio (x) = 1.82043 2.27103
# Poissons Ratio (y) = 0.32737 -0.68071
# Poissons Ratio (z) = 0.30141 -0.50238
#
# Static dielectric constant tensor:
#      x y z
#    x 1.644760 0.000000 0.000000 
#    y 0.000000 1.666860 0.000000 
#    z 0.000000 0.000000 1.704820 
# 
# From -- ./inp_files/9697.got.cif
#   From: 2010.05.17/outbox.cif.g08.bks.cpg/sg46_5_cif.got.tgz:9697.got - 2010.06.03 19:58:25.
