data_PCOD9379341
_publ_section_title
;
Structure prediction by ZEFSAII (Michael W. Deem and Ramdas Pophale) SiO2 
 PCOD9379341
Probable space group: I M A 2
;
_chemical_formula_sum "Si O2"
_cell_formula_units_Z 64
_cell_length_a 9.441297
_cell_length_b 19.499407
_cell_length_c 16.289106
_cell_angle_alpha 90.000000
_cell_angle_beta 90.000000
_cell_angle_gamma 90.000000
_cell_volume 2998.819411
_symmetry_space_group_name_H-M "I M A 2"
_symmetry_group_IT_number 46
_symmetry_cell_setting 'orthorhombic'
loop_
_space_group_symop_operation_xyz
x,y,z
-x,-y,z
1/2-x,y,z
1/2+x,-y,z
1/2+x,1/2+y,1/2+z
1/2-x,1/2-y,1/2+z
-x,1/2+y,1/2+z
x,1/2-y,1/2+z
loop_
_atom_site_type_symbol
_atom_site_label
_atom_site_fract_x
_atom_site_fract_y
_atom_site_fract_z
Si Si1 0.582049 0.928933 0.458980
Si Si2 0.412679 0.789255 0.868115
Si Si3 0.591179 0.061245 0.885592
Si Si4 0.578624 0.145143 0.309963
Si Si5 0.088901 0.790722 0.057566
Si Si6 0.416903 0.929425 0.136344
Si Si7 0.905224 0.060273 0.693997
Si Si8 0.914032 0.830804 0.618831
O O1 0.750000 0.940904 0.444495
O O2 0.506651 0.894174 0.380606
O O3 0.571177 0.876785 0.535992
O O4 0.500000 0.000000 0.473532
O O5 0.250000 0.803282 0.840325
O O6 0.481161 0.864147 0.877732
O O7 0.465753 0.725499 0.815212
O O8 0.408365 0.766534 0.963314
O O9 0.750000 0.066583 0.922671
O O10 0.611053 0.043503 0.789570
O O11 0.500000 0.000000 0.923386
O O12 0.750000 0.143535 0.325009
O O13 0.552263 0.108964 0.222914
O O14 0.250000 0.782015 0.090790
O O15 0.054355 0.871079 0.067930
O O16 0.976599 0.743780 0.102942
O O17 0.250000 0.944639 0.135033
O O18 0.500000 0.000000 0.128784
O O19 0.750000 0.063510 0.655342
O O20 0.987597 0.130801 0.683886
O O21 0.000000 0.000000 0.657384
O O22 0.750000 0.830345 0.642432
#
# Coordination Sequence:
#
# PCOD9379341 Si02
#       8
#     8   8   8   8   8   8   8   8
#     4  11  23  37  56  83 116 151 191 234 289 351
#     4   9  18  35  60  86 113 150 195 241 290 346
#     4   9  19  35  56  83 114 148 189 235 284 340
#     4  10  20  37  61  87 116 151 194 243 293 350
#     4  10  21  39  62  85 112 153 199 238 286 347
#     4  10  23  40  62  90 120 155 201 247 297 356
#     4  10  20  34  55  80 113 151 188 230 276 335
#     4  11  23  37  54  82 117 151 190 238 289 345
#
# _framework density 21.341732
#
# number of rings (size 3 to 8) (size 9 to 14) (size 15 to 20)
#    0.000    2.000    1.250    1.875    1.750    5.500 
#    0.000    1.250    0.000    0.000    0.000    0.000 
#    0.000    0.000    0.000    0.000    0.000    0.000 
#
# Total GULP energy -178608.994472 kJ/mol
# GULP energy per Si atom -5581.531077 kJ/mol
# Density = 2.129316 g / cm^3
# Si number density = 21.341732 Si / 1000 Ang^3
#
#
#
# Elastic Constant Matrix: (Units=GPa)
#
#
# Indices 1 2 3 4 5 6 
#
# 1 97.9048 62.2031 14.7525 0.0000 0.0000 0.0000
# 2 62.2031 160.9689 9.6617 0.0000 0.0000 0.0000
# 3 14.7525 9.6617 56.1523 0.0000 0.0000 0.0000
# 4 0.0000 0.0000 0.0000 30.1032 0.0000 0.0000
# 5 0.0000 0.0000 0.0000 0.0000 10.0299 0.0000
# 6 0.0000 0.0000 0.0000 0.0000 0.0000 37.8618
#
#
#
# Elastic Compliance Matrix: (Units=1/GPa)
#
#
# Indices 1 2 3 4 5 6 
#
# 1 0.013950 -0.005225 -0.002766 0.000000 0.000000 0.000000
# 2 -0.005225 0.008234 -0.000044 0.000000 0.000000 0.000000
# 3 -0.002766 -0.000044 0.018543 0.000000 0.000000 0.000000
# 4 0.000000 0.000000 0.000000 0.033219 0.000000 0.000000
# 5 0.000000 0.000000 0.000000 0.000000 0.099702 0.000000
# 6 0.000000 0.000000 0.000000 0.000000 0.000000 0.026412
#
#
# Mechanical properties :
#
#
# Convention : Reuss Voigt Hill
#
# Bulk Modulus (GPa) = 40.55572 54.25119 47.40345
# Shear Modulus (GPa) = 22.28667 30.82623 26.55645
#
# Velocity S-wave (km/s) = 3.23503 3.80466 3.53135
# Velocity P-wave (km/s) = 5.74440 6.69149 6.23595
#
# Compressibility (1/GPa) = 0.02465743
#
# Stress axis : x y z
#
# Youngs Moduli (GPa) = 71.68279 121.44699 53.92869
#
# Poissons Ratio (x) = 0.63454 0.14917
# Poissons Ratio (y) = 0.37453 0.00238
# Poissons Ratio (z) = 0.19828 0.00536
#
# Static dielectric constant tensor:
#      x y z
#    x 1.763480 0.000000 0.000000 
#    y 0.000000 1.791400 0.000000 
#    z 0.000000 0.000000 1.826870 
# 
# From -- ./inp_files/21283.got.cif
#   From: 2010.05.17/outbox.cif.g08.bks.cpg/sg46_11_cif.got.tgz:21283.got - 2010.06.03 19:58:25.
