data_PCOD9379696
_publ_section_title
;
Structure prediction by ZEFSAII (Michael W. Deem and Ramdas Pophale) SiO2 
 PCOD9379696
Probable space group: I M A 2
;
_chemical_formula_sum "Si O2"
_cell_formula_units_Z 40
_cell_length_a 17.911178
_cell_length_b 10.643391
_cell_length_c 9.806161
_cell_angle_alpha 90.000000
_cell_angle_beta 90.000000
_cell_angle_gamma 90.000000
_cell_volume 1869.404079
_symmetry_space_group_name_H-M "I M A 2"
_symmetry_group_IT_number 46
_symmetry_cell_setting 'orthorhombic'
loop_
_space_group_symop_operation_xyz
x,y,z
-x,-y,z
1/2-x,y,z
1/2+x,-y,z
1/2+x,1/2+y,1/2+z
1/2-x,1/2-y,1/2+z
-x,1/2+y,1/2+z
x,1/2-y,1/2+z
loop_
_atom_site_type_symbol
_atom_site_label
_atom_site_fract_x
_atom_site_fract_y
_atom_site_fract_z
Si Si1 0.448945 0.878191 0.500000
Si Si2 0.163500 0.199396 0.143341
Si Si3 0.835448 0.001887 0.679517
Si Si4 0.071444 0.057016 0.922301
Si Si5 0.511117 0.722684 0.741565
O O1 0.369352 0.916069 0.558542
O O2 0.481938 0.764844 0.593394
O O3 0.455280 0.849264 0.340504
O O4 0.500000 0.000000 0.527695
O O5 0.250000 0.167255 0.174659
O O6 0.159370 0.352168 0.141724
O O7 0.093886 0.159757 0.239519
O O8 0.134150 0.134138 0.005195
O O9 0.750000 0.029643 0.703784
O O10 0.881793 0.028512 0.817614
O O11 0.028528 0.149030 0.820267
O O12 0.000000 0.000000 0.003736
#
# Coordination Sequence:
#
# PCOD9379696 Si02
#       5
#     8   8   8   8   8
#     4  12  21  42  61  91 126 165 219 255 316 389
#     4  10  21  37  61  98 129 157 209 271 327 375
#     4  10  20  37  62  89 124 167 209 267 325 370
#     4  11  18  34  61  91 124 166 206 251 319 385
#     4  11  21  37  61  88 124 167 208 254 309 383
#
# _framework density 21.397193000000001
#
# number of rings (size 3 to 8) (size 9 to 14) (size 15 to 20)
#    0.000    1.200    8.000    0.600    0.000    1.600 
#    0.000    2.000    0.000    0.000    0.000    0.000 
#    0.000    0.000    0.000    0.000    0.000    0.000 
#
# Total GULP energy -111412.992061 kJ/mol
# GULP energy per Si atom -5570.649603 kJ/mol
# Density = 2.134849 g / cm^3
# Si number density = 21.397193 Si / 1000 Ang^3
#
#
#
# Elastic Constant Matrix: (Units=GPa)
#
#
# Indices 1 2 3 4 5 6 
#
# 1 159.8063 29.8743 35.5733 0.0000 0.0000 0.0000
# 2 29.8743 38.8583 18.1883 0.0000 0.0000 0.0000
# 3 35.5733 18.1883 76.4046 0.0000 0.0000 0.0000
# 4 0.0000 0.0000 0.0000 34.9810 0.0000 0.0000
# 5 0.0000 0.0000 0.0000 0.0000 35.6733 0.0000
# 6 0.0000 0.0000 0.0000 0.0000 0.0000 33.4239
#
#
#
# Elastic Compliance Matrix: (Units=1/GPa)
#
#
# Indices 1 2 3 4 5 6 
#
# 1 0.007694 -0.004770 -0.002447 0.000000 0.000000 0.000000
# 2 -0.004770 0.031919 -0.005378 0.000000 0.000000 0.000000
# 3 -0.002447 -0.005378 0.015508 0.000000 0.000000 0.000000
# 4 0.000000 0.000000 0.000000 0.028587 0.000000 0.000000
# 5 0.000000 0.000000 0.000000 0.000000 0.028032 0.000000
# 6 0.000000 0.000000 0.000000 0.000000 0.000000 0.029919
#
#
# Mechanical properties :
#
#
# Convention : Reuss Voigt Hill
#
# Bulk Modulus (GPa) = 33.40921 49.14901 41.27911
# Shear Modulus (GPa) = 28.27680 33.57786 30.92733
#
# Velocity S-wave (km/s) = 3.63921 3.96569 3.80596
# Velocity P-wave (km/s) = 5.77116 6.63239 6.21671
#
# Compressibility (1/GPa) = 0.02993186
#
# Stress axis : x y z
#
# Youngs Moduli (GPa) = 129.97297 31.32965 64.48480
#
# Poissons Ratio (x) = 0.14944 0.15778
# Poissons Ratio (y) = 0.61995 0.34677
# Poissons Ratio (z) = 0.31801 0.16848
#
# Static dielectric constant tensor:
#      x y z
#    x 1.777290 0.000000 0.000000 
#    y 0.000000 1.866680 0.000000 
#    z 0.000000 0.000000 1.857120 
# 
# From -- ./inp_files/6386.got.cif
#   From: 2010.05.17/outbox.cif.g08.bks.cpg/sg46_4_cif.got.tgz:6386.got - 2010.06.03 19:58:25.
