data_PCOD9379674
_publ_section_title
;
Structure prediction by ZEFSAII (Michael W. Deem and Ramdas Pophale) SiO2 
 PCOD9379674
Probable space group: I M A 2
;
_chemical_formula_sum "Si O2"
_cell_formula_units_Z 40
_cell_length_a 15.427866
_cell_length_b 5.108058
_cell_length_c 23.384287
_cell_angle_alpha 90.000000
_cell_angle_beta 90.000000
_cell_angle_gamma 90.000000
_cell_volume 1842.832278
_symmetry_space_group_name_H-M "I M A 2"
_symmetry_group_IT_number 46
_symmetry_cell_setting 'orthorhombic'
loop_
_space_group_symop_operation_xyz
x,y,z
-x,-y,z
1/2-x,y,z
1/2+x,-y,z
1/2+x,1/2+y,1/2+z
1/2-x,1/2-y,1/2+z
-x,1/2+y,1/2+z
x,1/2-y,1/2+z
loop_
_atom_site_type_symbol
_atom_site_label
_atom_site_fract_x
_atom_site_fract_y
_atom_site_fract_z
Si Si1 0.144013 0.284208 0.916930
Si Si2 0.854564 0.281066 0.348819
Si Si3 0.060657 0.748335 0.727908
Si Si4 0.349519 0.108941 0.040898
Si Si5 0.597770 0.394534 0.107959
O O1 0.250000 0.289170 0.919332
O O2 0.115919 0.567375 0.895272
O O3 0.118192 0.066833 0.870495
O O4 0.114071 0.200740 0.979756
O O5 0.750000 0.278320 0.347419
O O6 0.888698 0.206910 0.286598
O O7 0.119848 0.809707 0.672689
O O8 0.000000 0.500000 0.714432
O O9 0.000000 0.000000 0.736797
O O10 0.250000 0.023380 0.032046
O O11 0.350787 0.361768 0.081914
O O12 0.396135 0.861322 0.068677
O O13 0.500000 0.500000 0.110090
#
# Coordination Sequence:
#
# PCOD9379674 Si02
#       5
#     8   8   8   8   8
#     4   9  19  36  58  86 119 150 182 236 299 339
#     4  10  20  37  61  86 113 149 194 237 283 345
#     4  11  23  41  60  81 117 157 191 237 297 348
#     4  11  22  39  64  90 118 155 201 244 287 351
#     4  11  23  41  60  85 122 161 195 240 303 351
#
# _framework density 21.705719999999999
#
# number of rings (size 3 to 8) (size 9 to 14) (size 15 to 20)
#    0.000    1.600    0.000    6.000    0.000    4.800 
#    0.000   12.000    0.000    0.000    0.000    0.000 
#    0.000    0.000    0.000    0.000    0.000    0.000 
#
# Total GULP energy -111839.849557 kJ/mol
# GULP energy per Si atom -5591.992478 kJ/mol
# Density = 2.165632 g / cm^3
# Si number density = 21.705720 Si / 1000 Ang^3
#
#
#
# Elastic Constant Matrix: (Units=GPa)
#
#
# Indices 1 2 3 4 5 6 
#
# 1 18.4623 -2.5128 3.4623 0.0000 0.0000 0.0000
# 2 -2.5128 113.7913 5.7446 0.0000 0.0000 0.0000
# 3 3.4623 5.7446 96.4493 0.0000 0.0000 0.0000
# 4 0.0000 0.0000 0.0000 39.3359 0.0000 0.0000
# 5 0.0000 0.0000 0.0000 0.0000 17.1951 0.0000
# 6 0.0000 0.0000 0.0000 0.0000 0.0000 25.4802
#
#
#
# Elastic Compliance Matrix: (Units=1/GPa)
#
#
# Indices 1 2 3 4 5 6 
#
# 1 0.054726 0.001312 -0.002043 0.000000 0.000000 0.000000
# 2 0.001312 0.008846 -0.000574 0.000000 0.000000 0.000000
# 3 -0.002043 -0.000574 0.010476 0.000000 0.000000 0.000000
# 4 0.000000 0.000000 0.000000 0.025422 0.000000 0.000000
# 5 0.000000 0.000000 0.000000 0.000000 0.058156 0.000000
# 6 0.000000 0.000000 0.000000 0.000000 0.000000 0.039246
#
#
# Mechanical properties :
#
#
# Convention : Reuss Voigt Hill
#
# Bulk Modulus (GPa) = 13.99821 26.89901 20.44861
# Shear Modulus (GPa) = 22.39194 31.20282 26.79738
#
# Velocity S-wave (km/s) = 3.21536 3.79560 3.51747
# Velocity P-wave (km/s) = 4.49976 5.62390 5.09294
#
# Compressibility (1/GPa) = 0.07143770
#
# Stress axis : x y z
#
# Youngs Moduli (GPa) = 18.27282 113.04604 95.45950
#
# Poissons Ratio (x) = -0.14827 0.19499
# Poissons Ratio (y) = -0.02397 0.05479
# Poissons Ratio (z) = 0.03732 0.06488
#
# Static dielectric constant tensor:
#      x y z
#    x 1.803620 0.000000 0.000000 
#    y 0.000000 1.740530 0.000000 
#    z 0.000000 0.000000 1.785970 
# 
# From -- ./inp_files/19773.got.cif
#   From: 2010.05.17/outbox.cif.g08.bks.cpg/sg46_10_cif.got.tgz:19773.got - 2010.06.03 19:58:25.
