data_PCOD9379121
_publ_section_title
;
Structure prediction by ZEFSAII (Michael W. Deem and Ramdas Pophale) SiO2 
 PCOD9379121
Probable space group: I M A 2
;
_chemical_formula_sum "Si O2"
_cell_formula_units_Z 56
_cell_length_a 18.997047
_cell_length_b 10.118461
_cell_length_c 15.184152
_cell_angle_alpha 90.000000
_cell_angle_beta 90.000000
_cell_angle_gamma 90.000000
_cell_volume 2918.711047
_symmetry_space_group_name_H-M "I M A 2"
_symmetry_group_IT_number 46
_symmetry_cell_setting 'orthorhombic'
loop_
_space_group_symop_operation_xyz
x,y,z
-x,-y,z
1/2-x,y,z
1/2+x,-y,z
1/2+x,1/2+y,1/2+z
1/2-x,1/2-y,1/2+z
-x,1/2+y,1/2+z
x,1/2-y,1/2+z
loop_
_atom_site_type_symbol
_atom_site_label
_atom_site_fract_x
_atom_site_fract_y
_atom_site_fract_z
Si Si1 0.504921 0.719320 0.454760
Si Si2 0.113853 0.503510 0.498374
Si Si3 0.670428 0.704165 0.202321
Si Si4 0.473670 0.357780 0.124722
Si Si5 0.826514 0.450206 0.318080
Si Si6 0.833079 0.006107 0.200152
Si Si7 0.062529 0.773042 0.269886
O O1 0.444565 0.617620 0.486920
O O2 0.575590 0.632602 0.468523
O O3 0.505882 0.836633 0.524289
O O4 0.485761 0.769457 0.357426
O O5 0.169331 0.539029 0.423007
O O6 0.144030 0.501932 0.596815
O O7 0.750000 0.696415 0.165626
O O8 0.609210 0.663407 0.135810
O O9 0.664440 0.596534 0.279173
O O10 0.659905 0.854745 0.232260
O O11 0.500000 0.500000 0.156298
O O12 0.512721 0.250552 0.185977
O O13 0.750000 0.400425 0.289600
O O14 0.886355 0.353410 0.282600
O O15 0.750000 0.043693 0.207205
O O16 0.886304 0.102904 0.251694
#
# Coordination Sequence:
#
# PCOD9379121 Si02
#       7
#     8   8   8   8   8   8   8
#     4  10  22  38  58  91 126 153 211 272 316 374
#     4  10  19  37  61  90 119 163 214 264 314 380
#     4  10  22  39  62  92 126 167 212 261 323 388
#     4  12  22  41  64  90 124 168 212 259 317 384
#     4  10  20  38  62  89 125 168 212 256 314 385
#     4  11  22  39  63  93 133 172 213 268 331 387
#     4  11  23  39  65  95 123 167 214 268 318 378
#
# _framework density 19.186551999999999
#
# number of rings (size 3 to 8) (size 9 to 14) (size 15 to 20)
#    0.000    1.429    4.286    1.714    2.000    0.571 
#    5.143    0.000    0.000    0.000    0.000    0.000 
#    0.000    0.000    0.000    0.000    0.000    0.000 
#
# Total GULP energy -156208.200932 kJ/mol
# GULP energy per Si atom -5578.864319 kJ/mol
# Density = 1.914288 g / cm^3
# Si number density = 19.186552 Si / 1000 Ang^3
#
#
#
# Elastic Constant Matrix: (Units=GPa)
#
#
# Indices 1 2 3 4 5 6 
#
# 1 95.9147 41.6287 27.7573 0.0000 0.0000 0.0000
# 2 41.6287 80.5856 26.4666 0.0000 0.0000 0.0000
# 3 27.7573 26.4666 78.3872 0.0000 0.0000 0.0000
# 4 0.0000 0.0000 0.0000 25.6873 0.0000 0.0000
# 5 0.0000 0.0000 0.0000 0.0000 20.8832 0.0000
# 6 0.0000 0.0000 0.0000 0.0000 0.0000 26.2860
#
#
#
# Elastic Compliance Matrix: (Units=1/GPa)
#
#
# Indices 1 2 3 4 5 6 
#
# 1 0.013974 -0.006291 -0.002824 0.000000 0.000000 0.000000
# 2 -0.006291 0.016789 -0.003441 0.000000 0.000000 0.000000
# 3 -0.002824 -0.003441 0.014919 0.000000 0.000000 0.000000
# 4 0.000000 0.000000 0.000000 0.038930 0.000000 0.000000
# 5 0.000000 0.000000 0.000000 0.000000 0.047885 0.000000
# 6 0.000000 0.000000 0.000000 0.000000 0.000000 0.038043
#
#
# Mechanical properties :
#
#
# Convention : Reuss Voigt Hill
#
# Bulk Modulus (GPa) = 48.61524 49.62141 49.11833
# Shear Modulus (GPa) = 24.69034 25.17363 24.93199
#
# Velocity S-wave (km/s) = 3.59117 3.62615 3.60870
# Velocity P-wave (km/s) = 6.52599 6.59171 6.55893
#
# Compressibility (1/GPa) = 0.02056968
#
# Stress axis : x y z
#
# Youngs Moduli (GPa) = 71.56365 59.56264 67.02856
#
# Poissons Ratio (x) = 0.37470 0.18929
# Poissons Ratio (y) = 0.45020 0.23065
# Poissons Ratio (z) = 0.20210 0.20495
#
# Static dielectric constant tensor:
#      x y z
#    x 1.687000 0.000000 0.000000 
#    y 0.000000 1.667770 0.000000 
#    z 0.000000 0.000000 1.646030 
# 
# From -- ./inp_files/17112.got.cif
#   From: 2010.05.17/outbox.cif.g08.bks.cpg/sg46_9_cif.got.tgz:17112.got - 2010.06.03 19:58:25.
