data_PCOD9379279
_publ_section_title
;
Structure prediction by ZEFSAII (Michael W. Deem and Ramdas Pophale) SiO2 
 PCOD9379279
Probable space group: I M A 2
;
_chemical_formula_sum "Si O2"
_cell_formula_units_Z 52
_cell_length_a 14.454876
_cell_length_b 18.721163
_cell_length_c 8.785805
_cell_angle_alpha 90.000000
_cell_angle_beta 90.000000
_cell_angle_gamma 90.000000
_cell_volume 2377.545051
_symmetry_space_group_name_H-M "I M A 2"
_symmetry_group_IT_number 46
_symmetry_cell_setting 'orthorhombic'
loop_
_space_group_symop_operation_xyz
x,y,z
-x,-y,z
1/2-x,y,z
1/2+x,-y,z
1/2+x,1/2+y,1/2+z
1/2-x,1/2-y,1/2+z
-x,1/2+y,1/2+z
x,1/2-y,1/2+z
loop_
_atom_site_type_symbol
_atom_site_label
_atom_site_fract_x
_atom_site_fract_y
_atom_site_fract_z
Si Si1 0.639850 0.218137 0.915260
Si Si2 0.853640 0.851943 0.600180
Si Si3 0.648898 0.793347 0.943645
Si Si4 0.039175 0.629287 0.940530
Si Si5 0.355663 0.585603 0.200908
Si Si6 0.000000 0.000000 0.876894
Si Si7 0.489866 0.629489 0.602204
O O1 0.750000 0.234323 0.920978
O O2 0.575409 0.288470 0.918338
O O3 0.620697 0.164588 0.772402
O O4 0.605705 0.168922 0.055840
O O5 0.750000 0.886750 0.602249
O O6 0.866562 0.817968 0.769609
O O7 0.847702 0.791279 0.468745
O O8 0.951827 0.885382 0.552486
O O9 0.750000 0.822066 0.988263
O O10 0.571773 0.816591 0.063005
O O11 0.014006 0.604182 0.773437
O O12 0.123217 0.590119 0.023459
O O13 0.250000 0.574696 0.237562
O O14 0.413638 0.522662 0.275918
O O15 0.012941 0.066692 0.986263
#
# Coordination Sequence:
#
# PCOD9379279 Si02
#       7
#     8   8   8   8   8   4   8
#     4  10  21  38  61  93 132 169 202 250 323 395
#     4  10  20  33  53  86 127 162 198 245 303 372
#     4  10  20  35  55  82 118 161 203 246 300 364
#     4  12  22  35  63  97 133 159 204 259 328 386
#     4  10  23  43  67  94 126 168 216 260 313 383
#     4  10  24  46  64  80 118 168 220 264 314 360
#     4  11  23  38  61  90 123 166 212 260 313 377
#
# _framework density 21.871297999999999
#
# number of rings (size 3 to 8) (size 9 to 14) (size 15 to 20)
#    0.000    1.538    1.538    4.154    0.000    5.538 
#    0.000    0.769    0.000    1.846    0.000    0.000 
#    0.000    0.000    0.000    0.000    0.000    0.000 
#
# Total GULP energy -145073.209449 kJ/mol
# GULP energy per Si atom -5579.738825 kJ/mol
# Density = 2.182152 g / cm^3
# Si number density = 21.871298 Si / 1000 Ang^3
#
#
#
# Elastic Constant Matrix: (Units=GPa)
#
#
# Indices 1 2 3 4 5 6 
#
# 1 109.9525 23.1915 26.3227 0.0000 0.0000 0.0000
# 2 23.1915 52.1900 6.2928 0.0000 0.0000 0.0000
# 3 26.3227 6.2928 109.1394 0.0000 0.0000 0.0000
# 4 0.0000 0.0000 0.0000 16.6046 0.0000 0.0000
# 5 0.0000 0.0000 0.0000 0.0000 15.6655 0.0000
# 6 0.0000 0.0000 0.0000 0.0000 0.0000 23.5298
#
#
#
# Elastic Compliance Matrix: (Units=1/GPa)
#
#
# Indices 1 2 3 4 5 6 
#
# 1 0.010578 -0.004423 -0.002296 0.000000 0.000000 0.000000
# 2 -0.004423 0.021145 -0.000152 0.000000 0.000000 0.000000
# 3 -0.002296 -0.000152 0.009725 0.000000 0.000000 0.000000
# 4 0.000000 0.000000 0.000000 0.060224 0.000000 0.000000
# 5 0.000000 0.000000 0.000000 0.000000 0.063835 0.000000
# 6 0.000000 0.000000 0.000000 0.000000 0.000000 0.042499
#
#
# Mechanical properties :
#
#
# Convention : Reuss Voigt Hill
#
# Bulk Modulus (GPa) = 36.09620 42.54400 39.32010
# Shear Modulus (GPa) = 21.64653 25.52497 23.58575
#
# Velocity S-wave (km/s) = 3.14940 3.41992 3.28744
# Velocity P-wave (km/s) = 5.45570 5.92357 5.69444
#
# Compressibility (1/GPa) = 0.02770375
#
# Stress axis : x y z
#
# Youngs Moduli (GPa) = 94.53996 47.29304 102.82611
#
# Poissons Ratio (x) = 0.20920 0.23610
# Poissons Ratio (y) = 0.41819 0.01566
# Poissons Ratio (z) = 0.21707 0.00720
#
# Static dielectric constant tensor:
#      x y z
#    x 1.911090 0.000000 0.000000 
#    y 0.000000 1.886040 0.000000 
#    z 0.000000 0.000000 1.793180 
# 
# From -- ./inp_files/5879.got.cif
#   From: 2010.05.17/outbox.cif.g08.bks.cpg/sg46_3_cif.got.tgz:5879.got - 2010.06.03 19:58:25.
