data_PCOD9379301
_publ_section_title
;
Structure prediction by ZEFSAII (Michael W. Deem and Ramdas Pophale) SiO2 
 PCOD9379301
Probable space group: I M A 2
;
_chemical_formula_sum "Si O2"
_cell_formula_units_Z 48
_cell_length_a 8.700266
_cell_length_b 14.005677
_cell_length_c 24.158978
_cell_angle_alpha 90.000000
_cell_angle_beta 90.000000
_cell_angle_gamma 90.000000
_cell_volume 2943.846734
_symmetry_space_group_name_H-M "I M A 2"
_symmetry_group_IT_number 46
_symmetry_cell_setting 'orthorhombic'
loop_
_space_group_symop_operation_xyz
x,y,z
-x,-y,z
1/2-x,y,z
1/2+x,-y,z
1/2+x,1/2+y,1/2+z
1/2-x,1/2-y,1/2+z
-x,1/2+y,1/2+z
x,1/2-y,1/2+z
loop_
_atom_site_type_symbol
_atom_site_label
_atom_site_fract_x
_atom_site_fract_y
_atom_site_fract_z
Si Si1 0.565790 0.896602 0.547270
Si Si2 0.933624 0.288159 0.152842
Si Si3 0.934204 0.895010 0.094788
Si Si4 0.433362 0.209285 0.980058
Si Si5 0.432639 0.895242 0.876984
Si Si6 0.933844 0.606114 0.257248
O O1 0.750000 0.900110 0.553839
O O2 0.493165 0.858922 0.604516
O O3 0.530978 0.815920 0.501372
O O4 0.500000 0.000000 0.533504
O O5 0.750000 0.290229 0.154799
O O6 0.992867 0.183682 0.135221
O O7 0.003507 0.323588 0.210446
O O8 0.750000 0.893677 0.100781
O O9 0.969735 0.859345 0.032254
O O10 0.000000 0.000000 0.103780
O O11 0.250000 0.202902 0.969983
O O12 0.522248 0.175706 0.926089
O O13 0.250000 0.902564 0.870747
O O14 0.506984 0.866841 0.818360
O O15 0.500000 0.000000 0.890893
O O16 0.750000 0.602602 0.256409
O O17 0.000000 0.500000 0.246056
#
# Coordination Sequence:
#
# PCOD9379301 Si02
#       6
#     8   8   8   8   8   8
#     4  10  20  34  52  75 103 134 169 207 250 299
#     4  11  21  34  52  75 103 134 169 207 251 299
#     4  10  20  34  52  76 104 135 170 207 250 297
#     4   9  19  34  51  73 102 134 167 204 247 295
#     4  11  21  33  51  75 102 132 167 205 249 298
#     4  11  21  35  53  74 102 133 167 206 251 300
#
# _framework density 16.305197
#
# number of rings (size 3 to 8) (size 9 to 14) (size 15 to 20)
#    0.000    1.667    0.000    8.500    0.000    5.333 
#    0.000    0.000    0.000    1.000    0.000    4.667 
#    0.000    0.000    0.000    0.000    0.000    0.000 
#
# Total GULP energy -134075.369340 kJ/mol
# GULP energy per Si atom -5586.473723 kJ/mol
# Density = 1.626809 g / cm^3
# Si number density = 16.305197 Si / 1000 Ang^3
#
#
#
# Elastic Constant Matrix: (Units=GPa)
#
#
# Indices 1 2 3 4 5 6 
#
# 1 142.0547 69.6007 74.7954 0.0000 0.0000 0.0000
# 2 69.6007 121.0210 80.5505 0.0000 0.0000 0.0000
# 3 74.7954 80.5505 113.9286 0.0000 0.0000 0.0000
# 4 0.0000 0.0000 0.0000 18.3673 0.0000 0.0000
# 5 0.0000 0.0000 0.0000 0.0000 28.2996 0.0000
# 6 0.0000 0.0000 0.0000 0.0000 0.0000 30.4011
#
#
#
# Elastic Compliance Matrix: (Units=1/GPa)
#
#
# Indices 1 2 3 4 5 6 
#
# 1 0.011288 -0.002946 -0.005328 0.000000 0.000000 0.000000
# 2 -0.002946 0.016377 -0.009645 0.000000 0.000000 0.000000
# 3 -0.005328 -0.009645 0.019095 0.000000 0.000000 0.000000
# 4 0.000000 0.000000 0.000000 0.054445 0.000000 0.000000
# 5 0.000000 0.000000 0.000000 0.000000 0.035336 0.000000
# 6 0.000000 0.000000 0.000000 0.000000 0.000000 0.032894
#
#
# Mechanical properties :
#
#
# Convention : Reuss Voigt Hill
#
# Bulk Modulus (GPa) = 91.55762 91.87751 91.71757
# Shear Modulus (GPa) = 23.93355 25.55079 24.74217
#
# Velocity S-wave (km/s) = 3.83541 3.96287 3.89966
# Velocity P-wave (km/s) = 8.71138 8.79830 8.75495
#
# Compressibility (1/GPa) = 0.01092208
#
# Stress axis : x y z
#
# Youngs Moduli (GPa) = 88.58822 61.06270 52.37067
#
# Poissons Ratio (x) = 0.17986 0.27904
# Poissons Ratio (y) = 0.26094 0.50511
# Poissons Ratio (z) = 0.47202 0.58894
#
# Static dielectric constant tensor:
#      x y z
#    x 1.542710 0.000000 0.000000 
#    y 0.000000 1.530470 0.000000 
#    z 0.000000 0.000000 1.528560 
# 
# From -- ./inp_files/20910.got.cif
#   From: 2010.05.17/outbox.cif.g08.bks.cpg/sg46_11_cif.got.tgz:20910.got - 2010.06.03 19:58:25.
