data_PCOD9379278
_publ_section_title
;
Structure prediction by ZEFSAII (Michael W. Deem and Ramdas Pophale) SiO2 
 PCOD9379278
Probable space group: I M A 2
;
_chemical_formula_sum "Si O2"
_cell_formula_units_Z 60
_cell_length_a 9.355490
_cell_length_b 23.509021
_cell_length_c 14.404088
_cell_angle_alpha 90.000000
_cell_angle_beta 90.000000
_cell_angle_gamma 90.000000
_cell_volume 3168.012225
_symmetry_space_group_name_H-M "I M A 2"
_symmetry_group_IT_number 46
_symmetry_cell_setting 'orthorhombic'
loop_
_space_group_symop_operation_xyz
x,y,z
-x,-y,z
1/2-x,y,z
1/2+x,-y,z
1/2+x,1/2+y,1/2+z
1/2-x,1/2-y,1/2+z
-x,1/2+y,1/2+z
x,1/2-y,1/2+z
loop_
_atom_site_type_symbol
_atom_site_label
_atom_site_fract_x
_atom_site_fract_y
_atom_site_fract_z
Si Si1 0.580623 0.944335 0.073630
Si Si2 0.914651 0.208339 0.602734
Si Si3 0.402880 0.387163 0.006552
Si Si4 0.918356 0.329561 0.516785
Si Si5 0.411718 0.776860 0.819637
Si Si6 0.908440 0.669589 0.805712
Si Si7 0.000000 0.500000 0.921225
Si Si8 0.409943 0.927616 0.248960
O O1 0.750000 0.946160 0.059138
O O2 0.509917 0.885108 0.041459
O O3 0.540572 0.946689 0.183199
O O4 0.500000 0.000000 0.032984
O O5 0.750000 0.208529 0.572990
O O6 0.969127 0.270694 0.567656
O O7 0.921381 0.202299 0.713825
O O8 0.987106 0.153569 0.557683
O O9 0.250000 0.379517 0.053739
O O10 0.395017 0.363099 0.902334
O O11 0.430280 0.453552 0.988637
O O12 0.750000 0.338100 0.541227
O O13 0.925706 0.319327 0.405905
O O14 0.250000 0.751865 0.829785
O O15 0.539342 0.732206 0.827633
O O16 0.750000 0.667299 0.760046
O O17 0.043697 0.638264 0.759035
O O18 0.087242 0.539009 0.847005
O O19 0.250000 0.933776 0.209294
#
# Coordination Sequence:
#
# PCOD9379278 Si02
#       8
#     8   8   8   8   8   8   4   8
#     4  12  25  40  60  86 119 155 196 244 298 360
#     4  10  21  37  60  89 119 156 199 242 294 354
#     4  10  21  36  55  84 120 156 196 242 292 351
#     4  10  21  39  61  88 122 158 198 247 299 353
#     4  10  20  36  60  88 117 156 203 246 295 357
#     4  10  20  33  53  84 120 155 197 243 293 350
#     4  10  22  36  58  86 118 158 202 242 294 360
#     4  11  21  35  57  84 120 159 196 239 294 358
#
# _framework density 18.939321
#
# number of rings (size 3 to 8) (size 9 to 14) (size 15 to 20)
#    0.000    1.600    2.000    3.200    0.000    6.400 
#    0.000    0.000    1.467    0.000    0.000    0.000 
#    0.000    0.000    0.000    0.000    0.000    0.000 
#
# Total GULP energy -167039.133502 kJ/mol
# GULP energy per Si atom -5567.971117 kJ/mol
# Density = 1.889621 g / cm^3
# Si number density = 18.939321 Si / 1000 Ang^3
#
#
#
# Elastic Constant Matrix: (Units=GPa)
#
#
# Indices 1 2 3 4 5 6 
#
# 1 111.1027 58.8348 18.2595 0.0000 0.0000 0.0000
# 2 58.8348 114.8468 32.4679 0.0000 0.0000 0.0000
# 3 18.2595 32.4679 58.4824 0.0001 0.0000 0.0000
# 4 0.0000 0.0000 0.0001 19.2192 0.0000 0.0000
# 5 0.0000 0.0000 0.0000 0.0000 20.7617 0.0000
# 6 0.0000 0.0000 0.0000 0.0000 0.0000 1.9121
#
#
#
# Elastic Compliance Matrix: (Units=1/GPa)
#
#
# Indices 1 2 3 4 5 6 
#
# 1 0.012360 -0.006216 -0.000408 0.000000 0.000000 0.000000
# 2 -0.006216 0.013455 -0.005529 0.000000 0.000000 0.000000
# 3 -0.000408 -0.005529 0.020296 0.000000 0.000000 0.000000
# 4 0.000000 0.000000 0.000000 0.052031 0.000000 0.000000
# 5 0.000000 0.000000 0.000000 0.000000 0.048166 0.000000
# 6 0.000000 0.000000 0.000000 0.000000 0.000000 0.522977
#
#
# Mechanical properties :
#
#
# Convention : Reuss Voigt Hill
#
# Bulk Modulus (GPa) = 45.86244 55.95071 50.90657
# Shear Modulus (GPa) = 7.13410 20.03659 13.58535
#
# Velocity S-wave (km/s) = 1.94294 3.25612 2.68117
# Velocity P-wave (km/s) = 5.41307 6.61382 6.04334
#
# Compressibility (1/GPa) = 0.02180433
#
# Stress axis : x y z
#
# Youngs Moduli (GPa) = 80.90857 74.32223 49.27087
#
# Poissons Ratio (x) = 0.46202 0.02009
# Poissons Ratio (y) = 0.50296 0.27241
# Poissons Ratio (z) = 0.03299 0.41092
#
# Static dielectric constant tensor:
#      x y z
#    x 1.702640 0.000000 0.000000 
#    y 0.000000 1.715060 0.000000 
#    z 0.000000 0.000000 1.672140 
# 
# From -- ./inp_files/14403.got.cif
#   From: 2010.05.17/outbox.cif.g08.bks.cpg/sg46_8_cif.got.tgz:14403.got - 2010.06.03 19:58:25.
