data_PCOD9379509
_publ_section_title
;
Structure prediction by ZEFSAII (Michael W. Deem and Ramdas Pophale) SiO2 
 PCOD9379509
Probable space group: I M A 2
;
_chemical_formula_sum "Si O2"
_cell_formula_units_Z 44
_cell_length_a 21.530833
_cell_length_b 8.927640
_cell_length_c 10.651211
_cell_angle_alpha 90.000000
_cell_angle_beta 90.000000
_cell_angle_gamma 90.000000
_cell_volume 2047.370729
_symmetry_space_group_name_H-M "I M A 2"
_symmetry_group_IT_number 46
_symmetry_cell_setting 'orthorhombic'
loop_
_space_group_symop_operation_xyz
x,y,z
-x,-y,z
1/2-x,y,z
1/2+x,-y,z
1/2+x,1/2+y,1/2+z
1/2-x,1/2-y,1/2+z
-x,1/2+y,1/2+z
x,1/2-y,1/2+z
loop_
_atom_site_type_symbol
_atom_site_label
_atom_site_fract_x
_atom_site_fract_y
_atom_site_fract_z
Si Si1 0.500000 0.500000 0.540340
Si Si2 0.180589 0.303554 0.017751
Si Si3 0.909396 0.317065 0.717295
Si Si4 0.971244 0.778016 0.832535
Si Si5 0.354359 0.391437 0.754181
Si Si6 0.932696 0.500883 0.105672
O O1 0.550757 0.413603 0.619420
O O2 0.465028 0.372918 0.458679
O O3 0.250000 0.356485 0.050741
O O4 0.166037 0.168815 0.116762
O O5 0.123739 0.415507 0.040846
O O6 0.179575 0.296084 0.864818
O O7 0.853166 0.426574 0.756357
O O8 0.903924 0.156425 0.650206
O O9 0.957697 0.275554 0.827487
O O10 0.925590 0.646556 0.792097
O O11 0.953017 0.898048 0.724967
O O12 0.000000 0.500000 0.035361
#
# Coordination Sequence:
#
# PCOD9379509 Si02
#       6
#     4   8   8   8   8   8
#     4  12  20  32  58  84 146 170 206 254 342 384
#     4  11  25  45  66  92 130 176 225 271 334 401
#     4  11  21  36  57 101 128 169 210 273 325 391
#     4  10  20  36  54  91 134 169 205 259 325 392
#     4  11  23  40  66  93 125 175 224 271 323 387
#     4   9  21  39  62  97 131 169 209 271 326 388
#
# _framework density 21.490978999999999
#
# number of rings (size 3 to 8) (size 9 to 14) (size 15 to 20)
#    0.000    1.455    4.545    1.636    7.636    0.000 
#    0.000    1.818    0.000    0.000    0.000    0.000 
#    0.000    0.000    0.000    0.000    0.000    0.000 
#
# Total GULP energy -122489.503854 kJ/mol
# GULP energy per Si atom -5567.704721 kJ/mol
# Density = 2.144206 g / cm^3
# Si number density = 21.490979 Si / 1000 Ang^3
#
#
#
# Elastic Constant Matrix: (Units=GPa)
#
#
# Indices 1 2 3 4 5 6 
#
# 1 84.8230 15.5154 10.3164 0.0000 0.0000 0.0000
# 2 15.5154 119.6433 38.1044 0.0000 0.0000 0.0000
# 3 10.3164 38.1044 95.7015 0.0000 0.0000 0.0000
# 4 0.0000 0.0000 0.0000 28.0005 0.0000 0.0000
# 5 0.0000 0.0000 0.0000 0.0000 12.7925 0.0000
# 6 0.0000 0.0000 0.0000 0.0000 0.0000 13.2097
#
#
#
# Elastic Compliance Matrix: (Units=1/GPa)
#
#
# Indices 1 2 3 4 5 6 
#
# 1 0.012126 -0.001324 -0.000780 0.000000 0.000000 0.000000
# 2 -0.001324 0.009717 -0.003726 0.000000 0.000000 0.000000
# 3 -0.000780 -0.003726 0.012017 0.000000 0.000000 0.000000
# 4 0.000000 0.000000 0.000000 0.035714 0.000000 0.000000
# 5 0.000000 0.000000 0.000000 0.000000 0.078171 0.000000
# 6 0.000000 0.000000 0.000000 0.000000 0.000000 0.075702
#
#
# Mechanical properties :
#
#
# Convention : Reuss Voigt Hill
#
# Bulk Modulus (GPa) = 45.04618 47.56002 46.30310
# Shear Modulus (GPa) = 20.61806 26.54933 23.58370
#
# Velocity S-wave (km/s) = 3.10075 3.51860 3.31626
# Velocity P-wave (km/s) = 5.81597 6.21978 6.02126
#
# Compressibility (1/GPa) = 0.02219944
#
# Stress axis : x y z
#
# Youngs Moduli (GPa) = 82.46527 102.91715 83.21704
#
# Poissons Ratio (x) = 0.13628 0.06491
# Poissons Ratio (y) = 0.10920 0.31007
# Poissons Ratio (z) = 0.06432 0.38347
#
# Static dielectric constant tensor:
#      x y z
#    x 1.829080 0.000000 0.000000 
#    y 0.000000 1.899200 0.000000 
#    z 0.000000 0.000000 1.904310 
# 
# From -- ./inp_files/12668.got.cif
#   From: 2010.05.17/outbox.cif.g08.bks.cpg/sg46_7_cif.got.tgz:12668.got - 2010.06.03 19:58:25.
