data_PCOD9379852
_publ_section_title
;
Structure prediction by ZEFSAII (Michael W. Deem and Ramdas Pophale) SiO2 
 PCOD9379852
Probable space group: I M A 2
;
_chemical_formula_sum "Si O2"
_cell_formula_units_Z 48
_cell_length_a 14.121290
_cell_length_b 7.961036
_cell_length_c 16.961994
_cell_angle_alpha 90.000000
_cell_angle_beta 90.000000
_cell_angle_gamma 90.000000
_cell_volume 1906.869029
_symmetry_space_group_name_H-M "I M A 2"
_symmetry_group_IT_number 46
_symmetry_cell_setting 'orthorhombic'
loop_
_space_group_symop_operation_xyz
x,y,z
-x,-y,z
1/2-x,y,z
1/2+x,-y,z
1/2+x,1/2+y,1/2+z
1/2-x,1/2-y,1/2+z
-x,1/2+y,1/2+z
x,1/2-y,1/2+z
loop_
_atom_site_type_symbol
_atom_site_label
_atom_site_fract_x
_atom_site_fract_y
_atom_site_fract_z
Si Si1 0.360090 0.534905 0.514920
Si Si2 0.864299 0.385309 0.080700
Si Si3 0.956325 0.166548 0.748056
Si Si4 0.358752 0.185570 0.479521
Si Si5 0.890530 0.451456 0.833713
Si Si6 0.646545 0.651005 0.683839
O O1 0.250000 0.561799 0.491406
O O2 0.398788 0.724290 0.528530
O O3 0.399399 0.373229 0.465855
O O4 0.364891 0.450271 0.602572
O O5 0.750000 0.384470 0.074640
O O6 0.892785 0.363936 0.171116
O O7 0.899315 0.566382 0.048408
O O8 0.896921 0.254296 0.818052
O O9 0.049957 0.257130 0.710123
O O10 0.000000 0.000000 0.782376
O O11 0.250000 0.220803 0.501042
O O12 0.353967 0.056556 0.406819
O O13 0.846394 0.517292 0.753682
O O14 0.000000 0.500000 0.834765
O O15 0.750000 0.742309 0.682006
#
# Coordination Sequence:
#
# PCOD9379852 Si02
#       6
#     8   8   8   8   8   8
#     4   9  18  35  62  90 120 162 213 266 322 388
#     4  10  21  39  64  95 129 170 220 273 332 402
#     4  11  23  39  63  95 132 169 224 274 333 407
#     4  10  21  38  61  92 128 168 217 271 327 391
#     4  10  22  40  59  85 126 170 214 266 332 394
#     4  10  20  39  64  89 121 167 219 270 330 395
#
# _framework density 25.172153999999999
#
# number of rings (size 3 to 8) (size 9 to 14) (size 15 to 20)
#    0.000    2.000    1.667    1.500    0.000    4.667 
#    6.000    0.000    0.000    0.000    0.000    0.000 
#    0.000    0.000    0.000    0.000    0.000    0.000 
#
# Total GULP energy -133790.489250 kJ/mol
# GULP energy per Si atom -5574.603719 kJ/mol
# Density = 2.511486 g / cm^3
# Si number density = 25.172154 Si / 1000 Ang^3
#
#
#
# Elastic Constant Matrix: (Units=GPa)
#
#
# Indices 1 2 3 4 5 6 
#
# 1 83.6727 -7.1493 -21.6184 0.0000 0.0000 0.0000
# 2 -7.1493 164.6492 25.4030 0.0000 0.0000 0.0000
# 3 -21.6184 25.4030 60.4430 0.0000 0.0000 0.0000
# 4 0.0000 0.0000 0.0000 33.9008 0.0000 0.0000
# 5 0.0000 0.0000 0.0000 0.0000 21.3042 0.0000
# 6 0.0000 0.0000 0.0000 0.0000 0.0000 37.0093
#
#
#
# Elastic Compliance Matrix: (Units=1/GPa)
#
#
# Indices 1 2 3 4 5 6 
#
# 1 0.013172 -0.000166 0.004781 0.000000 0.000000 0.000000
# 2 -0.000166 0.006497 -0.002790 0.000000 0.000000 0.000000
# 3 0.004781 -0.002790 0.019427 0.000000 0.000000 0.000000
# 4 0.000000 0.000000 0.000000 0.029498 0.000000 0.000000
# 5 0.000000 0.000000 0.000000 0.000000 0.046939 0.000000
# 6 0.000000 0.000000 0.000000 0.000000 0.000000 0.027020
#
#
# Mechanical properties :
#
#
# Convention : Reuss Voigt Hill
#
# Bulk Modulus (GPa) = 23.39331 33.55951 28.47641
# Shear Modulus (GPa) = 32.64745 39.25149 35.94947
#
# Velocity S-wave (km/s) = 3.60525 3.95311 3.78318
# Velocity P-wave (km/s) = 5.16178 5.84782 5.51548
#
# Compressibility (1/GPa) = 0.04274727
#
# Stress axis : x y z
#
# Youngs Moduli (GPa) = 75.91623 153.92350 51.47486
#
# Poissons Ratio (x) = 0.02550 -0.24610
# Poissons Ratio (y) = 0.01258 0.14360
# Poissons Ratio (z) = -0.36295 0.42940
#
# Static dielectric constant tensor:
#      x y z
#    x 2.034300 0.000000 0.000000 
#    y 0.000000 2.156300 0.000000 
#    z 0.000000 0.000000 1.990560 
# 
# From -- ./inp_files/19411.got.cif
#   From: 2010.05.17/outbox.cif.g08.bks.cpg/sg46_10_cif.got.tgz:19411.got - 2010.06.03 19:58:25.
