data_PCOD9379095
_publ_section_title
;
Structure prediction by ZEFSAII (Michael W. Deem and Ramdas Pophale) SiO2 
 PCOD9379095
Probable space group: I M A 2
;
_chemical_formula_sum "Si O2"
_cell_formula_units_Z 64
_cell_length_a 9.045711
_cell_length_b 31.440458
_cell_length_c 12.177653
_cell_angle_alpha 90.000000
_cell_angle_beta 90.000000
_cell_angle_gamma 90.000000
_cell_volume 3463.340305
_symmetry_space_group_name_H-M "I M A 2"
_symmetry_group_IT_number 46
_symmetry_cell_setting 'orthorhombic'
loop_
_space_group_symop_operation_xyz
x,y,z
-x,-y,z
1/2-x,y,z
1/2+x,-y,z
1/2+x,1/2+y,1/2+z
1/2-x,1/2-y,1/2+z
-x,1/2+y,1/2+z
x,1/2-y,1/2+z
loop_
_atom_site_type_symbol
_atom_site_label
_atom_site_fract_x
_atom_site_fract_y
_atom_site_fract_z
Si Si1 0.071376 0.874116 0.508920
Si Si2 0.076226 0.567483 0.400234
Si Si3 0.572282 0.204973 0.661073
Si Si4 0.571873 0.456319 0.153112
Si Si5 0.073504 0.295458 0.616444
Si Si6 0.571755 0.625794 0.770104
Si Si7 0.426545 0.456762 0.625888
Si Si8 0.422943 0.669458 0.401514
O O1 0.250000 0.874129 0.500719
O O2 0.027715 0.831258 0.573784
O O3 0.029008 0.915371 0.581077
O O4 0.001171 0.875702 0.389082
O O5 0.250000 0.556805 0.416488
O O6 0.029353 0.550983 0.280580
O O7 0.063494 0.618558 0.398464
O O8 0.983124 0.550219 0.501768
O O9 0.750000 0.209467 0.653948
O O10 0.497536 0.250004 0.640597
O O11 0.537506 0.188054 0.782838
O O12 0.500000 0.500000 0.113172
O O13 0.750000 0.459321 0.149922
O O14 0.250000 0.292279 0.619338
O O15 0.027681 0.331582 0.704365
O O16 0.020571 0.311475 0.497897
O O17 0.750000 0.625915 0.780517
O O18 0.530922 0.584480 0.697636
O O19 0.500000 0.500000 0.668855
O O20 0.250000 0.460521 0.626872
O O21 0.250000 0.679526 0.422820
#
# Coordination Sequence:
#
# PCOD9379095 Si02
#       8
#     8   8   8   8   8   8   8   8
#     4  10  22  41  63  85 115 154 199 244 288 343
#     4  10  19  36  62  90 121 153 190 238 292 348
#     4  10  22  41  63  90 119 154 199 246 291 345
#     4  10  21  38  59  88 120 152 190 238 291 346
#     4  11  24  41  60  88 124 157 194 244 296 352
#     4  10  24  43  59  82 120 157 193 241 295 348
#     4  11  23  40  60  86 119 155 196 243 291 347
#     4  10  20  38  65  91 119 155 197 243 291 348
#
# _framework density 18.47927
#
# number of rings (size 3 to 8) (size 9 to 14) (size 15 to 20)
#    0.000    1.750    2.500    1.125    1.750    5.500 
#    0.000    2.500    0.000    0.000    0.000    0.000 
#    0.000    0.000    0.000    0.000    0.000    0.000 
#
# Total GULP energy -178793.429960 kJ/mol
# GULP energy per Si atom -5587.294686 kJ/mol
# Density = 1.843721 g / cm^3
# Si number density = 18.479270 Si / 1000 Ang^3
#
#
#
# Elastic Constant Matrix: (Units=GPa)
#
#
# Indices 1 2 3 4 5 6 
#
# 1 27.7320 50.9024 46.7264 -0.0001 -0.0003 0.0000
# 2 50.9024 170.9688 84.8357 -0.0002 0.0000 0.0000
# 3 46.7264 84.8357 142.4901 -0.0232 -0.0020 0.0000
# 4 -0.0001 -0.0002 -0.0232 531.7946 -0.0075 -0.0011
# 5 -0.0003 0.0000 -0.0020 -0.0075 80.8458 -0.0001
# 6 0.0000 0.0000 0.0000 -0.0011 -0.0001 31.8625
#
#
#
# Elastic Compliance Matrix: (Units=1/GPa)
#
#
# Indices 1 2 3 4 5 6 
#
# 1 0.125219 -0.023994 -0.026777 -0.000001 0.000000 0.000000
# 2 -0.023994 0.012899 0.000188 0.000000 0.000000 0.000000
# 3 -0.026777 0.000188 0.015687 0.000001 0.000000 0.000000
# 4 -0.000001 0.000000 0.000001 0.001880 0.000000 0.000000
# 5 0.000000 0.000000 0.000000 0.000000 0.012369 0.000000
# 6 0.000000 0.000000 0.000000 0.000000 0.000000 0.031385
#
#
# Mechanical properties :
#
#
# Convention : Reuss Voigt Hill
#
# Bulk Modulus (GPa) = 18.99730 78.45778 48.72754
# Shear Modulus (GPa) = 15.71578 139.48235 77.59906
#
# Velocity S-wave (km/s) = 2.91942 8.69737 6.48719
# Velocity P-wave (km/s) = 4.65475 11.97533 9.08502
#
# Compressibility (1/GPa) = 0.05263906
#
# Stress axis : x y z
#
# Youngs Moduli (GPa) = 7.98602 77.52306 63.74817
#
# Poissons Ratio (x) = 1.86012 1.70698
# Poissons Ratio (y) = 0.19162 -0.01201
# Poissons Ratio (z) = 0.21384 -0.01461
#
# Static dielectric constant tensor:
#      x y z
#    x 1.613780 0.000000 0.000000 
#    y 0.000000 1.628850 0.000000 
#    z 0.000000 0.000000 1.605440 
# 
# From -- ./inp_files/9812.got.cif
#   From: 2010.05.17/outbox.cif.g08.bks.cpg/sg46_5_cif.got.tgz:9812.got - 2010.06.03 19:58:25.
