data_PCOD9379406
_publ_section_title
;
Structure prediction by ZEFSAII (Michael W. Deem and Ramdas Pophale) SiO2 
 PCOD9379406
Probable space group: I M A 2
;
_chemical_formula_sum "Si O2"
_cell_formula_units_Z 52
_cell_length_a 21.159224
_cell_length_b 14.107707
_cell_length_c 9.663097
_cell_angle_alpha 90.000000
_cell_angle_beta 90.000000
_cell_angle_gamma 90.000000
_cell_volume 2884.513040
_symmetry_space_group_name_H-M "I M A 2"
_symmetry_group_IT_number 46
_symmetry_cell_setting 'orthorhombic'
loop_
_space_group_symop_operation_xyz
x,y,z
-x,-y,z
1/2-x,y,z
1/2+x,-y,z
1/2+x,1/2+y,1/2+z
1/2-x,1/2-y,1/2+z
-x,1/2+y,1/2+z
x,1/2-y,1/2+z
loop_
_atom_site_type_symbol
_atom_site_label
_atom_site_fract_x
_atom_site_fract_y
_atom_site_fract_z
Si Si1 0.457959 0.645103 0.746670
Si Si2 0.250000 0.263866 0.098642
Si Si3 0.250000 0.375207 0.361775
Si Si4 0.096044 0.051430 0.208180
Si Si5 0.483058 0.824975 0.559078
Si Si6 0.876441 0.816708 0.448172
Si Si7 0.000000 0.500000 0.238519
Si Si8 0.615279 0.899025 0.892306
O O1 0.525844 0.594403 0.728826
O O2 0.407993 0.562032 0.717053
O O3 0.460576 0.734317 0.645113
O O4 0.454323 0.676379 0.905903
O O5 0.250000 0.281638 0.262619
O O6 0.250000 0.162601 0.020428
O O7 0.314623 0.309891 0.042182
O O8 0.184229 0.428147 0.335604
O O9 0.132250 0.102242 0.333367
O O10 0.116274 0.082375 0.056310
O O11 0.559397 0.829324 0.536800
O O12 0.468200 0.920582 0.641995
O O13 0.887831 0.714810 0.374334
O O14 0.945678 0.550060 0.329398
#
# Coordination Sequence:
#
# PCOD9379406 Si02
#       8
#     8   4   4   8   8   8   4   8
#     4  10  21  35  52  80 114 152 187 238 286 345
#     4  10  22  34  56  78 115 156 191 223 279 358
#     4  10  24  36  52  84 117 156 193 225 287 350
#     4  10  20  35  53  79 114 153 192 230 285 340
#     4  11  21  34  55  80 119 148 190 237 295 339
#     4  10  21  36  55  81 116 155 186 230 283 351
#     4  12  22  34  56  86 110 156 194 246 292 346
#     4  11  23  34  58  83 120 151 193 236 287 346
#
# _framework density 18.027307
#
# number of rings (size 3 to 8) (size 9 to 14) (size 15 to 20)
#    0.000    1.538    1.538    5.538   10.769    0.000 
#    0.000    0.000    0.000    0.000    0.000    2.154 
#    0.000    0.000    0.000    0.000    0.000    0.000 
#
# Total GULP energy -145081.861861 kJ/mol
# GULP energy per Si atom -5580.071610 kJ/mol
# Density = 1.798628 g / cm^3
# Si number density = 18.027307 Si / 1000 Ang^3
#
#
#
# Elastic Constant Matrix: (Units=GPa)
#
#
# Indices 1 2 3 4 5 6 
#
# 1 60.6701 12.1561 21.8672 0.0000 0.0000 0.0000
# 2 12.1561 108.1939 51.9582 0.0000 0.0000 0.0000
# 3 21.8672 51.9582 105.4040 0.0000 0.0000 0.0000
# 4 0.0000 0.0000 0.0000 20.1038 0.0000 0.0000
# 5 0.0000 0.0000 0.0000 0.0000 12.5779 0.0000
# 6 0.0000 0.0000 0.0000 0.0000 0.0000 11.8661
#
#
#
# Elastic Compliance Matrix: (Units=1/GPa)
#
#
# Indices 1 2 3 4 5 6 
#
# 1 0.017822 -0.000297 -0.003551 0.000000 0.000000 0.000000
# 2 -0.000297 0.012114 -0.005910 0.000000 0.000000 0.000000
# 3 -0.003551 -0.005910 0.013137 0.000000 0.000000 0.000000
# 4 0.000000 0.000000 0.000000 0.049742 0.000000 0.000000
# 5 0.000000 0.000000 0.000000 0.000000 0.079504 0.000000
# 6 0.000000 0.000000 0.000000 0.000000 0.000000 0.084274
#
#
# Mechanical properties :
#
#
# Convention : Reuss Voigt Hill
#
# Bulk Modulus (GPa) = 42.44945 49.58121 46.01533
# Shear Modulus (GPa) = 17.60801 21.46200 19.53501
#
# Velocity S-wave (km/s) = 3.12868 3.45415 3.29543
# Velocity P-wave (km/s) = 6.05392 6.59327 6.32934
#
# Compressibility (1/GPa) = 0.02355743
#
# Stress axis : x y z
#
# Youngs Moduli (GPa) = 56.11059 82.54767 76.11938
#
# Poissons Ratio (x) = 0.02453 0.27029
# Poissons Ratio (y) = 0.01667 0.44986
# Poissons Ratio (z) = 0.19924 0.48785
#
# Static dielectric constant tensor:
#      x y z
#    x 1.647820 0.000000 0.000000 
#    y 0.000000 1.633260 0.000000 
#    z 0.000000 0.000000 1.665500 
# 
# From -- ./inp_files/7376.got.cif
#   From: 2010.05.17/outbox.cif.g08.bks.cpg/sg46_4_cif.got.tgz:7376.got - 2010.06.03 19:58:25.
