data_PCOD9379486
_publ_section_title
;
Structure prediction by ZEFSAII (Michael W. Deem and Ramdas Pophale) SiO2 
 PCOD9379486
Probable space group: I M A 2
;
_chemical_formula_sum "Si O2"
_cell_formula_units_Z 60
_cell_length_a 14.798240
_cell_length_b 11.482350
_cell_length_c 20.193372
_cell_angle_alpha 90.000000
_cell_angle_beta 90.000000
_cell_angle_gamma 90.000000
_cell_volume 3431.228915
_symmetry_space_group_name_H-M "I M A 2"
_symmetry_group_IT_number 46
_symmetry_cell_setting 'orthorhombic'
loop_
_space_group_symop_operation_xyz
x,y,z
-x,-y,z
1/2-x,y,z
1/2+x,-y,z
1/2+x,1/2+y,1/2+z
1/2-x,1/2-y,1/2+z
-x,1/2+y,1/2+z
x,1/2-y,1/2+z
loop_
_atom_site_type_symbol
_atom_site_label
_atom_site_fract_x
_atom_site_fract_y
_atom_site_fract_z
Si Si1 0.143348 0.929400 0.983390
Si Si2 0.647702 0.855142 0.407102
Si Si3 0.966047 0.223892 0.245415
Si Si4 0.000000 0.000000 0.334823
Si Si5 0.641794 0.408021 0.332557
Si Si6 0.852846 0.828123 0.787473
Si Si7 0.023272 0.634449 0.607012
Si Si8 0.145240 0.304757 0.529854
O O1 0.250000 0.901833 0.989044
O O2 0.111595 0.898102 0.909362
O O3 0.086550 0.870614 0.042084
O O4 0.135075 0.069103 0.993823
O O5 0.750000 0.900797 0.408675
O O6 0.579095 0.950633 0.380951
O O7 0.645792 0.749462 0.354146
O O8 0.626890 0.797075 0.477440
O O9 0.907252 0.317116 0.285293
O O10 0.935104 0.195179 0.171195
O O11 0.068416 0.273795 0.243201
O O12 0.967960 0.105474 0.288118
O O13 0.750000 0.390166 0.331898
O O14 0.625854 0.539332 0.307209
O O15 0.750000 0.822446 0.760846
O O16 0.000000 0.500000 0.624124
O O17 0.929143 0.694047 0.586616
O O18 0.250000 0.297256 0.551484
#
# Coordination Sequence:
#
# PCOD9379486 Si02
#       8
#     8   8   8   4   8   8   8   8
#     4   9  18  33  55  84 110 132 173 230 282 322
#     4   9  17  33  56  81 108 138 177 229 273 313
#     4  11  22  35  52  79 116 152 181 213 265 333
#     4  10  22  34  50  76 118 152 184 210 256 332
#     4  10  20  35  59  87 108 134 181 235 281 320
#     4   9  18  33  56  83 108 134 179 235 276 311
#     4  10  21  34  51  79 113 147 178 221 269 325
#     4   9  17  32  58  83 103 132 178 232 279 314
#
# _framework density 17.486446000000001
#
# number of rings (size 3 to 8) (size 9 to 14) (size 15 to 20)
#    0.000    2.400    2.000    0.400    3.733    2.667 
#    0.000    0.000    2.933    0.000    0.000    0.000 
#    0.000    0.000    0.000    0.000    0.000    0.000 
#
# Total GULP energy -167314.175933 kJ/mol
# GULP energy per Si atom -5577.139198 kJ/mol
# Density = 1.744665 g / cm^3
# Si number density = 17.486446 Si / 1000 Ang^3
#
#
#
# Elastic Constant Matrix: (Units=GPa)
#
#
# Indices 1 2 3 4 5 6 
#
# 1 64.3591 56.6916 51.4796 0.0000 0.0000 0.0000
# 2 56.6916 88.6303 48.4662 0.0000 0.0000 0.0000
# 3 51.4796 48.4662 97.2291 0.0000 0.0000 0.0000
# 4 0.0000 0.0000 0.0000 16.1595 0.0000 0.0000
# 5 0.0000 0.0000 0.0000 0.0000 16.5260 0.0000
# 6 0.0000 0.0000 0.0000 0.0000 0.0000 27.1147
#
#
#
# Elastic Compliance Matrix: (Units=1/GPa)
#
#
# Indices 1 2 3 4 5 6 
#
# 1 0.045112 -0.021713 -0.013062 0.000000 0.000000 0.000000
# 2 -0.021713 0.025961 -0.001445 0.000000 0.000000 0.000000
# 3 -0.013062 -0.001445 0.017921 0.000000 0.000000 0.000000
# 4 0.000000 0.000000 0.000000 0.061883 0.000000 0.000000
# 5 0.000000 0.000000 0.000000 0.000000 0.060511 0.000000
# 6 0.000000 0.000000 0.000000 0.000000 0.000000 0.036880
#
#
# Mechanical properties :
#
#
# Convention : Reuss Voigt Hill
#
# Bulk Modulus (GPa) = 60.40438 62.61040 61.50739
# Shear Modulus (GPa) = 15.32683 18.19877 16.76280
#
# Velocity S-wave (km/s) = 2.96378 3.22954 3.09951
# Velocity P-wave (km/s) = 6.80665 7.05616 6.93253
#
# Compressibility (1/GPa) = 0.01655509
#
# Stress axis : x y z
#
# Youngs Moduli (GPa) = 22.16723 38.51906 55.79996
#
# Poissons Ratio (x) = 0.83635 0.72886
# Poissons Ratio (y) = 0.48131 0.08063
# Poissons Ratio (z) = 0.28955 0.05566
#
# Static dielectric constant tensor:
#      x y z
#    x 1.621060 0.000000 0.000000 
#    y 0.000000 1.570570 0.000000 
#    z 0.000000 0.000000 1.583200 
# 
# From -- ./inp_files/22114.got.cif
#   From: 2010.05.17/outbox.cif.g08.bks.cpg/sg46_12_cif.got.tgz:22114.got - 2010.06.03 19:58:25.
