data_PCOD9379799
_publ_section_title
;
Structure prediction by ZEFSAII (Michael W. Deem and Ramdas Pophale) SiO2 
 PCOD9379799
Probable space group: I M A 2
;
_chemical_formula_sum "Si O2"
_cell_formula_units_Z 48
_cell_length_a 8.436514
_cell_length_b 23.535823
_cell_length_c 11.909876
_cell_angle_alpha 90.000000
_cell_angle_beta 90.000000
_cell_angle_gamma 90.000000
_cell_volume 2364.828554
_symmetry_space_group_name_H-M "I M A 2"
_symmetry_group_IT_number 46
_symmetry_cell_setting 'orthorhombic'
loop_
_space_group_symop_operation_xyz
x,y,z
-x,-y,z
1/2-x,y,z
1/2+x,-y,z
1/2+x,1/2+y,1/2+z
1/2-x,1/2-y,1/2+z
-x,1/2+y,1/2+z
x,1/2-y,1/2+z
loop_
_atom_site_type_symbol
_atom_site_label
_atom_site_fract_x
_atom_site_fract_y
_atom_site_fract_z
Si Si1 0.443062 0.265686 0.177780
Si Si2 0.940626 0.858439 0.127052
Si Si3 0.558591 0.856353 0.865247
Si Si4 0.436360 0.936606 0.310216
Si Si5 0.563657 0.063088 0.689769
Si Si6 0.934512 0.855487 0.502661
O O1 0.250000 0.265801 0.173116
O O2 0.495502 0.200775 0.183023
O O3 0.487022 0.302476 0.287141
O O4 0.495947 0.297632 0.062561
O O5 0.750000 0.861602 0.137347
O O6 0.009745 0.912941 0.189448
O O7 0.979071 0.852440 0.995854
O O8 0.750000 0.862908 0.854836
O O9 0.470506 0.909552 0.810292
O O10 0.250000 0.940651 0.315555
O O11 0.490512 0.887699 0.397515
O O12 0.500000 0.000000 0.335327
O O13 0.750000 0.066552 0.661445
O O14 0.460294 0.100140 0.603807
O O15 0.500000 0.000000 0.684926
O O16 0.750000 0.846536 0.475981
#
# Coordination Sequence:
#
# PCOD9379799 Si02
#       6
#     8   8   8   8   8   8
#     4   8  17  34  62  93 119 151 197 245 295 357
#     4  10  21  38  63  90 119 159 203 249 298 359
#     4   9  19  36  57  86 119 152 198 245 291 352
#     4  12  26  43  61  87 123 165 209 255 307 368
#     4  11  21  35  57  84 117 154 195 243 298 353
#     4  10  20  38  64  92 121 155 199 249 297 357
#
# _framework density 20.297453999999998
#
# number of rings (size 3 to 8) (size 9 to 14) (size 15 to 20)
#    0.000    2.000    0.000    5.000    2.333    1.333 
#    0.000    4.167    0.000    0.000    0.000    0.000 
#    0.000    0.000    0.000    0.000    0.000    0.000 
#
# Total GULP energy -133945.149968 kJ/mol
# GULP energy per Si atom -5581.047915 kJ/mol
# Density = 2.025126 g / cm^3
# Si number density = 20.297454 Si / 1000 Ang^3
#
#
#
# Elastic Constant Matrix: (Units=GPa)
#
#
# Indices 1 2 3 4 5 6 
#
# 1 29.8154 -1.5977 19.5169 0.0000 0.0000 0.0000
# 2 -1.5977 61.7766 7.6611 0.0000 0.0000 0.0000
# 3 19.5169 7.6611 79.1028 0.0001 0.0000 -0.0001
# 4 0.0000 0.0000 0.0001 12.2997 0.0000 0.0000
# 5 0.0000 0.0000 0.0000 0.0000 25.8947 0.0000
# 6 0.0000 0.0000 -0.0001 0.0000 0.0000 8.0634
#
#
#
# Elastic Compliance Matrix: (Units=1/GPa)
#
#
# Indices 1 2 3 4 5 6 
#
# 1 0.040321 0.002304 -0.010172 0.000000 0.000000 0.000000
# 2 0.002304 0.016516 -0.002168 0.000000 0.000000 0.000000
# 3 -0.010172 -0.002168 0.015361 0.000000 0.000000 0.000000
# 4 0.000000 0.000000 0.000000 0.081303 0.000000 0.000000
# 5 0.000000 0.000000 0.000000 0.000000 0.038618 0.000000
# 6 0.000000 0.000000 0.000000 0.000000 0.000000 0.124018
#
#
# Mechanical properties :
#
#
# Convention : Reuss Voigt Hill
#
# Bulk Modulus (GPa) = 19.18365 24.65062 21.91713
# Shear Modulus (GPa) = 14.14089 18.92583 16.53336
#
# Velocity S-wave (km/s) = 2.64234 3.05687 2.85713
# Velocity P-wave (km/s) = 4.33371 4.96290 4.65894
#
# Compressibility (1/GPa) = 0.05212772
#
# Stress axis : x y z
#
# Youngs Moduli (GPa) = 24.80067 60.54803 65.09825
#
# Poissons Ratio (x) = -0.13952 0.66216
# Poissons Ratio (y) = -0.05715 0.14114
# Poissons Ratio (z) = 0.25226 0.13127
#
# Static dielectric constant tensor:
#      x y z
#    x 1.703480 0.000000 0.000000 
#    y 0.000000 1.739310 0.000000 
#    z 0.000000 0.000000 1.745980 
# 
# From -- ./inp_files/9307.got.cif
#   From: 2010.05.17/outbox.cif.g08.bks.cpg/sg46_5_cif.got.tgz:9307.got - 2010.06.03 19:58:25.
