data_PCOD9379795
_publ_section_title
;
Structure prediction by ZEFSAII (Michael W. Deem and Ramdas Pophale) SiO2 
 PCOD9379795
Probable space group: I M A 2
;
_chemical_formula_sum "Si O2"
_cell_formula_units_Z 44
_cell_length_a 10.057855
_cell_length_b 16.810940
_cell_length_c 13.863475
_cell_angle_alpha 90.000000
_cell_angle_beta 90.000000
_cell_angle_gamma 90.000000
_cell_volume 2344.064037
_symmetry_space_group_name_H-M "I M A 2"
_symmetry_group_IT_number 46
_symmetry_cell_setting 'orthorhombic'
loop_
_space_group_symop_operation_xyz
x,y,z
-x,-y,z
1/2-x,y,z
1/2+x,-y,z
1/2+x,1/2+y,1/2+z
1/2-x,1/2-y,1/2+z
-x,1/2+y,1/2+z
x,1/2-y,1/2+z
loop_
_atom_site_type_symbol
_atom_site_label
_atom_site_fract_x
_atom_site_fract_y
_atom_site_fract_z
Si Si1 0.900163 0.144484 0.227600
Si Si2 0.000000 0.500000 0.857208
Si Si3 0.906623 0.265180 0.541063
Si Si4 0.602068 0.310616 0.328861
Si Si5 0.403374 0.429206 0.237575
Si Si6 0.896767 0.617129 0.017685
O O1 0.750000 0.126168 0.197445
O O2 0.961894 0.183195 0.130788
O O3 0.900255 0.217644 0.302294
O O4 0.947505 0.067507 0.284490
O O5 0.913676 0.552795 0.932495
O O6 0.750000 0.244129 0.559493
O O7 0.910221 0.316323 0.443514
O O8 0.991070 0.185297 0.522588
O O9 0.750000 0.340572 0.298485
O O10 0.480408 0.351891 0.275649
O O11 0.500000 0.500000 0.269833
O O12 0.250000 0.435070 0.270102
O O13 0.401409 0.425754 0.121431
O O14 0.750000 0.654543 0.007747
#
# Coordination Sequence:
#
# PCOD9379795 Si02
#       6
#     8   4   8   8   8   8
#     4  10  21  38  62  91 122 164 211 256 313 376
#     4  12  22  40  60  92 132 168 208 264 320 380
#     4  10  21  40  64  86 119 163 207 250 306 382
#     4  10  20  38  64  89 117 162 211 257 311 377
#     4  11  23  39  60  90 123 156 201 261 318 375
#     4  11  23  36  59  93 123 154 199 256 313 366
#
# _framework density 18.770817999999998
#
# number of rings (size 3 to 8) (size 9 to 14) (size 15 to 20)
#    0.000    1.455    4.545    1.091    0.000    2.182 
#    1.636    1.818    0.000    0.000    0.000    0.000 
#    0.000    0.000    0.000    0.000    0.000    0.000 
#
# Total GULP energy -122514.659365 kJ/mol
# GULP energy per Si atom -5568.848153 kJ/mol
# Density = 1.872809 g / cm^3
# Si number density = 18.770818 Si / 1000 Ang^3
#
#
#
# Elastic Constant Matrix: (Units=GPa)
#
#
# Indices 1 2 3 4 5 6 
#
# 1 128.8193 60.6762 26.1417 0.0000 0.0000 0.0000
# 2 60.6762 96.0744 26.0956 0.0000 0.0000 0.0000
# 3 26.1417 26.0956 103.7007 0.0000 0.0000 0.0000
# 4 0.0000 0.0000 0.0000 33.2292 0.0000 0.0000
# 5 0.0000 0.0000 0.0000 0.0000 15.7821 0.0000
# 6 0.0000 0.0000 0.0000 0.0000 0.0000 23.0374
#
#
#
# Elastic Compliance Matrix: (Units=1/GPa)
#
#
# Indices 1 2 3 4 5 6 
#
# 1 0.011169 -0.006751 -0.001117 0.000000 0.000000 0.000000
# 2 -0.006751 0.015252 -0.002136 0.000000 0.000000 0.000000
# 3 -0.001117 -0.002136 0.010462 0.000000 0.000000 0.000000
# 4 0.000000 0.000000 0.000000 0.030094 0.000000 0.000000
# 5 0.000000 0.000000 0.000000 0.000000 0.063363 0.000000
# 6 0.000000 0.000000 0.000000 0.000000 0.000000 0.043408
#
#
# Mechanical properties :
#
#
# Convention : Reuss Voigt Hill
#
# Bulk Modulus (GPa) = 59.25569 61.60239 60.42904
# Shear Modulus (GPa) = 25.07759 28.78846 26.93302
#
# Velocity S-wave (km/s) = 3.65908 3.92047 3.79203
# Velocity P-wave (km/s) = 7.03480 7.30636 7.17186
#
# Compressibility (1/GPa) = 0.01687602
#
# Stress axis : x y z
#
# Youngs Moduli (GPa) = 89.53290 65.56426 95.58132
#
# Poissons Ratio (x) = 0.44259 0.10675
# Poissons Ratio (y) = 0.60439 0.20420
# Poissons Ratio (z) = 0.10000 0.14007
#
# Static dielectric constant tensor:
#      x y z
#    x 1.681270 0.000000 0.000000 
#    y 0.000000 1.661760 0.000000 
#    z 0.000000 0.000000 1.695720 
# 
# From -- ./inp_files/13807.got.cif
#   From: 2010.05.17/outbox.cif.g08.bks.cpg/sg46_7_cif.got.tgz:13807.got - 2010.06.03 19:58:25.
