data_PCOD9379982
_publ_section_title
;
Structure prediction by ZEFSAII (Michael W. Deem and Ramdas Pophale) SiO2 
 PCOD9379982
Probable space group: I M A 2
;
_chemical_formula_sum "Si O2"
_cell_formula_units_Z 60
_cell_length_a 24.570909
_cell_length_b 6.837083
_cell_length_c 15.338904
_cell_angle_alpha 90.000000
_cell_angle_beta 90.000000
_cell_angle_gamma 90.000000
_cell_volume 2576.833780
_symmetry_space_group_name_H-M "I M A 2"
_symmetry_group_IT_number 46
_symmetry_cell_setting 'orthorhombic'
loop_
_space_group_symop_operation_xyz
x,y,z
-x,-y,z
1/2-x,y,z
1/2+x,-y,z
1/2+x,1/2+y,1/2+z
1/2-x,1/2-y,1/2+z
-x,1/2+y,1/2+z
x,1/2-y,1/2+z
loop_
_atom_site_type_symbol
_atom_site_label
_atom_site_fract_x
_atom_site_fract_y
_atom_site_fract_z
Si Si1 0.336777 0.277892 0.899120
Si Si2 0.813135 0.265237 0.935300
Si Si3 0.332335 0.348975 0.705871
Si Si4 0.117392 0.672880 0.093721
Si Si5 0.813729 0.188280 0.749652
Si Si6 0.948824 0.640632 0.984399
Si Si7 0.250000 0.175026 0.043542
Si Si8 0.446225 0.058398 0.137867
O O1 0.319548 0.503158 0.918512
O O2 0.321689 0.243288 0.798076
O O3 0.402380 0.276839 0.917523
O O4 0.298782 0.165611 0.967836
O O5 0.750000 0.224502 0.943729
O O6 0.835442 0.166726 0.847970
O O7 0.840636 0.229890 0.026592
O O8 0.318821 0.579413 0.725977
O O9 0.296986 0.300049 0.621275
O O10 0.396671 0.336261 0.685956
O O11 0.150105 0.591237 0.175812
O O12 0.085241 0.507830 0.044058
O O13 0.078102 0.847149 0.117296
O O14 0.750000 0.139656 0.744655
O O15 0.962679 0.817564 0.051400
O O16 0.000000 0.500000 0.954034
O O17 0.500000 0.000000 0.191076
#
# Coordination Sequence:
#
# PCOD9379982 Si02
#       8
#     8   8   8   8   8   8   4   8
#     4  10  21  36  60  94 129 171 219 265 327 401
#     4   9  17  33  57  86 122 162 205 251 309 384
#     4  10  21  36  60  94 129 171 219 265 327 401
#     4  10  21  35  62  86 121 161 206 258 318 378
#     4   9  17  33  57  86 122 162 205 251 309 384
#     4  11  22  41  65  91 124 168 223 272 325 383
#     4  12  18  34  64  96 134 166 208 272 330 392
#     4  11  22  41  65  91 124 168 223 272 325 383
#
# _framework density 23.284389000000001
#
# number of rings (size 3 to 8) (size 9 to 14) (size 15 to 20)
#    0.000    1.867    4.000    0.800    0.000    0.533 
#    0.000    1.333    0.000    1.600    0.000    0.000 
#    0.000    0.000    0.000    0.000    0.000    0.000 
#
# Total GULP energy -167073.597996 kJ/mol
# GULP energy per Si atom -5569.119933 kJ/mol
# Density = 2.323139 g / cm^3
# Si number density = 23.284389 Si / 1000 Ang^3
#
#
#
# Elastic Constant Matrix: (Units=GPa)
#
#
# Indices 1 2 3 4 5 6 
#
# 1 149.8582 6.2078 83.0978 0.0000 0.0000 0.0000
# 2 6.2078 57.2061 6.3285 0.0000 0.0000 0.0000
# 3 83.0978 6.3285 167.0234 0.0000 0.0000 0.0000
# 4 0.0000 0.0000 0.0000 -95.8130 0.0000 0.0000
# 5 0.0000 0.0000 0.0000 0.0000 22.0034 0.0000
# 6 0.0000 0.0000 0.0000 0.0000 0.0000 65.7742
#
#
#
# Elastic Compliance Matrix: (Units=1/GPa)
#
#
# Indices 1 2 3 4 5 6 
#
# 1 0.009229 -0.000496 -0.004573 0.000000 0.000000 0.000000
# 2 -0.000496 0.017581 -0.000420 0.000000 0.000000 0.000000
# 3 -0.004573 -0.000420 0.008278 0.000000 0.000000 0.000000
# 4 0.000000 0.000000 0.000000 -0.010437 0.000000 0.000000
# 5 0.000000 0.000000 0.000000 0.000000 0.045448 0.000000
# 6 0.000000 0.000000 0.000000 0.000000 0.000000 0.015204
#
#
# Mechanical properties :
#
#
# Convention : Reuss Voigt Hill
#
# Bulk Modulus (GPa) = 41.47310 62.81733 52.14522
# Shear Modulus (GPa) = 47.93121 16.95647 32.44384
#
# Velocity S-wave (km/s) = 4.54201 2.70151 3.73684
# Velocity P-wave (km/s) = 6.73473 6.06364 6.40798
#
# Compressibility (1/GPa) = 0.02411202
#
# Stress axis : x y z
#
# Youngs Moduli (GPa) = 108.35096 56.88009 120.79857
#
# Poissons Ratio (x) = 0.02819 0.55241
# Poissons Ratio (y) = 0.05370 0.05068
# Poissons Ratio (z) = 0.49549 0.02386
#
# Static dielectric constant tensor:
#      x y z
#    x 1.745040 0.000000 0.000000 
#    y 0.000000 2.041280 0.000000 
#    z 0.000000 0.000000 1.893400 
# 
# From -- ./inp_files/17357.got.cif
#   From: 2010.05.17/outbox.cif.g08.bks.cpg/sg46_9_cif.got.tgz:17357.got - 2010.06.03 19:58:25.
