data_PCOD9379881
_publ_section_title
;
Structure prediction by ZEFSAII (Michael W. Deem and Ramdas Pophale) SiO2 
 PCOD9379881
Probable space group: I M A 2
;
_chemical_formula_sum "Si O2"
_cell_formula_units_Z 60
_cell_length_a 19.366476
_cell_length_b 12.943170
_cell_length_c 10.716833
_cell_angle_alpha 90.000000
_cell_angle_beta 90.000000
_cell_angle_gamma 90.000000
_cell_volume 2686.319846
_symmetry_space_group_name_H-M "I M A 2"
_symmetry_group_IT_number 46
_symmetry_cell_setting 'orthorhombic'
loop_
_space_group_symop_operation_xyz
x,y,z
-x,-y,z
1/2-x,y,z
1/2+x,-y,z
1/2+x,1/2+y,1/2+z
1/2-x,1/2-y,1/2+z
-x,1/2+y,1/2+z
x,1/2-y,1/2+z
loop_
_atom_site_type_symbol
_atom_site_label
_atom_site_fract_x
_atom_site_fract_y
_atom_site_fract_z
Si Si1 0.672291 0.874622 0.531110
Si Si2 0.079322 0.977320 0.913770
Si Si3 0.453770 0.663543 0.789477
Si Si4 0.000000 0.000000 0.433790
Si Si5 0.090391 0.725029 0.537398
Si Si6 0.167702 0.354074 0.524989
Si Si7 0.889067 0.430251 0.135625
Si Si8 0.829411 0.504747 0.769144
O O1 0.750000 0.845559 0.558599
O O2 0.637521 0.762378 0.535647
O O3 0.667688 0.927989 0.395859
O O4 0.656039 0.967490 0.624587
O O5 0.080669 0.933778 0.773445
O O6 0.114130 0.890255 0.002827
O O7 0.000000 0.000000 0.951719
O O8 0.123220 0.081099 0.926344
O O9 0.515960 0.592507 0.838466
O O10 0.462206 0.712789 0.653883
O O11 0.386474 0.586744 0.777726
O O12 0.439437 0.738976 0.904730
O O13 0.054568 0.953667 0.529175
O O14 0.138738 0.817396 0.592522
O O15 0.250000 0.355935 0.491997
O O16 0.160351 0.417050 0.654306
O O17 0.750000 0.463163 0.760889
#
# Coordination Sequence:
#
# PCOD9379881 Si02
#       8
#     8   8   8   4   8   8   8   8
#     4  10  22  42  68  96 128 172 229 282 342 416
#     4  12  26  44  65 100 138 176 233 285 345 415
#     4  11  22  42  65  92 127 173 218 269 329 410
#     4  10  22  40  62  86 130 174 216 260 342 400
#     4  11  23  42  66  93 133 172 216 277 336 410
#     4  10  24  43  65  97 135 176 227 289 343 407
#     4  11  23  44  64  95 133 173 216 282 345 408
#     4  10  20  40  64  89 126 169 219 272 330 405
#
# _framework density 22.33539
#
# number of rings (size 3 to 8) (size 9 to 14) (size 15 to 20)
#    0.000    1.333    6.000    0.000    2.800    2.667 
#    0.000    2.667    0.000    0.000    0.000    0.000 
#    0.000    0.000    0.000    0.000    0.000    0.000 
#
# Total GULP energy -167082.066154 kJ/mol
# GULP energy per Si atom -5569.402205 kJ/mol
# Density = 2.228455 g / cm^3
# Si number density = 22.335390 Si / 1000 Ang^3
#
#
#
# Elastic Constant Matrix: (Units=GPa)
#
#
# Indices 1 2 3 4 5 6 
#
# 1 59.0814 28.0324 4.0686 0.0000 0.0000 0.0000
# 2 28.0324 149.0987 36.8190 0.0000 0.0000 0.0000
# 3 4.0686 36.8190 113.4524 0.0000 0.0000 0.0000
# 4 0.0000 0.0000 0.0000 24.8302 0.0000 0.0000
# 5 0.0000 0.0000 0.0000 0.0000 6.0268 0.0000
# 6 0.0000 0.0000 0.0000 0.0000 0.0000 22.2796
#
#
#
# Elastic Compliance Matrix: (Units=1/GPa)
#
#
# Indices 1 2 3 4 5 6 
#
# 1 0.018611 -0.003625 0.000509 0.000000 0.000000 0.000000
# 2 -0.003625 0.007997 -0.002465 0.000000 0.000000 0.000000
# 3 0.000509 -0.002465 0.009596 0.000000 0.000000 0.000000
# 4 0.000000 0.000000 0.000000 0.040274 0.000000 0.000000
# 5 0.000000 0.000000 0.000000 0.000000 0.165926 0.000000
# 6 0.000000 0.000000 0.000000 0.000000 0.000000 0.044884
#
#
# Mechanical properties :
#
#
# Convention : Reuss Voigt Hill
#
# Bulk Modulus (GPa) = 39.93347 51.05248 45.49297
# Shear Modulus (GPa) = 16.29743 27.47483 21.88613
#
# Velocity S-wave (km/s) = 2.70417 3.51109 3.13371
# Velocity P-wave (km/s) = 5.26002 6.27246 5.78842
#
# Compressibility (1/GPa) = 0.02504165
#
# Stress axis : x y z
#
# Youngs Moduli (GPa) = 53.73292 125.04276 104.20883
#
# Poissons Ratio (x) = 0.45324 -0.05303
# Poissons Ratio (y) = 0.19477 0.25691
# Poissons Ratio (z) = -0.02735 0.30828
#
# Static dielectric constant tensor:
#      x y z
#    x 1.901240 0.000000 0.000000 
#    y 0.000000 2.000760 0.000000 
#    z 0.000000 0.000000 1.816900 
# 
# From -- ./inp_files/12470.got.cif
#   From: 2010.05.17/outbox.cif.g08.bks.cpg/sg46_7_cif.got.tgz:12470.got - 2010.06.03 19:58:25.
