data_PCOD9379626
_publ_section_title
;
Structure prediction by ZEFSAII (Michael W. Deem and Ramdas Pophale) SiO2 
 PCOD9379626
Probable space group: I M A 2
;
_chemical_formula_sum "Si O2"
_cell_formula_units_Z 64
_cell_length_a 8.122164
_cell_length_b 16.939774
_cell_length_c 23.242987
_cell_angle_alpha 90.000000
_cell_angle_beta 90.000000
_cell_angle_gamma 90.000000
_cell_volume 3197.947322
_symmetry_space_group_name_H-M "I M A 2"
_symmetry_group_IT_number 46
_symmetry_cell_setting 'orthorhombic'
loop_
_space_group_symop_operation_xyz
x,y,z
-x,-y,z
1/2-x,y,z
1/2+x,-y,z
1/2+x,1/2+y,1/2+z
1/2-x,1/2-y,1/2+z
-x,1/2+y,1/2+z
x,1/2-y,1/2+z
loop_
_atom_site_type_symbol
_atom_site_label
_atom_site_fract_x
_atom_site_fract_y
_atom_site_fract_z
Si Si1 0.948368 0.415911 0.270800
Si Si2 0.556240 0.293773 0.360157
Si Si3 0.448102 0.581567 0.945538
Si Si4 0.548417 0.246933 0.984026
Si Si5 0.551817 0.233198 0.109462
Si Si6 0.442365 0.088012 0.190036
Si Si7 0.448939 0.912402 0.638671
Si Si8 0.558361 0.114280 0.319541
O O1 0.750000 0.408688 0.267714
O O2 0.018866 0.351420 0.313635
O O3 0.006407 0.410782 0.205263
O O4 0.000000 0.500000 0.294190
O O5 0.750000 0.314443 0.366283
O O6 0.488339 0.292249 0.424794
O O7 0.552565 0.207363 0.332342
O O8 0.500000 0.500000 0.973652
O O9 0.250000 0.584963 0.941695
O O10 0.499811 0.660777 0.978022
O O11 0.514484 0.582251 0.879686
O O12 0.750000 0.245736 0.982761
O O13 0.496474 0.211186 0.044691
O O14 0.750000 0.237128 0.110457
O O15 0.508672 0.165166 0.155673
O O16 0.495881 0.325072 0.117263
O O17 0.250000 0.089968 0.181677
O O18 0.480309 0.095234 0.258380
O O19 0.500000 0.000000 0.171371
O O20 0.250000 0.912006 0.634961
O O21 0.500000 0.000000 0.615886
O O22 0.750000 0.089672 0.315312
#
# Coordination Sequence:
#
# PCOD9379626 Si02
#       8
#     8   8   8   8   8   8   8   8
#     4   9  16  27  44  67  95 124 156 196 244 296
#     4   8  14  28  51  75  99 130 166 203 249 306
#     4   9  17  29  48  76 107 137 168 204 250 307
#     4   8  16  31  51  73  96 129 172 210 246 298
#     4  10  20  37  58  77 103 141 182 222 265 312
#     4  12  25  39  56  79 106 137 178 226 276 327
#     4   9  18  31  50  77 107 139 172 207 251 305
#     4   9  17  32  54  78 105 135 169 210 258 315
#
# _framework density 20.012837000000001
#
# number of rings (size 3 to 8) (size 9 to 14) (size 15 to 20)
#    0.000    2.750    0.000    3.750    0.000    4.500 
#    0.000    4.375    0.000    3.750    0.000    0.000 
#    0.000    0.000    0.000    0.000    0.000    0.000 
#
# Total GULP energy -178162.522085 kJ/mol
# GULP energy per Si atom -5567.578815 kJ/mol
# Density = 1.996729 g / cm^3
# Si number density = 20.012837 Si / 1000 Ang^3
#
#
#
# Elastic Constant Matrix: (Units=GPa)
#
#
# Indices 1 2 3 4 5 6 
#
# 1 18.9180 8.3440 10.2474 0.0000 0.0000 0.0000
# 2 8.3440 65.1120 49.7780 0.0000 0.0000 0.0000
# 3 10.2474 49.7780 99.4881 0.0000 0.0000 0.0000
# 4 0.0000 0.0000 0.0000 3.0991 0.0000 0.0000
# 5 0.0000 0.0000 0.0000 0.0000 -2.0111 0.0000
# 6 0.0000 0.0000 0.0000 0.0000 0.0000 26.4719
#
#
#
# Elastic Compliance Matrix: (Units=1/GPa)
#
#
# Indices 1 2 3 4 5 6 
#
# 1 0.056802 -0.004545 -0.003577 0.000000 0.000000 0.000000
# 2 -0.004545 0.025235 -0.012158 0.000000 0.000000 0.000000
# 3 -0.003577 -0.012158 0.016503 0.000000 0.000000 0.000000
# 4 0.000000 0.000000 0.000000 0.322678 0.000000 0.000000
# 5 0.000000 0.000000 0.000000 0.000000 -0.497247 0.000000
# 6 0.000000 0.000000 0.000000 0.000000 0.000000 0.037776
#
#
# Mechanical properties :
#
#
# Convention : Reuss Voigt Hill
#
# Bulk Modulus (GPa) = 17.24703 35.58409 26.41556
# Shear Modulus (GPa) = 231.12603 13.18857 122.15730
#
# Velocity S-wave (km/s) = 10.75823 2.56989 7.82125
# Velocity P-wave (km/s) = 12.76543 5.15995 9.73605
#
# Compressibility (1/GPa) = 0.05798099
#
# Stress axis : x y z
#
# Youngs Moduli (GPa) = 17.60515 39.62673 60.59448
#
# Poissons Ratio (x) = 0.18008 0.21674
# Poissons Ratio (y) = 0.08001 0.73672
# Poissons Ratio (z) = 0.06297 0.48179
#
# Static dielectric constant tensor:
#      x y z
#    x 1.703530 0.000000 0.000000 
#    y 0.000000 1.763140 0.000000 
#    z 0.000000 0.000000 1.737330 
# 
# From -- ./inp_files/21351.got.cif
#   From: 2010.05.17/outbox.cif.g08.bks.cpg/sg46_11_cif.got.tgz:21351.got - 2010.06.03 19:58:25.
