data_PCOD9379513
_publ_section_title
;
Structure prediction by ZEFSAII (Michael W. Deem and Ramdas Pophale) SiO2 
 PCOD9379513
Probable space group: I M A 2
;
_chemical_formula_sum "Si O2"
_cell_formula_units_Z 64
_cell_length_a 15.214146
_cell_length_b 17.568462
_cell_length_c 13.006773
_cell_angle_alpha 90.000000
_cell_angle_beta 90.000000
_cell_angle_gamma 90.000000
_cell_volume 3476.569246
_symmetry_space_group_name_H-M "I M A 2"
_symmetry_group_IT_number 46
_symmetry_cell_setting 'orthorhombic'
loop_
_space_group_symop_operation_xyz
x,y,z
-x,-y,z
1/2-x,y,z
1/2+x,-y,z
1/2+x,1/2+y,1/2+z
1/2-x,1/2-y,1/2+z
-x,1/2+y,1/2+z
x,1/2-y,1/2+z
loop_
_atom_site_type_symbol
_atom_site_label
_atom_site_fract_x
_atom_site_fract_y
_atom_site_fract_z
Si Si1 0.353167 0.759759 0.518500
Si Si2 0.070132 0.437555 0.425350
Si Si3 0.971334 0.182787 0.190854
Si Si4 0.439587 0.680364 0.335240
Si Si5 0.355637 0.531918 0.235819
Si Si6 0.855025 0.063072 0.512478
Si Si7 0.902460 0.468692 0.782330
Si Si8 0.153497 0.098623 0.134396
O O1 0.250000 0.756523 0.547316
O O2 0.415589 0.714378 0.595718
O O3 0.369046 0.720399 0.408986
O O4 0.382145 0.848121 0.514986
O O5 0.107938 0.472083 0.319188
O O6 0.139412 0.424857 0.515519
O O7 0.000000 0.500000 0.465586
O O8 0.015112 0.362251 0.399798
O O9 0.066985 0.148389 0.162540
O O10 0.981285 0.253895 0.266592
O O11 0.910878 0.117582 0.243011
O O12 0.392142 0.614311 0.270086
O O13 0.250000 0.531461 0.240822
O O14 0.384922 0.521160 0.117096
O O15 0.750000 0.063943 0.517956
O O16 0.877798 0.028562 0.402103
O O17 0.848860 0.523830 0.707070
O O18 0.000000 0.500000 0.774164
O O19 0.250000 0.135178 0.147099
#
# Coordination Sequence:
#
# PCOD9379513 Si02
#       8
#     8   8   8   8   8   8   8   8
#     4  11  22  35  58  91 124 153 188 241 306 364
#     4  10  21  38  60  87 118 153 198 245 296 350
#     4  11  22  40  60  89 122 153 200 247 297 358
#     4  11  21  37  60  87 119 154 195 242 300 356
#     4  10  21  36  56  87 122 157 195 242 295 356
#     4  10  20  36  55  85 123 153 188 236 299 366
#     4  10  22  37  59  85 116 157 200 245 297 349
#     4  11  23  41  62  85 118 161 204 250 294 343
#
# _framework density 18.408954000000001
#
# number of rings (size 3 to 8) (size 9 to 14) (size 15 to 20)
#    0.000    1.500    3.750    2.250    1.750    3.000 
#    0.000    1.250    0.000    0.000    0.000    0.000 
#    0.000    0.000    0.000    0.000    0.000    0.000 
#
# Total GULP energy -178489.598743 kJ/mol
# GULP energy per Si atom -5577.799961 kJ/mol
# Density = 1.836705 g / cm^3
# Si number density = 18.408954 Si / 1000 Ang^3
#
#
#
# Elastic Constant Matrix: (Units=GPa)
#
#
# Indices 1 2 3 4 5 6 
#
# 1 86.6190 22.7932 26.3624 0.0000 0.0000 0.0000
# 2 22.7932 68.5915 26.8385 0.0000 0.0000 0.0000
# 3 26.3624 26.8385 90.7692 0.0000 0.0000 0.0000
# 4 0.0000 0.0000 0.0000 22.0742 0.0000 0.0000
# 5 0.0000 0.0000 0.0000 0.0000 32.4872 0.0000
# 6 0.0000 0.0000 0.0000 0.0000 0.0000 0.5454
#
#
#
# Elastic Compliance Matrix: (Units=1/GPa)
#
#
# Indices 1 2 3 4 5 6 
#
# 1 0.013288 -0.003286 -0.002888 0.000000 0.000000 0.000000
# 2 -0.003286 0.017299 -0.004161 0.000000 0.000000 0.000000
# 3 -0.002888 -0.004161 0.013086 0.000000 0.000000 0.000000
# 4 0.000000 0.000000 0.000000 0.045302 0.000000 0.000000
# 5 0.000000 0.000000 0.000000 0.000000 0.030781 0.000000
# 6 0.000000 0.000000 0.000000 0.000000 0.000000 1.833557
#
#
# Mechanical properties :
#
#
# Convention : Reuss Voigt Hill
#
# Bulk Modulus (GPa) = 43.46950 44.21866 43.84408
# Shear Modulus (GPa) = 2.52315 22.35373 12.43844
#
# Velocity S-wave (km/s) = 1.17200 3.48844 2.60219
# Velocity P-wave (km/s) = 5.04935 6.34807 5.73559
#
# Compressibility (1/GPa) = 0.02300463
#
# Stress axis : x y z
#
# Youngs Moduli (GPa) = 75.25385 57.80710 76.41820
#
# Poissons Ratio (x) = 0.18994 0.22068
# Poissons Ratio (y) = 0.24727 0.31795
# Poissons Ratio (z) = 0.21732 0.24051
#
# Static dielectric constant tensor:
#      x y z
#    x 1.623730 0.000000 0.000000 
#    y 0.000000 1.626010 0.000000 
#    z 0.000000 0.000000 1.691450 
# 
# From -- ./inp_files/11330.got.cif
#   From: 2010.05.17/outbox.cif.g08.bks.cpg/sg46_6_cif.got.tgz:11330.got - 2010.06.03 19:58:25.
