data_PCOD9379526
_publ_section_title
;
Structure prediction by ZEFSAII (Michael W. Deem and Ramdas Pophale) SiO2 
 PCOD9379526
Probable space group: I M A 2
;
_chemical_formula_sum "Si O2"
_cell_formula_units_Z 48
_cell_length_a 8.788572
_cell_length_b 30.433667
_cell_length_c 10.227561
_cell_angle_alpha 90.000000
_cell_angle_beta 90.000000
_cell_angle_gamma 90.000000
_cell_volume 2735.550130
_symmetry_space_group_name_H-M "I M A 2"
_symmetry_group_IT_number 46
_symmetry_cell_setting 'orthorhombic'
loop_
_space_group_symop_operation_xyz
x,y,z
-x,-y,z
1/2-x,y,z
1/2+x,-y,z
1/2+x,1/2+y,1/2+z
1/2-x,1/2-y,1/2+z
-x,1/2+y,1/2+z
x,1/2-y,1/2+z
loop_
_atom_site_type_symbol
_atom_site_label
_atom_site_fract_x
_atom_site_fract_y
_atom_site_fract_z
Si Si1 0.432681 0.952340 0.646700
Si Si2 0.068001 0.782234 0.153774
Si Si3 0.931040 0.952355 0.362907
Si Si4 0.432691 0.621518 0.358746
Si Si5 0.931375 0.783040 0.867285
Si Si6 0.431209 0.614949 0.660028
O O1 0.250000 0.955503 0.637404
O O2 0.499820 0.940626 0.504744
O O3 0.471264 0.915734 0.754068
O O4 0.500000 0.000000 0.682000
O O5 0.250000 0.776752 0.148716
O O6 0.036804 0.833542 0.184881
O O7 0.997075 0.750634 0.261579
O O8 0.999466 0.773193 0.010653
O O9 0.750000 0.955840 0.373064
O O10 0.979340 0.916665 0.256403
O O11 0.000000 0.000000 0.327950
O O12 0.250000 0.629323 0.354313
O O13 0.515260 0.667524 0.333054
O O14 0.468322 0.607060 0.507289
O O15 0.750000 0.780682 0.871313
O O16 0.250000 0.607910 0.677574
#
# Coordination Sequence:
#
# PCOD9379526 Si02
#       6
#     8   8   8   8   8   8
#     4  10  20  36  57  80 108 141 179 223 268 320
#     4  10  21  39  60  80 110 150 185 220 272 336
#     4  11  22  36  55  79 109 143 179 221 268 319
#     4   9  20  38  58  80 109 145 181 218 270 333
#     4  11  22  36  57  85 114 142 182 234 275 315
#     4   9  19  37  58  80 106 139 180 222 265 319
#
# _framework density 17.546745999999999
#
# number of rings (size 3 to 8) (size 9 to 14) (size 15 to 20)
#    0.000    2.000    0.000    6.000    0.000    6.667 
#    0.000    3.333    0.000    0.000    0.000    0.000 
#    0.000    0.000    0.000    0.000    0.000    0.000 
#
# Total GULP energy -134043.853637 kJ/mol
# GULP energy per Si atom -5585.160568 kJ/mol
# Density = 1.750681 g / cm^3
# Si number density = 17.546746 Si / 1000 Ang^3
#
#
#
# Elastic Constant Matrix: (Units=GPa)
#
#
# Indices 1 2 3 4 5 6 
#
# 1 109.7517 85.5784 86.5110 0.0001 0.0000 0.0000
# 2 85.5784 124.1913 125.4749 0.0002 -0.0001 0.0000
# 3 86.5110 125.4749 140.8816 -0.0003 -0.0002 0.0000
# 4 0.0001 0.0002 -0.0003 41.0479 -0.0001 0.0000
# 5 0.0000 -0.0001 -0.0002 -0.0001 29.4920 0.0000
# 6 0.0000 0.0000 0.0000 0.0000 0.0000 32.8604
#
#
#
# Elastic Compliance Matrix: (Units=1/GPa)
#
#
# Indices 1 2 3 4 5 6 
#
# 1 0.019693 -0.013502 -0.000067 0.000000 0.000000 0.000000
# 2 -0.013502 0.089656 -0.071560 -0.000001 0.000000 0.000000
# 3 -0.000067 -0.071560 0.070873 0.000001 0.000000 0.000000
# 4 0.000000 -0.000001 0.000001 0.024362 0.000000 0.000000
# 5 0.000000 0.000000 0.000000 0.000000 0.033908 0.000000
# 6 0.000000 0.000000 0.000000 0.000000 0.000000 0.030432
#
#
# Mechanical properties :
#
#
# Convention : Reuss Voigt Hill
#
# Bulk Modulus (GPa) = 100.36400 107.77259 104.06829
# Shear Modulus (GPa) = 11.29940 25.83073 18.56507
#
# Velocity S-wave (km/s) = 2.54039 3.84097 3.25627
# Velocity P-wave (km/s) = 8.11955 9.01246 8.57763
#
# Compressibility (1/GPa) = 0.00996373
#
# Stress axis : x y z
#
# Youngs Moduli (GPa) = 50.78065 11.15380 14.10967
#
# Poissons Ratio (x) = 0.15060 0.00095
# Poissons Ratio (y) = 0.68564 1.00968
# Poissons Ratio (z) = 0.00341 0.79816
#
# Static dielectric constant tensor:
#      x y z
#    x 1.586370 0.000000 0.000000 
#    y 0.000000 1.571700 0.000000 
#    z 0.000000 0.000000 1.574360 
# 
# From -- ./inp_files/3928.got.cif
#   From: 2010.05.17/outbox.cif.g08.bks.cpg/sg46_2_cif.got.tgz:3928.got - 2010.06.03 19:58:25.
