data_PCOD9379231
_publ_section_title
;
Structure prediction by ZEFSAII (Michael W. Deem and Ramdas Pophale) SiO2 
 PCOD9379231
Probable space group: I M A 2
;
_chemical_formula_sum "Si O2"
_cell_formula_units_Z 52
_cell_length_a 13.614476
_cell_length_b 12.208529
_cell_length_c 15.757200
_cell_angle_alpha 90.000000
_cell_angle_beta 90.000000
_cell_angle_gamma 90.000000
_cell_volume 2619.047151
_symmetry_space_group_name_H-M "I M A 2"
_symmetry_group_IT_number 46
_symmetry_cell_setting 'orthorhombic'
loop_
_space_group_symop_operation_xyz
x,y,z
-x,-y,z
1/2-x,y,z
1/2+x,-y,z
1/2+x,1/2+y,1/2+z
1/2-x,1/2-y,1/2+z
-x,1/2+y,1/2+z
x,1/2-y,1/2+z
loop_
_atom_site_type_symbol
_atom_site_label
_atom_site_fract_x
_atom_site_fract_y
_atom_site_fract_z
Si Si1 0.861847 0.838964 0.570250
Si Si2 0.066954 0.840315 0.365325
Si Si3 0.861520 0.497592 0.461767
Si Si4 0.641513 0.131637 0.782751
Si Si5 0.000000 0.500000 0.166983
Si Si6 0.141780 0.413664 0.873876
Si Si7 0.505820 0.320872 0.510192
O O1 0.750000 0.821058 0.600034
O O2 0.856732 0.866588 0.469800
O O3 0.936647 0.736538 0.579282
O O4 0.916160 0.940677 0.612998
O O5 0.124974 0.757987 0.305434
O O6 0.955354 0.860538 0.333167
O O7 0.054772 0.775371 0.454629
O O8 0.119165 0.956546 0.377242
O O9 0.750000 0.525102 0.483686
O O10 0.862654 0.435687 0.371454
O O11 0.928227 0.605396 0.456692
O O12 0.910393 0.411198 0.527806
O O13 0.750000 0.114039 0.745694
O O14 0.555328 0.088003 0.724613
O O15 0.250000 0.393340 0.836498
#
# Coordination Sequence:
#
# PCOD9379231 Si02
#       7
#     8   8   8   8   4   8   8
#     4  10  20  33  50  72 100 133 165 201 244 291
#     4   9  16  29  48  74 102 128 157 199 251 300
#     4   9  17  30  51  78 102 124 158 207 258 299
#     4  10  20  33  50  72 100 133 165 201 244 291
#     4  12  22  36  48  68 100 136 174 202 232 292
#     4   9  17  30  51  78 102 124 158 207 258 299
#     4   9  16  29  48  74 102 128 157 199 251 300
#
# _framework density 19.854548999999999
#
# number of rings (size 3 to 8) (size 9 to 14) (size 15 to 20)
#    0.000    2.462    0.000    5.077    0.000    1.231 
#    0.000    3.077    0.000    3.692    0.000   10.769 
#    0.000    0.000    0.000    0.000    0.000    0.000 
#
# Total GULP energy -144850.197480 kJ/mol
# GULP energy per Si atom -5571.161442 kJ/mol
# Density = 1.980936 g / cm^3
# Si number density = 19.854549 Si / 1000 Ang^3
#
#
#
# Elastic Constant Matrix: (Units=GPa)
#
#
# Indices 1 2 3 4 5 6 
#
# 1 95.8577 -15.7788 9.2960 0.0000 0.0000 0.0000
# 2 -15.7788 44.5401 0.4259 0.0000 0.0000 0.0000
# 3 9.2960 0.4259 4.1210 0.0000 0.0000 0.0000
# 4 0.0000 0.0000 0.0000 -5.2338 0.0000 0.0000
# 5 0.0000 0.0000 0.0000 0.0000 9.3815 0.0000
# 6 0.0000 0.0000 0.0000 0.0000 0.0000 21.9826
#
#
#
# Elastic Compliance Matrix: (Units=1/GPa)
#
#
# Indices 1 2 3 4 5 6 
#
# 1 0.014579 0.005485 -0.033454 0.000000 0.000000 0.000000
# 2 0.005485 0.024537 -0.014908 0.000000 0.000000 0.000000
# 3 -0.033454 -0.014908 0.319665 0.000000 0.000000 0.000000
# 4 0.000000 0.000000 0.000000 -0.191068 0.000000 0.000000
# 5 0.000000 0.000000 0.000000 0.000000 0.106593 0.000000
# 6 0.000000 0.000000 0.000000 0.000000 0.000000 0.045491
#
#
# Mechanical properties :
#
#
# Convention : Reuss Voigt Hill
#
# Bulk Modulus (GPa) = 3.66266 14.71166 9.18716
# Shear Modulus (GPa) = 10.06924 15.26443 12.66684
#
# Velocity S-wave (km/s) = 2.25444 2.77576 2.52857
# Velocity P-wave (km/s) = 2.93691 4.20701 3.62797
#
# Compressibility (1/GPa) = 0.27302584
#
# Stress axis : x y z
#
# Youngs Moduli (GPa) = 68.59051 40.75428 3.12828
#
# Poissons Ratio (x) = -0.22353 0.10465
# Poissons Ratio (y) = -0.37620 0.04664
# Poissons Ratio (z) = 2.29465 0.60758
#
# Static dielectric constant tensor:
#      x y z
#    x 1.744010 0.000000 0.000000 
#    y 0.000000 1.707810 0.000000 
#    z 0.000000 0.000000 1.682960 
# 
# From -- ./inp_files/19544.got.cif
#   From: 2010.05.17/outbox.cif.g08.bks.cpg/sg46_10_cif.got.tgz:19544.got - 2010.06.03 19:58:25.
