data_PCOD9379366
_publ_section_title
;
Structure prediction by ZEFSAII (Michael W. Deem and Ramdas Pophale) SiO2 
 PCOD9379366
Probable space group: I M A 2
;
_chemical_formula_sum "Si O2"
_cell_formula_units_Z 56
_cell_length_a 21.100044
_cell_length_b 11.023357
_cell_length_c 12.519165
_cell_angle_alpha 90.000000
_cell_angle_beta 90.000000
_cell_angle_gamma 90.000000
_cell_volume 2911.874123
_symmetry_space_group_name_H-M "I M A 2"
_symmetry_group_IT_number 46
_symmetry_cell_setting 'orthorhombic'
loop_
_space_group_symop_operation_xyz
x,y,z
-x,-y,z
1/2-x,y,z
1/2+x,-y,z
1/2+x,1/2+y,1/2+z
1/2-x,1/2-y,1/2+z
-x,1/2+y,1/2+z
x,1/2-y,1/2+z
loop_
_atom_site_type_symbol
_atom_site_label
_atom_site_fract_x
_atom_site_fract_y
_atom_site_fract_z
Si Si1 0.922434 0.689448 0.187450
Si Si2 0.066242 0.051451 0.286279
Si Si3 0.677687 0.404303 0.355768
Si Si4 0.675338 0.001592 0.616155
Si Si5 0.624171 0.150032 0.412449
Si Si6 0.983941 0.808531 0.487305
Si Si7 0.934660 0.931772 0.917141
O O1 0.913402 0.830305 0.220357
O O2 0.863156 0.623655 0.131133
O O3 0.935097 0.621175 0.297799
O O4 0.982050 0.659763 0.111092
O O5 0.048630 0.098741 0.405809
O O6 0.113775 0.941842 0.312452
O O7 0.000000 0.000000 0.239895
O O8 0.750000 0.440751 0.378995
O O9 0.666576 0.428019 0.229186
O O10 0.667004 0.263804 0.382209
O O11 0.626819 0.483811 0.422032
O O12 0.750000 0.979823 0.602156
O O13 0.649776 0.077615 0.515408
O O14 0.554561 0.203541 0.442512
O O15 0.940201 0.688896 0.486941
O O16 0.000000 0.000000 0.937854
#
# Coordination Sequence:
#
# PCOD9379366 Si02
#       7
#     8   8   8   8   8   8   8
#     4  10  21  36  60  81 116 152 196 242 297 345
#     4   9  20  35  53  89 117 144 189 244 300 351
#     4  10  22  40  60  86 120 157 197 245 298 356
#     4  10  22  39  61  84 114 164 211 236 288 368
#     4  11  20  36  62  87 123 152 195 249 305 355
#     4  10  20  34  56  87 114 150 191 243 293 354
#     4  10  20  36  57  86 114 150 199 238 287 349
#
# _framework density 19.2316
#
# number of rings (size 3 to 8) (size 9 to 14) (size 15 to 20)
#    0.000    2.000    2.857    0.429    4.000    0.571 
#    2.571    2.143    0.000    0.000    0.000    0.000 
#    0.000    0.000    0.000    0.000    0.000    0.000 
#
# Total GULP energy -156080.003870 kJ/mol
# GULP energy per Si atom -5574.285852 kJ/mol
# Density = 1.918783 g / cm^3
# Si number density = 19.231600 Si / 1000 Ang^3
#
#
#
# Elastic Constant Matrix: (Units=GPa)
#
#
# Indices 1 2 3 4 5 6 
#
# 1 67.1363 34.3095 15.2594 0.0000 0.0000 0.0000
# 2 34.3095 120.9632 22.3514 0.0000 0.0000 0.0000
# 3 15.2594 22.3514 49.0231 0.0000 0.0000 0.0000
# 4 0.0000 0.0000 0.0000 17.1769 0.0000 0.0000
# 5 0.0000 0.0000 0.0000 0.0000 17.6347 0.0000
# 6 0.0000 0.0000 0.0000 0.0000 0.0000 30.5248
#
#
#
# Elastic Compliance Matrix: (Units=1/GPa)
#
#
# Indices 1 2 3 4 5 6 
#
# 1 0.017975 -0.004438 -0.003571 0.000000 0.000000 0.000000
# 2 -0.004438 0.010123 -0.003234 0.000000 0.000000 0.000000
# 3 -0.003571 -0.003234 0.022985 0.000000 0.000000 0.000000
# 4 0.000000 0.000000 0.000000 0.058218 0.000000 0.000000
# 5 0.000000 0.000000 0.000000 0.000000 0.056706 0.000000
# 6 0.000000 0.000000 0.000000 0.000000 0.000000 0.032760
#
#
# Mechanical properties :
#
#
# Convention : Reuss Voigt Hill
#
# Bulk Modulus (GPa) = 34.97076 42.32923 38.65000
# Shear Modulus (GPa) = 21.66496 24.08077 22.87287
#
# Velocity S-wave (km/s) = 3.36002 3.54241 3.45242
# Velocity P-wave (km/s) = 5.76858 6.22813 6.00275
#
# Compressibility (1/GPa) = 0.02859532
#
# Stress axis : x y z
#
# Youngs Moduli (GPa) = 55.63263 98.78034 43.50708
#
# Poissons Ratio (x) = 0.43843 0.15538
# Poissons Ratio (y) = 0.24692 0.14071
# Poissons Ratio (z) = 0.19869 0.31947
#
# Static dielectric constant tensor:
#      x y z
#    x 1.663360 0.000000 0.000000 
#    y 0.000000 1.721930 0.000000 
#    z 0.000000 0.000000 1.683170 
# 
# From -- ./inp_files/12391.got.cif
#   From: 2010.05.17/outbox.cif.g08.bks.cpg/sg46_7_cif.got.tgz:12391.got - 2010.06.03 19:58:25.
