data_PCOD9379001
_publ_section_title
;
Structure prediction by ZEFSAII (Michael W. Deem and Ramdas Pophale) SiO2 
 PCOD9379001
Probable space group: I M A 2
;
_chemical_formula_sum "Si O2"
_cell_formula_units_Z 64
_cell_length_a 8.948933
_cell_length_b 25.619608
_cell_length_c 15.139343
_cell_angle_alpha 90.000000
_cell_angle_beta 90.000000
_cell_angle_gamma 90.000000
_cell_volume 3470.969245
_symmetry_space_group_name_H-M "I M A 2"
_symmetry_group_IT_number 46
_symmetry_cell_setting 'orthorhombic'
loop_
_space_group_symop_operation_xyz
x,y,z
-x,-y,z
1/2-x,y,z
1/2+x,-y,z
1/2+x,1/2+y,1/2+z
1/2-x,1/2-y,1/2+z
-x,1/2+y,1/2+z
x,1/2-y,1/2+z
loop_
_atom_site_type_symbol
_atom_site_label
_atom_site_fract_x
_atom_site_fract_y
_atom_site_fract_z
Si Si1 0.928891 0.888575 0.435280
Si Si2 0.570348 0.133969 0.764536
Si Si3 0.573832 0.279300 0.951063
Si Si4 0.570550 0.555769 0.753102
Si Si5 0.426126 0.762480 0.661162
Si Si6 0.071396 0.331012 0.433451
Si Si7 0.929561 0.653817 0.637126
Si Si8 0.429379 0.942829 0.605637
O O1 0.750000 0.886272 0.445710
O O2 0.964343 0.925956 0.352810
O O3 0.992238 0.830882 0.417301
O O4 0.004620 0.910786 0.523324
O O5 0.750000 0.135618 0.775466
O O6 0.522269 0.188532 0.718784
O O7 0.491600 0.130942 0.858735
O O8 0.535411 0.088123 0.695776
O O9 0.750000 0.280675 0.930845
O O10 0.501351 0.225814 0.917588
O O11 0.556013 0.277556 0.057843
O O12 0.500000 0.500000 0.733392
O O13 0.750000 0.551881 0.745831
O O14 0.519343 0.602424 0.688686
O O15 0.250000 0.755144 0.677090
O O16 0.507247 0.707725 0.676150
O O17 0.250000 0.327313 0.428664
O O18 0.029637 0.347354 0.533323
O O19 0.750000 0.656012 0.642983
O O20 0.250000 0.945463 0.596806
O O21 0.500000 0.000000 0.606031
#
# Coordination Sequence:
#
# PCOD9379001 Si02
#       8
#     8   8   8   8   8   8   8   8
#     4  11  22  36  57  87 119 153 193 237 288 347
#     4  10  21  38  57  83 118 153 193 239 288 344
#     4  10  19  35  56  82 119 157 191 231 281 342
#     4  10  23  41  59  82 112 147 191 239 285 338
#     4   9  18  34  55  82 112 148 188 226 278 341
#     4  10  21  36  57  85 117 153 193 239 292 345
#     4   9  20  39  58  81 114 148 186 239 289 337
#     4  11  23  41  61  84 117 156 197 241 292 350
#
# _framework density 18.438654
#
# number of rings (size 3 to 8) (size 9 to 14) (size 15 to 20)
#    0.000    2.000    1.250    1.875    1.750    5.000 
#    0.000    0.625    0.000    3.000    0.000    0.000 
#    0.000    0.000    0.000    0.000    0.000    0.000 
#
# Total GULP energy -178754.032139 kJ/mol
# GULP energy per Si atom -5586.063504 kJ/mol
# Density = 1.839669 g / cm^3
# Si number density = 18.438654 Si / 1000 Ang^3
#
#
#
# Elastic Constant Matrix: (Units=GPa)
#
#
# Indices 1 2 3 4 5 6 
#
# 1 35.4590 31.2437 26.6708 0.0000 0.0000 0.0000
# 2 31.2437 102.5356 26.9852 0.0000 0.0000 0.0000
# 3 26.6708 26.9852 51.5293 -0.0001 0.0000 0.0000
# 4 0.0000 0.0000 -0.0001 25.5878 0.0000 0.0000
# 5 0.0000 0.0000 0.0000 0.0000 24.7770 0.0000
# 6 0.0000 0.0000 0.0000 0.0000 0.0000 30.3430
#
#
#
# Elastic Compliance Matrix: (Units=1/GPa)
#
#
# Indices 1 2 3 4 5 6 
#
# 1 0.054710 -0.010692 -0.022718 0.000000 0.000000 0.000000
# 2 -0.010692 0.013401 -0.001484 0.000000 0.000000 0.000000
# 3 -0.022718 -0.001484 0.031942 0.000000 0.000000 0.000000
# 4 0.000000 0.000000 0.000000 0.039081 0.000000 0.000000
# 5 0.000000 0.000000 0.000000 0.000000 0.040360 0.000000
# 6 0.000000 0.000000 0.000000 0.000000 0.000000 0.032956
#
#
# Mechanical properties :
#
#
# Convention : Reuss Voigt Hill
#
# Bulk Modulus (GPa) = 33.04085 39.92480 36.48283
# Shear Modulus (GPa) = 17.10417 23.11652 20.11034
#
# Velocity S-wave (km/s) = 3.04900 3.54460 3.30610
# Velocity P-wave (km/s) = 5.50939 6.20097 5.86539
#
# Compressibility (1/GPa) = 0.03026557
#
# Stress axis : x y z
#
# Youngs Moduli (GPa) = 18.27829 74.62023 31.30670
#
# Poissons Ratio (x) = 0.79782 0.71122
# Poissons Ratio (y) = 0.19543 0.04646
# Poissons Ratio (z) = 0.41524 0.11075
#
# Static dielectric constant tensor:
#      x y z
#    x 1.613420 0.000000 0.000000 
#    y 0.000000 1.605700 0.000000 
#    z 0.000000 0.000000 1.651920 
# 
# From -- ./inp_files/14425.got.cif
#   From: 2010.05.17/outbox.cif.g08.bks.cpg/sg46_8_cif.got.tgz:14425.got - 2010.06.03 19:58:25.
