data_PCOD9379065
_publ_section_title
;
Structure prediction by ZEFSAII (Michael W. Deem and Ramdas Pophale) SiO2 
 PCOD9379065
Probable space group: I M A 2
;
_chemical_formula_sum "Si O2"
_cell_formula_units_Z 60
_cell_length_a 18.227325
_cell_length_b 14.854253
_cell_length_c 11.912150
_cell_angle_alpha 90.000000
_cell_angle_beta 90.000000
_cell_angle_gamma 90.000000
_cell_volume 3225.253888
_symmetry_space_group_name_H-M "I M A 2"
_symmetry_group_IT_number 46
_symmetry_cell_setting 'orthorhombic'
loop_
_space_group_symop_operation_xyz
x,y,z
-x,-y,z
1/2-x,y,z
1/2+x,-y,z
1/2+x,1/2+y,1/2+z
1/2-x,1/2-y,1/2+z
-x,1/2+y,1/2+z
x,1/2-y,1/2+z
loop_
_atom_site_type_symbol
_atom_site_label
_atom_site_fract_x
_atom_site_fract_y
_atom_site_fract_z
Si Si1 0.338795 0.208202 0.163940
Si Si2 0.097916 0.405658 0.196920
Si Si3 0.830529 0.461914 0.044965
Si Si4 0.537238 0.088065 0.249899
Si Si5 0.481987 0.169276 0.040464
Si Si6 0.000000 0.000000 0.885979
Si Si7 0.167550 0.028625 0.299438
Si Si8 0.519684 0.365673 0.001115
O O1 0.250000 0.213130 0.141294
O O2 0.368642 0.304925 0.208477
O O3 0.393709 0.179412 0.061282
O O4 0.352340 0.126679 0.251890
O O5 0.159233 0.472519 0.149483
O O6 0.060855 0.455809 0.302520
O O7 0.036870 0.398211 0.096697
O O8 0.750000 0.419016 0.043793
O O9 0.898870 0.394539 0.038257
O O10 0.835869 0.524193 0.933739
O O11 0.517034 0.166450 0.165740
O O12 0.507446 0.097079 0.375976
O O13 0.500000 0.000000 0.198114
O O14 0.620358 0.055964 0.258323
O O15 0.509987 0.260132 0.986213
O O16 0.511250 0.085133 0.968927
O O17 0.250000 0.013479 0.262187
#
# Coordination Sequence:
#
# PCOD9379065 Si02
#       8
#     8   8   8   8   8   4   8   8
#     4  10  21  38  60  92 126 159 201 253 318 378
#     4  11  22  36  58  87 125 161 199 244 306 378
#     4  10  19  36  58  86 115 152 200 250 300 347
#     4  11  19  36  61  85 112 153 207 247 298 359
#     4  11  24  38  62  89 120 163 201 259 304 372
#     4  12  24  40  58  88 132 162 206 246 316 374
#     4   9  18  33  58  87 120 152 196 255 302 357
#     4  10  22  36  61  88 113 152 209 255 297 354
#
# _framework density 18.603186000000001
#
# number of rings (size 3 to 8) (size 9 to 14) (size 15 to 20)
#    0.000    1.600    3.333    2.000    3.733    1.067 
#    0.000    3.333    0.000    7.200    0.000    0.000 
#    0.000    0.000    0.000    0.000    0.000    0.000 
#
# Total GULP energy -167050.488755 kJ/mol
# GULP energy per Si atom -5568.349625 kJ/mol
# Density = 1.856084 g / cm^3
# Si number density = 18.603186 Si / 1000 Ang^3
#
#
#
# Elastic Constant Matrix: (Units=GPa)
#
#
# Indices 1 2 3 4 5 6 
#
# 1 110.5092 38.4860 31.9382 0.0000 0.0000 0.0000
# 2 38.4860 101.9431 31.2108 0.0000 0.0000 0.0000
# 3 31.9382 31.2108 70.9588 0.0000 0.0000 0.0000
# 4 0.0000 0.0000 0.0000 14.5178 0.0000 0.0000
# 5 0.0000 0.0000 0.0000 0.0000 -15.1558 0.0000
# 6 0.0000 0.0000 0.0000 0.0000 0.0000 26.6668
#
#
#
# Elastic Compliance Matrix: (Units=1/GPa)
#
#
# Indices 1 2 3 4 5 6 
#
# 1 0.011190 -0.003100 -0.003673 0.000000 0.000000 0.000000
# 2 -0.003100 0.012195 -0.003968 0.000000 0.000000 0.000000
# 3 -0.003673 -0.003968 0.017491 0.000000 0.000000 0.000000
# 4 0.000000 0.000000 0.000000 0.068881 0.000000 0.000000
# 5 0.000000 0.000000 0.000000 0.000000 -0.065981 0.000000
# 6 0.000000 0.000000 0.000000 0.000000 0.000000 0.037500
#
#
# Mechanical properties :
#
#
# Convention : Reuss Voigt Hill
#
# Bulk Modulus (GPa) = 51.56464 54.07568 52.82016
# Shear Modulus (GPa) = 45.77766 17.32416 31.55091
#
# Velocity S-wave (km/s) = 4.96597 3.05494 4.12271
# Velocity P-wave (km/s) = 7.78842 6.44784 7.14962
#
# Compressibility (1/GPa) = 0.01939313
#
# Stress axis : x y z
#
# Youngs Moduli (GPa) = 89.36386 82.00281 57.17076
#
# Poissons Ratio (x) = 0.25421 0.21000
# Poissons Ratio (y) = 0.27703 0.22688
# Poissons Ratio (z) = 0.32825 0.32543
#
# Static dielectric constant tensor:
#      x y z
#    x 1.719800 0.000000 0.000000 
#    y 0.000000 1.697340 0.000000 
#    z 0.000000 0.000000 1.660590 
# 
# From -- ./inp_files/11921.got.cif
#   From: 2010.05.17/outbox.cif.g08.bks.cpg/sg46_6_cif.got.tgz:11921.got - 2010.06.03 19:58:25.
