data_PCOD9379067
_publ_section_title
;
Structure prediction by ZEFSAII (Michael W. Deem and Ramdas Pophale) SiO2 
 PCOD9379067
Probable space group: I M A 2
;
_chemical_formula_sum "Si O2"
_cell_formula_units_Z 64
_cell_length_a 8.803192
_cell_length_b 21.084521
_cell_length_c 19.956761
_cell_angle_alpha 90.000000
_cell_angle_beta 90.000000
_cell_angle_gamma 90.000000
_cell_volume 3704.196094
_symmetry_space_group_name_H-M "I M A 2"
_symmetry_group_IT_number 46
_symmetry_cell_setting 'orthorhombic'
loop_
_space_group_symop_operation_xyz
x,y,z
-x,-y,z
1/2-x,y,z
1/2+x,-y,z
1/2+x,1/2+y,1/2+z
1/2-x,1/2-y,1/2+z
-x,1/2+y,1/2+z
x,1/2-y,1/2+z
loop_
_atom_site_type_symbol
_atom_site_label
_atom_site_fract_x
_atom_site_fract_y
_atom_site_fract_z
Si Si1 0.430581 0.254972 0.715850
Si Si2 0.568349 0.884484 0.576542
Si Si3 0.069917 0.266455 0.566176
Si Si4 0.432890 0.433965 0.932924
Si Si5 0.931658 0.806148 0.358577
Si Si6 0.570162 0.384115 0.218586
Si Si7 0.069060 0.433163 0.354629
Si Si8 0.929786 0.185086 0.933377
O O1 0.250000 0.237968 0.714784
O O2 0.465015 0.283908 0.643154
O O3 0.457061 0.299587 0.779236
O O4 0.522741 0.189942 0.724670
O O5 0.750000 0.891145 0.585948
O O6 0.540122 0.809467 0.562778
O O7 0.520449 0.921471 0.510045
O O8 0.485527 0.903994 0.644683
O O9 0.250000 0.275253 0.553833
O O10 0.977833 0.303586 0.510220
O O11 0.500000 0.500000 0.908837
O O12 0.250000 0.436624 0.931661
O O13 0.479841 0.373058 0.889481
O O14 0.750000 0.799104 0.370875
O O15 0.013849 0.747861 0.394519
O O16 0.750000 0.391468 0.224989
O O17 0.487798 0.419955 0.278928
O O18 0.250000 0.435112 0.355747
O O19 0.000000 0.500000 0.377251
O O20 0.009952 0.375369 0.400076
O O21 0.750000 0.178354 0.926651
#
# Coordination Sequence:
#
# PCOD9379067 Si02
#       8
#     8   8   8   8   8   8   8   8
#     4   9  18  33  57  82 108 146 189 229 277 329
#     4   9  18  34  53  75 108 153 195 228 270 330
#     4   9  17  33  55  81 109 143 186 230 276 327
#     4  10  21  36  54  78 110 148 191 232 279 331
#     4  10  19  36  59  81 107 147 189 232 279 333
#     4  11  21  33  52  82 115 147 184 227 275 330
#     4  12  25  42  60  80 111 149 187 231 279 336
#     4  12  23  35  56  87 114 144 184 230 281 335
#
# _framework density 17.277702999999999
#
# number of rings (size 3 to 8) (size 9 to 14) (size 15 to 20)
#    0.000    1.750    2.500    4.125    0.000    3.500 
#    0.000    1.250    0.000    0.750    0.000    1.750 
#    0.000    0.000    0.000    0.000    0.000    0.000 
#
# Total GULP energy -178723.582337 kJ/mol
# GULP energy per Si atom -5585.111948 kJ/mol
# Density = 1.723838 g / cm^3
# Si number density = 17.277703 Si / 1000 Ang^3
#
#
#
# Elastic Constant Matrix: (Units=GPa)
#
#
# Indices 1 2 3 4 5 6 
#
# 1 88.2748 50.4909 48.2116 0.0000 0.0000 0.0000
# 2 50.4909 109.6738 57.1830 0.0000 0.0000 0.0000
# 3 48.2116 57.1830 101.6431 0.0000 0.0000 0.0000
# 4 0.0000 0.0000 0.0000 18.8668 0.0000 0.0000
# 5 0.0000 0.0000 0.0000 0.0000 144.2974 0.0000
# 6 0.0000 0.0000 0.0000 0.0000 0.0000 24.2758
#
#
#
# Elastic Compliance Matrix: (Units=1/GPa)
#
#
# Indices 1 2 3 4 5 6 
#
# 1 0.017135 -0.005166 -0.005221 0.000000 0.000000 0.000000
# 2 -0.005166 0.014460 -0.005685 0.000000 0.000000 0.000000
# 3 -0.005221 -0.005685 0.015513 0.000000 0.000000 0.000000
# 4 0.000000 0.000000 0.000000 0.053003 0.000000 0.000000
# 5 0.000000 0.000000 0.000000 0.000000 0.006930 0.000000
# 6 0.000000 0.000000 0.000000 0.000000 0.000000 0.041193
#
#
# Mechanical properties :
#
#
# Convention : Reuss Voigt Hill
#
# Bulk Modulus (GPa) = 66.82636 67.92921 67.37778
# Shear Modulus (GPa) = 26.97366 47.06842 37.02104
#
# Velocity S-wave (km/s) = 3.95547 5.22508 4.63396
# Velocity P-wave (km/s) = 7.72158 8.70651 8.22879
#
# Compressibility (1/GPa) = 0.01496416
#
# Stress axis : x y z
#
# Youngs Moduli (GPa) = 58.36142 69.15486 64.46253
#
# Poissons Ratio (x) = 0.35727 0.33655
# Poissons Ratio (y) = 0.30151 0.36645
# Poissons Ratio (z) = 0.30470 0.39313
#
# Static dielectric constant tensor:
#      x y z
#    x 1.571920 0.000000 0.000000 
#    y 0.000000 1.568060 0.000000 
#    z 0.000000 0.000000 1.600510 
# 
# From -- ./inp_files/21432.got.cif
#   From: 2010.05.17/outbox.cif.g08.bks.cpg/sg46_11_cif.got.tgz:21432.got - 2010.06.03 19:58:25.
