data_PCOD9379796
_publ_section_title
;
Structure prediction by ZEFSAII (Michael W. Deem and Ramdas Pophale) SiO2 
 PCOD9379796
Probable space group: I M A 2
;
_chemical_formula_sum "Si O2"
_cell_formula_units_Z 56
_cell_length_a 25.859859
_cell_length_b 5.201280
_cell_length_c 18.496626
_cell_angle_alpha 90.000000
_cell_angle_beta 90.000000
_cell_angle_gamma 90.000000
_cell_volume 2487.876980
_symmetry_space_group_name_H-M "I M A 2"
_symmetry_group_IT_number 46
_symmetry_cell_setting 'orthorhombic'
loop_
_space_group_symop_operation_xyz
x,y,z
-x,-y,z
1/2-x,y,z
1/2+x,-y,z
1/2+x,1/2+y,1/2+z
1/2-x,1/2-y,1/2+z
-x,1/2+y,1/2+z
x,1/2-y,1/2+z
loop_
_atom_site_type_symbol
_atom_site_label
_atom_site_fract_x
_atom_site_fract_y
_atom_site_fract_z
Si Si1 0.807579 0.631801 0.113930
Si Si2 0.141506 0.750000 0.195902
Si Si3 0.946215 0.426915 0.607098
Si Si4 0.088761 0.400795 0.861938
Si Si5 0.946215 0.426915 0.284706
Si Si6 0.192421 0.131801 0.277873
Si Si7 0.911239 0.900795 0.529865
O O1 0.750000 0.675610 0.086138
O O2 0.820696 0.334910 0.132368
O O3 0.809657 0.749999 0.195902
O O4 0.854319 0.682075 0.059299
O O5 0.100621 0.954411 0.164199
O O6 0.100621 0.545590 0.227604
O O7 0.179305 0.834911 0.259435
O O8 0.943734 0.645200 0.545949
O O9 0.000000 0.500000 0.644958
O O10 0.935182 0.144765 0.573309
O O11 0.064818 0.644764 0.818495
O O12 0.145681 0.317925 0.832504
O O13 0.056266 0.145199 0.845854
O O14 0.090494 0.465267 0.945902
O O15 0.000000 0.500000 0.246845
O O16 0.250000 0.175611 0.305666
#
# Coordination Sequence:
#
# PCOD9379796 Si02
#       7
#     8   8   8   8   8   8   8
#     4  10  20  38  64  90 120 162 206 257 315 373
#     4  10  21  38  62  92 130 156 211 264 312 368
#     4  11  24  40  64  92 126 168 210 256 311 369
#     4  11  24  42  62  92 129 165 208 258 308 373
#     4  11  24  40  64  92 126 168 210 256 311 369
#     4  10  20  38  64  90 120 162 206 257 315 373
#     4  11  24  42  62  92 129 165 208 258 308 373
#
# _framework density 22.509149000000001
#
# number of rings (size 3 to 8) (size 9 to 14) (size 15 to 20)
#    0.000    1.429    2.857    2.143    0.000    8.571 
#    0.000    0.000    0.000    3.429    0.000    0.000 
#    0.000    0.000    0.000    0.000    0.000    0.000 
#
# Total GULP energy -155928.248064 kJ/mol
# GULP energy per Si atom -5568.866002 kJ/mol
# Density = 2.245792 g / cm^3
# Si number density = 22.509149 Si / 1000 Ang^3
#
#
#
# Elastic Constant Matrix: (Units=GPa)
#
#
# Indices 1 2 3 4 5 6 
#
# 1 118.3606 41.5265 4.2669 0.0000 0.0000 0.0000
# 2 41.5265 101.5153 27.9173 0.0000 0.0000 0.0000
# 3 4.2669 27.9173 75.2152 0.0000 0.0000 0.0000
# 4 0.0000 0.0000 0.0000 30.6864 0.0000 0.0000
# 5 0.0000 0.0000 0.0000 0.0000 15.6420 0.0000
# 6 0.0000 0.0000 0.0000 0.0000 0.0000 16.1110
#
#
#
# Elastic Compliance Matrix: (Units=1/GPa)
#
#
# Indices 1 2 3 4 5 6 
#
# 1 0.009939 -0.004355 0.001053 0.000000 0.000000 0.000000
# 2 -0.004355 0.012879 -0.004533 0.000000 0.000000 0.000000
# 3 0.001053 -0.004533 0.014918 0.000000 0.000000 0.000000
# 4 0.000000 0.000000 0.000000 0.032588 0.000000 0.000000
# 5 0.000000 0.000000 0.000000 0.000000 0.063930 0.000000
# 6 0.000000 0.000000 0.000000 0.000000 0.000000 0.062069
#
#
# Mechanical properties :
#
#
# Convention : Reuss Voigt Hill
#
# Bulk Modulus (GPa) = 45.32170 49.16806 47.24488
# Shear Modulus (GPa) = 22.79471 27.24657 25.02064
#
# Velocity S-wave (km/s) = 3.18573 3.48295 3.33765
# Velocity P-wave (km/s) = 5.80606 6.16973 5.99066
#
# Compressibility (1/GPa) = 0.02206449
#
# Stress axis : x y z
#
# Youngs Moduli (GPa) = 100.61582 77.64632 67.03307
#
# Poissons Ratio (x) = 0.33816 -0.07056
# Poissons Ratio (y) = 0.43819 0.30387
# Poissons Ratio (z) = -0.10591 0.35198
#
# Static dielectric constant tensor:
#      x y z
#    x 1.865090 0.000000 0.000000 
#    y 0.000000 2.026930 0.000000 
#    z 0.000000 0.000000 1.837120 
# 
# From -- ./inp_files/22541.got.cif
#   From: 2010.05.17/outbox.cif.g08.bks.cpg/sg46_12_cif.got.tgz:22541.got - 2010.06.03 19:58:25.
