data_PCOD9379209
_publ_section_title
;
Structure prediction by ZEFSAII (Michael W. Deem and Ramdas Pophale) SiO2 
 PCOD9379209
Probable space group: I M A 2
;
_chemical_formula_sum "Si O2"
_cell_formula_units_Z 56
_cell_length_a 25.337496
_cell_length_b 13.183780
_cell_length_c 7.838627
_cell_angle_alpha 90.000000
_cell_angle_beta 90.000000
_cell_angle_gamma 90.000000
_cell_volume 2618.446106
_symmetry_space_group_name_H-M "I M A 2"
_symmetry_group_IT_number 46
_symmetry_cell_setting 'orthorhombic'
loop_
_space_group_symop_operation_xyz
x,y,z
-x,-y,z
1/2-x,y,z
1/2+x,-y,z
1/2+x,1/2+y,1/2+z
1/2-x,1/2-y,1/2+z
-x,1/2+y,1/2+z
x,1/2-y,1/2+z
loop_
_atom_site_type_symbol
_atom_site_label
_atom_site_fract_x
_atom_site_fract_y
_atom_site_fract_z
Si Si1 0.452613 0.416542 0.684930
Si Si2 0.250000 0.754855 0.748056
Si Si3 0.134129 0.972782 0.976122
Si Si4 0.971534 0.763710 0.868780
Si Si5 0.634615 0.226196 0.164891
Si Si6 0.750000 0.073949 0.038906
Si Si7 0.074335 0.863686 0.457564
Si Si8 0.555674 0.958491 0.690451
O O1 0.500000 0.500000 0.705489
O O2 0.401435 0.475657 0.620911
O O3 0.436557 0.336250 0.832396
O O4 0.468895 0.340682 0.528040
O O5 0.192145 0.776198 0.670357
O O6 0.250000 0.826940 0.913649
O O7 0.250000 0.630563 0.724853
O O8 0.129028 0.852065 0.007115
O O9 0.196670 0.987426 0.001381
O O10 0.106506 0.013008 0.804597
O O11 0.956432 0.839386 0.711438
O O12 0.026506 0.701366 0.879888
O O13 0.622417 0.157335 0.329178
O O14 0.591126 0.310394 0.132767
O O15 0.061491 0.977852 0.514512
O O16 0.500000 0.000000 0.764957
#
# Coordination Sequence:
#
# PCOD9379209 Si02
#       8
#     8   4   8   8   8   4   8   8
#     4  11  23  39  59  85 118 155 193 238 294 350
#     4  10  20  32  52  80 114 152 192 238 288 348
#     4  10  21  37  57  82 116 154 195 241 290 350
#     4  11  23  37  56  84 115 149 193 239 285 348
#     4  11  21  34  53  83 117 156 197 236 288 351
#     4  10  20  36  56  82 114 152 196 240 292 350
#     4  12  22  35  57  83 118 156 192 239 292 349
#     4  11  22  37  56  83 118 153 192 240 293 351
#
# _framework density 21.38673
#
# number of rings (size 3 to 8) (size 9 to 14) (size 15 to 20)
#    0.000    1.143    0.000   10.286    0.000    4.000 
#    0.000    0.000    0.000    3.429    0.000    0.000 
#    0.000    0.000    0.000    0.000    0.000    0.000 
#
# Total GULP energy -155924.451863 kJ/mol
# GULP energy per Si atom -5568.730424 kJ/mol
# Density = 2.133805 g / cm^3
# Si number density = 21.386730 Si / 1000 Ang^3
#
#
#
# Elastic Constant Matrix: (Units=GPa)
#
#
# Indices 1 2 3 4 5 6 
#
# 1 142.4960 50.9575 26.4097 0.0000 0.0000 0.0000
# 2 50.9575 167.8482 43.2086 0.0000 0.0000 0.0000
# 3 26.4097 43.2086 79.7660 0.0000 0.0000 0.0000
# 4 0.0000 0.0000 0.0000 45.9440 0.0000 0.0000
# 5 0.0000 0.0000 0.0000 0.0000 24.6741 0.0000
# 6 0.0000 0.0000 0.0000 0.0000 0.0000 27.5782
#
#
#
# Elastic Compliance Matrix: (Units=1/GPa)
#
#
# Indices 1 2 3 4 5 6 
#
# 1 0.008035 -0.002039 -0.001556 0.000000 0.000000 0.000000
# 2 -0.002039 0.007441 -0.003355 0.000000 0.000000 0.000000
# 3 -0.001556 -0.003355 0.014869 0.000000 0.000000 0.000000
# 4 0.000000 0.000000 0.000000 0.021766 0.000000 0.000000
# 5 0.000000 0.000000 0.000000 0.000000 0.040528 0.000000
# 6 0.000000 0.000000 0.000000 0.000000 0.000000 0.036261
#
#
# Mechanical properties :
#
#
# Convention : Reuss Voigt Hill
#
# Bulk Modulus (GPa) = 60.80988 70.14021 65.47505
# Shear Modulus (GPa) = 33.71958 37.60821 35.66390
#
# Velocity S-wave (km/s) = 3.97502 4.19798 4.08802
# Velocity P-wave (km/s) = 7.04010 7.50764 7.27762
#
# Compressibility (1/GPa) = 0.01644470
#
# Stress axis : x y z
#
# Youngs Moduli (GPa) = 124.45187 134.39893 67.25212
#
# Poissons Ratio (x) = 0.27403 0.10464
# Poissons Ratio (y) = 0.25375 0.22566
# Poissons Ratio (z) = 0.19364 0.45096
#
# Static dielectric constant tensor:
#      x y z
#    x 1.761700 0.000000 0.000000 
#    y 0.000000 1.794760 0.000000 
#    z 0.000000 0.000000 1.990500 
# 
# From -- ./inp_files/8218.got.cif
#   From: 2010.05.17/outbox.cif.g08.bks.cpg/sg46_5_cif.got.tgz:8218.got - 2010.06.03 19:58:25.
