data_PCOD9379147
_publ_section_title
;
Structure prediction by ZEFSAII (Michael W. Deem and Ramdas Pophale) SiO2 
 PCOD9379147
Probable space group: I M A 2
;
_chemical_formula_sum "Si O2"
_cell_formula_units_Z 48
_cell_length_a 30.473156
_cell_length_b 8.504269
_cell_length_c 9.965287
_cell_angle_alpha 90.000000
_cell_angle_beta 90.000000
_cell_angle_gamma 90.000000
_cell_volume 2582.523219
_symmetry_space_group_name_H-M "I M A 2"
_symmetry_group_IT_number 46
_symmetry_cell_setting 'orthorhombic'
loop_
_space_group_symop_operation_xyz
x,y,z
-x,-y,z
1/2-x,y,z
1/2+x,-y,z
1/2+x,1/2+y,1/2+z
1/2-x,1/2-y,1/2+z
-x,1/2+y,1/2+z
x,1/2-y,1/2+z
loop_
_atom_site_type_symbol
_atom_site_label
_atom_site_fract_x
_atom_site_fract_y
_atom_site_fract_z
Si Si1 0.452202 0.437822 0.048470
Si Si2 0.328406 0.159707 0.441368
Si Si3 0.410458 0.376677 0.531008
Si Si4 0.298268 0.414580 0.234598
Si Si5 0.108987 0.575313 0.280728
Si Si6 0.603978 0.445030 0.807879
O O1 0.500000 0.500000 0.082753
O O2 0.417565 0.490871 0.161743
O O3 0.449815 0.248937 0.034322
O O4 0.435021 0.514827 0.910837
O O5 0.368869 0.269527 0.489293
O O6 0.304081 0.258094 0.325745
O O7 0.301971 0.124032 0.576395
O O8 0.351338 0.005651 0.378901
O O9 0.411910 0.510095 0.418303
O O10 0.402809 0.452481 0.674926
O O11 0.250000 0.482476 0.262732
O O12 0.340109 0.522734 0.270129
O O13 0.105452 0.762082 0.274295
#
# Coordination Sequence:
#
# PCOD9379147 Si02
#       6
#     8   8   8   8   8   8
#     4  11  23  41  64  92 121 159 209 256 307 369
#     4  10  19  38  62  88 118 160 206 259 300 365
#     4  10  20  39  65  85 120 163 202 249 303 367
#     4  11  21  38  63  92 122 163 214 254 306 372
#     4  11  23  39  63  90 130 162 201 256 312 365
#     4  11  21  39  63  89 123 165 203 250 316 364
#
# _framework density 18.586473000000002
#
# number of rings (size 3 to 8) (size 9 to 14) (size 15 to 20)
#    0.000    1.333    5.000    3.500    0.000    2.667 
#    0.000    4.167    0.000    0.000    0.000    0.000 
#    0.000    0.000    0.000    0.000    0.000    0.000 
#
# Total GULP energy -133989.040473 kJ/mol
# GULP energy per Si atom -5582.876686 kJ/mol
# Density = 1.854417 g / cm^3
# Si number density = 18.586473 Si / 1000 Ang^3
#
#
#
# Elastic Constant Matrix: (Units=GPa)
#
#
# Indices 1 2 3 4 5 6 
#
# 1 88.0556 21.1624 11.5243 0.0000 0.0000 0.0000
# 2 21.1624 79.9083 8.2795 0.0000 0.0000 0.0000
# 3 11.5243 8.2795 96.9435 0.0000 0.0000 0.0000
# 4 0.0000 0.0000 0.0000 19.9034 0.0000 0.0000
# 5 0.0000 0.0000 0.0000 0.0000 4.8526 0.0000
# 6 0.0000 0.0000 0.0000 0.0000 0.0000 16.6237
#
#
#
# Elastic Compliance Matrix: (Units=1/GPa)
#
#
# Indices 1 2 3 4 5 6 
#
# 1 0.012263 -0.003124 -0.001191 0.000000 0.000000 0.000000
# 2 -0.003124 0.013422 -0.000775 0.000000 0.000000 0.000000
# 3 -0.001191 -0.000775 0.010523 0.000000 0.000000 0.000000
# 4 0.000000 0.000000 0.000000 0.050243 0.000000 0.000000
# 5 0.000000 0.000000 0.000000 0.000000 0.206073 0.000000
# 6 0.000000 0.000000 0.000000 0.000000 0.000000 0.060155
#
#
# Mechanical properties :
#
#
# Convention : Reuss Voigt Hill
#
# Bulk Modulus (GPa) = 38.42028 38.53775 38.47901
# Shear Modulus (GPa) = 13.45766 23.20535 18.33151
#
# Velocity S-wave (km/s) = 2.69375 3.53726 3.14392
# Velocity P-wave (km/s) = 5.51280 6.12064 5.82466
#
# Compressibility (1/GPa) = 0.02602792
#
# Stress axis : x y z
#
# Youngs Moduli (GPa) = 81.54479 74.50423 95.02948
#
# Poissons Ratio (x) = 0.23277 0.11318
# Poissons Ratio (y) = 0.25477 0.07364
# Poissons Ratio (z) = 0.09712 0.05773
#
# Static dielectric constant tensor:
#      x y z
#    x 1.648400 0.000000 0.000000 
#    y 0.000000 1.622610 0.000000 
#    z 0.000000 0.000000 1.644630 
# 
# From -- ./inp_files/8399.got.cif
#   From: 2010.05.17/outbox.cif.g08.bks.cpg/sg46_5_cif.got.tgz:8399.got - 2010.06.03 19:58:25.
