data_PCOD9379827
_publ_section_title
;
Structure prediction by ZEFSAII (Michael W. Deem and Ramdas Pophale) SiO2 
 PCOD9379827
Probable space group: I M A 2
;
_chemical_formula_sum "Si O2"
_cell_formula_units_Z 48
_cell_length_a 25.382661
_cell_length_b 5.122930
_cell_length_c 15.487154
_cell_angle_alpha 90.000000
_cell_angle_beta 90.000000
_cell_angle_gamma 90.000000
_cell_volume 2013.850319
_symmetry_space_group_name_H-M "I M A 2"
_symmetry_group_IT_number 46
_symmetry_cell_setting 'orthorhombic'
loop_
_space_group_symop_operation_xyz
x,y,z
-x,-y,z
1/2-x,y,z
1/2+x,-y,z
1/2+x,1/2+y,1/2+z
1/2-x,1/2-y,1/2+z
-x,1/2+y,1/2+z
x,1/2-y,1/2+z
loop_
_atom_site_type_symbol
_atom_site_label
_atom_site_fract_x
_atom_site_fract_y
_atom_site_fract_z
Si Si1 0.250000 0.554506 0.644470
Si Si2 0.054140 0.911300 0.400068
Si Si3 0.429449 0.425143 0.289387
Si Si4 0.136261 0.066669 0.517692
Si Si5 0.855598 0.228093 0.694209
Si Si6 0.250000 0.060411 0.525721
Si Si7 0.942743 0.614478 0.621564
O O1 0.197333 0.607101 0.698701
O O2 0.250000 0.269598 0.603801
O O3 0.250000 0.764699 0.564376
O O4 0.043091 0.666726 0.338364
O O5 0.071053 0.163484 0.344791
O O6 0.101897 0.861391 0.464166
O O7 0.000000 0.000000 0.445272
O O8 0.371385 0.545952 0.273292
O O9 0.449519 0.341874 0.193949
O O10 0.193994 0.115963 0.478422
O O11 0.093284 0.289088 0.541564
O O12 0.150226 0.955554 0.611323
O O13 0.905835 0.407235 0.671401
O O14 0.000000 0.500000 0.598635
#
# Coordination Sequence:
#
# PCOD9379827 Si02
#       7
#     4   8   8   8   8   4   8
#     4  10  20  38  68  99 125 164 213 284 332 387
#     4  12  27  42  64  92 140 180 221 266 339 403
#     4  11  25  44  63  94 132 184 214 265 335 408
#     4  10  25  41  67 102 131 177 222 287 328 398
#     4  10  22  42  69  98 131 167 226 274 332 393
#     4  10  20  42  66  93 131 170 217 268 344 391
#     4  11  23  39  72 101 134 169 226 276 334 403
#
# _framework density 23.834938000000001
#
# number of rings (size 3 to 8) (size 9 to 14) (size 15 to 20)
#    0.000    1.333    3.333    1.000    7.000    1.333 
#    0.000    1.667    0.000    0.000    0.000    0.000 
#    0.000    0.000    0.000    0.000    0.000    0.000 
#
# Total GULP energy -134020.349368 kJ/mol
# GULP energy per Si atom -5584.181224 kJ/mol
# Density = 2.378069 g / cm^3
# Si number density = 23.834938 Si / 1000 Ang^3
#
#
#
# Elastic Constant Matrix: (Units=GPa)
#
#
# Indices 1 2 3 4 5 6 
#
# 1 204.3665 37.9373 20.6180 0.0000 0.0000 0.0000
# 2 37.9373 126.7789 18.4316 0.0000 0.0000 0.0000
# 3 20.6180 18.4316 33.9935 0.0000 0.0000 0.0000
# 4 0.0000 0.0000 0.0000 17.7360 0.0000 0.0000
# 5 0.0000 0.0000 0.0000 0.0000 23.0894 0.0000
# 6 0.0000 0.0000 0.0000 0.0000 0.0000 39.9728
#
#
#
# Elastic Compliance Matrix: (Units=1/GPa)
#
#
# Indices 1 2 3 4 5 6 
#
# 1 0.005384 -0.001234 -0.002597 0.000000 0.000000 0.000000
# 2 -0.001234 0.008845 -0.004048 0.000000 0.000000 0.000000
# 3 -0.002597 -0.004048 0.033187 0.000000 0.000000 0.000000
# 4 0.000000 0.000000 0.000000 0.056382 0.000000 0.000000
# 5 0.000000 0.000000 0.000000 0.000000 0.043310 0.000000
# 6 0.000000 0.000000 0.000000 0.000000 0.000000 0.025017
#
#
# Mechanical properties :
#
#
# Convention : Reuss Voigt Hill
#
# Bulk Modulus (GPa) = 31.58530 57.67917 44.63223
# Shear Modulus (GPa) = 25.19705 35.36978 30.28341
#
# Velocity S-wave (km/s) = 3.25491 3.85638 3.56834
# Velocity P-wave (km/s) = 5.23511 6.63934 5.97860
#
# Compressibility (1/GPa) = 0.03166030
#
# Stress axis : x y z
#
# Youngs Moduli (GPa) = 185.73027 113.05326 30.13213
#
# Poissons Ratio (x) = 0.13947 0.07825
# Poissons Ratio (y) = 0.22912 0.12197
# Poissons Ratio (z) = 0.48229 0.45762
#
# Static dielectric constant tensor:
#      x y z
#    x 2.073530 0.000000 0.000000 
#    y 0.000000 1.936280 0.000000 
#    z 0.000000 0.000000 1.931570 
# 
# From -- ./inp_files/20351.got.cif
#   From: 2010.05.17/outbox.cif.g08.bks.cpg/sg46_11_cif.got.tgz:20351.got - 2010.06.03 19:58:25.
