data_PCOD9379912
_publ_section_title
;
Structure prediction by ZEFSAII (Michael W. Deem and Ramdas Pophale) SiO2 
 PCOD9379912
Probable space group: I M A 2
;
_chemical_formula_sum "Si O2"
_cell_formula_units_Z 48
_cell_length_a 19.151075
_cell_length_b 7.490064
_cell_length_c 15.326818
_cell_angle_alpha 90.000000
_cell_angle_beta 90.000000
_cell_angle_gamma 90.000000
_cell_volume 2198.521343
_symmetry_space_group_name_H-M "I M A 2"
_symmetry_group_IT_number 46
_symmetry_cell_setting 'orthorhombic'
loop_
_space_group_symop_operation_xyz
x,y,z
-x,-y,z
1/2-x,y,z
1/2+x,-y,z
1/2+x,1/2+y,1/2+z
1/2-x,1/2-y,1/2+z
-x,1/2+y,1/2+z
x,1/2-y,1/2+z
loop_
_atom_site_type_symbol
_atom_site_label
_atom_site_fract_x
_atom_site_fract_y
_atom_site_fract_z
Si Si1 0.106456 0.938491 0.346600
Si Si2 0.750000 0.431185 0.936043
Si Si3 0.101441 0.344736 0.407461
Si Si4 0.000000 0.000000 0.764451
Si Si5 0.750000 0.184270 0.106204
Si Si6 0.904236 0.287608 0.667626
Si Si7 0.250000 0.361385 0.479937
Si Si8 0.481779 0.705833 0.000737
O O1 0.183821 0.886912 0.375934
O O2 0.089562 0.932469 0.244603
O O3 0.054459 0.820188 0.405830
O O4 0.104307 0.139913 0.378203
O O5 0.750000 0.305502 0.019791
O O6 0.750000 0.640081 0.972820
O O7 0.061412 0.436936 0.329050
O O8 0.177957 0.412577 0.431604
O O9 0.050515 0.325274 0.490541
O O10 0.957501 0.138658 0.704923
O O11 0.679462 0.233468 0.158359
O O12 0.750000 0.976207 0.070757
O O13 0.930015 0.297740 0.568400
O O14 0.500000 0.500000 0.025656
#
# Coordination Sequence:
#
# PCOD9379912 Si02
#       8
#     8   4   8   4   4   8   4   8
#     4  10  21  44  70  97 145 189 237 297 373 435
#     4  10  21  45  77  96 151 196 228 314 362 431
#     4  10  24  46  71 102 139 190 240 307 368 440
#     4  12  26  42  70 110 136 188 248 304 372 446
#     4  12  27  46  71 113 144 196 248 299 373 450
#     4  12  25  43  70 111 144 188 251 305 370 457
#     4  10  26  47  74 109 139 192 254 289 379 445
#     4  10  20  41  69 101 139 182 239 299 366 437
#
# _framework density 21.832856
#
# number of rings (size 3 to 8) (size 9 to 14) (size 15 to 20)
#    0.000    1.333    4.167    0.500    4.667    0.667 
#    9.000    0.000    0.000    0.000    0.000    0.000 
#    0.000    0.000    0.000    0.000    0.000    0.000 
#
# Total GULP energy -133802.507095 kJ/mol
# GULP energy per Si atom -5575.104462 kJ/mol
# Density = 2.178316 g / cm^3
# Si number density = 21.832856 Si / 1000 Ang^3
#
#
#
# Elastic Constant Matrix: (Units=GPa)
#
#
# Indices 1 2 3 4 5 6 
#
# 1 165.3929 21.1405 16.7911 0.0000 0.0000 0.0000
# 2 21.1405 59.6456 10.2470 0.0000 0.0000 0.0000
# 3 16.7911 10.2470 56.4631 0.0000 0.0000 0.0000
# 4 0.0000 0.0000 0.0000 -4.1548 0.0000 0.0000
# 5 0.0000 0.0000 0.0000 0.0000 60.5934 0.0000
# 6 0.0000 0.0000 0.0000 0.0000 0.0000 19.3572
#
#
#
# Elastic Compliance Matrix: (Units=1/GPa)
#
#
# Indices 1 2 3 4 5 6 
#
# 1 0.006463 -0.002024 -0.001555 0.000000 0.000000 0.000000
# 2 -0.002024 0.017939 -0.002654 0.000000 0.000000 0.000000
# 3 -0.001555 -0.002654 0.018655 0.000000 0.000000 0.000000
# 4 0.000000 0.000000 0.000000 -0.240688 0.000000 0.000000
# 5 0.000000 0.000000 0.000000 0.000000 0.016503 0.000000
# 6 0.000000 0.000000 0.000000 0.000000 0.000000 0.051660
#
#
# Mechanical properties :
#
#
# Convention : Reuss Voigt Hill
#
# Bulk Modulus (GPa) = 32.68809 41.98431 37.33620
# Shear Modulus (GPa) = -46.81348 30.71404 -8.04972
#
# Velocity S-wave (km/s) = -4.63555 3.75478 -1.92223
# Velocity P-wave (km/s) = 3.69413 6.17004 3.49448
#
# Compressibility (1/GPa) = 0.03059218
#
# Stress axis : x y z
#
# Youngs Moduli (GPa) = 154.73441 55.74502 53.60604
#
# Poissons Ratio (x) = 0.11280 0.08334
# Poissons Ratio (y) = 0.31311 0.14226
# Poissons Ratio (z) = 0.24056 0.14794
#
# Static dielectric constant tensor:
#      x y z
#    x 1.823840 0.000000 0.000000 
#    y 0.000000 1.861600 0.000000 
#    z 0.000000 0.000000 1.802120 
# 
# From -- ./inp_files/16607.got.cif
#   From: 2010.05.17/outbox.cif.g08.bks.cpg/sg46_9_cif.got.tgz:16607.got - 2010.06.03 19:58:25.
