data_PCOD9379282
_publ_section_title
;
Structure prediction by ZEFSAII (Michael W. Deem and Ramdas Pophale) SiO2 
 PCOD9379282
Probable space group: I M A 2
;
_chemical_formula_sum "Si O2"
_cell_formula_units_Z 64
_cell_length_a 17.714986
_cell_length_b 16.516395
_cell_length_c 11.577658
_cell_angle_alpha 90.000000
_cell_angle_beta 90.000000
_cell_angle_gamma 90.000000
_cell_volume 3387.480397
_symmetry_space_group_name_H-M "I M A 2"
_symmetry_group_IT_number 46
_symmetry_cell_setting 'orthorhombic'
loop_
_space_group_symop_operation_xyz
x,y,z
-x,-y,z
1/2-x,y,z
1/2+x,-y,z
1/2+x,1/2+y,1/2+z
1/2-x,1/2-y,1/2+z
-x,1/2+y,1/2+z
x,1/2-y,1/2+z
loop_
_atom_site_type_symbol
_atom_site_label
_atom_site_fract_x
_atom_site_fract_y
_atom_site_fract_z
Si Si1 0.334882 0.874116 0.296250
Si Si2 0.161738 0.304374 0.700360
Si Si3 0.333454 0.626580 0.381756
Si Si4 0.831082 0.223511 0.644835
Si Si5 0.915566 0.975721 0.204378
Si Si6 0.609832 0.782604 0.936001
Si Si7 0.583476 0.526110 0.431010
Si Si8 0.561197 0.267636 0.957699
O O1 0.250000 0.870042 0.344901
O O2 0.333464 0.816753 0.184096
O O3 0.398355 0.830282 0.372277
O O4 0.357961 0.964751 0.267628
O O5 0.250000 0.327970 0.698467
O O6 0.107864 0.382534 0.717507
O O7 0.144300 0.271888 0.567742
O O8 0.148736 0.250811 0.817556
O O9 0.250000 0.633236 0.435102
O O10 0.328907 0.669028 0.258051
O O11 0.357168 0.533841 0.372940
O O12 0.397833 0.680224 0.442768
O O13 0.750000 0.210219 0.583289
O O14 0.908163 0.204019 0.580726
O O15 0.911818 0.992636 0.067609
O O16 0.000000 0.000000 0.242446
O O17 0.599675 0.879183 0.918267
O O18 0.526864 0.742504 0.942236
O O19 0.500000 0.500000 0.391350
#
# Coordination Sequence:
#
# PCOD9379282 Si02
#       8
#     8   8   8   8   8   8   8   8
#     4  10  20  33  54  85 121 161 198 245 310 372
#     4  11  25  46  66  93 124 164 211 261 310 367
#     4  10  20  33  54  83 122 160 197 247 308 364
#     4   9  19  32  51  83 122 160 196 240 301 377
#     4  10  21  36  61  88 122 152 207 258 315 359
#     4  11  25  40  70  91 123 163 212 259 309 366
#     4  10  20  36  56  88 118 159 203 260 305 364
#     4  11  20  33  58  86 124 154 203 245 308 367
#
# _framework density 18.893098999999999
#
# number of rings (size 3 to 8) (size 9 to 14) (size 15 to 20)
#    0.000    1.750    1.250    4.125    7.000    4.000 
#    0.000    1.250    0.000    3.000    0.000    0.000 
#    0.000    0.000    0.000    0.000    0.000    0.000 
#
# Total GULP energy -178229.231797 kJ/mol
# GULP energy per Si atom -5569.663494 kJ/mol
# Density = 1.885010 g / cm^3
# Si number density = 18.893099 Si / 1000 Ang^3
#
#
#
# Elastic Constant Matrix: (Units=GPa)
#
#
# Indices 1 2 3 4 5 6 
#
# 1 93.7672 13.4535 27.7781 0.0000 0.0000 0.0000
# 2 13.4535 72.6760 35.1074 0.0000 0.0000 0.0000
# 3 27.7781 35.1074 77.3303 0.0000 0.0000 0.0000
# 4 0.0000 0.0000 0.0000 9.0602 0.0000 0.0000
# 5 0.0000 0.0000 0.0000 0.0000 28.2508 0.0000
# 6 0.0000 0.0000 0.0000 0.0000 0.0000 -240.3270
#
#
#
# Elastic Compliance Matrix: (Units=1/GPa)
#
#
# Indices 1 2 3 4 5 6 
#
# 1 0.011937 -0.000177 -0.004207 0.000000 0.000000 0.000000
# 2 -0.000177 0.017628 -0.007939 0.000000 0.000000 0.000000
# 3 -0.004207 -0.007939 0.018047 0.000000 0.000000 0.000000
# 4 0.000000 0.000000 0.000000 0.110373 0.000000 0.000000
# 5 0.000000 0.000000 0.000000 0.000000 0.035397 0.000000
# 6 0.000000 0.000000 0.000000 0.000000 0.000000 -0.004161
#
#
# Mechanical properties :
#
#
# Convention : Reuss Voigt Hill
#
# Bulk Modulus (GPa) = 43.54647 44.05016 43.79831
# Shear Modulus (GPa) = 22.57104 -29.44091 -3.43493
#
# Velocity S-wave (km/s) = 3.46015 -3.95180 -1.34983
# Velocity P-wave (km/s) = 6.25000 1.59493 4.56104
#
# Compressibility (1/GPa) = 0.02296398
#
# Stress axis : x y z
#
# Youngs Moduli (GPa) = 83.77644 56.72896 55.41025
#
# Poissons Ratio (x) = 0.01005 0.23313
# Poissons Ratio (y) = 0.01485 0.43991
# Poissons Ratio (z) = 0.35247 0.45038
#
# Static dielectric constant tensor:
#      x y z
#    x 1.673100 0.000000 0.000000 
#    y 0.000000 1.648360 0.000000 
#    z 0.000000 0.000000 1.731120 
# 
# From -- ./inp_files/11342.got.cif
#   From: 2010.05.17/outbox.cif.g08.bks.cpg/sg46_6_cif.got.tgz:11342.got - 2010.06.03 19:58:25.
