data_PCOD9379748
_publ_section_title
;
Structure prediction by ZEFSAII (Michael W. Deem and Ramdas Pophale) SiO2 
 PCOD9379748
Probable space group: I M A 2
;
_chemical_formula_sum "Si O2"
_cell_formula_units_Z 64
_cell_length_a 19.335312
_cell_length_b 12.364649
_cell_length_c 14.093682
_cell_angle_alpha 90.000000
_cell_angle_beta 90.000000
_cell_angle_gamma 90.000000
_cell_volume 3369.437809
_symmetry_space_group_name_H-M "I M A 2"
_symmetry_group_IT_number 46
_symmetry_cell_setting 'orthorhombic'
loop_
_space_group_symop_operation_xyz
x,y,z
-x,-y,z
1/2-x,y,z
1/2+x,-y,z
1/2+x,1/2+y,1/2+z
1/2-x,1/2-y,1/2+z
-x,1/2+y,1/2+z
x,1/2-y,1/2+z
loop_
_atom_site_type_symbol
_atom_site_label
_atom_site_fract_x
_atom_site_fract_y
_atom_site_fract_z
Si Si1 0.415839 0.322173 0.995970
Si Si2 0.668999 0.857436 0.889663
Si Si3 0.077563 0.505877 0.835286
Si Si4 0.576972 0.294531 0.973539
Si Si5 0.667590 0.157142 0.655795
Si Si6 0.832688 0.908225 0.678727
Si Si7 0.328512 0.607888 0.695010
Si Si8 0.328496 0.598617 0.467165
O O1 0.375982 0.218649 0.956002
O O2 0.410871 0.412667 0.912849
O O3 0.497112 0.293623 0.006907
O O4 0.379328 0.367005 0.091376
O O5 0.750000 0.828974 0.899548
O O6 0.650937 0.849645 0.778060
O O7 0.661751 0.981667 0.921785
O O8 0.082775 0.617844 0.891712
O O9 0.129311 0.516633 0.748803
O O10 0.000000 0.500000 0.797427
O O11 0.610971 0.181827 0.941730
O O12 0.624900 0.335779 0.059169
O O13 0.750000 0.167865 0.637438
O O14 0.647761 0.267196 0.711064
O O15 0.656536 0.037277 0.695923
O O16 0.750000 0.894367 0.658341
O O17 0.250000 0.601357 0.728476
O O18 0.330406 0.590811 0.581762
O O19 0.250000 0.636811 0.441156
#
# Coordination Sequence:
#
# PCOD9379748 Si02
#       8
#     8   8   8   8   8   8   8   8
#     4  11  23  41  58  86 126 164 203 242 295 366
#     4  10  23  42  62  87 121 160 205 253 298 358
#     4  10  22  38  56  84 126 162 198 240 296 358
#     4  10  20  38  60  86 122 157 195 247 303 353
#     4   9  18  36  61  91 118 147 195 249 303 353
#     4  10  21  39  64  89 115 157 203 248 302 357
#     4   9  19  35  59  91 118 149 197 249 302 353
#     4   9  20  41  63  88 122 154 195 256 310 351
#
# _framework density 18.994266
#
# number of rings (size 3 to 8) (size 9 to 14) (size 15 to 20)
#    0.000    2.250    1.250    1.500    1.750    3.500 
#   13.500    3.750    0.000    0.000    0.000    0.000 
#    0.000    0.000    0.000    0.000    0.000    0.000 
#
# Total GULP energy -178470.246031 kJ/mol
# GULP energy per Si atom -5577.195188 kJ/mol
# Density = 1.895103 g / cm^3
# Si number density = 18.994266 Si / 1000 Ang^3
#
#
#
# Elastic Constant Matrix: (Units=GPa)
#
#
# Indices 1 2 3 4 5 6 
#
# 1 56.6017 43.9256 29.0595 0.0000 0.0000 0.0000
# 2 43.9256 66.3257 27.9747 0.0000 0.0000 0.0000
# 3 29.0595 27.9747 44.4299 0.0000 0.0000 0.0000
# 4 0.0000 0.0000 0.0000 15.7338 0.0000 0.0000
# 5 0.0000 0.0000 0.0000 0.0000 3426.6329 0.0000
# 6 0.0000 0.0000 0.0000 0.0000 0.0000 27.7079
#
#
#
# Elastic Compliance Matrix: (Units=1/GPa)
#
#
# Indices 1 2 3 4 5 6 
#
# 1 0.041474 -0.021821 -0.013387 0.000000 0.000000 0.000000
# 2 -0.021821 0.032009 -0.005882 0.000000 0.000000 0.000000
# 3 -0.013387 -0.005882 0.034967 0.000000 0.000000 0.000000
# 4 0.000000 0.000000 0.000000 0.063558 0.000000 0.000000
# 5 0.000000 0.000000 0.000000 0.000000 0.000292 0.000000
# 6 0.000000 0.000000 0.000000 0.000000 0.000000 0.036091
#
#
# Mechanical properties :
#
#
# Convention : Reuss Voigt Hill
#
# Bulk Modulus (GPa) = 38.06614 41.03075 39.54845
# Shear Modulus (GPa) = 16.70405 698.44141 357.57273
#
# Velocity S-wave (km/s) = 2.96873 19.19661 13.73542
# Velocity P-wave (km/s) = 5.64230 22.64940 16.50501
#
# Compressibility (1/GPa) = 0.02627007
#
# Stress axis : x y z
#
# Youngs Moduli (GPa) = 24.11128 31.24074 28.59829
#
# Poissons Ratio (x) = 0.68170 0.38285
# Poissons Ratio (y) = 0.52613 0.16823
# Poissons Ratio (z) = 0.32278 0.18377
#
# Static dielectric constant tensor:
#      x y z
#    x -0.893130 0.000000 0.000000 
#    y 0.000000 1.676640 0.000000 
#    z 0.000000 0.000000 1.661110 
# 
# From -- ./inp_files/16779.got.cif
#   From: 2010.05.17/outbox.cif.g08.bks.cpg/sg46_9_cif.got.tgz:16779.got - 2010.06.03 19:58:25.
