data_PCOD9379941
_publ_section_title
;
Structure prediction by ZEFSAII (Michael W. Deem and Ramdas Pophale) SiO2 
 PCOD9379941
Probable space group: I M A 2
;
_chemical_formula_sum "Si O2"
_cell_formula_units_Z 64
_cell_length_a 14.663833
_cell_length_b 18.195069
_cell_length_c 14.447905
_cell_angle_alpha 90.000000
_cell_angle_beta 90.000000
_cell_angle_gamma 90.000000
_cell_volume 3854.837634
_symmetry_space_group_name_H-M "I M A 2"
_symmetry_group_IT_number 46
_symmetry_cell_setting 'orthorhombic'
loop_
_space_group_symop_operation_xyz
x,y,z
-x,-y,z
1/2-x,y,z
1/2+x,-y,z
1/2+x,1/2+y,1/2+z
1/2-x,1/2-y,1/2+z
-x,1/2+y,1/2+z
x,1/2-y,1/2+z
loop_
_atom_site_type_symbol
_atom_site_label
_atom_site_fract_x
_atom_site_fract_y
_atom_site_fract_z
Si Si1 0.981189 0.662440 0.378960
Si Si2 0.477003 0.336154 0.878960
Si Si3 0.353579 0.080728 0.022293
Si Si4 0.101021 0.534862 0.378960
Si Si5 0.641936 0.924333 0.519667
Si Si6 0.141936 0.424333 0.738253
Si Si7 0.356768 0.945050 0.378960
Si Si8 0.853579 0.580727 0.235627
O O1 0.988140 0.749275 0.378960
O O2 0.922945 0.633047 0.467097
O O3 0.922945 0.633047 0.290823
O O4 0.078898 0.620638 0.378960
O O5 0.418899 0.364611 0.790865
O O6 0.573065 0.378624 0.878960
O O7 0.418899 0.364611 0.967056
O O8 0.250000 0.109562 0.015007
O O9 0.377633 0.072138 0.129503
O O10 0.355198 0.002198 0.969148
O O11 0.144802 0.497802 0.288772
O O12 0.000000 0.500000 0.378960
O O13 0.750000 0.907939 0.507666
O O14 0.622368 0.927862 0.628418
O O15 0.625997 0.001565 0.467048
O O16 0.250000 0.407939 0.750253
O O17 0.125997 0.501565 0.790872
O O18 0.250000 0.924135 0.378960
O O19 0.750000 0.609562 0.242913
#
# Coordination Sequence:
#
# PCOD9379941 Si02
#       8
#     8   8   8   8   8   8   8   8
#     4  10  21  31  43  72 104 130 162 193 234 298
#     4  11  21  32  48  72 104 136 155 190 247 294
#     4   9  17  32  53  73  94 124 160 203 246 283
#     4   8  16  30  47  66  91 123 163 200 226 268
#     4   9  18  32  53  77  96 122 164 204 242 289
#     4   9  18  32  53  77  96 122 164 204 242 289
#     4   9  19  35  52  72  94 123 170 211 235 276
#     4   9  17  32  53  73  94 124 160 203 246 283
#
# _framework density 16.602516000000001
#
# number of rings (size 3 to 8) (size 9 to 14) (size 15 to 20)
#    0.000    3.000    0.000    4.125    0.000    9.000 
#    0.000    3.750    0.000    0.000    0.000    8.750 
#    0.000    0.000    0.000    0.000    0.000    0.000 
#
# Total GULP energy -178228.159508 kJ/mol
# GULP energy per Si atom -5569.629985 kJ/mol
# Density = 1.656473 g / cm^3
# Si number density = 16.602516 Si / 1000 Ang^3
#
#
#
# Elastic Constant Matrix: (Units=GPa)
#
#
# Indices 1 2 3 4 5 6 
#
# 1 58.6712 59.8767 36.6871 0.0000 0.0000 0.0000
# 2 59.8767 152.6385 62.1377 0.0000 0.0000 0.0000
# 3 36.6871 62.1377 143.8403 0.0000 0.0000 0.0000
# 4 0.0000 0.0000 0.0000 2.6678 0.0000 0.0000
# 5 0.0000 0.0000 0.0000 0.0000 55.9287 0.0000
# 6 0.0000 0.0000 0.0000 0.0000 0.0000 11.7569
#
#
#
# Elastic Compliance Matrix: (Units=1/GPa)
#
#
# Indices 1 2 3 4 5 6 
#
# 1 0.029495 -0.010323 -0.003063 0.000000 0.000000 0.000000
# 2 -0.010323 0.011563 -0.002362 0.000000 0.000000 0.000000
# 3 -0.003063 -0.002362 0.008754 0.000000 0.000000 0.000000
# 4 0.000000 0.000000 0.000000 0.374837 0.000000 0.000000
# 5 0.000000 0.000000 0.000000 0.000000 0.017880 0.000000
# 6 0.000000 0.000000 0.000000 0.000000 0.000000 0.085057
#
#
# Mechanical properties :
#
#
# Convention : Reuss Voigt Hill
#
# Bulk Modulus (GPa) = 54.60177 74.72812 64.66495
# Shear Modulus (GPa) = 8.84665 27.16723 18.00694
#
# Velocity S-wave (km/s) = 2.31086 4.04955 3.29689
# Velocity P-wave (km/s) = 6.33081 8.18370 7.31615
#
# Compressibility (1/GPa) = 0.01831442
#
# Stress axis : x y z
#
# Youngs Moduli (GPa) = 33.90420 86.48648 114.23627
#
# Poissons Ratio (x) = 0.89281 0.34994
# Poissons Ratio (y) = 0.35000 0.26982
# Poissons Ratio (z) = 0.10386 0.20428
#
# Static dielectric constant tensor:
#      x y z
#    x 1.588600 0.000000 0.000000 
#    y 0.000000 1.557530 0.000000 
#    z 0.000000 0.000000 1.562850 
# 
# From -- ./inp_files/16191.got.cif
#   From: 2010.05.17/outbox.cif.g08.bks.cpg/sg46_9_cif.got.tgz:16191.got - 2010.06.03 19:58:25.
