data_PCOD9379375
_publ_section_title
;
Structure prediction by ZEFSAII (Michael W. Deem and Ramdas Pophale) SiO2 
 PCOD9379375
Probable space group: I M A 2
;
_chemical_formula_sum "Si O2"
_cell_formula_units_Z 64
_cell_length_a 14.748155
_cell_length_b 8.713903
_cell_length_c 21.355323
_cell_angle_alpha 90.000000
_cell_angle_beta 90.000000
_cell_angle_gamma 90.000000
_cell_volume 2744.457811
_symmetry_space_group_name_H-M "I M A 2"
_symmetry_group_IT_number 46
_symmetry_cell_setting 'orthorhombic'
loop_
_space_group_symop_operation_xyz
x,y,z
-x,-y,z
1/2-x,y,z
1/2+x,-y,z
1/2+x,1/2+y,1/2+z
1/2-x,1/2-y,1/2+z
-x,1/2+y,1/2+z
x,1/2-y,1/2+z
loop_
_atom_site_type_symbol
_atom_site_label
_atom_site_fract_x
_atom_site_fract_y
_atom_site_fract_z
Si Si1 0.399179 0.007838 0.142240
Si Si2 0.139942 0.612936 0.300434
Si Si3 0.353247 0.706255 0.920664
Si Si4 0.390572 0.164470 0.612905
Si Si5 0.589008 0.904090 0.472537
Si Si6 0.853869 0.660957 0.388578
Si Si7 0.646857 0.443796 0.509146
Si Si8 0.096535 0.664990 0.161819
O O1 0.406402 0.006299 0.067228
O O2 0.359812 0.836302 0.155487
O O3 0.500000 0.000000 0.171699
O O4 0.357070 0.180078 0.149282
O O5 0.250000 0.621231 0.289766
O O6 0.113826 0.739141 0.353040
O O7 0.120329 0.446649 0.330887
O O8 0.089674 0.638234 0.235812
O O9 0.250000 0.766733 0.920672
O O10 0.350057 0.531263 0.938760
O O11 0.396238 0.790442 0.980785
O O12 0.373720 0.164061 0.537695
O O13 0.498858 0.172563 0.627473
O O14 0.359817 0.994408 0.635947
O O15 0.577883 0.786741 0.415002
O O16 0.500000 0.000000 0.488625
O O17 0.750000 0.717867 0.378878
O O18 0.850507 0.550973 0.449026
O O19 0.750000 0.422012 0.532332
#
# Coordination Sequence:
#
# PCOD9379375 Si02
#       8
#     8   8   8   8   8   8   8   8
#     4  10  20  34  58  84 116 168 198 248 319 366
#     4   9  20  43  65  83 115 164 217 259 307 373
#     4   9  20  37  59  87 118 156 200 255 316 367
#     4  10  21  38  58  86 127 162 199 252 316 373
#     4  12  21  36  59  94 131 156 200 260 320 388
#     4   9  19  37  60  85 120 161 201 259 320 374
#     4   9  17  31  54  83 114 147 196 250 308 371
#     4  10  20  39  60  81 119 169 205 255 303 359
#
# _framework density 23.319721999999999
#
# number of rings (size 3 to 8) (size 9 to 14) (size 15 to 20)
#    0.000    2.250    2.500    2.625    1.750    0.500 
#    6.750    3.750    0.000    0.000    0.000    0.000 
#    0.000    0.000    0.000    0.000    0.000    0.000 
#
# Total GULP energy -178142.835528 kJ/mol
# GULP energy per Si atom -5566.963610 kJ/mol
# Density = 2.326665 g / cm^3
# Si number density = 23.319722 Si / 1000 Ang^3
#
#
#
# Elastic Constant Matrix: (Units=GPa)
#
#
# Indices 1 2 3 4 5 6 
#
# 1 47.3535 6.1675 0.2275 0.0000 0.0000 0.0000
# 2 6.1675 167.8005 29.6477 0.0000 0.0000 0.0000
# 3 0.2275 29.6477 83.3426 0.0000 0.0000 0.0000
# 4 0.0000 0.0000 0.0000 25.3423 0.0000 0.0000
# 5 0.0000 0.0000 0.0000 0.0000 -28.4448 0.0000
# 6 0.0000 0.0000 0.0000 0.0000 0.0000 1.2283
#
#
#
# Elastic Compliance Matrix: (Units=1/GPa)
#
#
# Indices 1 2 3 4 5 6 
#
# 1 0.021224 -0.000821 0.000234 0.000000 0.000000 0.000000
# 2 -0.000821 0.006391 -0.002271 0.000000 0.000000 0.000000
# 3 0.000234 -0.002271 0.012806 0.000000 0.000000 0.000000
# 4 0.000000 0.000000 0.000000 0.039460 0.000000 0.000000
# 5 0.000000 0.000000 0.000000 0.000000 -0.035156 0.000000
# 6 0.000000 0.000000 0.000000 0.000000 0.000000 0.814146
#
#
# Mechanical properties :
#
#
# Convention : Reuss Voigt Hill
#
# Bulk Modulus (GPa) = 28.81535 41.17578 34.99557
# Shear Modulus (GPa) = 5.70675 17.12209 11.41442
#
# Velocity S-wave (km/s) = 1.56604 2.71261 2.21481
# Velocity P-wave (km/s) = 3.95645 5.24466 4.64542
#
# Compressibility (1/GPa) = 0.03470373
#
# Stress axis : x y z
#
# Youngs Moduli (GPa) = 47.11732 156.47150 78.08852
#
# Poissons Ratio (x) = 0.12854 -0.01830
# Poissons Ratio (y) = 0.03871 0.17736
# Poissons Ratio (z) = -0.01104 0.35538
#
# Static dielectric constant tensor:
#      x y z
#    x 2.054880 0.000000 0.000000 
#    y 0.000000 2.047600 0.000000 
#    z 0.000000 0.000000 1.822090 
# 
# From -- ./inp_files/20252.got.cif
#   From: 2010.05.17/outbox.cif.g08.bks.cpg/sg46_11_cif.got.tgz:20252.got - 2010.06.03 19:58:25.
