data_PCOD9379863
_publ_section_title
;
Structure prediction by ZEFSAII (Michael W. Deem and Ramdas Pophale) SiO2 
 PCOD9379863
Probable space group: I M A 2
;
_chemical_formula_sum "Si O2"
_cell_formula_units_Z 64
_cell_length_a 13.467978
_cell_length_b 18.066863
_cell_length_c 11.605389
_cell_angle_alpha 90.000000
_cell_angle_beta 90.000000
_cell_angle_gamma 90.000000
_cell_volume 2823.870989
_symmetry_space_group_name_H-M "I M A 2"
_symmetry_group_IT_number 46
_symmetry_cell_setting 'orthorhombic'
loop_
_space_group_symop_operation_xyz
x,y,z
-x,-y,z
1/2-x,y,z
1/2+x,-y,z
1/2+x,1/2+y,1/2+z
1/2-x,1/2-y,1/2+z
-x,1/2+y,1/2+z
x,1/2-y,1/2+z
loop_
_atom_site_type_symbol
_atom_site_label
_atom_site_fract_x
_atom_site_fract_y
_atom_site_fract_z
Si Si1 0.022993 0.410878 0.916110
Si Si2 0.578029 0.390600 0.286888
Si Si3 0.368555 0.038043 0.086394
Si Si4 0.367680 0.176845 0.221639
Si Si5 0.362538 0.600542 0.734266
Si Si6 0.860456 0.198264 0.006480
Si Si7 0.001505 0.197775 0.610317
Si Si8 0.864012 0.547741 0.319524
O O1 0.108319 0.373057 0.835179
O O2 0.000000 0.500000 0.923289
O O3 0.927873 0.381990 0.844106
O O4 0.039214 0.374478 0.041116
O O5 0.621364 0.361484 0.406377
O O6 0.589641 0.329117 0.189752
O O7 0.624170 0.469599 0.254978
O O8 0.457811 0.401075 0.291163
O O9 0.250000 0.037940 0.100493
O O10 0.401319 0.119308 0.122244
O O11 0.402416 0.973118 0.170161
O O12 0.385609 0.026128 0.952612
O O13 0.250000 0.191116 0.217835
O O14 0.425697 0.251920 0.188502
O O15 0.250000 0.587431 0.771262
O O16 0.361963 0.659966 0.632080
O O17 0.750000 0.230305 0.988335
O O18 0.953564 0.252434 0.009844
O O19 0.750000 0.575602 0.309971
#
# Coordination Sequence:
#
# PCOD9379863 Si02
#       8
#     8   8   8   8   8   8   8   8
#     4  12  26  44  74 101 143 191 242 294 366 440
#     4  11  24  41  67  93 133 174 227 279 347 425
#     4   9  17  34  64  99 126 162 224 293 349 399
#     4  11  24  45  72 101 140 189 246 303 360 431
#     4  10  20  39  68 103 134 171 230 297 360 422
#     4  11  23  42  70 100 133 176 229 295 356 418
#     4  12  28  46  63 101 143 192 231 293 360 440
#     4  10  21  38  65  98 130 170 224 292 352 407
#
# _framework density 22.663924999999999
#
# number of rings (size 3 to 8) (size 9 to 14) (size 15 to 20)
#    0.000    1.250    3.750    1.875    1.750    2.500 
#    0.000    1.250    0.000    0.000    0.000    0.000 
#    0.000    0.000    0.000    0.000    0.000    0.000 
#
# Total GULP energy -178508.136685 kJ/mol
# GULP energy per Si atom -5578.379271 kJ/mol
# Density = 2.261234 g / cm^3
# Si number density = 22.663925 Si / 1000 Ang^3
#
#
#
# Elastic Constant Matrix: (Units=GPa)
#
#
# Indices 1 2 3 4 5 6 
#
# 1 101.4171 8.3553 1.4554 0.0000 0.0000 0.0000
# 2 8.3553 103.1269 28.6723 0.0000 0.0000 0.0000
# 3 1.4554 28.6723 65.8034 0.0000 0.0000 0.0000
# 4 0.0000 0.0000 0.0000 25.8098 0.0000 0.0000
# 5 0.0000 0.0000 0.0000 0.0000 6.0562 0.0000
# 6 0.0000 0.0000 0.0000 0.0000 0.0000 23.0793
#
#
#
# Elastic Compliance Matrix: (Units=1/GPa)
#
#
# Indices 1 2 3 4 5 6 
#
# 1 0.009928 -0.000846 0.000149 0.000000 0.000000 0.000000
# 2 -0.000846 0.011105 -0.004820 0.000000 0.000000 0.000000
# 3 0.000149 -0.004820 0.017294 0.000000 0.000000 0.000000
# 4 0.000000 0.000000 0.000000 0.038745 0.000000 0.000000
# 5 0.000000 0.000000 0.000000 0.000000 0.165121 0.000000
# 6 0.000000 0.000000 0.000000 0.000000 0.000000 0.043329
#
#
# Mechanical properties :
#
#
# Convention : Reuss Voigt Hill
#
# Bulk Modulus (GPa) = 36.63948 38.59038 37.61493
# Shear Modulus (GPa) = 16.35836 26.44666 21.40251
#
# Velocity S-wave (km/s) = 2.68951 3.41971 3.07635
# Velocity P-wave (km/s) = 5.08391 5.71461 5.40846
#
# Compressibility (1/GPa) = 0.02729296
#
# Stress axis : x y z
#
# Youngs Moduli (GPa) = 100.72712 90.04557 57.82419
#
# Poissons Ratio (x) = 0.07616 -0.00861
# Poissons Ratio (y) = 0.08519 0.27873
# Poissons Ratio (z) = -0.01500 0.43404
#
# Static dielectric constant tensor:
#      x y z
#    x 1.856100 0.000000 0.000000 
#    y 0.000000 1.910930 0.000000 
#    z 0.000000 0.000000 1.854010 
# 
# From -- ./inp_files/11338.got.cif
#   From: 2010.05.17/outbox.cif.g08.bks.cpg/sg46_6_cif.got.tgz:11338.got - 2010.06.03 19:58:25.
