data_PCOD9379321
_publ_section_title
;
Structure prediction by ZEFSAII (Michael W. Deem and Ramdas Pophale) SiO2 
 PCOD9379321
Probable space group: I M A 2
;
_chemical_formula_sum "Si O2"
_cell_formula_units_Z 48
_cell_length_a 8.777314
_cell_length_b 23.352205
_cell_length_c 11.902656
_cell_angle_alpha 90.000000
_cell_angle_beta 90.000000
_cell_angle_gamma 90.000000
_cell_volume 2439.683066
_symmetry_space_group_name_H-M "I M A 2"
_symmetry_group_IT_number 46
_symmetry_cell_setting 'orthorhombic'
loop_
_space_group_symop_operation_xyz
x,y,z
-x,-y,z
1/2-x,y,z
1/2+x,-y,z
1/2+x,1/2+y,1/2+z
1/2-x,1/2-y,1/2+z
-x,1/2+y,1/2+z
x,1/2-y,1/2+z
loop_
_atom_site_type_symbol
_atom_site_label
_atom_site_fract_x
_atom_site_fract_y
_atom_site_fract_z
Si Si1 0.932862 0.854987 0.211600
Si Si2 0.577614 0.442115 0.552405
Si Si3 0.434141 0.231120 0.017461
Si Si4 0.424101 0.853424 0.846448
Si Si5 0.564593 0.857560 0.467140
Si Si6 0.567169 0.936874 0.663219
O O1 0.750000 0.851113 0.215186
O O2 0.990028 0.854761 0.338870
O O3 0.982772 0.913167 0.151478
O O4 0.985844 0.804310 0.127535
O O5 0.500000 0.500000 0.513817
O O6 0.750000 0.452780 0.589124
O O7 0.579790 0.398072 0.449888
O O8 0.250000 0.227774 0.012620
O O9 0.496522 0.201635 0.903448
O O10 0.479519 0.297288 0.023676
O O11 0.250000 0.840836 0.812535
O O12 0.512337 0.887853 0.750001
O O13 0.750000 0.858643 0.464850
O O14 0.518303 0.911926 0.541400
O O15 0.750000 0.940738 0.668630
O O16 0.500000 0.000000 0.685519
#
# Coordination Sequence:
#
# PCOD9379321 Si02
#       6
#     8   8   8   8   8   8
#     4   9  18  34  55  81 112 143 183 229 278 336
#     4  10  20  34  54  79 109 142 183 229 280 333
#     4   9  18  34  60  87 112 146 190 237 287 341
#     4  10  21  37  57  85 117 149 188 237 290 344
#     4   9  20  36  58  86 113 150 194 236 283 343
#     4  11  23  39  59  84 118 158 201 243 288 346
#
# _framework density 19.674688
#
# number of rings (size 3 to 8) (size 9 to 14) (size 15 to 20)
#    0.000    2.333    0.000    2.000    2.333    4.000 
#    0.000    5.833    0.000    0.000    0.000    0.000 
#    0.000    0.000    0.000    0.000    0.000    0.000 
#
# Total GULP energy -133861.054205 kJ/mol
# GULP energy per Si atom -5577.543925 kJ/mol
# Density = 1.962991 g / cm^3
# Si number density = 19.674688 Si / 1000 Ang^3
#
#
#
# Elastic Constant Matrix: (Units=GPa)
#
#
# Indices 1 2 3 4 5 6 
#
# 1 24.8695 11.8923 21.8485 -0.0002 0.0000 0.0000
# 2 11.8923 55.0585 4.8259 -0.0001 0.0000 0.0000
# 3 21.8485 4.8259 84.8745 0.0002 0.0000 -0.0001
# 4 -0.0002 -0.0001 0.0002 -95.1580 0.0001 0.0002
# 5 0.0000 0.0000 0.0000 0.0001 10.6955 0.0000
# 6 0.0000 0.0000 -0.0001 0.0002 0.0000 7.8629
#
#
#
# Elastic Compliance Matrix: (Units=1/GPa)
#
#
# Indices 1 2 3 4 5 6 
#
# 1 0.058224 -0.011319 -0.014345 0.000000 0.000000 0.000000
# 2 -0.011319 0.020454 0.001751 0.000000 0.000000 0.000000
# 3 -0.014345 0.001751 0.015375 0.000000 0.000000 0.000000
# 4 0.000000 0.000000 0.000000 -0.010509 0.000000 0.000000
# 5 0.000000 0.000000 0.000000 0.000000 0.093498 0.000000
# 6 0.000000 0.000000 0.000000 0.000000 0.000000 0.127179
#
#
# Mechanical properties :
#
#
# Convention : Reuss Voigt Hill
#
# Bulk Modulus (GPa) = 21.63190 26.88176 24.25683
# Shear Modulus (GPa) = 13.60708 -6.90419 3.35144
#
# Velocity S-wave (km/s) = 2.63269 -1.87531 1.30657
# Velocity P-wave (km/s) = 4.50112 3.00062 3.82517
#
# Compressibility (1/GPa) = 0.04622802
#
# Stress axis : x y z
#
# Youngs Moduli (GPa) = 17.17493 48.89058 65.04000
#
# Poissons Ratio (x) = 0.55338 0.93297
# Poissons Ratio (y) = 0.19440 -0.11387
# Poissons Ratio (z) = 0.24637 -0.08559
#
# Static dielectric constant tensor:
#      x y z
#    x 1.682090 0.000000 0.000000 
#    y 0.000000 1.681890 0.000000 
#    z 0.000000 0.000000 1.703980 
# 
# From -- ./inp_files/9282.got.cif
#   From: 2010.05.17/outbox.cif.g08.bks.cpg/sg46_5_cif.got.tgz:9282.got - 2010.06.03 19:58:25.
