data_PCOD9379772
_publ_section_title
;
Structure prediction by ZEFSAII (Michael W. Deem and Ramdas Pophale) SiO2 
 PCOD9379772
Probable space group: I M A 2
;
_chemical_formula_sum "Si O2"
_cell_formula_units_Z 48
_cell_length_a 8.594908
_cell_length_b 15.502158
_cell_length_c 19.282999
_cell_angle_alpha 90.000000
_cell_angle_beta 90.000000
_cell_angle_gamma 90.000000
_cell_volume 2569.259494
_symmetry_space_group_name_H-M "I M A 2"
_symmetry_group_IT_number 46
_symmetry_cell_setting 'orthorhombic'
loop_
_space_group_symop_operation_xyz
x,y,z
-x,-y,z
1/2-x,y,z
1/2+x,-y,z
1/2+x,1/2+y,1/2+z
1/2-x,1/2-y,1/2+z
-x,1/2+y,1/2+z
x,1/2-y,1/2+z
loop_
_atom_site_type_symbol
_atom_site_label
_atom_site_fract_x
_atom_site_fract_y
_atom_site_fract_z
Si Si1 0.937368 0.905017 0.549890
Si Si2 0.563741 0.404037 0.398341
Si Si3 0.937627 0.742731 0.298333
Si Si4 0.936948 0.593752 0.889347
Si Si5 0.935864 0.249710 0.142795
Si Si6 0.936291 0.903953 0.050495
O O1 0.750000 0.903632 0.554284
O O2 0.983287 0.889030 0.469361
O O3 0.007206 0.831894 0.598647
O O4 0.000000 0.000000 0.568374
O O5 0.500000 0.500000 0.384205
O O6 0.750000 0.405658 0.400736
O O7 0.503406 0.337738 0.341273
O O8 0.498351 0.378707 0.474118
O O9 0.750000 0.738995 0.297927
O O10 0.987065 0.829637 0.338926
O O11 0.000461 0.743503 0.220587
O O12 0.750000 0.590351 0.888160
O O13 0.000000 0.500000 0.869165
O O14 0.750000 0.246238 0.143021
O O15 0.003328 0.164665 0.105790
O O16 0.750000 0.905438 0.049254
O O17 0.000000 0.000000 0.064726
#
# Coordination Sequence:
#
# PCOD9379772 Si02
#       6
#     8   8   8   8   8   8
#     4  10  20  38  62  89 117 151 193 241 292 349
#     4  11  22  39  63  91 119 153 195 244 295 351
#     4  11  23  40  59  85 120 159 197 240 292 350
#     4   9  20  37  61  87 114 147 188 234 284 338
#     4  12  25  40  58  86 120 158 199 244 297 354
#     4  11  22  40  64  90 118 154 197 245 296 352
#
# _framework density 18.682427000000001
#
# number of rings (size 3 to 8) (size 9 to 14) (size 15 to 20)
#    0.000    1.333    0.000    7.500    0.000    4.667 
#    0.000    5.000    0.000    0.000    0.000    0.000 
#    0.000    0.000    0.000    0.000    0.000    0.000 
#
# Total GULP energy -134231.748719 kJ/mol
# GULP energy per Si atom -5592.989530 kJ/mol
# Density = 1.863990 g / cm^3
# Si number density = 18.682427 Si / 1000 Ang^3
#
#
#
# Elastic Constant Matrix: (Units=GPa)
#
#
# Indices 1 2 3 4 5 6 
#
# 1 162.7639 90.8221 106.3869 0.0000 0.0000 0.0000
# 2 90.8221 185.5078 197.1351 0.0000 0.0000 0.0000
# 3 106.3869 197.1351 257.3472 0.0000 0.0000 0.0000
# 4 0.0000 0.0000 0.0000 -29.3748 0.0000 0.0000
# 5 0.0000 0.0000 0.0000 0.0000 61.2626 0.0000
# 6 0.0000 0.0000 0.0000 0.0000 0.0000 36.6852
#
#
#
# Elastic Compliance Matrix: (Units=1/GPa)
#
#
# Indices 1 2 3 4 5 6 
#
# 1 0.008601 -0.002326 -0.001774 0.000000 0.000000 0.000000
# 2 -0.002326 0.029617 -0.021726 0.000000 0.000000 0.000000
# 3 -0.001774 -0.021726 0.021262 0.000000 0.000000 0.000000
# 4 0.000000 0.000000 0.000000 -0.034043 0.000000 0.000000
# 5 0.000000 0.000000 0.000000 0.000000 0.016323 0.000000
# 6 0.000000 0.000000 0.000000 0.000000 0.000000 0.027259
#
#
# Mechanical properties :
#
#
# Convention : Reuss Voigt Hill
#
# Bulk Modulus (GPa) = 127.73867 154.92302 141.33084
# Shear Modulus (GPa) = 40.55778 27.79960 34.17869
#
# Velocity S-wave (km/s) = 4.66435 3.86166 4.28185
# Velocity P-wave (km/s) = 9.87575 10.14828 10.01294
#
# Compressibility (1/GPa) = 0.00782848
#
# Stress axis : x y z
#
# Youngs Moduli (GPa) = 116.26207 33.76443 47.03209
#
# Poissons Ratio (x) = 0.07852 0.08345
# Poissons Ratio (y) = 0.27037 1.02182
# Poissons Ratio (z) = 0.20629 0.73357
#
# Static dielectric constant tensor:
#      x y z
#    x 1.612990 0.000000 0.000000 
#    y 0.000000 1.621670 0.000000 
#    z 0.000000 0.000000 1.616670 
# 
# From -- ./inp_files/18166.got.cif
#   From: 2010.05.17/outbox.cif.g08.bks.cpg/sg46_10_cif.got.tgz:18166.got - 2010.06.03 19:58:25.
