data_PCOD9379720
_publ_section_title
;
Structure prediction by ZEFSAII (Michael W. Deem and Ramdas Pophale) SiO2 
 PCOD9379720
Probable space group: I M A 2
;
_chemical_formula_sum "Si O2"
_cell_formula_units_Z 64
_cell_length_a 18.328475
_cell_length_b 8.558108
_cell_length_c 18.556243
_cell_angle_alpha 90.000000
_cell_angle_beta 90.000000
_cell_angle_gamma 90.000000
_cell_volume 2910.677880
_symmetry_space_group_name_H-M "I M A 2"
_symmetry_group_IT_number 46
_symmetry_cell_setting 'orthorhombic'
loop_
_space_group_symop_operation_xyz
x,y,z
-x,-y,z
1/2-x,y,z
1/2+x,-y,z
1/2+x,1/2+y,1/2+z
1/2-x,1/2-y,1/2+z
-x,1/2+y,1/2+z
x,1/2-y,1/2+z
loop_
_atom_site_type_symbol
_atom_site_label
_atom_site_fract_x
_atom_site_fract_y
_atom_site_fract_z
Si Si1 0.079813 0.564335 0.990830
Si Si2 0.554569 0.369763 0.564196
Si Si3 0.432705 0.099048 0.831653
Si Si4 0.021679 0.680896 0.724012
Si Si5 0.333661 0.660498 0.264762
Si Si6 0.332790 0.450339 0.123778
Si Si7 0.165479 0.195674 0.431881
Si Si8 0.332580 0.372774 0.586505
O O1 0.140049 0.483985 0.940834
O O2 0.000000 0.500000 0.972381
O O3 0.075827 0.748314 0.002907
O O4 0.105425 0.503386 0.069119
O O5 0.500000 0.500000 0.535303
O O6 0.521156 0.293820 0.636974
O O7 0.620559 0.473970 0.592737
O O8 0.470010 0.193556 0.764705
O O9 0.393207 0.224588 0.880887
O O10 0.500000 0.000000 0.863234
O O11 0.369922 0.972001 0.814768
O O12 0.103872 0.709163 0.754311
O O13 0.000000 0.500000 0.736099
O O14 0.250000 0.705021 0.283580
O O15 0.331074 0.568831 0.188847
O O16 0.250000 0.453058 0.090720
O O17 0.345890 0.268666 0.142245
O O18 0.250000 0.208263 0.409749
O O19 0.157774 0.287026 0.508813
O O20 0.250000 0.422274 0.593166
#
# Coordination Sequence:
#
# PCOD9379720 Si02
#       8
#     8   8   8   8   8   8   8   8
#     4  11  22  34  61  90 124 167 211 265 328 394
#     4  11  22  35  57  92 130 166 211 262 332 394
#     4  10  23  41  69  92 128 177 229 275 331 390
#     4  10  23  39  59  92 136 176 216 274 327 394
#     4  10  20  37  64  95 124 171 226 271 326 392
#     4   9  18  34  56  87 125 161 207 261 321 390
#     4  10  22  44  66  92 128 170 223 280 329 391
#     4   9  20  36  58  88 123 160 202 260 329 391
#
# _framework density 21.988007
#
# number of rings (size 3 to 8) (size 9 to 14) (size 15 to 20)
#    0.000    2.000    1.250    3.000    5.250    3.500 
#    0.000    2.500    0.000    0.000    0.000    0.000 
#    0.000    0.000    0.000    0.000    0.000    0.000 
#
# Total GULP energy -178591.092442 kJ/mol
# GULP energy per Si atom -5580.971639 kJ/mol
# Density = 2.193796 g / cm^3
# Si number density = 21.988007 Si / 1000 Ang^3
#
#
#
# Elastic Constant Matrix: (Units=GPa)
#
#
# Indices 1 2 3 4 5 6 
#
# 1 144.0372 55.6341 29.2707 0.0000 0.0000 0.0000
# 2 55.6341 122.9263 21.0142 0.0000 0.0000 0.0000
# 3 29.2707 21.0142 33.9956 0.0000 0.0000 0.0000
# 4 0.0000 0.0000 0.0000 28.4336 0.0000 0.0000
# 5 0.0000 0.0000 0.0000 0.0000 29.9550 0.0000
# 6 0.0000 0.0000 0.0000 0.0000 0.0000 41.9259
#
#
#
# Elastic Compliance Matrix: (Units=1/GPa)
#
#
# Indices 1 2 3 4 5 6 
#
# 1 0.009433 -0.003221 -0.006131 0.000000 0.000000 0.000000
# 2 -0.003221 0.010196 -0.003529 0.000000 0.000000 0.000000
# 3 -0.006131 -0.003529 0.036876 0.000000 0.000000 0.000000
# 4 0.000000 0.000000 0.000000 0.035170 0.000000 0.000000
# 5 0.000000 0.000000 0.000000 0.000000 0.033383 0.000000
# 6 0.000000 0.000000 0.000000 0.000000 0.000000 0.023852
#
#
# Mechanical properties :
#
#
# Convention : Reuss Voigt Hill
#
# Bulk Modulus (GPa) = 32.52817 56.97746 44.75282
# Shear Modulus (GPa) = 27.03899 33.06559 30.05229
#
# Velocity S-wave (km/s) = 3.51053 3.88209 3.70098
# Velocity P-wave (km/s) = 5.59084 6.78701 6.21776
#
# Compressibility (1/GPa) = 0.03074258
#
# Stress axis : x y z
#
# Youngs Moduli (GPa) = 106.01552 98.07726 27.11815
#
# Poissons Ratio (x) = 0.31591 0.16625
# Poissons Ratio (y) = 0.34147 0.09571
# Poissons Ratio (z) = 0.64993 0.34615
#
# Static dielectric constant tensor:
#      x y z
#    x 1.784320 0.000000 0.000000 
#    y 0.000000 1.790950 0.000000 
#    z 0.000000 0.000000 1.858320 
# 
# From -- ./inp_files/22252.got.cif
#   From: 2010.05.17/outbox.cif.g08.bks.cpg/sg46_12_cif.got.tgz:22252.got - 2010.06.03 19:58:25.
