data_PCOD9379441
_publ_section_title
;
Structure prediction by ZEFSAII (Michael W. Deem and Ramdas Pophale) SiO2 
 PCOD9379441
Probable space group: I M A 2
;
_chemical_formula_sum "Si O2"
_cell_formula_units_Z 56
_cell_length_a 8.912629
_cell_length_b 14.893220
_cell_length_c 21.462156
_cell_angle_alpha 90.000000
_cell_angle_beta 90.000000
_cell_angle_gamma 90.000000
_cell_volume 2848.838179
_symmetry_space_group_name_H-M "I M A 2"
_symmetry_group_IT_number 46
_symmetry_cell_setting 'orthorhombic'
loop_
_space_group_symop_operation_xyz
x,y,z
-x,-y,z
1/2-x,y,z
1/2+x,-y,z
1/2+x,1/2+y,1/2+z
1/2-x,1/2-y,1/2+z
-x,1/2+y,1/2+z
x,1/2-y,1/2+z
loop_
_atom_site_type_symbol
_atom_site_label
_atom_site_fract_x
_atom_site_fract_y
_atom_site_fract_z
Si Si1 0.071329 0.593208 0.513430
Si Si2 0.930161 0.406147 0.368177
Si Si3 0.430172 0.094212 0.428162
Si Si4 0.926452 0.726198 0.033716
Si Si5 0.070710 0.405601 0.781419
Si Si6 0.926825 0.597217 0.151980
Si Si7 0.570157 0.279478 0.257345
O O1 0.250000 0.587044 0.516346
O O2 0.025085 0.604734 0.440384
O O3 0.000000 0.500000 0.535822
O O4 0.013234 0.682227 0.546801
O O5 0.750000 0.413852 0.366055
O O6 0.973952 0.324018 0.323831
O O7 0.000000 0.500000 0.345317
O O8 0.250000 0.088590 0.433952
O O9 0.481772 0.176504 0.470948
O O10 0.467047 0.104471 0.355279
O O11 0.500000 0.000000 0.449762
O O12 0.750000 0.747738 0.026249
O O13 0.941318 0.654574 0.088849
O O14 0.250000 0.408252 0.775034
O O15 0.000000 0.500000 0.760481
O O16 0.002963 0.317948 0.749369
O O17 0.750000 0.588568 0.166534
O O18 0.000000 0.500000 0.144963
O O19 0.010029 0.652469 0.205676
O O20 0.750000 0.272395 0.255084
#
# Coordination Sequence:
#
# PCOD9379441 Si02
#       7
#     8   8   8   8   8   8   8
#     4  10  20  35  56  82 112 144 180 223 272 326
#     4   9  19  33  52  81 113 145 180 222 272 326
#     4   9  18  32  53  82 114 147 181 222 272 326
#     4  10  21  37  56  80 111 146 184 226 272 322
#     4  10  20  35  56  83 114 146 182 225 275 329
#     4  11  24  41  60  83 112 145 184 228 272 321
#     4  11  22  37  57  81 111 147 188 230 275 326
#
# _framework density 19.657136999999999
#
# number of rings (size 3 to 8) (size 9 to 14) (size 15 to 20)
#    0.000    2.000    0.000    3.429    0.000    5.143 
#    0.000    0.714    0.000    3.429    0.000    0.000 
#    0.000    0.000    0.000    0.000    0.000    0.000 
#
# Total GULP energy -156434.652573 kJ/mol
# GULP energy per Si atom -5586.951878 kJ/mol
# Density = 1.961240 g / cm^3
# Si number density = 19.657137 Si / 1000 Ang^3
#
#
#
# Elastic Constant Matrix: (Units=GPa)
#
#
# Indices 1 2 3 4 5 6 
#
# 1 51.9233 60.3934 20.5734 0.0000 0.0000 0.0000
# 2 60.3934 171.8034 18.4456 0.0000 0.0000 0.0000
# 3 20.5734 18.4456 12.3647 0.0000 0.0000 0.0000
# 4 0.0000 0.0000 0.0000 20.4692 0.0000 0.0000
# 5 0.0000 0.0000 0.0000 0.0000 19.3902 0.0000
# 6 0.0000 0.0000 0.0000 0.0000 0.0000 40.2795
#
#
#
# Elastic Compliance Matrix: (Units=1/GPa)
#
#
# Indices 1 2 3 4 5 6 
#
# 1 0.086377 -0.017781 -0.117195 0.000000 0.000000 0.000000
# 2 -0.017781 0.010591 0.013786 0.000000 0.000000 0.000000
# 3 -0.117195 0.013786 0.255309 0.000000 0.000000 0.000000
# 4 0.000000 0.000000 0.000000 0.048854 0.000000 0.000000
# 5 0.000000 0.000000 0.000000 0.000000 0.051573 0.000000
# 6 0.000000 0.000000 0.000000 0.000000 0.000000 0.024827
#
#
# Mechanical properties :
#
#
# Convention : Reuss Voigt Hill
#
# Bulk Modulus (GPa) = 9.09953 48.32403 28.71178
# Shear Modulus (GPa) = 6.60902 25.13971 15.87436
#
# Velocity S-wave (km/s) = 1.83560 3.58006 2.84485
# Velocity P-wave (km/s) = 3.02188 6.45956 5.04270
#
# Compressibility (1/GPa) = 0.10989581
#
# Stress axis : x y z
#
# Youngs Moduli (GPa) = 11.57715 94.41976 3.91683
#
# Poissons Ratio (x) = 1.67889 0.45903
# Poissons Ratio (y) = 0.20586 -0.05400
# Poissons Ratio (z) = 1.35679 -1.30169
#
# Static dielectric constant tensor:
#      x y z
#    x 1.655720 0.000000 0.000000 
#    y 0.000000 1.672710 0.000000 
#    z 0.000000 0.000000 1.710670 
# 
# From -- ./inp_files/21075.got.cif
#   From: 2010.05.17/outbox.cif.g08.bks.cpg/sg46_11_cif.got.tgz:21075.got - 2010.06.03 19:58:25.
