data_PCOD9379792
_publ_section_title
;
Structure prediction by ZEFSAII (Michael W. Deem and Ramdas Pophale) SiO2 
 PCOD9379792
Probable space group: I M A 2
;
_chemical_formula_sum "Si O2"
_cell_formula_units_Z 44
_cell_length_a 7.632053
_cell_length_b 20.518069
_cell_length_c 12.122335
_cell_angle_alpha 90.000000
_cell_angle_beta 90.000000
_cell_angle_gamma 90.000000
_cell_volume 1898.296929
_symmetry_space_group_name_H-M "I M A 2"
_symmetry_group_IT_number 46
_symmetry_cell_setting 'orthorhombic'
loop_
_space_group_symop_operation_xyz
x,y,z
-x,-y,z
1/2-x,y,z
1/2+x,-y,z
1/2+x,1/2+y,1/2+z
1/2-x,1/2-y,1/2+z
-x,1/2+y,1/2+z
x,1/2-y,1/2+z
loop_
_atom_site_type_symbol
_atom_site_label
_atom_site_fract_x
_atom_site_fract_y
_atom_site_fract_z
Si Si1 0.540710 0.426923 0.598580
Si Si2 0.050231 0.166114 0.546204
Si Si3 0.250000 0.352560 0.330445
Si Si4 0.556736 0.069681 0.728863
Si Si5 0.045355 0.802747 0.956669
Si Si6 0.540127 0.073778 0.352036
O O1 0.500000 0.500000 0.557428
O O2 0.750000 0.421294 0.601698
O O3 0.479649 0.365471 0.527247
O O4 0.477165 0.421970 0.725169
O O5 0.250000 0.169058 0.591042
O O6 0.945176 0.122679 0.632182
O O7 0.976234 0.237686 0.528345
O O8 0.043960 0.126823 0.431683
O O9 0.404739 0.407297 0.309200
O O10 0.407346 0.299155 0.357669
O O11 0.750000 0.065426 0.778973
O O12 0.500000 0.000000 0.681825
O O13 0.250000 0.809506 0.925963
O O14 0.750000 0.083470 0.354459
O O15 0.500000 0.000000 0.389670
#
# Coordination Sequence:
#
# PCOD9379792 Si02
#       6
#     8   8   4   8   8   8
#     4   9  21  40  65  95 129 168 219 278 341 406
#     4  12  24  44  69 100 140 185 233 291 360 429
#     4  12  26  46  68 100 144 186 244 292 346 438
#     4  12  25  48  74 106 145 187 245 305 366 427
#     4  11  25  47  68 101 139 187 237 285 355 420
#     4  10  20  38  64 100 133 170 220 277 349 416
#
# _framework density 23.178673
#
# number of rings (size 3 to 8) (size 9 to 14) (size 15 to 20)
#    0.000    1.091    2.727    3.273    1.273    2.909 
#    3.273    3.636    0.000    0.000    0.000    0.000 
#    0.000    0.000    0.000    0.000    0.000    0.000 
#
# Total GULP energy -122562.996056 kJ/mol
# GULP energy per Si atom -5571.045275 kJ/mol
# Density = 2.312592 g / cm^3
# Si number density = 23.178673 Si / 1000 Ang^3
#
#
#
# Elastic Constant Matrix: (Units=GPa)
#
#
# Indices 1 2 3 4 5 6 
#
# 1 174.8227 14.1132 4.1913 0.0000 0.0000 0.0000
# 2 14.1132 161.5450 44.4003 0.0001 0.0000 0.0000
# 3 4.1913 44.4003 38.8331 0.0002 0.0000 0.0000
# 4 0.0000 0.0001 0.0002 47.1667 0.0000 0.0000
# 5 0.0000 0.0000 0.0000 0.0000 -4.9692 0.0000
# 6 0.0000 0.0000 0.0000 0.0000 0.0000 32.6415
#
#
#
# Elastic Compliance Matrix: (Units=1/GPa)
#
#
# Indices 1 2 3 4 5 6 
#
# 1 0.005761 -0.000485 -0.000068 0.000000 0.000000 0.000000
# 2 -0.000485 0.009068 -0.010315 0.000000 0.000000 0.000000
# 3 -0.000068 -0.010315 0.037553 0.000000 0.000000 0.000000
# 4 0.000000 0.000000 0.000000 0.021201 0.000000 0.000000
# 5 0.000000 0.000000 0.000000 0.000000 -0.201239 0.000000
# 6 0.000000 0.000000 0.000000 0.000000 0.000000 0.030636
#
#
# Mechanical properties :
#
#
# Convention : Reuss Voigt Hill
#
# Bulk Modulus (GPa) = 32.63075 55.62338 44.12706
# Shear Modulus (GPa) = -76.84072 35.80087 -20.51992
#
# Velocity S-wave (km/s) = -5.76398 3.93435 -2.97862
# Velocity P-wave (km/s) = 5.49449 6.68495 2.69250
#
# Compressibility (1/GPa) = 0.03064594
#
# Stress axis : x y z
#
# Youngs Moduli (GPa) = 173.58607 110.28119 26.62925
#
# Poissons Ratio (x) = 0.05346 0.00180
# Poissons Ratio (y) = 0.08414 0.27469
# Poissons Ratio (z) = 0.01173 1.13759
#
# Static dielectric constant tensor:
#      x y z
#    x 1.996960 0.000000 0.000000 
#    y 0.000000 1.847560 0.000000 
#    z 0.000000 0.000000 2.072570 
# 
# From -- ./inp_files/13841.got.cif
#   From: 2010.05.17/outbox.cif.g08.bks.cpg/sg46_7_cif.got.tgz:13841.got - 2010.06.03 19:58:25.
