data_PCOD9379821
_publ_section_title
;
Structure prediction by ZEFSAII (Michael W. Deem and Ramdas Pophale) SiO2 
 PCOD9379821
Probable space group: I M A 2
;
_chemical_formula_sum "Si O2"
_cell_formula_units_Z 56
_cell_length_a 13.490236
_cell_length_b 15.344699
_cell_length_c 12.904550
_cell_angle_alpha 90.000000
_cell_angle_beta 90.000000
_cell_angle_gamma 90.000000
_cell_volume 2671.288447
_symmetry_space_group_name_H-M "I M A 2"
_symmetry_group_IT_number 46
_symmetry_cell_setting 'orthorhombic'
loop_
_space_group_symop_operation_xyz
x,y,z
-x,-y,z
1/2-x,y,z
1/2+x,-y,z
1/2+x,1/2+y,1/2+z
1/2-x,1/2-y,1/2+z
-x,1/2+y,1/2+z
x,1/2-y,1/2+z
loop_
_atom_site_type_symbol
_atom_site_label
_atom_site_fract_x
_atom_site_fract_y
_atom_site_fract_z
Si Si1 0.862391 0.948801 0.094500
Si Si2 0.861323 0.133720 0.170050
Si Si3 0.017607 0.103894 0.907642
Si Si4 0.980494 0.896469 0.502459
Si Si5 0.433929 0.355325 0.780380
Si Si6 0.867042 0.667520 0.208052
Si Si7 0.135852 0.748633 0.474650
O O1 0.750000 0.930429 0.068519
O O2 0.885562 0.931450 0.213738
O O3 0.878664 0.052345 0.090950
O O4 0.927118 0.890563 0.018395
O O5 0.750000 0.122876 0.213003
O O6 0.949142 0.141224 0.251909
O O7 0.862819 0.215160 0.093381
O O8 0.089266 0.124472 0.811920
O O9 0.929790 0.176516 0.911078
O O10 0.000000 0.000000 0.897684
O O11 0.917145 0.868930 0.401200
O O12 0.926794 0.865798 0.607564
O O13 0.080386 0.840666 0.482881
O O14 0.000000 0.000000 0.503301
O O15 0.387876 0.269050 0.730579
O O16 0.750000 0.651965 0.195840
O O17 0.250000 0.751613 0.437962
#
# Coordination Sequence:
#
# PCOD9379821 Si02
#       7
#     8   8   8   8   8   8   8
#     4  11  21  36  67 107 138 175 229 291 361 425
#     4  10  20  38  67 104 139 171 218 289 361 425
#     4  12  22  44  73 103 144 181 234 298 365 435
#     4  12  27  50  73 100 147 196 249 304 368 449
#     4  12  23  44  69 100 139 186 239 302 358 429
#     4  12  28  47  68  99 142 196 246 296 365 437
#     4  11  23  43  71 107 142 179 229 294 366 431
#
# _framework density 20.963666
#
# number of rings (size 3 to 8) (size 9 to 14) (size 15 to 20)
#    0.000    0.571    5.714    2.571    0.000    2.857 
#    0.000    0.714    0.000    0.000    0.000    0.000 
#    0.000    0.000    0.000    0.000    0.000    0.000 
#
# Total GULP energy -156364.210724 kJ/mol
# GULP energy per Si atom -5584.436097 kJ/mol
# Density = 2.091595 g / cm^3
# Si number density = 20.963666 Si / 1000 Ang^3
#
#
#
# Elastic Constant Matrix: (Units=GPa)
#
#
# Indices 1 2 3 4 5 6 
#
# 1 141.7978 56.5441 45.6352 0.0000 0.0000 0.0000
# 2 56.5441 122.3100 18.5162 0.0000 0.0000 0.0000
# 3 45.6352 18.5162 100.8312 0.0000 0.0000 0.0000
# 4 0.0000 0.0000 0.0000 25.6999 0.0000 0.0000
# 5 0.0000 0.0000 0.0000 0.0000 10.0900 0.0000
# 6 0.0000 0.0000 0.0000 0.0000 0.0000 25.1505
#
#
#
# Elastic Compliance Matrix: (Units=1/GPa)
#
#
# Indices 1 2 3 4 5 6 
#
# 1 0.009839 -0.003985 -0.003721 0.000000 0.000000 0.000000
# 2 -0.003985 0.010024 -0.000037 0.000000 0.000000 0.000000
# 3 -0.003721 -0.000037 0.011609 0.000000 0.000000 0.000000
# 4 0.000000 0.000000 0.000000 0.038911 0.000000 0.000000
# 5 0.000000 0.000000 0.000000 0.000000 0.099108 0.000000
# 6 0.000000 0.000000 0.000000 0.000000 0.000000 0.039761
#
#
# Mechanical properties :
#
#
# Convention : Reuss Voigt Hill
#
# Bulk Modulus (GPa) = 62.56072 67.37001 64.96537
# Shear Modulus (GPa) = 21.73290 28.47099 25.10195
#
# Velocity S-wave (km/s) = 3.22327 3.68925 3.46410
# Velocity P-wave (km/s) = 6.61512 7.09604 6.85980
#
# Compressibility (1/GPa) = 0.01598447
#
# Stress axis : x y z
#
# Youngs Moduli (GPa) = 101.63520 99.76092 86.14325
#
# Poissons Ratio (x) = 0.39758 0.32056
# Poissons Ratio (y) = 0.40505 0.00319
# Poissons Ratio (z) = 0.37821 0.00370
#
# Static dielectric constant tensor:
#      x y z
#    x 1.787060 0.000000 0.000000 
#    y 0.000000 2.002020 0.000000 
#    z 0.000000 0.000000 1.770960 
# 
# From -- ./inp_files/11165.got.cif
#   From: 2010.05.17/outbox.cif.g08.bks.cpg/sg46_6_cif.got.tgz:11165.got - 2010.06.03 19:58:25.
