data_PCOD9379181
_publ_section_title
;
Structure prediction by ZEFSAII (Michael W. Deem and Ramdas Pophale) SiO2 
 PCOD9379181
Probable space group: I M A 2
;
_chemical_formula_sum "Si O2"
_cell_formula_units_Z 64
_cell_length_a 8.223834
_cell_length_b 28.717942
_cell_length_c 15.189062
_cell_angle_alpha 90.000000
_cell_angle_beta 90.000000
_cell_angle_gamma 90.000000
_cell_volume 3587.224890
_symmetry_space_group_name_H-M "I M A 2"
_symmetry_group_IT_number 46
_symmetry_cell_setting 'orthorhombic'
loop_
_space_group_symop_operation_xyz
x,y,z
-x,-y,z
1/2-x,y,z
1/2+x,-y,z
1/2+x,1/2+y,1/2+z
1/2-x,1/2-y,1/2+z
-x,1/2+y,1/2+z
x,1/2-y,1/2+z
loop_
_atom_site_type_symbol
_atom_site_label
_atom_site_fract_x
_atom_site_fract_y
_atom_site_fract_z
Si Si1 0.944118 0.947794 0.441120
Si Si2 0.553877 0.673586 0.239184
Si Si3 0.944868 0.672321 0.436438
Si Si4 0.050894 0.363919 0.618185
Si Si5 0.443571 0.862839 0.559469
Si Si6 0.055839 0.777576 0.440847
Si Si7 0.946776 0.720021 0.743812
Si Si8 0.446407 0.447767 0.740863
O O1 0.750000 0.947277 0.439102
O O2 0.003196 0.937500 0.341022
O O3 0.001174 0.908933 0.509027
O O4 0.000000 0.000000 0.463658
O O5 0.750000 0.673201 0.240406
O O6 0.494233 0.661689 0.337827
O O7 0.501792 0.727207 0.221528
O O8 0.496687 0.641208 0.160412
O O9 0.750000 0.667413 0.433605
O O10 0.005942 0.641644 0.517807
O O11 0.981492 0.726552 0.455865
O O12 0.250000 0.364492 0.617272
O O13 0.001852 0.318092 0.672995
O O14 0.996184 0.409314 0.671449
O O15 0.250000 0.861127 0.555709
O O16 0.506731 0.817144 0.507116
O O17 0.250000 0.773763 0.448955
O O18 0.011792 0.791424 0.340887
O O19 0.750000 0.719613 0.748336
O O20 0.500000 0.500000 0.718780
O O21 0.250000 0.446320 0.741774
#
# Coordination Sequence:
#
# PCOD9379181 Si02
#       8
#     8   8   8   8   8   8   8   8
#     4  10  20  35  55  77 102 128 156 194 240 291
#     4   9  18  31  48  70  94 125 164 204 245 285
#     4   9  18  33  51  69  93 128 168 205 240 283
#     4   9  16  29  51  74  94 122 163 203 236 279
#     4  11  22  33  48  71  99 132 167 201 241 290
#     4  10  20  31  44  68 102 133 161 198 243 288
#     4   9  17  30  49  72  97 127 164 201 240 290
#     4   9  18  32  51  75 101 127 153 188 237 288
#
# _framework density 17.841089
#
# number of rings (size 3 to 8) (size 9 to 14) (size 15 to 20)
#    0.000    2.500    0.000    3.375    0.000    6.500 
#    0.000    1.875    0.000    0.750    0.000    1.750 
#    0.000    0.000    0.000    0.000    0.000    0.000 
#
# Total GULP energy -178528.849461 kJ/mol
# GULP energy per Si atom -5579.026546 kJ/mol
# Density = 1.780048 g / cm^3
# Si number density = 17.841089 Si / 1000 Ang^3
#
#
#
# Elastic Constant Matrix: (Units=GPa)
#
#
# Indices 1 2 3 4 5 6 
#
# 1 6.2946 8.2561 14.1777 0.0000 0.0000 0.0000
# 2 8.2561 98.1492 105.6768 0.0000 0.0000 0.0000
# 3 14.1777 105.6768 156.8992 0.0001 0.0000 0.0000
# 4 0.0000 0.0000 0.0001 43.5762 0.0000 0.0000
# 5 0.0000 0.0000 0.0000 0.0000 14.7170 0.0000
# 6 0.0000 0.0000 0.0000 0.0000 0.0000 22.9170
#
#
#
# Elastic Compliance Matrix: (Units=1/GPa)
#
#
# Indices 1 2 3 4 5 6 
#
# 1 0.201958 0.009682 -0.024770 0.000000 0.000000 0.000000
# 2 0.009682 0.037539 -0.026159 0.000000 0.000000 0.000000
# 3 -0.024770 -0.026159 0.026231 0.000000 0.000000 0.000000
# 4 0.000000 0.000000 0.000000 0.022948 0.000000 0.000000
# 5 0.000000 0.000000 0.000000 0.000000 0.067949 0.000000
# 6 0.000000 0.000000 0.000000 0.000000 0.000000 0.043636
#
#
# Mechanical properties :
#
#
# Convention : Reuss Voigt Hill
#
# Bulk Modulus (GPa) = 5.45753 57.50716 31.48234
# Shear Modulus (GPa) = 9.19400 25.12418 17.15909
#
# Velocity S-wave (km/s) = 2.27254 3.75670 3.10461
# Velocity P-wave (km/s) = 3.15461 7.14982 5.52592
#
# Compressibility (1/GPa) = 0.18323312
#
# Stress axis : x y z
#
# Youngs Moduli (GPa) = 4.95153 26.63881 38.12334
#
# Poissons Ratio (x) = -0.25791 0.94433
# Poissons Ratio (y) = -0.04794 0.99726
# Poissons Ratio (z) = 0.12265 0.69684
#
# Static dielectric constant tensor:
#      x y z
#    x 1.619530 0.000000 0.000000 
#    y 0.000000 1.555110 0.000000 
#    z 0.000000 0.000000 1.629460 
# 
# From -- ./inp_files/14495.got.cif
#   From: 2010.05.17/outbox.cif.g08.bks.cpg/sg46_8_cif.got.tgz:14495.got - 2010.06.03 19:58:25.
