data_PCOD9379085
_publ_section_title
;
Structure prediction by ZEFSAII (Michael W. Deem and Ramdas Pophale) SiO2 
 PCOD9379085
Probable space group: I M A 2
;
_chemical_formula_sum "Si O2"
_cell_formula_units_Z 48
_cell_length_a 8.515148
_cell_length_b 31.785217
_cell_length_c 9.330107
_cell_angle_alpha 90.000000
_cell_angle_beta 90.000000
_cell_angle_gamma 90.000000
_cell_volume 2525.247826
_symmetry_space_group_name_H-M "I M A 2"
_symmetry_group_IT_number 46
_symmetry_cell_setting 'orthorhombic'
loop_
_space_group_symop_operation_xyz
x,y,z
-x,-y,z
1/2-x,y,z
1/2+x,-y,z
1/2+x,1/2+y,1/2+z
1/2-x,1/2-y,1/2+z
-x,1/2+y,1/2+z
x,1/2-y,1/2+z
loop_
_atom_site_type_symbol
_atom_site_label
_atom_site_fract_x
_atom_site_fract_y
_atom_site_fract_z
Si Si1 0.061558 0.954084 0.818040
Si Si2 0.440403 0.627173 0.827326
Si Si3 0.063278 0.126200 0.650003
Si Si4 0.441499 0.709501 0.650632
Si Si5 0.940381 0.206925 0.819940
Si Si6 0.560770 0.454301 0.650616
O O1 0.250000 0.953660 0.812422
O O2 0.996258 0.916951 0.720936
O O3 0.012675 0.947555 0.984613
O O4 0.000000 0.000000 0.774085
O O5 0.250000 0.627188 0.830465
O O6 0.490902 0.667673 0.735063
O O7 0.492314 0.584231 0.749276
O O8 0.500972 0.629761 0.988366
O O9 0.250000 0.126803 0.649830
O O10 0.999942 0.165191 0.742695
O O11 0.250000 0.709608 0.650141
O O12 0.491508 0.751563 0.733414
O O13 0.492010 0.709027 0.485360
O O14 0.750000 0.206030 0.818736
O O15 0.500000 0.500000 0.696821
O O16 0.750000 0.455096 0.653035
#
# Coordination Sequence:
#
# PCOD9379085 Si02
#       6
#     8   8   8   8   8   8
#     4  10  20  38  62  87 113 145 184 231 281 334
#     4  10  20  37  58  82 111 147 188 233 279 330
#     4  12  25  38  53  80 115 154 193 230 274 329
#     4   9  18  34  62  90 110 139 186 234 283 339
#     4  10  19  36  61  87 112 143 183 232 283 337
#     4   9  19  35  59  86 112 142 181 226 278 333
#
# _framework density 19.008033999999999
#
# number of rings (size 3 to 8) (size 9 to 14) (size 15 to 20)
#    0.000    2.000    0.000    4.000    0.000    7.333 
#    0.000    7.500    0.000    0.000    0.000    0.000 
#    0.000    0.000    0.000    0.000    0.000    0.000 
#
# Total GULP energy -134093.976957 kJ/mol
# GULP energy per Si atom -5587.249040 kJ/mol
# Density = 1.896477 g / cm^3
# Si number density = 19.008034 Si / 1000 Ang^3
#
#
#
# Elastic Constant Matrix: (Units=GPa)
#
#
# Indices 1 2 3 4 5 6 
#
# 1 30.2542 35.9750 33.0110 -0.0001 0.0001 0.0000
# 2 35.9750 209.1861 139.8257 -0.0003 0.0003 0.0000
# 3 33.0110 139.8257 185.4963 -0.0006 0.0005 0.0000
# 4 -0.0001 -0.0003 -0.0006 43.2059 0.0003 0.0000
# 5 0.0001 0.0003 0.0005 0.0003 -6.8450 -0.0001
# 6 0.0000 0.0000 0.0000 0.0000 -0.0001 29.1220
#
#
#
# Elastic Compliance Matrix: (Units=1/GPa)
#
#
# Indices 1 2 3 4 5 6 
#
# 1 0.043114 -0.004608 -0.004199 0.000000 0.000000 0.000000
# 2 -0.004608 0.010128 -0.006814 0.000000 0.000000 0.000000
# 3 -0.004199 -0.006814 0.011275 0.000000 0.000001 0.000000
# 4 0.000000 0.000000 0.000000 0.023145 0.000001 0.000000
# 5 0.000000 0.000000 0.000001 0.000001 -0.146092 -0.000001
# 6 0.000000 0.000000 0.000000 0.000000 -0.000001 0.034338
#
#
# Mechanical properties :
#
#
# Convention : Reuss Voigt Hill
#
# Bulk Modulus (GPa) = 30.05332 93.61777 61.83555
# Shear Modulus (GPa) = 274.10147 27.50490 150.80319
#
# Velocity S-wave (km/s) = 12.02148 3.80809 8.91677
# Velocity P-wave (km/s) = 14.44068 8.28819 11.77343
#
# Compressibility (1/GPa) = 0.03327419
#
# Stress axis : x y z
#
# Youngs Moduli (GPa) = 23.19419 98.74044 88.69415
#
# Poissons Ratio (x) = 0.45496 0.37247
# Poissons Ratio (y) = 0.10687 0.60437
# Poissons Ratio (z) = 0.09740 0.67283
#
# Static dielectric constant tensor:
#      x y z
#    x 1.650320 0.000000 0.000000 
#    y 0.000000 1.630880 0.000000 
#    z 0.000000 0.000000 1.636130 
# 
# From -- ./inp_files/3883.got.cif
#   From: 2010.05.17/outbox.cif.g08.bks.cpg/sg46_2_cif.got.tgz:3883.got - 2010.06.03 19:58:25.
