data_PCOD9379712
_publ_section_title
;
Structure prediction by ZEFSAII (Michael W. Deem and Ramdas Pophale) SiO2 
 PCOD9379712
Probable space group: I M A 2
;
_chemical_formula_sum "Si O2"
_cell_formula_units_Z 56
_cell_length_a 16.862805
_cell_length_b 13.129612
_cell_length_c 11.302259
_cell_angle_alpha 90.000000
_cell_angle_beta 90.000000
_cell_angle_gamma 90.000000
_cell_volume 2502.343729
_symmetry_space_group_name_H-M "I M A 2"
_symmetry_group_IT_number 46
_symmetry_cell_setting 'orthorhombic'
loop_
_space_group_symop_operation_xyz
x,y,z
-x,-y,z
1/2-x,y,z
1/2+x,-y,z
1/2+x,1/2+y,1/2+z
1/2-x,1/2-y,1/2+z
-x,1/2+y,1/2+z
x,1/2-y,1/2+z
loop_
_atom_site_type_symbol
_atom_site_label
_atom_site_fract_x
_atom_site_fract_y
_atom_site_fract_z
Si Si1 0.414646 0.952493 0.040960
Si Si2 0.563916 0.281363 0.997732
Si Si3 0.114095 0.268002 0.756510
Si Si4 0.461467 0.901777 0.287833
Si Si5 0.841248 0.052149 0.622031
Si Si6 0.376533 0.329986 0.014003
Si Si7 0.660953 0.931334 0.850081
O O1 0.413209 0.835507 0.002678
O O2 0.411408 0.948477 0.181950
O O3 0.500000 0.000000 0.009192
O O4 0.352478 0.025462 0.979210
O O5 0.604773 0.352013 0.094366
O O6 0.469522 0.300766 0.005298
O O7 0.588054 0.332305 0.873949
O O8 0.151554 0.241641 0.626291
O O9 0.099627 0.154428 0.808543
O O10 0.033893 0.332930 0.737528
O O11 0.153252 0.315744 0.877509
O O12 0.500000 0.000000 0.351684
O O13 0.750000 0.074783 0.592949
O O14 0.863619 0.946593 0.554335
O O15 0.847431 0.023652 0.759464
O O16 0.750000 0.889257 0.834963
#
# Coordination Sequence:
#
# PCOD9379712 Si02
#       7
#     8   8   8   8   8   8   8
#     4  11  23  38  65  94 127 160 210 273 323 388
#     4  11  21  37  64  90 119 166 204 260 326 386
#     4  10  20  38  64  92 128 167 211 261 329 385
#     4  10  21  36  58  94 130 152 196 269 327 379
#     4  10  23  41  60  87 123 167 215 260 310 387
#     4  10  20  37  63  94 126 159 214 269 320 379
#     4  10  24  43  63  89 129 175 221 266 320 396
#
# _framework density 22.379021000000002
#
# number of rings (size 3 to 8) (size 9 to 14) (size 15 to 20)
#    0.000    1.714    1.429    3.857    4.000    3.429 
#    0.000    0.714    0.000    0.000    0.000    0.000 
#    0.000    0.000    0.000    0.000    0.000    0.000 
#
# Total GULP energy -156163.866324 kJ/mol
# GULP energy per Si atom -5577.280940 kJ/mol
# Density = 2.232808 g / cm^3
# Si number density = 22.379021 Si / 1000 Ang^3
#
#
#
# Elastic Constant Matrix: (Units=GPa)
#
#
# Indices 1 2 3 4 5 6 
#
# 1 41.2757 2.4363 4.0951 0.0000 0.0000 0.0000
# 2 2.4363 90.1792 14.4761 0.0000 0.0000 0.0000
# 3 4.0951 14.4761 111.7463 0.0000 0.0000 0.0000
# 4 0.0000 0.0000 0.0000 46.0239 0.0000 0.0000
# 5 0.0000 0.0000 0.0000 0.0000 -0.4119 0.0000
# 6 0.0000 0.0000 0.0000 0.0000 0.0000 16.8054
#
#
#
# Elastic Compliance Matrix: (Units=1/GPa)
#
#
# Indices 1 2 3 4 5 6 
#
# 1 0.024340 -0.000525 -0.000824 0.000000 0.000000 0.000000
# 2 -0.000525 0.011336 -0.001449 0.000000 0.000000 0.000000
# 3 -0.000824 -0.001449 0.009167 0.000000 0.000000 0.000000
# 4 0.000000 0.000000 0.000000 0.021728 0.000000 0.000000
# 5 0.000000 0.000000 0.000000 0.000000 -2.427681 0.000000
# 6 0.000000 0.000000 0.000000 0.000000 0.000000 0.059505
#
#
# Mechanical properties :
#
#
# Convention : Reuss Voigt Hill
#
# Bulk Modulus (GPa) = 25.48045 31.69067 28.58556
# Shear Modulus (GPa) = -2.19017 27.29639 12.55311
#
# Velocity S-wave (km/s) = -0.99035 3.49625 2.37097
# Velocity P-wave (km/s) = 3.17850 5.52178 4.50516
#
# Compressibility (1/GPa) = 0.03924577
#
# Stress axis : x y z
#
# Youngs Moduli (GPa) = 41.08448 88.21560 109.08956
#
# Poissons Ratio (x) = 0.04634 0.08988
# Poissons Ratio (y) = 0.02158 0.15810
# Poissons Ratio (z) = 0.03385 0.12785
#
# Static dielectric constant tensor:
#      x y z
#    x 1.818910 0.000000 0.000000 
#    y 0.000000 1.822850 0.000000 
#    z 0.000000 0.000000 1.941920 
# 
# From -- ./inp_files/12387.got.cif
#   From: 2010.05.17/outbox.cif.g08.bks.cpg/sg46_7_cif.got.tgz:12387.got - 2010.06.03 19:58:25.
