data_PCOD9379787
_publ_section_title
;
Structure prediction by ZEFSAII (Michael W. Deem and Ramdas Pophale) SiO2 
 PCOD9379787
Probable space group: I M A 2
;
_chemical_formula_sum "Si O2"
_cell_formula_units_Z 48
_cell_length_a 9.220430
_cell_length_b 27.792353
_cell_length_c 9.590864
_cell_angle_alpha 90.000000
_cell_angle_beta 90.000000
_cell_angle_gamma 90.000000
_cell_volume 2457.730308
_symmetry_space_group_name_H-M "I M A 2"
_symmetry_group_IT_number 46
_symmetry_cell_setting 'orthorhombic'
loop_
_space_group_symop_operation_xyz
x,y,z
-x,-y,z
1/2-x,y,z
1/2+x,-y,z
1/2+x,1/2+y,1/2+z
1/2-x,1/2-y,1/2+z
-x,1/2+y,1/2+z
x,1/2-y,1/2+z
loop_
_atom_site_type_symbol
_atom_site_label
_atom_site_fract_x
_atom_site_fract_y
_atom_site_fract_z
Si Si1 0.925909 0.719115 0.500000
Si Si2 0.581237 0.050119 0.656146
Si Si3 0.580404 0.088670 0.343872
Si Si4 0.925869 0.809245 0.315227
Si Si5 0.917529 0.876450 0.850543
Si Si6 0.915988 0.544230 0.587762
O O1 0.750000 0.717237 0.498882
O O2 0.966679 0.769733 0.431404
O O3 0.967835 0.709658 0.660278
O O4 0.973753 0.675470 0.399345
O O5 0.750000 0.045091 0.694203
O O6 0.569983 0.063260 0.493218
O O7 0.510050 0.094235 0.739593
O O8 0.500000 0.000000 0.682834
O O9 0.750000 0.094308 0.308692
O O10 0.502272 0.140346 0.344855
O O11 0.499882 0.057412 0.227717
O O12 0.750000 0.815233 0.316437
O O13 0.750000 0.871737 0.801797
O O14 0.916469 0.909531 0.988618
O O15 0.750000 0.530955 0.616112
O O16 0.000000 0.500000 0.518352
#
# Coordination Sequence:
#
# PCOD9379787 Si02
#       6
#     8   8   8   8   8   8
#     4   9  19  36  61  93 120 152 198 246 296 357
#     4  11  25  42  60  87 121 159 205 249 299 359
#     4  11  24  41  60  87 123 161 205 249 299 360
#     4  10  20  38  63  91 122 156 201 250 300 357
#     4  10  21  39  62  90 122 156 199 246 298 360
#     4  11  22  38  62  90 120 154 199 248 301 363
#
# _framework density 19.530213
#
# number of rings (size 3 to 8) (size 9 to 14) (size 15 to 20)
#    0.000    1.667    1.667    2.500    2.333    6.667 
#    0.000    1.667    0.000    0.000    0.000    0.000 
#    0.000    0.000    0.000    0.000    0.000    0.000 
#
# Total GULP energy -134113.384146 kJ/mol
# GULP energy per Si atom -5588.057673 kJ/mol
# Density = 1.948576 g / cm^3
# Si number density = 19.530213 Si / 1000 Ang^3
#
#
#
# Elastic Constant Matrix: (Units=GPa)
#
#
# Indices 1 2 3 4 5 6 
#
# 1 89.6128 28.3028 32.7669 0.0030 0.0012 0.0013
# 2 28.3028 93.7365 -0.4094 0.0113 0.0015 -0.0015
# 3 32.7669 -0.4094 47.4900 -0.0214 0.0049 0.0104
# 4 0.0030 0.0113 -0.0214 37.7618 -0.0014 0.0022
# 5 0.0012 0.0015 0.0049 -0.0014 21.8461 0.0019
# 6 0.0013 -0.0015 0.0104 0.0022 0.0019 21.4210
#
#
#
# Elastic Compliance Matrix: (Units=1/GPa)
#
#
# Indices 1 2 3 4 5 6 
#
# 1 0.017156 -0.005232 -0.011883 -0.000007 0.000002 0.000004
# 2 -0.005232 0.012264 0.003716 -0.000001 -0.000001 -0.000001
# 3 -0.011883 0.003716 0.029288 0.000016 -0.000006 -0.000013
# 4 -0.000007 -0.000001 0.000016 0.026482 0.000002 -0.000003
# 5 0.000002 -0.000001 -0.000006 0.000002 0.045775 -0.000004
# 6 0.000004 -0.000001 -0.000013 -0.000003 -0.000004 0.046683
#
#
# Mechanical properties :
#
#
# Convention : Reuss Voigt Hill
#
# Bulk Modulus (GPa) = 31.33764 39.12885 35.23324
# Shear Modulus (GPa) = 23.24683 27.55106 25.39894
#
# Velocity S-wave (km/s) = 3.45382 3.75999 3.61015
# Velocity P-wave (km/s) = 5.65559 6.23927 5.95459
#
# Compressibility (1/GPa) = 0.03191051
#
# Stress axis : x y z
#
# Youngs Moduli (GPa) = 58.28699 81.53800 34.14392
#
# Poissons Ratio (x) = 0.42662 0.40572
# Poissons Ratio (y) = 0.30496 -0.12687
# Poissons Ratio (z) = 0.69260 -0.30298
#
# Static dielectric constant tensor:
#      x y z
#    x 1.662550 0.000000 0.000000 
#    y 0.000000 1.649670 0.000000 
#    z 0.000000 0.000000 1.680180 
# 
# From -- ./inp_files/3887.got.cif
#   From: 2010.05.17/outbox.cif.g08.bks.cpg/sg46_2_cif.got.tgz:3887.got - 2010.06.03 19:58:25.
