data_PCOD9379783
_publ_section_title
;
Structure prediction by ZEFSAII (Michael W. Deem and Ramdas Pophale) SiO2 
 PCOD9379783
Probable space group: I M A 2
;
_chemical_formula_sum "Si O2"
_cell_formula_units_Z 64
_cell_length_a 8.688852
_cell_length_b 24.871523
_cell_length_c 14.375183
_cell_angle_alpha 90.000000
_cell_angle_beta 90.000000
_cell_angle_gamma 90.000000
_cell_volume 3106.548669
_symmetry_space_group_name_H-M "I M A 2"
_symmetry_group_IT_number 46
_symmetry_cell_setting 'orthorhombic'
loop_
_space_group_symop_operation_xyz
x,y,z
-x,-y,z
1/2-x,y,z
1/2+x,-y,z
1/2+x,1/2+y,1/2+z
1/2-x,1/2-y,1/2+z
-x,1/2+y,1/2+z
x,1/2-y,1/2+z
loop_
_atom_site_type_symbol
_atom_site_label
_atom_site_fract_x
_atom_site_fract_y
_atom_site_fract_z
Si Si1 0.063590 0.892067 0.892700
Si Si2 0.936221 0.107984 0.676441
Si Si3 0.565985 0.839937 0.184637
Si Si4 0.433552 0.055681 0.066817
Si Si5 0.432353 0.443501 0.001557
Si Si6 0.435447 0.657997 0.892483
Si Si7 0.071126 0.774147 0.899829
Si Si8 0.928041 0.271326 0.173158
O O1 0.250000 0.891790 0.898340
O O2 0.024255 0.900545 0.784551
O O3 0.003765 0.832452 0.922548
O O4 0.995650 0.934852 0.962940
O O5 0.750000 0.105621 0.668055
O O6 0.983235 0.168967 0.647608
O O7 0.013866 0.066541 0.607370
O O8 0.750000 0.840367 0.195338
O O9 0.518467 0.891554 0.124646
O O10 0.487362 0.844708 0.285373
O O11 0.516132 0.782158 0.142968
O O12 0.250000 0.053049 0.066606
O O13 0.500000 0.000000 0.104995
O O14 0.500000 0.500000 0.967719
O O15 0.250000 0.444411 0.994828
O O16 0.499139 0.393050 0.945340
O O17 0.250000 0.658136 0.897960
O O18 0.492198 0.716378 0.930609
O O19 0.250000 0.775707 0.928372
O O20 0.069423 0.772138 0.786570
O O21 0.750000 0.266402 0.144782
#
# Coordination Sequence:
#
# PCOD9379783 Si02
#       8
#     8   8   8   8   8   8   8   8
#     4   9  18  36  62  87 114 148 186 229 277 331
#     4   9  19  38  62  88 117 150 189 233 281 338
#     4  10  21  37  57  85 119 151 188 236 287 338
#     4  11  25  41  56  78 110 148 193 239 281 332
#     4  12  26  42  59  82 113 151 196 241 286 340
#     4  10  20  38  63  88 116 150 188 232 283 340
#     4   7  13  29  55  86 114 143 180 219 267 331
#     4   8  15  31  57  86 115 149 187 225 275 340
#
# _framework density 20.601641000000001
#
# number of rings (size 3 to 8) (size 9 to 14) (size 15 to 20)
#    0.000    2.500    0.000    4.500    0.000    5.000 
#    0.000   10.625    0.000    0.000    0.000    0.000 
#    0.000    0.000    0.000    0.000    0.000    0.000 
#
# Total GULP energy -178660.639626 kJ/mol
# GULP energy per Si atom -5583.144988 kJ/mol
# Density = 2.055475 g / cm^3
# Si number density = 20.601641 Si / 1000 Ang^3
#
#
#
# Elastic Constant Matrix: (Units=GPa)
#
#
# Indices 1 2 3 4 5 6 
#
# 1 42.1391 23.0438 9.7316 0.0000 0.0000 0.0000
# 2 23.0438 106.1376 13.4275 0.0000 0.0000 0.0000
# 3 9.7316 13.4275 41.3484 0.0001 -0.0001 0.0000
# 4 0.0000 0.0000 0.0001 29.0615 0.0000 0.0000
# 5 0.0000 0.0000 -0.0001 0.0000 9.3919 0.0000
# 6 0.0000 0.0000 0.0000 0.0000 0.0000 30.1745
#
#
#
# Elastic Compliance Matrix: (Units=1/GPa)
#
#
# Indices 1 2 3 4 5 6 
#
# 1 0.027805 -0.005432 -0.004780 0.000000 0.000000 0.000000
# 2 -0.005432 0.010887 -0.002257 0.000000 0.000000 0.000000
# 3 -0.004780 -0.002257 0.026043 0.000000 0.000000 0.000000
# 4 0.000000 0.000000 0.000000 0.034410 0.000000 0.000000
# 5 0.000000 0.000000 0.000000 0.000000 0.106474 0.000000
# 6 0.000000 0.000000 0.000000 0.000000 0.000000 0.033141
#
#
# Mechanical properties :
#
#
# Convention : Reuss Voigt Hill
#
# Bulk Modulus (GPa) = 25.12791 31.33679 28.23235
# Shear Modulus (GPa) = 18.05295 23.28707 20.67001
#
# Velocity S-wave (km/s) = 2.96343 3.36572 3.17096
# Velocity P-wave (km/s) = 4.89211 5.50889 5.20964
#
# Compressibility (1/GPa) = 0.03979639
#
# Stress axis : x y z
#
# Youngs Moduli (GPa) = 35.96417 91.85571 38.39857
#
# Poissons Ratio (x) = 0.49898 0.18355
# Poissons Ratio (y) = 0.19536 0.08666
# Poissons Ratio (z) = 0.17191 0.20730
#
# Static dielectric constant tensor:
#      x y z
#    x 1.722780 0.000000 0.000000 
#    y 0.000000 1.753700 0.000000 
#    z 0.000000 0.000000 1.757730 
# 
# From -- ./inp_files/14508.got.cif
#   From: 2010.05.17/outbox.cif.g08.bks.cpg/sg46_8_cif.got.tgz:14508.got - 2010.06.03 19:58:25.
