data_PCOD9379215
_publ_section_title
;
Structure prediction by ZEFSAII (Michael W. Deem and Ramdas Pophale) SiO2 
 PCOD9379215
Probable space group: I M A 2
;
_chemical_formula_sum "Si O2"
_cell_formula_units_Z 32
_cell_length_a 10.872591
_cell_length_b 8.101422
_cell_length_c 18.240309
_cell_angle_alpha 90.000000
_cell_angle_beta 90.000000
_cell_angle_gamma 90.000000
_cell_volume 1606.669308
_symmetry_space_group_name_H-M "I M A 2"
_symmetry_group_IT_number 46
_symmetry_cell_setting 'orthorhombic'
loop_
_space_group_symop_operation_xyz
x,y,z
-x,-y,z
1/2-x,y,z
1/2+x,-y,z
1/2+x,1/2+y,1/2+z
1/2-x,1/2-y,1/2+z
-x,1/2+y,1/2+z
x,1/2-y,1/2+z
loop_
_atom_site_type_symbol
_atom_site_label
_atom_site_fract_x
_atom_site_fract_y
_atom_site_fract_z
Si Si1 0.989942 0.192349 0.121300
Si Si2 0.250000 0.155711 0.788231
Si Si3 0.750000 0.203204 0.864015
Si Si4 0.250000 0.709859 0.034004
Si Si5 0.487347 0.695767 0.282631
Si Si6 0.250000 0.140893 0.611968
O O1 0.123454 0.260302 0.096989
O O2 0.876687 0.218372 0.066952
O O3 0.959232 0.283322 0.197203
O O4 0.000000 0.000000 0.137682
O O5 0.375077 0.257908 0.798873
O O6 0.250000 0.105111 0.700860
O O7 0.250000 0.992748 0.840018
O O8 0.875668 0.268172 0.828158
O O9 0.750000 0.246984 0.948688
O O10 0.250000 0.520789 0.061778
O O11 0.500000 0.500000 0.297228
#
# Coordination Sequence:
#
# PCOD9379215 Si02
#       6
#     8   4   4   4   8   4
#     4  11  22  38  63  92 118 149 200 259 301 344
#     4   8  16  33  61  85 105 146 197 242 287 349
#     4  10  20  32  54  84 114 152 193 234 282 346
#     4  12  23  37  58  85 124 166 201 236 290 367
#     4   9  17  35  60  84 112 150 195 240 295 356
#     4  10  21  42  67  88 113 158 207 248 303 360
#
# _framework density 19.916979000000001
#
# number of rings (size 3 to 8) (size 9 to 14) (size 15 to 20)
#    0.000    2.000    0.000    6.750    0.000    3.000 
#    0.000    3.750    0.000    3.000    0.000    0.000 
#    0.000    0.000    0.000    0.000    0.000    0.000 
#
# Total GULP energy -89220.887963 kJ/mol
# GULP energy per Si atom -5576.305498 kJ/mol
# Density = 1.987165 g / cm^3
# Si number density = 19.916979 Si / 1000 Ang^3
#
#
#
# Elastic Constant Matrix: (Units=GPa)
#
#
# Indices 1 2 3 4 5 6 
#
# 1 206.3699 10.3178 89.8955 0.0000 0.0000 0.0000
# 2 10.3178 26.2457 -8.6025 0.0000 0.0000 0.0000
# 3 89.8955 -8.6025 91.6467 0.0000 0.0000 0.0000
# 4 0.0000 0.0000 0.0000 3.8610 0.0000 0.0000
# 5 0.0000 0.0000 0.0000 0.0000 -22.8853 0.0000
# 6 0.0000 0.0000 0.0000 0.0000 0.0000 16.9414
#
#
#
# Elastic Compliance Matrix: (Units=1/GPa)
#
#
# Indices 1 2 3 4 5 6 
#
# 1 0.009582 -0.007065 -0.010062 0.000000 0.000000 0.000000
# 2 -0.007065 0.044520 0.011109 0.000000 0.000000 0.000000
# 3 -0.010062 0.011109 0.021824 0.000000 0.000000 0.000000
# 4 0.000000 0.000000 0.000000 0.259001 0.000000 0.000000
# 5 0.000000 0.000000 0.000000 0.000000 -0.043696 0.000000
# 6 0.000000 0.000000 0.000000 0.000000 0.000000 0.059027
#
#
# Mechanical properties :
#
#
# Convention : Reuss Voigt Hill
#
# Bulk Modulus (GPa) = 15.65196 56.38708 36.01952
# Shear Modulus (GPa) = 13.03472 15.09352 14.06412
#
# Velocity S-wave (km/s) = 2.56100 2.75584 2.66021
# Velocity P-wave (km/s) = 4.07684 6.20474 5.24973
#
# Compressibility (1/GPa) = 0.06388978
#
# Stress axis : x y z
#
# Youngs Moduli (GPa) = 104.36319 22.46179 45.82130
#
# Poissons Ratio (x) = 0.15869 0.46105
# Poissons Ratio (y) = 0.73731 -0.50902
# Poissons Ratio (z) = 1.05010 -0.24952
#
# Static dielectric constant tensor:
#      x y z
#    x 1.800140 0.000000 0.000000 
#    y 0.000000 1.695220 0.000000 
#    z 0.000000 0.000000 1.659380 
# 
# From -- ./inp_files/14889.got.cif
#   From: 2010.05.17/outbox.cif.g08.bks.cpg/sg46_8_cif.got.tgz:14889.got - 2010.06.03 19:58:25.
