data_PCOD9379767
_publ_section_title
;
Structure prediction by ZEFSAII (Michael W. Deem and Ramdas Pophale) SiO2 
 PCOD9379767
Probable space group: I M A 2
;
_chemical_formula_sum "Si O2"
_cell_formula_units_Z 36
_cell_length_a 12.383134
_cell_length_b 12.158649
_cell_length_c 10.434209
_cell_angle_alpha 90.000000
_cell_angle_beta 90.000000
_cell_angle_gamma 90.000000
_cell_volume 1570.997252
_symmetry_space_group_name_H-M "I M A 2"
_symmetry_group_IT_number 46
_symmetry_cell_setting 'orthorhombic'
loop_
_space_group_symop_operation_xyz
x,y,z
-x,-y,z
1/2-x,y,z
1/2+x,-y,z
1/2+x,1/2+y,1/2+z
1/2-x,1/2-y,1/2+z
-x,1/2+y,1/2+z
x,1/2-y,1/2+z
loop_
_atom_site_type_symbol
_atom_site_label
_atom_site_fract_x
_atom_site_fract_y
_atom_site_fract_z
Si Si1 0.064045 0.211981 0.414040
Si Si2 0.376240 0.633260 0.524811
Si Si3 0.096503 0.345239 0.181200
Si Si4 0.634276 0.085093 0.749803
Si Si5 0.000000 0.000000 0.248375
O O1 0.950908 0.269568 0.462265
O O2 0.126454 0.283795 0.309751
O O3 0.125745 0.207071 0.547775
O O4 0.046570 0.094354 0.343889
O O5 0.250000 0.662662 0.544333
O O6 0.379010 0.553994 0.399501
O O7 0.424341 0.570625 0.648911
O O8 0.131755 0.470383 0.177623
O O9 0.965665 0.346968 0.197654
O O10 0.750000 0.141098 0.736393
#
# Coordination Sequence:
#
# PCOD9379767 Si02
#       5
#     8   8   8   8   4
#     4  11  22  39  64  93 133 173 220 276 343 399
#     4  10  22  41  66 100 136 175 225 286 344 408
#     4  10  20  38  61  90 124 166 213 269 332 401
#     4   9  19  37  62  86 121 166 212 266 331 398
#     4  12  22  40  70  98 136 184 232 280 348 420
#
# _framework density 22.915381
#
# number of rings (size 3 to 8) (size 9 to 14) (size 15 to 20)
#    0.000    1.778    2.222    4.000    0.000    1.778 
#    0.000    5.556    0.000    1.333    0.000    0.000 
#    0.000    0.000    0.000    0.000    0.000    0.000 
#
# Total GULP energy -100275.600848 kJ/mol
# GULP energy per Si atom -5570.866714 kJ/mol
# Density = 2.286322 g / cm^3
# Si number density = 22.915381 Si / 1000 Ang^3
#
#
#
# Elastic Constant Matrix: (Units=GPa)
#
#
# Indices 1 2 3 4 5 6 
#
# 1 135.8126 12.0594 35.3136 0.0000 0.0000 0.0000
# 2 12.0594 71.1663 42.1407 0.0000 0.0000 0.0000
# 3 35.3136 42.1407 193.1997 0.0000 0.0000 0.0000
# 4 0.0000 0.0000 0.0000 58.2518 0.0000 0.0000
# 5 0.0000 0.0000 0.0000 0.0000 -10.5582 0.0000
# 6 0.0000 0.0000 0.0000 0.0000 0.0000 -37.1928
#
#
#
# Elastic Compliance Matrix: (Units=1/GPa)
#
#
# Indices 1 2 3 4 5 6 
#
# 1 0.007749 -0.000545 -0.001298 0.000000 0.000000 0.000000
# 2 -0.000545 0.016174 -0.003428 0.000000 0.000000 0.000000
# 3 -0.001298 -0.003428 0.006161 0.000000 0.000000 0.000000
# 4 0.000000 0.000000 0.000000 0.017167 0.000000 0.000000
# 5 0.000000 0.000000 0.000000 0.000000 -0.094713 0.000000
# 6 0.000000 0.000000 0.000000 0.000000 0.000000 -0.026887
#
#
# Mechanical properties :
#
#
# Convention : Reuss Voigt Hill
#
# Bulk Modulus (GPa) = 51.17031 64.35624 57.76327
# Shear Modulus (GPa) = -87.26896 22.81115 -32.22891
#
# Velocity S-wave (km/s) = -6.17785 3.15850 -3.75431
# Velocity P-wave (km/s) = 5.33940 6.43792 2.54338
#
# Compressibility (1/GPa) = 0.01954258
#
# Stress axis : x y z
#
# Youngs Moduli (GPa) = 129.05153 61.82780 162.31294
#
# Poissons Ratio (x) = 0.03368 0.21061
# Poissons Ratio (y) = 0.07030 0.55646
# Poissons Ratio (z) = 0.16745 0.21196
#
# Static dielectric constant tensor:
#      x y z
#    x 1.980110 0.000000 0.000000 
#    y 0.000000 1.860530 0.000000 
#    z 0.000000 0.000000 1.871020 
# 
# From -- ./inp_files/10870.got.cif
#   From: 2010.05.17/outbox.cif.g08.bks.cpg/sg46_6_cif.got.tgz:10870.got - 2010.06.03 19:58:25.
