data_PCOD9379474
_publ_section_title
;
Structure prediction by ZEFSAII (Michael W. Deem and Ramdas Pophale) SiO2 
 PCOD9379474
Probable space group: I M A 2
;
_chemical_formula_sum "Si O2"
_cell_formula_units_Z 64
_cell_length_a 15.321363
_cell_length_b 9.454494
_cell_length_c 21.321827
_cell_angle_alpha 90.000000
_cell_angle_beta 90.000000
_cell_angle_gamma 90.000000
_cell_volume 3088.588912
_symmetry_space_group_name_H-M "I M A 2"
_symmetry_group_IT_number 46
_symmetry_cell_setting 'orthorhombic'
loop_
_space_group_symop_operation_xyz
x,y,z
-x,-y,z
1/2-x,y,z
1/2+x,-y,z
1/2+x,1/2+y,1/2+z
1/2-x,1/2-y,1/2+z
-x,1/2+y,1/2+z
x,1/2-y,1/2+z
loop_
_atom_site_type_symbol
_atom_site_label
_atom_site_fract_x
_atom_site_fract_y
_atom_site_fract_z
Si Si1 0.088787 0.411687 0.838970
Si Si2 0.852938 0.617108 0.975969
Si Si3 0.097620 0.063020 0.975395
Si Si4 0.597620 0.936981 0.702545
Si Si5 0.593636 0.926275 0.838970
Si Si6 0.648875 0.095612 0.580061
Si Si7 0.648875 0.404389 0.597879
Si Si8 0.147062 0.117108 0.201971
O O1 0.136805 0.438424 0.904859
O O2 0.076480 0.241886 0.838970
O O3 0.136804 0.438425 0.773081
O O4 0.000000 0.500000 0.838970
O O5 0.750000 0.643448 0.988168
O O6 0.900194 0.767812 0.983687
O O7 0.888171 0.502993 0.025326
O O8 0.145191 0.987953 0.032668
O O9 0.136721 0.037132 0.905613
O O10 0.000000 0.000000 0.975803
O O11 0.636721 0.962868 0.772326
O O12 0.599806 0.767812 0.694252
O O13 0.500000 0.000000 0.702137
O O14 0.645191 0.012048 0.645271
O O15 0.500000 0.000000 0.838970
O O16 0.750000 0.118587 0.561591
O O17 0.607413 0.250000 0.588970
O O18 0.750000 0.381413 0.616349
O O19 0.611829 0.502994 0.652614
O O20 0.250000 0.143448 0.189773
#
# Coordination Sequence:
#
# PCOD9379474 Si02
#       8
#     8   8   8   8   8   8   8   8
#     4  10  21  35  58  89 117 146 191 246 292 343
#     4  10  21  39  61  84 117 161 202 241 297 365
#     4  10  20  35  58  85 112 146 192 247 301 355
#     4  10  20  35  58  85 112 146 192 247 301 355
#     4   8  18  35  52  79 112 142 177 226 289 349
#     4  10  22  38  55  80 115 154 199 247 294 353
#     4  10  22  38  55  80 115 154 199 247 294 353
#     4  10  21  39  61  84 117 161 202 241 297 365
#
# _framework density 20.721437000000002
#
# number of rings (size 3 to 8) (size 9 to 14) (size 15 to 20)
#    0.000    2.250    0.000    1.875    0.000   11.000 
#    0.000    1.875    0.000    3.000    0.000    1.750 
#    0.000    0.000    0.000    0.000    0.000    0.000 
#
# Total GULP energy -178491.797557 kJ/mol
# GULP energy per Si atom -5577.868674 kJ/mol
# Density = 2.067427 g / cm^3
# Si number density = 20.721437 Si / 1000 Ang^3
#
#
#
# Elastic Constant Matrix: (Units=GPa)
#
#
# Indices 1 2 3 4 5 6 
#
# 1 54.3170 22.1345 -1.1667 0.0000 0.0000 0.0000
# 2 22.1345 112.4522 94.3426 0.0000 0.0000 0.0000
# 3 -1.1667 94.3426 169.2758 0.0000 0.0000 0.0000
# 4 0.0000 0.0000 0.0000 23.4544 0.0000 0.0000
# 5 0.0000 0.0000 0.0000 0.0000 28.8058 0.0000
# 6 0.0000 0.0000 0.0000 0.0000 0.0000 27.6953
#
#
#
# Elastic Compliance Matrix: (Units=1/GPa)
#
#
# Indices 1 2 3 4 5 6 
#
# 1 0.021912 -0.008339 0.004798 0.000000 0.000000 0.000000
# 2 -0.008339 0.019876 -0.011135 0.000000 0.000000 0.000000
# 3 0.004798 -0.011135 0.012146 0.000000 0.000000 0.000000
# 4 0.000000 0.000000 0.000000 0.042636 0.000000 0.000000
# 5 0.000000 0.000000 0.000000 0.000000 0.034715 0.000000
# 6 0.000000 0.000000 0.000000 0.000000 0.000000 0.036107
#
#
# Mechanical properties :
#
#
# Convention : Reuss Voigt Hill
#
# Bulk Modulus (GPa) = 40.67769 62.96288 51.82029
# Shear Modulus (GPa) = 24.39784 30.70673 27.55229
#
# Velocity S-wave (km/s) = 3.43508 3.85370 3.65039
# Velocity P-wave (km/s) = 5.95032 7.08891 6.54443
#
# Compressibility (1/GPa) = 0.02458350
#
# Stress axis : x y z
#
# Youngs Moduli (GPa) = 45.63813 50.31305 82.32943
#
# Poissons Ratio (x) = 0.41954 -0.39505
# Poissons Ratio (y) = 0.38056 0.91672
# Poissons Ratio (z) = -0.21899 0.56022
#
# Static dielectric constant tensor:
#      x y z
#    x 1.758460 0.000000 0.000000 
#    y 0.000000 1.727160 0.000000 
#    z 0.000000 0.000000 1.778730 
# 
# From -- ./inp_files/22259.got.cif
#   From: 2010.05.17/outbox.cif.g08.bks.cpg/sg46_12_cif.got.tgz:22259.got - 2010.06.03 19:58:25.
