data_PCOD9379096
_publ_section_title
;
Structure prediction by ZEFSAII (Michael W. Deem and Ramdas Pophale) SiO2 
 PCOD9379096
Probable space group: I M A 2
;
_chemical_formula_sum "Si O2"
_cell_formula_units_Z 64
_cell_length_a 10.536268
_cell_length_b 34.550280
_cell_length_c 8.922897
_cell_angle_alpha 90.000000
_cell_angle_beta 90.000000
_cell_angle_gamma 90.000000
_cell_volume 3248.211203
_symmetry_space_group_name_H-M "I M A 2"
_symmetry_group_IT_number 46
_symmetry_cell_setting 'orthorhombic'
loop_
_space_group_symop_operation_xyz
x,y,z
-x,-y,z
1/2-x,y,z
1/2+x,-y,z
1/2+x,1/2+y,1/2+z
1/2-x,1/2-y,1/2+z
-x,1/2+y,1/2+z
x,1/2-y,1/2+z
loop_
_atom_site_type_symbol
_atom_site_label
_atom_site_fract_x
_atom_site_fract_y
_atom_site_fract_z
Si Si1 0.998560 0.411455 0.906160
Si Si2 0.111293 0.030855 0.641285
Si Si3 0.389644 0.361153 0.651920
Si Si4 0.105573 0.533569 0.650146
Si Si5 0.024265 0.417442 0.405968
Si Si6 0.097234 0.797580 0.173405
Si Si7 0.902873 0.216295 0.523648
Si Si8 0.896843 0.138697 0.668692
O O1 0.081478 0.381730 0.809668
O O2 0.920231 0.437752 0.789803
O O3 0.085687 0.438778 0.008521
O O4 0.910671 0.387011 0.018342
O O5 0.250000 0.012848 0.626357
O O6 0.098953 0.053497 0.797962
O O7 0.000000 0.000000 0.634084
O O8 0.250000 0.342758 0.651156
O O9 0.394660 0.395190 0.529591
O O10 0.506694 0.332278 0.622204
O O11 0.250000 0.518965 0.653951
O O12 0.079437 0.558055 0.498992
O O13 0.000000 0.500000 0.656652
O O14 0.965594 0.384865 0.298368
O O15 0.250000 0.805274 0.157985
O O16 0.068353 0.790387 0.349262
O O17 0.063965 0.758631 0.083230
O O18 0.750000 0.214202 0.533941
O O19 0.951154 0.180968 0.626500
O O20 0.750000 0.142845 0.710034
#
# Coordination Sequence:
#
# PCOD9379096 Si02
#       8
#     8   8   8   8   8   8   8   8
#     4  10  22  39  62  87 119 156 203 252 303 361
#     4  11  24  42  63  88 119 156 200 250 307 365
#     4  11  23  41  63  88 123 165 207 249 300 357
#     4  11  24  40  60  89 121 158 200 251 306 365
#     4  10  24  39  60  86 121 161 204 249 300 359
#     4  10  21  38  62  92 125 159 200 248 298 356
#     4   9  19  35  60  91 124 156 193 243 300 352
#     4  10  19  36  62  91 120 155 201 254 299 349
#
# _framework density 19.703153
#
# number of rings (size 3 to 8) (size 9 to 14) (size 15 to 20)
#    0.000    1.750    1.250    2.250    1.750   10.500 
#    0.000    0.625    0.000    0.000    0.000    0.000 
#    0.000    0.000    0.000    0.000    0.000    0.000 
#
# Total GULP energy -178714.239842 kJ/mol
# GULP energy per Si atom -5584.819995 kJ/mol
# Density = 1.965831 g / cm^3
# Si number density = 19.703153 Si / 1000 Ang^3
#
#
#
# Elastic Constant Matrix: (Units=GPa)
#
#
# Indices 1 2 3 4 5 6 
#
# 1 109.9338 36.1464 6.1966 -0.0014 0.0025 0.0015
# 2 36.1464 85.2427 5.3257 -0.0015 0.0011 0.0012
# 3 6.1966 5.3257 52.1589 -0.0026 0.0052 0.0111
# 4 -0.0014 -0.0015 -0.0026 17.7871 0.0013 -0.0002
# 5 0.0025 0.0011 0.0052 0.0013 -3.0377 -0.0033
# 6 0.0015 0.0012 0.0111 -0.0002 -0.0033 20.7647
#
#
#
# Elastic Compliance Matrix: (Units=1/GPa)
#
#
# Indices 1 2 3 4 5 6 
#
# 1 0.010604 -0.004446 -0.000806 0.000000 0.000006 0.000000
# 2 -0.004446 0.013671 -0.000868 0.000001 0.000000 0.000000
# 3 -0.000806 -0.000868 0.019356 0.000003 0.000032 -0.000010
# 4 0.000000 0.000001 0.000003 0.056220 0.000023 0.000000
# 5 0.000006 0.000000 0.000032 0.000023 -0.329196 -0.000052
# 6 0.000000 0.000000 -0.000010 0.000000 -0.000052 0.048159
#
#
# Mechanical properties :
#
#
# Convention : Reuss Voigt Hill
#
# Bulk Modulus (GPa) = 31.85532 38.07474 34.96503
# Shear Modulus (GPa) = -31.54903 20.41393 -5.56755
#
# Velocity S-wave (km/s) = -4.00586 3.22230 -1.68281
# Velocity P-wave (km/s) = 2.27886 5.76285 3.74281
#
# Compressibility (1/GPa) = 0.03139193
#
# Stress axis : x y z
#
# Youngs Moduli (GPa) = 94.30696 73.14899 51.66226
#
# Poissons Ratio (x) = 0.32522 0.04163
# Poissons Ratio (y) = 0.41929 0.04483
# Poissons Ratio (z) = 0.07599 0.06347
#
# Static dielectric constant tensor:
#      x y z
#    x 1.698530 0.000000 0.000000 
#    y 0.000000 1.698420 0.000000 
#    z 0.000000 0.000000 1.694530 
# 
# From -- ./inp_files/5023.got.cif
#   From: 2010.05.17/outbox.cif.g08.bks.cpg/sg46_3_cif.got.tgz:5023.got - 2010.06.03 19:58:25.
