data_PCOD9379058
_publ_section_title
;
Structure prediction by ZEFSAII (Michael W. Deem and Ramdas Pophale) SiO2 
 PCOD9379058
Probable space group: I M A 2
;
_chemical_formula_sum "Si O2"
_cell_formula_units_Z 40
_cell_length_a 13.860220
_cell_length_b 7.040271
_cell_length_c 15.941052
_cell_angle_alpha 90.000000
_cell_angle_beta 90.000000
_cell_angle_gamma 90.000000
_cell_volume 1555.523150
_symmetry_space_group_name_H-M "I M A 2"
_symmetry_group_IT_number 46
_symmetry_cell_setting 'orthorhombic'
loop_
_space_group_symop_operation_xyz
x,y,z
-x,-y,z
1/2-x,y,z
1/2+x,-y,z
1/2+x,1/2+y,1/2+z
1/2-x,1/2-y,1/2+z
-x,1/2+y,1/2+z
x,1/2-y,1/2+z
loop_
_atom_site_type_symbol
_atom_site_label
_atom_site_fract_x
_atom_site_fract_y
_atom_site_fract_z
Si Si1 0.929186 0.744355 0.167630
Si Si2 0.860184 0.174885 0.207458
Si Si3 0.860357 0.824159 0.844559
Si Si4 0.859383 0.380287 0.899853
Si Si5 0.030123 0.308731 0.500672
O O1 0.898533 0.636273 0.252000
O O2 0.046028 0.731147 0.166965
O O3 0.880014 0.949338 0.190761
O O4 0.905349 0.699944 0.070538
O O5 0.750000 0.219895 0.181418
O O6 0.868311 0.213252 0.307532
O O7 0.750000 0.874515 0.844661
O O8 0.871050 0.601567 0.873212
O O9 0.911902 0.907621 0.924753
O O10 0.750000 0.351489 0.930960
O O11 0.942229 0.310743 0.962192
O O12 0.000000 0.500000 0.549580
#
# Coordination Sequence:
#
# PCOD9379058 Si02
#       5
#     8   8   8   8   8
#     4  10  19  36  56  86 118 152 205 244 286 349
#     4   9  16  32  59  81 106 151 202 243 275 334
#     4  10  22  42  66  84 113 161 209 247 285 354
#     4   9  19  38  63  84 110 156 206 243 281 346
#     4  12  23  35  58  95 127 152 184 248 315 355
#
# _framework density 25.714821000000001
#
# number of rings (size 3 to 8) (size 9 to 14) (size 15 to 20)
#    0.000    2.000    4.000    2.400    0.000    3.200 
#    0.000    2.000    0.000    0.000    0.000    0.000 
#    0.000    0.000    0.000    0.000    0.000    0.000 
#
# Total GULP energy -111617.908159 kJ/mol
# GULP energy per Si atom -5580.895408 kJ/mol
# Density = 2.565629 g / cm^3
# Si number density = 25.714821 Si / 1000 Ang^3
#
#
#
# Elastic Constant Matrix: (Units=GPa)
#
#
# Indices 1 2 3 4 5 6 
#
# 1 160.9831 11.2947 72.0069 0.0000 0.0000 0.0000
# 2 11.2947 69.2793 19.6703 0.0000 0.0000 0.0000
# 3 72.0069 19.6703 197.3865 0.0000 0.0000 0.0000
# 4 0.0000 0.0000 0.0000 25.9774 0.0000 0.0000
# 5 0.0000 0.0000 0.0000 0.0000 -21.4608 0.0000
# 6 0.0000 0.0000 0.0000 0.0000 0.0000 25.8500
#
#
#
# Elastic Compliance Matrix: (Units=1/GPa)
#
#
# Indices 1 2 3 4 5 6 
#
# 1 0.007437 -0.000455 -0.002668 0.000000 0.000000 0.000000
# 2 -0.000455 0.014882 -0.001317 0.000000 0.000000 0.000000
# 3 -0.002668 -0.001317 0.006171 0.000000 0.000000 0.000000
# 4 0.000000 0.000000 0.000000 0.038495 0.000000 0.000000
# 5 0.000000 0.000000 0.000000 0.000000 -0.046597 0.000000
# 6 0.000000 0.000000 0.000000 0.000000 0.000000 0.038685
#
#
# Mechanical properties :
#
#
# Convention : Reuss Voigt Hill
#
# Bulk Modulus (GPa) = 50.99318 70.39921 60.69620
# Shear Modulus (GPa) = 67.12339 27.71845 47.42092
#
# Velocity S-wave (km/s) = 5.11465 3.28673 4.29897
# Velocity P-wave (km/s) = 7.39952 6.46837 6.94956
#
# Compressibility (1/GPa) = 0.01961047
#
# Stress axis : x y z
#
# Youngs Moduli (GPa) = 134.46286 67.19313 162.05794
#
# Poissons Ratio (x) = 0.03058 0.43232
# Poissons Ratio (y) = 0.06119 0.21345
# Poissons Ratio (z) = 0.35870 0.08850
#
# Static dielectric constant tensor:
#      x y z
#    x 2.016150 0.000000 0.000000 
#    y 0.000000 2.162780 0.000000 
#    z 0.000000 0.000000 2.078140 
# 
# From -- ./inp_files/15668.got.cif
#   From: 2010.05.17/outbox.cif.g08.bks.cpg/sg46_8_cif.got.tgz:15668.got - 2010.06.03 19:58:25.
