data_PCOD9379361
_publ_section_title
;
Structure prediction by ZEFSAII (Michael W. Deem and Ramdas Pophale) SiO2 
 PCOD9379361
Probable space group: I M A 2
;
_chemical_formula_sum "Si O2"
_cell_formula_units_Z 48
_cell_length_a 8.607699
_cell_length_b 28.763952
_cell_length_c 9.040616
_cell_angle_alpha 90.000000
_cell_angle_beta 90.000000
_cell_angle_gamma 90.000000
_cell_volume 2238.379142
_symmetry_space_group_name_H-M "I M A 2"
_symmetry_group_IT_number 46
_symmetry_cell_setting 'orthorhombic'
loop_
_space_group_symop_operation_xyz
x,y,z
-x,-y,z
1/2-x,y,z
1/2+x,-y,z
1/2+x,1/2+y,1/2+z
1/2-x,1/2-y,1/2+z
-x,1/2+y,1/2+z
x,1/2-y,1/2+z
loop_
_atom_site_type_symbol
_atom_site_label
_atom_site_fract_x
_atom_site_fract_y
_atom_site_fract_z
Si Si1 0.250000 0.266896 0.370440
Si Si2 0.250000 0.315594 0.681453
Si Si3 0.062372 0.102853 0.581298
Si Si4 0.583022 0.957335 0.842602
Si Si5 0.426916 0.681977 0.279805
Si Si6 0.075645 0.949097 0.308247
Si Si7 0.504159 0.380429 0.555722
O O1 0.250000 0.279550 0.543411
O O2 0.250000 0.212683 0.332030
O O3 0.414740 0.287303 0.305695
O O4 0.399257 0.347434 0.656486
O O5 0.250000 0.109350 0.598053
O O6 0.007738 0.062380 0.694804
O O7 0.973229 0.148328 0.642313
O O8 0.021143 0.082637 0.422443
O O9 0.750000 0.975296 0.798760
O O10 0.500000 0.000000 0.917004
O O11 0.593944 0.913998 0.949884
O O12 0.250000 0.701772 0.256373
O O13 0.415993 0.652112 0.432651
O O14 0.250000 0.956243 0.366004
O O15 0.085914 0.917501 0.161066
O O16 0.000000 0.000000 0.286504
#
# Coordination Sequence:
#
# PCOD9379361 Si02
#       7
#     4   4   8   8   8   8   8
#     4  10  22  42  66 104 124 166 212 260 328 396
#     4  10  22  42  68  92 128 162 210 262 328 392
#     4  10  21  38  59  87 125 170 217 263 317 374
#     4  10  20  34  56  84 118 158 215 260 299 361
#     4  10  20  41  69  95 127 164 212 267 315 381
#     4  12  26  39  55  87 127 170 218 264 321 380
#     4  10  22  39  63  88 121 165 208 257 317 381
#
# _framework density 21.444087
#
# number of rings (size 3 to 8) (size 9 to 14) (size 15 to 20)
#    0.000    1.667    1.667    2.500    2.333    8.000 
#    0.000    4.167    0.000    0.000    0.000    0.000 
#    0.000    0.000    0.000    0.000    0.000    0.000 
#
# Total GULP energy -133647.693681 kJ/mol
# GULP energy per Si atom -5568.653903 kJ/mol
# Density = 2.139528 g / cm^3
# Si number density = 21.444087 Si / 1000 Ang^3
#
#
#
# Elastic Constant Matrix: (Units=GPa)
#
#
# Indices 1 2 3 4 5 6 
#
# 1 107.8656 14.0780 9.5184 -0.0002 -0.0002 -0.0002
# 2 14.0780 45.7626 18.7451 -0.0003 0.0004 0.0003
# 3 9.5184 18.7451 73.1660 0.0007 -0.0041 -0.0035
# 4 -0.0002 -0.0003 0.0007 28.0414 0.0005 0.0001
# 5 -0.0002 0.0004 -0.0041 0.0005 -7.5372 0.0031
# 6 -0.0002 0.0003 -0.0035 0.0001 0.0031 -11.5713
#
#
#
# Elastic Compliance Matrix: (Units=1/GPa)
#
#
# Indices 1 2 3 4 5 6 
#
# 1 0.009679 -0.002750 -0.000555 0.000000 0.000000 0.000000
# 2 -0.002750 0.025196 -0.006097 0.000000 0.000005 0.000003
# 3 -0.000555 -0.006097 0.015302 0.000000 -0.000009 -0.000005
# 4 0.000000 0.000000 0.000000 0.035662 0.000003 0.000000
# 5 0.000000 0.000005 -0.000009 0.000003 -0.132675 -0.000035
# 6 0.000000 0.000003 -0.000005 0.000000 -0.000035 -0.086421
#
#
# Mechanical properties :
#
#
# Convention : Reuss Voigt Hill
#
# Bulk Modulus (GPa) = 31.87576 34.60858 33.24217
# Shear Modulus (GPa) = -48.07853 14.08342 -16.99755
#
# Velocity S-wave (km/s) = -4.74016 2.56550 -2.81845
# Velocity P-wave (km/s) = 3.88097 4.99497 2.22349
#
# Compressibility (1/GPa) = 0.03137180
#
# Stress axis : x y z
#
# Youngs Moduli (GPa) = 103.31981 39.68957 65.35179
#
# Poissons Ratio (x) = 0.10916 0.03624
# Poissons Ratio (y) = 0.28416 0.39847
# Poissons Ratio (z) = 0.05729 0.24200
#
# Static dielectric constant tensor:
#      x y z
#    x 1.861810 0.000000 0.000000 
#    y 0.000000 1.820890 0.000000 
#    z 0.000000 0.000000 1.780660 
# 
# From -- ./inp_files/4004.got.cif
#   From: 2010.05.17/outbox.cif.g08.bks.cpg/sg46_3_cif.got.tgz:4004.got - 2010.06.03 19:58:25.
