data_PCOD9379949
_publ_section_title
;
Structure prediction by ZEFSAII (Michael W. Deem and Ramdas Pophale) SiO2 
 PCOD9379949
Probable space group: I M A 2
;
_chemical_formula_sum "Si O2"
_cell_formula_units_Z 48
_cell_length_a 20.154847
_cell_length_b 15.262462
_cell_length_c 8.432568
_cell_angle_alpha 90.000000
_cell_angle_beta 90.000000
_cell_angle_gamma 90.000000
_cell_volume 2593.964053
_symmetry_space_group_name_H-M "I M A 2"
_symmetry_group_IT_number 46
_symmetry_cell_setting 'orthorhombic'
loop_
_space_group_symop_operation_xyz
x,y,z
-x,-y,z
1/2-x,y,z
1/2+x,-y,z
1/2+x,1/2+y,1/2+z
1/2-x,1/2-y,1/2+z
-x,1/2+y,1/2+z
x,1/2-y,1/2+z
loop_
_atom_site_type_symbol
_atom_site_label
_atom_site_fract_x
_atom_site_fract_y
_atom_site_fract_z
Si Si1 0.422859 0.517540 0.771940
Si Si2 0.388577 0.344707 0.628673
Si Si3 0.673169 0.816188 0.791705
Si Si4 0.547234 0.128863 0.753977
Si Si5 0.590944 0.543365 0.134155
Si Si6 0.957445 0.188226 0.118629
O O1 0.500000 0.500000 0.730512
O O2 0.381885 0.446321 0.673337
O O3 0.415776 0.618291 0.722091
O O4 0.413858 0.491627 0.954932
O O5 0.341565 0.280257 0.726137
O O6 0.371932 0.331360 0.445578
O O7 0.464451 0.316137 0.666832
O O8 0.750000 0.826602 0.830998
O O9 0.649232 0.887782 0.663371
O O10 0.476660 0.093646 0.685850
O O11 0.565896 0.213132 0.649721
O O12 0.594429 0.044495 0.739130
O O13 0.543476 0.159413 0.935493
#
# Coordination Sequence:
#
# PCOD9379949 Si02
#       6
#     8   8   8   8   8   8
#     4  10  21  33  57  79 114 144 185 231 296 341
#     4  11  21  35  52  78 111 151 192 234 269 338
#     4  12  24  38  55  78 115 162 201 233 273 324
#     4  11  21  32  56  82 116 145 183 226 298 343
#     4  11  21  36  53  83 111 152 187 238 277 345
#     4  11  20  34  54  85 113 151 175 232 289 350
#
# _framework density 18.504496
#
# number of rings (size 3 to 8) (size 9 to 14) (size 15 to 20)
#    0.000    1.000    5.000    3.500    7.000    0.000 
#    0.000    0.833    0.000    0.000    0.000   11.667 
#    0.000    0.000    0.000    0.000    0.000    0.000 
#
# Total GULP energy -133995.385013 kJ/mol
# GULP energy per Si atom -5583.141042 kJ/mol
# Density = 1.846238 g / cm^3
# Si number density = 18.504496 Si / 1000 Ang^3
#
#
#
# Elastic Constant Matrix: (Units=GPa)
#
#
# Indices 1 2 3 4 5 6 
#
# 1 34.1078 20.3833 0.3997 0.0000 0.0000 0.0000
# 2 20.3833 150.6586 40.9725 0.0000 0.0000 0.0000
# 3 0.3997 40.9725 93.5426 0.0000 0.0000 0.0000
# 4 0.0000 0.0000 0.0000 37.1610 0.0000 0.0000
# 5 0.0000 0.0000 0.0000 0.0000 5.9766 0.0000
# 6 0.0000 0.0000 0.0000 0.0000 0.0000 10.0015
#
#
#
# Elastic Compliance Matrix: (Units=1/GPa)
#
#
# Indices 1 2 3 4 5 6 
#
# 1 0.032228 -0.004907 0.002012 0.000000 0.000000 0.000000
# 2 -0.004907 0.008282 -0.003607 0.000000 0.000000 0.000000
# 3 0.002012 -0.003607 0.012262 0.000000 0.000000 0.000000
# 4 0.000000 0.000000 0.000000 0.026910 0.000000 0.000000
# 5 0.000000 0.000000 0.000000 0.000000 0.167319 0.000000
# 6 0.000000 0.000000 0.000000 0.000000 0.000000 0.099985
#
#
# Mechanical properties :
#
#
# Convention : Reuss Voigt Hill
#
# Bulk Modulus (GPa) = 25.14646 44.64665 34.89656
# Shear Modulus (GPa) = 13.39600 25.06474 19.23037
#
# Velocity S-wave (km/s) = 2.69352 3.68438 3.22720
# Velocity P-wave (km/s) = 4.82621 6.50226 5.72589
#
# Compressibility (1/GPa) = 0.03976703
#
# Stress axis : x y z
#
# Youngs Moduli (GPa) = 31.02900 120.73880 81.55598
#
# Poissons Ratio (x) = 0.59251 -0.16407
# Poissons Ratio (y) = 0.15227 0.29415
# Poissons Ratio (z) = -0.06242 0.43548
#
# Static dielectric constant tensor:
#      x y z
#    x 1.615480 0.000000 0.000000 
#    y 0.000000 1.681170 0.000000 
#    z 0.000000 0.000000 1.671740 
# 
# From -- ./inp_files/7300.got.cif
#   From: 2010.05.17/outbox.cif.g08.bks.cpg/sg46_4_cif.got.tgz:7300.got - 2010.06.03 19:58:25.
