data_PCOD9379141
_publ_section_title
;
Structure prediction by ZEFSAII (Michael W. Deem and Ramdas Pophale) SiO2 
 PCOD9379141
Probable space group: I M A 2
;
_chemical_formula_sum "Si O2"
_cell_formula_units_Z 48
_cell_length_a 19.501265
_cell_length_b 22.076780
_cell_length_c 5.296770
_cell_angle_alpha 90.000000
_cell_angle_beta 90.000000
_cell_angle_gamma 90.000000
_cell_volume 2280.392631
_symmetry_space_group_name_H-M "I M A 2"
_symmetry_group_IT_number 46
_symmetry_cell_setting 'orthorhombic'
loop_
_space_group_symop_operation_xyz
x,y,z
-x,-y,z
1/2-x,y,z
1/2+x,-y,z
1/2+x,1/2+y,1/2+z
1/2-x,1/2-y,1/2+z
-x,1/2+y,1/2+z
x,1/2-y,1/2+z
loop_
_atom_site_type_symbol
_atom_site_label
_atom_site_fract_x
_atom_site_fract_y
_atom_site_fract_z
Si Si1 0.750000 0.948586 0.144030
Si Si2 0.390578 0.410939 0.858644
Si Si3 0.532556 0.092377 0.096776
Si Si4 0.920796 0.782606 0.590629
Si Si5 0.750000 0.028545 0.643108
Si Si6 0.573726 0.268071 0.569742
Si Si7 0.399655 0.959253 0.605340
O O1 0.819073 0.912411 0.208703
O O2 0.750000 0.001089 0.359429
O O3 0.750000 0.977463 0.865232
O O4 0.452730 0.414356 0.660477
O O5 0.401402 0.350323 0.019311
O O6 0.394976 0.469403 0.040428
O O7 0.550678 0.162700 0.059719
O O8 0.555036 0.056769 0.847283
O O9 0.571176 0.069671 0.348906
O O10 0.896006 0.760496 0.862485
O O11 0.003694 0.773028 0.585590
O O12 0.677696 0.062196 0.666742
O O13 0.612452 0.253160 0.824100
#
# Coordination Sequence:
#
# PCOD9379141 Si02
#       7
#     4   8   8   8   4   8   8
#     4  10  24  40  64  85 122 193 200 254 319 368
#     4  11  24  43  62  92 138 161 221 260 314 385
#     4  12  24  39  64 101 128 158 218 266 317 373
#     4  10  21  37  61  81 119 177 204 260 304 358
#     4  10  22  48  60  83 136 165 214 234 331 418
#     4  10  19  38  59  85 125 168 200 251 317 368
#     4  11  26  40  65  98 124 171 197 272 330 379
#
# _framework density 21.049005000000001
#
# number of rings (size 3 to 8) (size 9 to 14) (size 15 to 20)
#    0.000    1.333    3.333    3.500    2.333   10.667 
#    0.000    0.833    0.000    0.000    0.000   11.667 
#    0.000    0.000    0.000    0.000    0.000    0.000 
#
# Total GULP energy -134182.570679 kJ/mol
# GULP energy per Si atom -5590.940445 kJ/mol
# Density = 2.100110 g / cm^3
# Si number density = 21.049005 Si / 1000 Ang^3
#
#
#
# Elastic Constant Matrix: (Units=GPa)
#
#
# Indices 1 2 3 4 5 6 
#
# 1 89.8429 36.4795 29.2264 0.0000 0.0000 0.0000
# 2 36.4795 91.0094 42.9810 0.0000 0.0000 0.0000
# 3 29.2264 42.9810 153.5146 0.0000 0.0000 0.0000
# 4 0.0000 0.0000 0.0000 21.1863 0.0000 0.0000
# 5 0.0000 0.0000 0.0000 0.0000 21.6289 0.0000
# 6 0.0000 0.0000 0.0000 0.0000 0.0000 -0.0998
#
#
#
# Elastic Compliance Matrix: (Units=1/GPa)
#
#
# Indices 1 2 3 4 5 6 
#
# 1 0.013488 -0.004833 -0.001215 0.000000 0.000000 0.000000
# 2 -0.004833 0.014394 -0.003110 0.000000 0.000000 0.000000
# 3 -0.001215 -0.003110 0.007616 0.000000 0.000000 0.000000
# 4 0.000000 0.000000 0.000000 0.047200 0.000000 0.000000
# 5 0.000000 0.000000 0.000000 0.000000 0.046235 0.000000
# 6 0.000000 0.000000 0.000000 0.000000 0.000000-10.022987
#
#
# Mechanical properties :
#
#
# Convention : Reuss Voigt Hill
#
# Bulk Modulus (GPa) = 58.19741 61.30453 59.75097
# Shear Modulus (GPa) = -0.50658 23.58840 11.54091
#
# Velocity S-wave (km/s) = -0.49111 3.35123 2.34409
# Velocity P-wave (km/s) = 5.23326 6.64547 5.98119
#
# Compressibility (1/GPa) = 0.01718290
#
# Stress axis : x y z
#
# Youngs Moduli (GPa) = 74.14005 69.47485 131.30212
#
# Poissons Ratio (x) = 0.33575 0.15951
# Poissons Ratio (y) = 0.35830 0.40833
# Poissons Ratio (z) = 0.09007 0.21606
#
# Static dielectric constant tensor:
#      x y z
#    x 1.771050 0.000000 0.000000 
#    y 0.000000 1.763270 0.000000 
#    z 0.000000 0.000000 1.835020 
# 
# From -- ./inp_files/2060.got.cif
#   From: 2010.05.17/outbox.cif.g08.bks.cpg/sg46_2_cif.got.tgz:2060.got - 2010.06.03 19:58:25.
