data_PCOD9379520
_publ_section_title
;
Structure prediction by ZEFSAII (Michael W. Deem and Ramdas Pophale) SiO2 
 PCOD9379520
Probable space group: I M A 2
;
_chemical_formula_sum "Si O2"
_cell_formula_units_Z 64
_cell_length_a 9.087620
_cell_length_b 25.607497
_cell_length_c 15.232499
_cell_angle_alpha 90.000000
_cell_angle_beta 90.000000
_cell_angle_gamma 90.000000
_cell_volume 3544.773150
_symmetry_space_group_name_H-M "I M A 2"
_symmetry_group_IT_number 46
_symmetry_cell_setting 'orthorhombic'
loop_
_space_group_symop_operation_xyz
x,y,z
-x,-y,z
1/2-x,y,z
1/2+x,-y,z
1/2+x,1/2+y,1/2+z
1/2-x,1/2-y,1/2+z
-x,1/2+y,1/2+z
x,1/2-y,1/2+z
loop_
_atom_site_type_symbol
_atom_site_label
_atom_site_fract_x
_atom_site_fract_y
_atom_site_fract_z
Si Si1 0.573635 0.347993 0.316490
Si Si2 0.422439 0.241129 0.288099
Si Si3 0.572332 0.636667 0.688407
Si Si4 0.926740 0.444819 0.194292
Si Si5 0.577680 0.725574 0.996720
Si Si6 0.073121 0.107106 0.527894
Si Si7 0.073207 0.056373 0.339880
Si Si8 0.425508 0.833310 0.017950
O O1 0.750000 0.343418 0.313701
O O2 0.505927 0.295395 0.276019
O O3 0.531705 0.399683 0.263703
O O4 0.529700 0.349610 0.419104
O O5 0.250000 0.249845 0.270251
O O6 0.472826 0.192465 0.230052
O O7 0.435523 0.224809 0.390600
O O8 0.750000 0.636680 0.681924
O O9 0.529037 0.591820 0.757004
O O10 0.500519 0.632646 0.593323
O O11 0.750000 0.449614 0.192010
O O12 0.000000 0.500000 0.216164
O O13 0.987543 0.425467 0.100616
O O14 0.750000 0.735484 0.017393
O O15 0.537019 0.668681 0.032507
O O16 0.481387 0.773766 0.029143
O O17 0.250000 0.101985 0.540265
O O18 0.037673 0.085958 0.430755
O O19 0.250000 0.051024 0.337343
O O20 0.000000 0.000000 0.338179
O O21 0.250000 0.835710 0.024583
#
# Coordination Sequence:
#
# PCOD9379520 Si02
#       8
#     8   8   8   8   8   8   8   8
#     4   9  21  40  57  78 112 146 181 232 285 330
#     4   9  17  32  56  82 109 145 184 221 267 327
#     4  10  20  36  56  82 114 149 188 231 274 327
#     4  11  24  41  59  81 110 145 189 237 283 333
#     4   9  17  33  55  81 113 150 186 220 267 329
#     4  10  20  36  58  84 115 150 185 225 274 332
#     4  10  21  38  58  81 114 151 189 231 277 329
#     4  10  21  36  55  81 115 150 184 231 284 332
#
# _framework density 18.054753000000002
#
# number of rings (size 3 to 8) (size 9 to 14) (size 15 to 20)
#    0.000    2.250    1.250    1.125    1.750    4.500 
#    0.000    0.625    0.000    3.000    0.000    0.000 
#    0.000    0.000    0.000    0.000    0.000    0.000 
#
# Total GULP energy -178664.715504 kJ/mol
# GULP energy per Si atom -5583.272359 kJ/mol
# Density = 1.801366 g / cm^3
# Si number density = 18.054753 Si / 1000 Ang^3
#
#
#
# Elastic Constant Matrix: (Units=GPa)
#
#
# Indices 1 2 3 4 5 6 
#
# 1 22.5972 36.1931 28.4684 0.0000 0.0000 0.0000
# 2 36.1931 117.8736 49.3864 0.0000 0.0000 0.0000
# 3 28.4684 49.3864 77.5860 0.0001 0.0000 0.0000
# 4 0.0000 0.0000 0.0001 28.1947 0.0000 0.0000
# 5 0.0000 0.0000 0.0000 0.0000 20.9550 0.0000
# 6 0.0000 0.0000 0.0000 0.0000 0.0000 31.3504
#
#
#
# Elastic Compliance Matrix: (Units=1/GPa)
#
#
# Indices 1 2 3 4 5 6 
#
# 1 0.119431 -0.024970 -0.027928 0.000000 0.000000 0.000000
# 2 -0.024970 0.016790 -0.001525 0.000000 0.000000 0.000000
# 3 -0.027928 -0.001525 0.024107 0.000000 0.000000 0.000000
# 4 0.000000 0.000000 0.000000 0.035468 0.000000 0.000000
# 5 0.000000 0.000000 0.000000 0.000000 0.047721 0.000000
# 6 0.000000 0.000000 0.000000 0.000000 0.000000 0.031898
#
#
# Mechanical properties :
#
#
# Convention : Reuss Voigt Hill
#
# Bulk Modulus (GPa) = 19.42439 49.57251 34.49845
# Shear Modulus (GPa) = 12.45570 23.03393 17.74482
#
# Velocity S-wave (km/s) = 2.62942 3.57568 3.13842
# Velocity P-wave (km/s) = 4.47218 6.67561 5.68173
#
# Compressibility (1/GPa) = 0.05148167
#
# Stress axis : x y z
#
# Youngs Moduli (GPa) = 8.37300 59.56034 41.48114
#
# Poissons Ratio (x) = 1.48723 1.15850
# Poissons Ratio (y) = 0.20907 0.06326
# Poissons Ratio (z) = 0.23384 0.09083
#
# Static dielectric constant tensor:
#      x y z
#    x 1.600930 0.000000 0.000000 
#    y 0.000000 1.591650 0.000000 
#    z 0.000000 0.000000 1.633790 
# 
# From -- ./inp_files/14441.got.cif
#   From: 2010.05.17/outbox.cif.g08.bks.cpg/sg46_8_cif.got.tgz:14441.got - 2010.06.03 19:58:25.
