data_PCOD9379396
_publ_section_title
;
Structure prediction by ZEFSAII (Michael W. Deem and Ramdas Pophale) SiO2 
 PCOD9379396
Probable space group: I M A 2
;
_chemical_formula_sum "Si O2"
_cell_formula_units_Z 64
_cell_length_a 8.626250
_cell_length_b 15.119677
_cell_length_c 27.949477
_cell_angle_alpha 90.000000
_cell_angle_beta 90.000000
_cell_angle_gamma 90.000000
_cell_volume 3645.341666
_symmetry_space_group_name_H-M "I M A 2"
_symmetry_group_IT_number 46
_symmetry_cell_setting 'orthorhombic'
loop_
_space_group_symop_operation_xyz
x,y,z
-x,-y,z
1/2-x,y,z
1/2+x,-y,z
1/2+x,1/2+y,1/2+z
1/2-x,1/2-y,1/2+z
-x,1/2+y,1/2+z
x,1/2-y,1/2+z
loop_
_atom_site_type_symbol
_atom_site_label
_atom_site_fract_x
_atom_site_fract_y
_atom_site_fract_z
Si Si1 0.564036 0.595890 0.254870
Si Si2 0.434917 0.904392 0.099087
Si Si3 0.436272 0.595540 0.871715
Si Si4 0.563620 0.904487 0.644159
Si Si5 0.935641 0.596630 0.705860
Si Si6 0.436280 0.271471 0.061106
Si Si7 0.563797 0.276139 0.787330
Si Si8 0.436521 0.596858 0.982518
O O1 0.500000 0.500000 0.269094
O O2 0.750000 0.595697 0.256644
O O3 0.515448 0.610624 0.199161
O O4 0.497467 0.676611 0.285041
O O5 0.250000 0.908185 0.102213
O O6 0.503789 0.886812 0.152141
O O7 0.489981 0.825050 0.065405
O O8 0.500000 0.000000 0.084059
O O9 0.500000 0.500000 0.856592
O O10 0.250000 0.591191 0.870616
O O11 0.485744 0.671275 0.835010
O O12 0.482089 0.610862 0.926896
O O13 0.750000 0.908205 0.643307
O O14 0.514554 0.827885 0.608064
O O15 0.500000 0.000000 0.628903
O O16 0.750000 0.595334 0.705533
O O17 0.000000 0.500000 0.720250
O O18 0.996404 0.669939 0.742310
O O19 0.250000 0.264633 0.061076
O O20 0.493117 0.328035 0.016073
O O21 0.750000 0.276558 0.784711
O O22 0.500000 0.500000 0.996703
O O23 0.250000 0.596820 0.986084
#
# Coordination Sequence:
#
# PCOD9379396 Si02
#       8
#     8   8   8   8   8   8   8   8
#     4  10  20  35  52  73 102 139 176 216 259 304
#     4  11  22  37  55  76 104 141 179 219 261 307
#     4   9  20  36  55  78 107 137 170 213 263 315
#     4   9  19  32  48  71 103 136 169 206 248 296
#     4  11  21  34  51  76 109 143 177 217 260 310
#     4  11  21  34  53  79 107 138 175 216 258 309
#     4  11  21  34  53  78 104 137 178 220 264 315
#     4  10  20  36  55  79 108 139 172 213 263 316
#
# _framework density 17.556654999999999
#
# number of rings (size 3 to 8) (size 9 to 14) (size 15 to 20)
#    0.000    1.750    0.000    6.000    0.000    6.000 
#    0.000    0.000    0.000    0.750    0.000    3.500 
#    0.000    0.000    0.000    0.000    0.000    0.000 
#
# Total GULP energy -178803.827822 kJ/mol
# GULP energy per Si atom -5587.619619 kJ/mol
# Density = 1.751669 g / cm^3
# Si number density = 17.556655 Si / 1000 Ang^3
#
#
#
# Elastic Constant Matrix: (Units=GPa)
#
#
# Indices 1 2 3 4 5 6 
#
# 1 84.2286 51.8778 32.6698 0.0000 0.0000 0.0000
# 2 51.8778 166.1339 82.0252 0.0000 0.0000 0.0000
# 3 32.6698 82.0252 69.6219 0.0000 0.0000 0.0000
# 4 0.0000 0.0000 0.0000 30.0117 0.0000 0.0000
# 5 0.0000 0.0000 0.0000 0.0000 16.5655 0.0000
# 6 0.0000 0.0000 0.0000 0.0000 0.0000 33.5744
#
#
#
# Elastic Compliance Matrix: (Units=1/GPa)
#
#
# Indices 1 2 3 4 5 6 
#
# 1 0.015079 -0.002905 -0.003653 0.000000 0.000000 0.000000
# 2 -0.002905 0.014949 -0.016249 0.000000 0.000000 0.000000
# 3 -0.003653 -0.016249 0.035222 0.000000 0.000000 0.000000
# 4 0.000000 0.000000 0.000000 0.033320 0.000000 0.000000
# 5 0.000000 0.000000 0.000000 0.000000 0.060366 0.000000
# 6 0.000000 0.000000 0.000000 0.000000 0.000000 0.029785
#
#
# Mechanical properties :
#
#
# Convention : Reuss Voigt Hill
#
# Bulk Modulus (GPa) = 50.93028 72.57000 61.75014
# Shear Modulus (GPa) = 20.75725 26.25776 23.50750
#
# Velocity S-wave (km/s) = 3.44219 3.87150 3.66314
# Velocity P-wave (km/s) = 6.69853 7.83640 7.28970
#
# Compressibility (1/GPa) = 0.01963468
#
# Stress axis : x y z
#
# Youngs Moduli (GPa) = 66.31936 66.89426 28.39171
#
# Poissons Ratio (x) = 0.19431 0.10372
# Poissons Ratio (y) = 0.19264 0.46134
# Poissons Ratio (z) = 0.24229 1.08697
#
# Static dielectric constant tensor:
#      x y z
#    x 1.587990 0.000000 0.000000 
#    y 0.000000 1.587840 0.000000 
#    z 0.000000 0.000000 1.595570 
# 
# From -- ./inp_files/23216.got.cif
#   From: 2010.05.17/outbox.cif.g08.bks.cpg/sg46_12_cif.got.tgz:23216.got - 2010.06.03 19:58:25.
