data_PCOD9379475
_publ_section_title
;
Structure prediction by ZEFSAII (Michael W. Deem and Ramdas Pophale) SiO2 
 PCOD9379475
Probable space group: I M A 2
;
_chemical_formula_sum "Si O2"
_cell_formula_units_Z 56
_cell_length_a 18.998774
_cell_length_b 16.259412
_cell_length_c 9.190691
_cell_angle_alpha 90.000000
_cell_angle_beta 90.000000
_cell_angle_gamma 90.000000
_cell_volume 2839.086192
_symmetry_space_group_name_H-M "I M A 2"
_symmetry_group_IT_number 46
_symmetry_cell_setting 'orthorhombic'
loop_
_space_group_symop_operation_xyz
x,y,z
-x,-y,z
1/2-x,y,z
1/2+x,-y,z
1/2+x,1/2+y,1/2+z
1/2-x,1/2-y,1/2+z
-x,1/2+y,1/2+z
x,1/2-y,1/2+z
loop_
_atom_site_type_symbol
_atom_site_label
_atom_site_fract_x
_atom_site_fract_y
_atom_site_fract_z
Si Si1 0.029866 0.863204 0.500000
Si Si2 0.663832 0.680468 0.553608
Si Si3 0.417223 0.757272 0.245919
Si Si4 0.331952 0.336709 0.878186
Si Si5 0.165602 0.023673 0.865301
Si Si6 0.392814 0.023372 0.541576
Si Si7 0.665878 0.155204 0.989949
O O1 0.033341 0.809968 0.353309
O O2 0.041928 0.805390 0.639696
O O3 0.961329 0.919204 0.519615
O O4 0.092517 0.930633 0.492946
O O5 0.750000 0.679290 0.557315
O O6 0.637259 0.669142 0.717189
O O7 0.639316 0.766671 0.485969
O O8 0.642619 0.604384 0.453025
O O9 0.366135 0.707035 0.355158
O O10 0.372096 0.814134 0.136371
O O11 0.250000 0.315594 0.863129
O O12 0.337395 0.426811 0.945517
O O13 0.250000 0.028721 0.842302
O O14 0.129032 0.021350 0.709302
O O15 0.151746 0.940572 0.955039
O O16 0.750000 0.167050 0.999292
#
# Coordination Sequence:
#
# PCOD9379475 Si02
#       7
#     8   8   8   8   8   8   8
#     4  10  24  41  62  80 121 160 203 249 294 352
#     4   9  19  34  53  84 120 149 184 234 296 365
#     4  10  21  42  62  86 121 160 205 250 300 366
#     4  10  20  35  58  85 117 153 192 246 304 359
#     4  10  20  36  60  90 123 155 195 252 310 363
#     4  11  22  40  59  87 118 156 204 247 297 362
#     4  10  20  36  63  94 123 156 198 255 317 366
#
# _framework density 19.724658000000002
#
# number of rings (size 3 to 8) (size 9 to 14) (size 15 to 20)
#    0.000    2.000    1.429    1.714    2.000    4.571 
#    0.000    2.857    0.000    0.000    0.000    0.000 
#    0.000    0.000    0.000    0.000    0.000    0.000 
#
# Total GULP energy -156311.980051 kJ/mol
# GULP energy per Si atom -5582.570716 kJ/mol
# Density = 1.967976 g / cm^3
# Si number density = 19.724658 Si / 1000 Ang^3
#
#
#
# Elastic Constant Matrix: (Units=GPa)
#
#
# Indices 1 2 3 4 5 6 
#
# 1 26.4926 10.7199 12.6652 0.0000 0.0000 0.0000
# 2 10.7199 106.1943 42.7104 0.0000 0.0000 0.0000
# 3 12.6652 42.7104 106.0195 0.0000 0.0000 0.0000
# 4 0.0000 0.0000 0.0000 35.9621 0.0000 0.0000
# 5 0.0000 0.0000 0.0000 0.0000 11.0769 0.0000
# 6 0.0000 0.0000 0.0000 0.0000 0.0000 31.5585
#
#
#
# Elastic Compliance Matrix: (Units=1/GPa)
#
#
# Indices 1 2 3 4 5 6 
#
# 1 0.040609 -0.002564 -0.003818 0.000000 0.000000 0.000000
# 2 -0.002564 0.011399 -0.004286 0.000000 0.000000 0.000000
# 3 -0.003818 -0.004286 0.011615 0.000000 0.000000 0.000000
# 4 0.000000 0.000000 0.000000 0.027807 0.000000 0.000000
# 5 0.000000 0.000000 0.000000 0.000000 0.090278 0.000000
# 6 0.000000 0.000000 0.000000 0.000000 0.000000 0.031687
#
#
# Mechanical properties :
#
#
# Convention : Reuss Voigt Hill
#
# Bulk Modulus (GPa) = 23.64774 41.21084 32.42929
# Shear Modulus (GPa) = 20.09425 27.22690 23.66058
#
# Velocity S-wave (km/s) = 3.19523 3.71933 3.46720
# Velocity P-wave (km/s) = 5.06237 6.27559 5.70134
#
# Compressibility (1/GPa) = 0.04228735
#
# Stress axis : x y z
#
# Youngs Moduli (GPa) = 24.62499 87.72490 86.09548
#
# Poissons Ratio (x) = 0.22489 0.32875
# Poissons Ratio (y) = 0.06313 0.36900
# Poissons Ratio (z) = 0.09403 0.37599
#
# Static dielectric constant tensor:
#      x y z
#    x 1.759020 0.000000 0.000000 
#    y 0.000000 1.680070 0.000000 
#    z 0.000000 0.000000 1.661260 
# 
# From -- ./inp_files/7400.got.cif
#   From: 2010.05.17/outbox.cif.g08.bks.cpg/sg46_4_cif.got.tgz:7400.got - 2010.06.03 19:58:25.
