data_PCOD9379907
_publ_section_title
;
Structure prediction by ZEFSAII (Michael W. Deem and Ramdas Pophale) SiO2 
 PCOD9379907
Probable space group: I M A 2
;
_chemical_formula_sum "Si O2"
_cell_formula_units_Z 64
_cell_length_a 32.805373
_cell_length_b 10.658086
_cell_length_c 8.962894
_cell_angle_alpha 90.000000
_cell_angle_beta 90.000000
_cell_angle_gamma 90.000000
_cell_volume 3133.808546
_symmetry_space_group_name_H-M "I M A 2"
_symmetry_group_IT_number 46
_symmetry_cell_setting 'orthorhombic'
loop_
_space_group_symop_operation_xyz
x,y,z
-x,-y,z
1/2-x,y,z
1/2+x,-y,z
1/2+x,1/2+y,1/2+z
1/2-x,1/2-y,1/2+z
-x,1/2+y,1/2+z
x,1/2-y,1/2+z
loop_
_atom_site_type_symbol
_atom_site_label
_atom_site_fract_x
_atom_site_fract_y
_atom_site_fract_z
Si Si1 0.960245 0.916339 0.644350
Si Si2 0.704326 0.022046 0.669722
Si Si3 0.795105 0.547902 0.512882
Si Si4 0.120199 0.654105 0.788812
Si Si5 0.118968 0.104001 0.133182
Si Si6 0.385279 0.584953 0.113175
Si Si7 0.707184 0.318737 0.725001
Si Si8 0.571250 0.747941 0.882722
O O1 0.960903 0.812258 0.772795
O O2 0.951358 0.852100 0.486259
O O3 0.919575 0.995314 0.677983
O O4 0.000000 0.000000 0.642909
O O5 0.750000 0.983035 0.610297
O O6 0.658192 0.010605 0.604716
O O7 0.706831 0.173091 0.686957
O O8 0.701226 0.962082 0.835272
O O9 0.750000 0.598813 0.550772
O O10 0.833403 0.614803 0.589357
O O11 0.795933 0.405080 0.577782
O O12 0.110704 0.541632 0.674518
O O13 0.115922 0.789861 0.714213
O O14 0.168666 0.646969 0.821987
O O15 0.100707 0.628927 0.948376
O O16 0.105240 0.182794 0.277811
O O17 0.092747 0.154996 0.995342
O O18 0.750000 0.349001 0.800741
#
# Coordination Sequence:
#
# PCOD9379907 Si02
#       8
#     8   8   8   8   8   8   8   8
#     4  11  25  47  70  97 130 161 213 258 314 387
#     4   9  18  29  50  83 124 170 213 257 315 381
#     4   9  17  31  51  81 118 165 215 267 310 358
#     4  10  22  34  57  91 125 163 211 258 319 370
#     4  10  20  41  65  90 126 168 215 262 315 384
#     4  11  23  37  59  94 129 169 210 264 320 379
#     4   8  16  26  43  71 115 160 203 247 303 368
#     4  10  23  45  71  93 120 169 206 254 323 377
#
# _framework density 20.422433999999999
#
# number of rings (size 3 to 8) (size 9 to 14) (size 15 to 20)
#    0.000    2.250    1.250    0.750   12.250    1.500 
#    0.000    1.875    0.000    3.000    0.000    0.000 
#    0.000    0.000    0.000    0.000    0.000    0.000 
#
# Total GULP energy -178388.225327 kJ/mol
# GULP energy per Si atom -5574.632041 kJ/mol
# Density = 2.037595 g / cm^3
# Si number density = 20.422434 Si / 1000 Ang^3
#
#
#
# Elastic Constant Matrix: (Units=GPa)
#
#
# Indices 1 2 3 4 5 6 
#
# 1 107.1131 43.2608 31.7545 0.0000 0.0000 0.0000
# 2 43.2608 53.9311 28.5890 0.0000 0.0000 0.0000
# 3 31.7545 28.5890 84.2537 0.0000 0.0000 0.0000
# 4 0.0000 0.0000 0.0000 21.9853 0.0000 0.0000
# 5 0.0000 0.0000 0.0000 0.0000 11.0598 0.0000
# 6 0.0000 0.0000 0.0000 0.0000 0.0000 25.1238
#
#
#
# Elastic Compliance Matrix: (Units=1/GPa)
#
#
# Indices 1 2 3 4 5 6 
#
# 1 0.014028 -0.010303 -0.001791 0.000000 0.000000 0.000000
# 2 -0.010303 0.030176 -0.006356 0.000000 0.000000 0.000000
# 3 -0.001791 -0.006356 0.014701 0.000000 0.000000 0.000000
# 4 0.000000 0.000000 0.000000 0.045485 0.000000 0.000000
# 5 0.000000 0.000000 0.000000 0.000000 0.090417 0.000000
# 6 0.000000 0.000000 0.000000 0.000000 0.000000 0.039803
#
#
# Mechanical properties :
#
#
# Convention : Reuss Voigt Hill
#
# Bulk Modulus (GPa) = 45.44571 50.27849 47.86210
# Shear Modulus (GPa) = 17.93104 21.08004 19.50554
#
# Velocity S-wave (km/s) = 2.96633 3.21627 3.09383
# Velocity P-wave (km/s) = 5.83381 6.20203 6.02074
#
# Compressibility (1/GPa) = 0.02200428
#
# Stress axis : x y z
#
# Youngs Moduli (GPa) = 71.28522 33.13851 68.02386
#
# Poissons Ratio (x) = 0.34143 0.12183
# Poissons Ratio (y) = 0.73447 0.43238
# Poissons Ratio (z) = 0.12767 0.21064
#
# Static dielectric constant tensor:
#      x y z
#    x 1.763760 0.000000 0.000000 
#    y 0.000000 1.732120 0.000000 
#    z 0.000000 0.000000 1.730660 
# 
# From -- ./inp_files/8500.got.cif
#   From: 2010.05.17/outbox.cif.g08.bks.cpg/sg46_5_cif.got.tgz:8500.got - 2010.06.03 19:58:25.
