data_PCOD9379548
_publ_section_title
;
Structure prediction by ZEFSAII (Michael W. Deem and Ramdas Pophale) SiO2 
 PCOD9379548
Probable space group: I M A 2
;
_chemical_formula_sum "Si O2"
_cell_formula_units_Z 64
_cell_length_a 8.747279
_cell_length_b 25.804141
_cell_length_c 15.376215
_cell_angle_alpha 90.000000
_cell_angle_beta 90.000000
_cell_angle_gamma 90.000000
_cell_volume 3470.658063
_symmetry_space_group_name_H-M "I M A 2"
_symmetry_group_IT_number 46
_symmetry_cell_setting 'orthorhombic'
loop_
_space_group_symop_operation_xyz
x,y,z
-x,-y,z
1/2-x,y,z
1/2+x,-y,z
1/2+x,1/2+y,1/2+z
1/2-x,1/2-y,1/2+z
-x,1/2+y,1/2+z
x,1/2-y,1/2+z
loop_
_atom_site_type_symbol
_atom_site_label
_atom_site_fract_x
_atom_site_fract_y
_atom_site_fract_z
Si Si1 0.931981 0.666048 0.869090
Si Si2 0.071424 0.775698 0.883755
Si Si3 0.934923 0.107671 0.862270
Si Si4 0.066431 0.137189 0.184091
Si Si5 0.434391 0.556240 0.181041
Si Si6 0.565136 0.150138 0.558274
Si Si7 0.071346 0.764412 0.092019
Si Si8 0.566019 0.942399 0.037062
O O1 0.750000 0.661501 0.877576
O O2 0.985744 0.634799 0.784056
O O3 0.975875 0.726280 0.854130
O O4 0.008005 0.649199 0.959355
O O5 0.250000 0.767188 0.861166
O O6 0.023304 0.831921 0.849847
O O7 0.061530 0.777111 0.988998
O O8 0.750000 0.106284 0.871719
O O9 0.978476 0.074445 0.778058
O O10 0.009089 0.085089 0.949047
O O11 0.250000 0.135176 0.185089
O O12 0.012864 0.092171 0.119158
O O13 0.017195 0.192239 0.144549
O O14 0.500000 0.500000 0.161200
O O15 0.250000 0.554193 0.178508
O O16 0.484319 0.600735 0.113750
O O17 0.750000 0.151783 0.556984
O O18 0.515826 0.205127 0.600254
O O19 0.250000 0.766526 0.116949
O O20 0.750000 0.944284 0.036512
O O21 0.500000 0.000000 0.041210
#
# Coordination Sequence:
#
# PCOD9379548 Si02
#       8
#     8   8   8   8   8   8   8   8
#     4  10  21  36  55  81 115 150 184 230 283 333
#     4   9  18  33  54  82 114 148 185 222 268 329
#     4  10  20  36  58  84 114 149 186 226 274 332
#     4  10  22  37  53  80 116 148 182 229 280 328
#     4  10  22  39  59  82 112 146 188 236 281 331
#     4   9  20  39  58  81 110 145 188 234 280 329
#     4   9  17  31  55  82 108 141 182 224 269 327
#     4  11  23  39  58  80 113 151 189 233 278 330
#
# _framework density 18.440307000000001
#
# number of rings (size 3 to 8) (size 9 to 14) (size 15 to 20)
#    0.000    2.250    1.250    1.875    1.750    6.000 
#    0.000    0.625    0.000    3.000    0.000    0.000 
#    0.000    0.000    0.000    0.000    0.000    0.000 
#
# Total GULP energy -178627.501867 kJ/mol
# GULP energy per Si atom -5582.109433 kJ/mol
# Density = 1.839834 g / cm^3
# Si number density = 18.440307 Si / 1000 Ang^3
#
#
#
# Elastic Constant Matrix: (Units=GPa)
#
#
# Indices 1 2 3 4 5 6 
#
# 1 10.3195 18.2861 18.3068 0.0000 -0.0013 0.0000
# 2 18.2861 116.3327 53.5119 0.0000 -0.0368 0.0000
# 3 18.3068 53.5119 83.4188 0.0001 -0.0827 0.0000
# 4 0.0000 0.0000 0.0001 28.1545 -0.0248 0.0000
# 5 -0.0013 -0.0368 -0.0827 -0.024830327.0808 -0.0070
# 6 0.0000 0.0000 0.0000 0.0000 -0.0070 24.0254
#
#
#
# Elastic Compliance Matrix: (Units=1/GPa)
#
#
# Indices 1 2 3 4 5 6 
#
# 1 0.173010 -0.013803 -0.029114 0.000000 0.000000 0.000000
# 2 -0.013803 0.013296 -0.005500 0.000000 0.000000 0.000000
# 3 -0.029114 -0.005500 0.021905 0.000000 0.000000 0.000000
# 4 0.000000 0.000000 0.000000 0.035518 0.000000 0.000000
# 5 0.000000 0.000000 0.000000 0.000000 0.000033 0.000000
# 6 0.000000 0.000000 0.000000 0.000000 0.000000 0.041623
#
#
# Mechanical properties :
#
#
# Convention : Reuss Voigt Hill
#
# Bulk Modulus (GPa) = 8.97846 43.36452 26.17149
# Shear Modulus (GPa) = 11.92339 6083.84989 3047.88664
#
# Velocity S-wave (km/s) = 2.54558 57.50109 40.69923
# Velocity P-wave (km/s) = 3.67688 66.57377 47.14651
#
# Compressibility (1/GPa) = 0.11137764
#
# Stress axis : x y z
#
# Youngs Moduli (GPa) = 5.78000 75.21330 45.65185
#
# Poissons Ratio (x) = 1.03817 1.32910
# Poissons Ratio (y) = 0.07978 0.25107
# Poissons Ratio (z) = 0.16828 0.41365
#
# Static dielectric constant tensor:
#      x y z
#    x -0.964740 0.000000 0.000000 
#    y 0.000000 1.619190 0.000000 
#    z 0.000000 0.000000 1.643220 
# 
# From -- ./inp_files/14486.got.cif
#   From: 2010.05.17/outbox.cif.g08.bks.cpg/sg46_8_cif.got.tgz:14486.got - 2010.06.03 19:58:25.
