data_PCOD9379939
_publ_section_title
;
Structure prediction by ZEFSAII (Michael W. Deem and Ramdas Pophale) SiO2 
 PCOD9379939
Probable space group: I M A 2
;
_chemical_formula_sum "Si O2"
_cell_formula_units_Z 28
_cell_length_a 22.853176
_cell_length_b 5.647600
_cell_length_c 7.935025
_cell_angle_alpha 90.000000
_cell_angle_beta 90.000000
_cell_angle_gamma 90.000000
_cell_volume 1024.138737
_symmetry_space_group_name_H-M "I M A 2"
_symmetry_group_IT_number 46
_symmetry_cell_setting 'orthorhombic'
loop_
_space_group_symop_operation_xyz
x,y,z
-x,-y,z
1/2-x,y,z
1/2+x,-y,z
1/2+x,1/2+y,1/2+z
1/2-x,1/2-y,1/2+z
-x,1/2+y,1/2+z
x,1/2-y,1/2+z
loop_
_atom_site_type_symbol
_atom_site_label
_atom_site_fract_x
_atom_site_fract_y
_atom_site_fract_z
Si Si1 0.250000 0.755434 0.714980
Si Si2 0.750000 0.753851 0.197455
Si Si3 0.145618 0.489896 0.331697
Si Si4 0.569123 0.837879 0.532324
Si Si5 0.500000 0.000000 0.231398
O O1 0.250000 0.509693 0.619331
O O2 0.250000 0.998914 0.605859
O O3 0.310212 0.789432 0.820697
O O4 0.808148 0.725828 0.307856
O O5 0.105345 0.401916 0.483536
O O6 0.105101 0.486076 0.166730
O O7 0.510263 0.729548 0.616204
O O8 0.554259 0.976662 0.361337
#
# Coordination Sequence:
#
# PCOD9379939 Si02
#       5
#     4   4   8   8   4
#     4   8  18  38  64 104 140 184 228 298 348 464
#     4   8  18  38  64 104 140 184 228 298 348 464
#     4   8  20  36  69  90 152 168 250 267 394 400
#     4  10  20  47  58 108 126 203 220 326 334 460
#     4  10  24  40  74  82 156 164 268 276 386 390
#
# _framework density 27.340049
#
# number of rings (size 3 to 8) (size 9 to 14) (size 15 to 20)
#    1.714    1.143    0.000    0.000    0.000    9.143 
#   20.571    2.857    0.000    0.000    0.000    0.000 
#    0.000    0.000    0.000    0.000    0.000    0.000 
#
# Total GULP energy -78113.699648 kJ/mol
# GULP energy per Si atom -5579.549975 kJ/mol
# Density = 2.727782 g / cm^3
# Si number density = 27.340049 Si / 1000 Ang^3
#
#
#
# Elastic Constant Matrix: (Units=GPa)
#
#
# Indices 1 2 3 4 5 6 
#
# 1 139.3827 39.4581 39.6874 0.0000 0.0000 0.0000
# 2 39.4581 172.5089 38.8358 0.0000 0.0000 0.0000
# 3 39.6874 38.8358 110.9004 0.0000 0.0000 0.0000
# 4 0.0000 0.0000 0.0000 28.6235 0.0000 0.0000
# 5 0.0000 0.0000 0.0000 0.0000 38.6319 0.0000
# 6 0.0000 0.0000 0.0000 0.0000 0.0000 4.7427
#
#
#
# Elastic Compliance Matrix: (Units=1/GPa)
#
#
# Indices 1 2 3 4 5 6 
#
# 1 0.008260 -0.001329 -0.002491 0.000000 0.000000 0.000000
# 2 -0.001329 0.006507 -0.001803 0.000000 0.000000 0.000000
# 3 -0.002491 -0.001803 0.010540 0.000000 0.000000 0.000000
# 4 0.000000 0.000000 0.000000 0.034936 0.000000 0.000000
# 5 0.000000 0.000000 0.000000 0.000000 0.025885 0.000000
# 6 0.000000 0.000000 0.000000 0.000000 0.000000 0.210849
#
#
# Mechanical properties :
#
#
# Convention : Reuss Voigt Hill
#
# Bulk Modulus (GPa) = 71.11544 73.19494 72.15519
# Shear Modulus (GPa) = 15.97912 34.72035 25.34973
#
# Velocity S-wave (km/s) = 2.42018 3.56749 3.04830
# Velocity P-wave (km/s) = 5.82045 6.61812 6.23206
#
# Compressibility (1/GPa) = 0.01406164
#
# Stress axis : x y z
#
# Youngs Moduli (GPa) = 121.06867 153.69014 94.87826
#
# Poissons Ratio (x) = 0.20419 0.23631
# Poissons Ratio (y) = 0.16085 0.17107
# Poissons Ratio (z) = 0.30154 0.27711
#
# Static dielectric constant tensor:
#      x y z
#    x 2.133070 0.000000 0.000000 
#    y 0.000000 2.136020 0.000000 
#    z 0.000000 0.000000 2.099340 
# 
# From -- ./inp_files/7676.got.cif
#   From: 2010.05.17/outbox.cif.g08.bks.cpg/sg46_4_cif.got.tgz:7676.got - 2010.06.03 19:58:25.
