data_PCOD9379801
_publ_section_title
;
Structure prediction by ZEFSAII (Michael W. Deem and Ramdas Pophale) SiO2 
 PCOD9379801
Probable space group: I M A 2
;
_chemical_formula_sum "Si O2"
_cell_formula_units_Z 56
_cell_length_a 20.510516
_cell_length_b 11.468361
_cell_length_c 9.862452
_cell_angle_alpha 90.000000
_cell_angle_beta 90.000000
_cell_angle_gamma 90.000000
_cell_volume 2319.865702
_symmetry_space_group_name_H-M "I M A 2"
_symmetry_group_IT_number 46
_symmetry_cell_setting 'orthorhombic'
loop_
_space_group_symop_operation_xyz
x,y,z
-x,-y,z
1/2-x,y,z
1/2+x,-y,z
1/2+x,1/2+y,1/2+z
1/2-x,1/2-y,1/2+z
-x,1/2+y,1/2+z
x,1/2-y,1/2+z
loop_
_atom_site_type_symbol
_atom_site_label
_atom_site_fract_x
_atom_site_fract_y
_atom_site_fract_z
Si Si1 0.373793 0.837727 0.887140
Si Si2 0.931683 0.560971 0.300532
Si Si3 0.173505 0.478140 0.859372
Si Si4 0.438866 0.064911 0.156443
Si Si5 0.822421 0.322984 0.087005
Si Si6 0.001999 0.204057 0.394943
Si Si7 0.111550 0.314018 0.062669
O O1 0.363591 0.819716 0.725628
O O2 0.432289 0.751575 0.927075
O O3 0.395088 0.971422 0.900086
O O4 0.322610 0.795042 0.997317
O O5 0.878068 0.602961 0.191220
O O6 0.000000 0.500000 0.257694
O O7 0.955943 0.681675 0.361267
O O8 0.250000 0.480398 0.817208
O O9 0.164428 0.575944 0.976062
O O10 0.156056 0.356232 0.937600
O O11 0.119098 0.498813 0.742162
O O12 0.487587 0.123375 0.267675
O O13 0.397504 0.178420 0.101271
O O14 0.500000 0.000000 0.077031
O O15 0.750000 0.344775 0.140551
O O16 0.038026 0.147650 0.520723
#
# Coordination Sequence:
#
# PCOD9379801 Si02
#       7
#     8   8   8   8   8   8   8
#     4  11  22  39  66  91 132 179 216 285 353 413
#     4   9  19  35  56  90 125 167 216 272 337 415
#     4  10  22  42  66  93 135 190 240 287 354 441
#     4  10  21  37  61 100 133 172 227 295 357 419
#     4  11  24  42  65  96 132 179 237 284 342 427
#     4   9  21  35  57  95 128 165 217 276 346 419
#     4  10  20  38  64  93 131 170 228 285 346 421
#
# _framework density 24.139327999999999
#
# number of rings (size 3 to 8) (size 9 to 14) (size 15 to 20)
#    0.000    2.000    1.429    1.286    6.000    4.571 
#    2.571    0.000    0.000    0.857    0.000    0.000 
#    0.000    0.000    0.000    0.000    0.000    0.000 
#
# Total GULP energy -155962.269460 kJ/mol
# GULP energy per Si atom -5570.081052 kJ/mol
# Density = 2.408439 g / cm^3
# Si number density = 24.139328 Si / 1000 Ang^3
#
#
#
# Elastic Constant Matrix: (Units=GPa)
#
#
# Indices 1 2 3 4 5 6 
#
# 1 101.9285 18.2253 14.8271 0.0000 0.0000 0.0000
# 2 18.2253 103.3374 12.4638 0.0000 0.0000 0.0000
# 3 14.8271 12.4638 51.9854 0.0000 0.0000 0.0000
# 4 0.0000 0.0000 0.0000 21.8800 0.0000 0.0000
# 5 0.0000 0.0000 0.0000 0.0000 1.9349 0.0000
# 6 0.0000 0.0000 0.0000 0.0000 0.0000 22.3118
#
#
#
# Elastic Compliance Matrix: (Units=1/GPa)
#
#
# Indices 1 2 3 4 5 6 
#
# 1 0.010465 -0.001530 -0.002618 0.000000 0.000000 0.000000
# 2 -0.001530 0.010189 -0.002006 0.000000 0.000000 0.000000
# 3 -0.002618 -0.002006 0.020464 0.000000 0.000000 0.000000
# 4 0.000000 0.000000 0.000000 0.045704 0.000000 0.000000
# 5 0.000000 0.000000 0.000000 0.000000 0.516815 0.000000
# 6 0.000000 0.000000 0.000000 0.000000 0.000000 0.044819
#
#
# Mechanical properties :
#
#
# Convention : Reuss Voigt Hill
#
# Bulk Modulus (GPa) = 34.71125 38.69820 36.70472
# Shear Modulus (GPa) = 7.45859 23.34102 15.39980
#
# Velocity S-wave (km/s) = 1.75969 3.11292 2.52852
# Velocity P-wave (km/s) = 4.30575 5.38390 4.87472
#
# Compressibility (1/GPa) = 0.02880910
#
# Stress axis : x y z
#
# Youngs Moduli (GPa) = 95.55481 98.14629 48.86640
#
# Poissons Ratio (x) = 0.15016 0.12793
# Poissons Ratio (y) = 0.14619 0.09805
# Poissons Ratio (z) = 0.25017 0.19693
#
# Static dielectric constant tensor:
#      x y z
#    x 2.021540 0.000000 0.000000 
#    y 0.000000 2.008480 0.000000 
#    z 0.000000 0.000000 2.167990 
# 
# From -- ./inp_files/12808.got.cif
#   From: 2010.05.17/outbox.cif.g08.bks.cpg/sg46_7_cif.got.tgz:12808.got - 2010.06.03 19:58:25.
