data_PCOD9379485
_publ_section_title
;
Structure prediction by ZEFSAII (Michael W. Deem and Ramdas Pophale) SiO2 
 PCOD9379485
Probable space group: I M A 2
;
_chemical_formula_sum "Si O2"
_cell_formula_units_Z 64
_cell_length_a 8.661360
_cell_length_b 28.818701
_cell_length_c 12.618112
_cell_angle_alpha 90.000000
_cell_angle_beta 90.000000
_cell_angle_gamma 90.000000
_cell_volume 3149.596136
_symmetry_space_group_name_H-M "I M A 2"
_symmetry_group_IT_number 46
_symmetry_cell_setting 'orthorhombic'
loop_
_space_group_symop_operation_xyz
x,y,z
-x,-y,z
1/2-x,y,z
1/2+x,-y,z
1/2+x,1/2+y,1/2+z
1/2-x,1/2-y,1/2+z
-x,1/2+y,1/2+z
x,1/2-y,1/2+z
loop_
_atom_site_type_symbol
_atom_site_label
_atom_site_fract_x
_atom_site_fract_y
_atom_site_fract_z
Si Si1 0.566913 0.379966 0.630360
Si Si2 0.429638 0.047335 0.286095
Si Si3 0.065290 0.912083 0.735680
Si Si4 0.072897 0.162117 0.456039
Si Si5 0.066308 0.449015 0.454447
Si Si6 0.571779 0.432347 0.000426
Si Si7 0.070655 0.311112 0.191191
Si Si8 0.065579 0.209049 0.231063
O O1 0.750000 0.379849 0.620651
O O2 0.515202 0.409340 0.733669
O O3 0.495897 0.408952 0.532921
O O4 0.506706 0.327800 0.649441
O O5 0.250000 0.050478 0.262700
O O6 0.461400 0.046664 0.411623
O O7 0.500000 0.000000 0.241188
O O8 0.250000 0.914557 0.747026
O O9 0.025203 0.936657 0.623262
O O10 0.985228 0.935697 0.835586
O O11 0.014639 0.858114 0.726018
O O12 0.250000 0.142559 0.447833
O O13 0.070627 0.191420 0.563391
O O14 0.042749 0.189511 0.349213
O O15 0.948852 0.122177 0.475553
O O16 0.250000 0.450699 0.462383
O O17 0.000000 0.500000 0.480611
O O18 0.750000 0.446598 0.985659
O O19 0.250000 0.315839 0.225716
O O20 0.006645 0.261768 0.228342
O O21 0.250000 0.210564 0.210702
#
# Coordination Sequence:
#
# PCOD9379485 Si02
#       8
#     8   8   8   8   8   8   8   8
#     4  12  25  42  63  90 125 163 208 261 320 382
#     4  12  24  39  60  88 121 156 198 248 304 369
#     4  10  22  41  64  92 128 166 211 262 318 378
#     4   9  17  32  54  79 115 159 201 251 305 364
#     4  12  26  46  70  94 126 169 217 268 327 391
#     4  10  20  36  59  87 118 155 197 247 305 366
#     4   9  19  35  57  89 126 169 217 263 318 377
#     4  10  20  35  58  89 124 167 217 264 316 381
#
# _framework density 20.320066000000001
#
# number of rings (size 3 to 8) (size 9 to 14) (size 15 to 20)
#    0.000    1.500    1.250    4.500    0.000    3.500 
#    0.000    2.500    0.000    0.000    0.000    0.000 
#    0.000    0.000    0.000    0.000    0.000    0.000 
#
# Total GULP energy -178749.032385 kJ/mol
# GULP energy per Si atom -5585.907262 kJ/mol
# Density = 2.027382 g / cm^3
# Si number density = 20.320066 Si / 1000 Ang^3
#
#
#
# Elastic Constant Matrix: (Units=GPa)
#
#
# Indices 1 2 3 4 5 6 
#
# 1 83.5612 9.0119 25.5713 -0.0010 0.0000 0.0000
# 2 9.0119 60.8317 7.1168 -0.0016 0.0000 0.0000
# 3 25.5713 7.1168 85.6361 -0.0024 0.0000 0.0003
# 4 -0.0010 -0.0016 -0.0024 15.6939 -0.0002 0.0000
# 5 0.0000 0.0000 0.0000 -0.0002 25.5123 0.0000
# 6 0.0000 0.0000 0.0003 0.0000 0.0000 29.4720
#
#
#
# Elastic Compliance Matrix: (Units=1/GPa)
#
#
# Indices 1 2 3 4 5 6 
#
# 1 0.013309 -0.001521 -0.003848 0.000000 0.000000 0.000000
# 2 -0.001521 0.016774 -0.000940 0.000001 0.000000 0.000000
# 3 -0.003848 -0.000940 0.012904 0.000002 0.000000 0.000000
# 4 0.000000 0.000001 0.000002 0.063719 0.000000 0.000000
# 5 0.000000 0.000000 0.000000 0.000000 0.039197 0.000000
# 6 0.000000 0.000000 0.000000 0.000000 0.000000 0.033931
#
#
# Mechanical properties :
#
#
# Convention : Reuss Voigt Hill
#
# Bulk Modulus (GPa) = 32.92760 34.82544 33.87652
# Shear Modulus (GPa) = 24.68229 26.69091 25.68660
#
# Velocity S-wave (km/s) = 3.48900 3.62819 3.55928
# Velocity P-wave (km/s) = 5.69829 5.89299 5.79646
#
# Compressibility (1/GPa) = 0.03036966
#
# Stress axis : x y z
#
# Youngs Moduli (GPa) = 75.13825 59.61559 77.49345
#
# Poissons Ratio (x) = 0.09070 0.29816
# Poissons Ratio (y) = 0.11432 0.07282
# Poissons Ratio (z) = 0.28910 0.05602
#
# Static dielectric constant tensor:
#      x y z
#    x 1.695990 0.000000 0.000000 
#    y 0.000000 1.735850 0.000000 
#    z 0.000000 0.000000 1.734290 
# 
# From -- ./inp_files/9759.got.cif
#   From: 2010.05.17/outbox.cif.g08.bks.cpg/sg46_5_cif.got.tgz:9759.got - 2010.06.03 19:58:25.
