data_PCOD9379363
_publ_section_title
;
Structure prediction by ZEFSAII (Michael W. Deem and Ramdas Pophale) SiO2 
 PCOD9379363
Probable space group: I M A 2
;
_chemical_formula_sum "Si O2"
_cell_formula_units_Z 48
_cell_length_a 23.728307
_cell_length_b 7.499276
_cell_length_c 11.331730
_cell_angle_alpha 90.000000
_cell_angle_beta 90.000000
_cell_angle_gamma 90.000000
_cell_volume 2016.426091
_symmetry_space_group_name_H-M "I M A 2"
_symmetry_group_IT_number 46
_symmetry_cell_setting 'orthorhombic'
loop_
_space_group_symop_operation_xyz
x,y,z
-x,-y,z
1/2-x,y,z
1/2+x,-y,z
1/2+x,1/2+y,1/2+z
1/2-x,1/2-y,1/2+z
-x,1/2+y,1/2+z
x,1/2-y,1/2+z
loop_
_atom_site_type_symbol
_atom_site_label
_atom_site_fract_x
_atom_site_fract_y
_atom_site_fract_z
Si Si1 0.466959 0.263142 0.678320
Si Si2 0.311868 0.539080 0.730096
Si Si3 0.106250 0.973318 0.569770
Si Si4 0.423491 0.892217 0.092410
Si Si5 0.316178 0.918268 0.798219
Si Si6 0.129324 0.243418 0.367448
O O1 0.445804 0.074710 0.631554
O O2 0.532640 0.309857 0.690907
O O3 0.448603 0.409622 0.577039
O O4 0.429282 0.285494 0.795903
O O5 0.250000 0.553122 0.676594
O O6 0.362170 0.567272 0.640843
O O7 0.322623 0.347450 0.786250
O O8 0.317542 0.705416 0.821215
O O9 0.153565 0.940718 0.670238
O O10 0.128875 0.118598 0.479854
O O11 0.084443 0.786023 0.514987
O O12 0.250000 0.966535 0.797989
O O13 0.352916 0.050855 0.879549
#
# Coordination Sequence:
#
# PCOD9379363 Si02
#       6
#     8   8   8   8   8   8
#     4   9  19  37  55  79 118 146 185 234 290 339
#     4   9  18  34  55  78 107 148 189 229 280 330
#     4  10  20  34  57  84 111 149 193 234 282 339
#     4   9  18  36  56  76 110 146 184 235 281 338
#     4   9  19  35  54  78 116 153 187 238 288 332
#     4  10  20  34  56  85 112 149 195 235 282 343
#
# _framework density 23.804490999999999
#
# number of rings (size 3 to 8) (size 9 to 14) (size 15 to 20)
#    0.000    2.667    0.000    1.000    0.000    2.667 
#   12.000    0.000    7.333    8.000    0.000    0.000 
#    0.000    0.000    0.000    0.000    0.000    0.000 
#
# Total GULP energy -133651.385831 kJ/mol
# GULP energy per Si atom -5568.807743 kJ/mol
# Density = 2.375031 g / cm^3
# Si number density = 23.804491 Si / 1000 Ang^3
#
#
#
# Elastic Constant Matrix: (Units=GPa)
#
#
# Indices 1 2 3 4 5 6 
#
# 1 135.7503 -14.3047 6.1004 0.0000 0.0000 0.0000
# 2 -14.3047 114.1850 -0.2662 0.0000 0.0000 0.0000
# 3 6.1004 -0.2662 29.1397 0.0000 0.0000 0.0000
# 4 0.0000 0.0000 0.0000 25.4899 0.0000 0.0000
# 5 0.0000 0.0000 0.0000 0.0000 2.4754 0.0000
# 6 0.0000 0.0000 0.0000 0.0000 0.0000 27.6391
#
#
#
# Elastic Compliance Matrix: (Units=1/GPa)
#
#
# Indices 1 2 3 4 5 6 
#
# 1 0.007536 0.000940 -0.001569 0.000000 0.000000 0.000000
# 2 0.000940 0.008875 -0.000116 0.000000 0.000000 0.000000
# 3 -0.001569 -0.000116 0.034645 0.000000 0.000000 0.000000
# 4 0.000000 0.000000 0.000000 0.039231 0.000000 0.000000
# 5 0.000000 0.000000 0.000000 0.000000 0.403970 0.000000
# 6 0.000000 0.000000 0.000000 0.000000 0.000000 0.036181
#
#
# Mechanical properties :
#
#
# Convention : Reuss Voigt Hill
#
# Bulk Modulus (GPa) = 20.17460 29.12599 24.65029
# Shear Modulus (GPa) = 9.11662 30.29059 19.70361
#
# Velocity S-wave (km/s) = 1.95911 3.57105 2.88014
# Velocity P-wave (km/s) = 3.68931 5.40973 4.63013
#
# Compressibility (1/GPa) = 0.04956728
#
# Stress axis : x y z
#
# Youngs Moduli (GPa) = 132.69503 112.67269 28.86433
#
# Poissons Ratio (x) = -0.10596 0.04529
# Poissons Ratio (y) = -0.12479 0.00334
# Poissons Ratio (z) = 0.20821 0.01305
#
# Static dielectric constant tensor:
#      x y z
#    x 1.905530 0.000000 0.000000 
#    y 0.000000 1.964850 0.000000 
#    z 0.000000 0.000000 1.929810 
# 
# From -- ./inp_files/12708.got.cif
#   From: 2010.05.17/outbox.cif.g08.bks.cpg/sg46_7_cif.got.tgz:12708.got - 2010.06.03 19:58:25.
