data_PCOD9379903
_publ_section_title
;
Structure prediction by ZEFSAII (Michael W. Deem and Ramdas Pophale) SiO2 
 PCOD9379903
Probable space group: I M A 2
;
_chemical_formula_sum "Si O2"
_cell_formula_units_Z 48
_cell_length_a 17.763957
_cell_length_b 18.662242
_cell_length_c 7.513339
_cell_angle_alpha 90.000000
_cell_angle_beta 90.000000
_cell_angle_gamma 90.000000
_cell_volume 2490.786565
_symmetry_space_group_name_H-M "I M A 2"
_symmetry_group_IT_number 46
_symmetry_cell_setting 'orthorhombic'
loop_
_space_group_symop_operation_xyz
x,y,z
-x,-y,z
1/2-x,y,z
1/2+x,-y,z
1/2+x,1/2+y,1/2+z
1/2-x,1/2-y,1/2+z
-x,1/2+y,1/2+z
x,1/2-y,1/2+z
loop_
_atom_site_type_symbol
_atom_site_label
_atom_site_fract_x
_atom_site_fract_y
_atom_site_fract_z
Si Si1 0.668544 0.426419 0.149280
Si Si2 0.436959 0.787115 0.030898
Si Si3 0.250000 0.334904 0.822378
Si Si4 0.356435 0.406701 0.106248
Si Si5 0.250000 0.164380 0.893368
Si Si6 0.834276 0.184044 0.325267
Si Si7 0.013641 0.641789 0.221211
O O1 0.750000 0.413395 0.241194
O O2 0.664174 0.509882 0.103516
O O3 0.590535 0.403423 0.239303
O O4 0.668856 0.376609 0.974195
O O5 0.396021 0.834284 0.178197
O O6 0.471240 0.714579 0.110886
O O7 0.368222 0.756921 0.909234
O O8 0.498885 0.829135 0.920019
O O9 0.250000 0.348218 0.607985
O O10 0.320810 0.368633 0.931923
O O11 0.250000 0.249615 0.857320
O O12 0.319335 0.370295 0.282241
O O13 0.445517 0.398137 0.129112
O O14 0.750000 0.196209 0.255855
#
# Coordination Sequence:
#
# PCOD9379903 Si02
#       7
#     8   8   4   8   4   8   8
#     4  10  20  41  59  85 120 169 201 248 310 362
#     4   9  19  34  51  92 114 158 204 252 301 354
#     4  11  23  42  69  97 120 161 202 258 316 366
#     4  11  23  43  66  90 131 159 204 256 314 373
#     4  11  23  42  67  99 120 161 204 256 314 368
#     4   9  17  31  57  80 122 158 209 247 298 357
#     4  10  22  36  63  85 125 160 204 254 310 360
#
# _framework density 19.27102
#
# number of rings (size 3 to 8) (size 9 to 14) (size 15 to 20)
#    0.000    2.000    3.333    1.000    2.333    4.667 
#    9.000    0.000    0.000    0.000    0.000    0.000 
#    0.000    0.000    0.000    0.000    0.000    0.000 
#
# Total GULP energy -133661.720488 kJ/mol
# GULP energy per Si atom -5569.238354 kJ/mol
# Density = 1.922716 g / cm^3
# Si number density = 19.271020 Si / 1000 Ang^3
#
#
#
# Elastic Constant Matrix: (Units=GPa)
#
#
# Indices 1 2 3 4 5 6 
#
# 1 83.5051 6.3439 5.3349 0.0000 0.0000 0.0000
# 2 6.3439 79.8022 3.7985 0.0000 0.0000 0.0000
# 3 5.3349 3.7985 77.6362 0.0000 0.0000 0.0000
# 4 0.0000 0.0000 0.0000 13.2511 0.0000 0.0000
# 5 0.0000 0.0000 0.0000 0.0000 19.4165 0.0000
# 6 0.0000 0.0000 0.0000 0.0000 0.0000 22.1865
#
#
#
# Elastic Compliance Matrix: (Units=1/GPa)
#
#
# Indices 1 2 3 4 5 6 
#
# 1 0.012096 -0.000924 -0.000786 0.000000 0.000000 0.000000
# 2 -0.000924 0.012631 -0.000554 0.000000 0.000000 0.000000
# 3 -0.000786 -0.000554 0.012962 0.000000 0.000000 0.000000
# 4 0.000000 0.000000 0.000000 0.075465 0.000000 0.000000
# 5 0.000000 0.000000 0.000000 0.000000 0.051503 0.000000
# 6 0.000000 0.000000 0.000000 0.000000 0.000000 0.045073
#
#
# Mechanical properties :
#
#
# Convention : Reuss Voigt Hill
#
# Bulk Modulus (GPa) = 30.15759 30.21088 30.18424
# Shear Modulus (GPa) = 22.19155 26.00190 24.09672
#
# Velocity S-wave (km/s) = 3.39713 3.67723 3.53995
# Velocity P-wave (km/s) = 5.57409 5.80864 5.69257
#
# Compressibility (1/GPa) = 0.03315914
#
# Stress axis : x y z
#
# Youngs Moduli (GPa) = 82.67377 79.17132 77.15019
#
# Poissons Ratio (x) = 0.07317 0.06064
# Poissons Ratio (y) = 0.07640 0.04278
# Poissons Ratio (z) = 0.06498 0.04390
#
# Static dielectric constant tensor:
#      x y z
#    x 1.731540 0.000000 0.000000 
#    y 0.000000 1.642290 0.000000 
#    z 0.000000 0.000000 1.738500 
# 
# From -- ./inp_files/6729.got.cif
#   From: 2010.05.17/outbox.cif.g08.bks.cpg/sg46_4_cif.got.tgz:6729.got - 2010.06.03 19:58:25.
