data_PCOD9379957
_publ_section_title
;
Structure prediction by ZEFSAII (Michael W. Deem and Ramdas Pophale) SiO2 
 PCOD9379957
Probable space group: I M A 2
;
_chemical_formula_sum "Si O2"
_cell_formula_units_Z 52
_cell_length_a 19.532404
_cell_length_b 22.235013
_cell_length_c 5.493485
_cell_angle_alpha 90.000000
_cell_angle_beta 90.000000
_cell_angle_gamma 90.000000
_cell_volume 2385.838427
_symmetry_space_group_name_H-M "I M A 2"
_symmetry_group_IT_number 46
_symmetry_cell_setting 'orthorhombic'
loop_
_space_group_symop_operation_xyz
x,y,z
-x,-y,z
1/2-x,y,z
1/2+x,-y,z
1/2+x,1/2+y,1/2+z
1/2-x,1/2-y,1/2+z
-x,1/2+y,1/2+z
x,1/2-y,1/2+z
loop_
_atom_site_type_symbol
_atom_site_label
_atom_site_fract_x
_atom_site_fract_y
_atom_site_fract_z
Si Si1 0.393028 0.539905 0.993280
Si Si2 0.250000 0.979496 0.393355
Si Si3 0.250000 0.440174 0.394463
Si Si4 0.014446 0.732082 0.444568
Si Si5 0.000000 0.500000 0.633370
Si Si6 0.371288 0.101204 0.602702
Si Si7 0.357197 0.221727 0.382047
Si Si8 0.505061 0.104171 0.841776
O O1 0.319160 0.559396 0.899911
O O2 0.450243 0.540869 0.787799
O O3 0.382904 0.467447 0.020498
O O4 0.427858 0.574585 0.218732
O O5 0.250000 0.013037 0.660342
O O6 0.250000 0.024461 0.154765
O O7 0.181756 0.402138 0.329018
O O8 0.047682 0.764196 0.675990
O O9 0.015603 0.661447 0.508062
O O10 0.938292 0.758590 0.390031
O O11 0.964539 0.548997 0.466394
O O12 0.344786 0.150314 0.410256
O O13 0.447216 0.125646 0.655398
O O14 0.330106 0.252268 0.629339
#
# Coordination Sequence:
#
# PCOD9379957 Si02
#       8
#     8   4   4   8   4   8   8   8
#     4  11  24  38  60  92 127 166 207 270 329 400
#     4  10  24  44  60  85 130 167 210 248 331 394
#     4  10  24  40  62  83 118 183 208 260 315 388
#     4  10  22  37  56  84 120 165 198 256 319 375
#     4  12  22  32  62  94 126 156 206 272 322 390
#     4  11  20  41  56  84 128 161 220 256 327 377
#     4  10  21  34  56  80 113 167 205 261 308 362
#     4  12  22  36  59  94 122 159 211 268 326 384
#
# _framework density 21.795273000000002
#
# number of rings (size 3 to 8) (size 9 to 14) (size 15 to 20)
#    0.000    1.231    6.154    0.923    8.615    2.462 
#    0.000    0.769    0.000    0.000    0.000    1.077 
#    0.000    0.000    0.000    0.000    0.000    0.000 
#
# Total GULP energy -144761.024186 kJ/mol
# GULP energy per Si atom -5567.731699 kJ/mol
# Density = 2.174567 g / cm^3
# Si number density = 21.795273 Si / 1000 Ang^3
#
#
#
# Elastic Constant Matrix: (Units=GPa)
#
#
# Indices 1 2 3 4 5 6 
#
# 1 96.3492 5.2384 9.3227 0.0000 0.0000 0.0000
# 2 5.2384 86.8933 7.3788 0.0000 0.0000 0.0000
# 3 9.3227 7.3788 105.3692 0.0000 0.0000 0.0000
# 4 0.0000 0.0000 0.0000 27.5511 0.0000 0.0000
# 5 0.0000 0.0000 0.0000 0.0000 -1.5406 0.0000
# 6 0.0000 0.0000 0.0000 0.0000 0.0000 4.6061
#
#
#
# Elastic Compliance Matrix: (Units=1/GPa)
#
#
# Indices 1 2 3 4 5 6 
#
# 1 0.010495 -0.000557 -0.000890 0.000000 0.000000 0.000000
# 2 -0.000557 0.011607 -0.000764 0.000000 0.000000 0.000000
# 3 -0.000890 -0.000764 0.009623 0.000000 0.000000 0.000000
# 4 0.000000 0.000000 0.000000 0.036296 0.000000 0.000000
# 5 0.000000 0.000000 0.000000 0.000000 -0.649086 0.000000
# 6 0.000000 0.000000 0.000000 0.000000 0.000000 0.217103
#
#
# Mechanical properties :
#
#
# Convention : Reuss Voigt Hill
#
# Bulk Modulus (GPa) = 36.62441 36.94351 36.78396
# Shear Modulus (GPa) = -14.26777 23.90142 4.81683
#
# Velocity S-wave (km/s) = -2.56134 3.31514 1.48823
# Velocity P-wave (km/s) = 2.84482 5.62499 4.45722
#
# Compressibility (1/GPa) = 0.02730419
#
# Stress axis : x y z
#
# Youngs Moduli (GPa) = 95.28092 86.15643 103.92185
#
# Poissons Ratio (x) = 0.04800 0.09245
# Poissons Ratio (y) = 0.05309 0.07934
# Poissons Ratio (z) = 0.08476 0.06578
#
# Static dielectric constant tensor:
#      x y z
#    x 1.888290 0.000000 0.000000 
#    y 0.000000 1.832750 0.000000 
#    z 0.000000 0.000000 1.922620 
# 
# From -- ./inp_files/2097.got.cif
#   From: 2010.05.17/outbox.cif.g08.bks.cpg/sg46_2_cif.got.tgz:2097.got - 2010.06.03 19:58:25.
