data_PCOD9379101
_publ_section_title
;
Structure prediction by ZEFSAII (Michael W. Deem and Ramdas Pophale) SiO2 
 PCOD9379101
Probable space group: I M A 2
;
_chemical_formula_sum "Si O2"
_cell_formula_units_Z 40
_cell_length_a 13.963060
_cell_length_b 14.741955
_cell_length_c 7.795618
_cell_angle_alpha 90.000000
_cell_angle_beta 90.000000
_cell_angle_gamma 90.000000
_cell_volume 1604.671854
_symmetry_space_group_name_H-M "I M A 2"
_symmetry_group_IT_number 46
_symmetry_cell_setting 'orthorhombic'
loop_
_space_group_symop_operation_xyz
x,y,z
-x,-y,z
1/2-x,y,z
1/2+x,-y,z
1/2+x,1/2+y,1/2+z
1/2-x,1/2-y,1/2+z
-x,1/2+y,1/2+z
x,1/2-y,1/2+z
loop_
_atom_site_type_symbol
_atom_site_label
_atom_site_fract_x
_atom_site_fract_y
_atom_site_fract_z
Si Si1 0.359913 0.141656 0.422650
Si Si2 0.639438 0.492688 0.211785
Si Si3 0.450356 0.678238 0.073266
Si Si4 0.865554 0.555308 0.572354
Si Si5 0.864380 0.137920 0.209905
O O1 0.250000 0.176086 0.425497
O O2 0.439935 0.198052 0.522183
O O3 0.361829 0.048625 0.534135
O O4 0.394095 0.120754 0.228972
O O5 0.750000 0.461370 0.238413
O O6 0.571805 0.404743 0.202829
O O7 0.616536 0.561019 0.369386
O O8 0.400814 0.770482 0.125228
O O9 0.400374 0.641050 0.902768
O O10 0.750000 0.558035 0.589342
O O11 0.898607 0.453655 0.619186
O O12 0.750000 0.136888 0.206148
#
# Coordination Sequence:
#
# PCOD9379101 Si02
#       5
#     8   8   8   8   8
#     4  10  22  43  64  90 129 175 225 278 327 395
#     4  10  19  36  63  94 128 163 213 276 336 395
#     4  12  23  39  60  98 132 177 221 274 346 408
#     4   9  19  38  65  93 124 167 211 268 336 396
#     4  11  22  38  62  92 131 167 209 271 341 406
#
# _framework density 24.927216999999999
#
# number of rings (size 3 to 8) (size 9 to 14) (size 15 to 20)
#    0.000    1.600    2.000    3.600    0.000    1.600 
#   10.800    1.000    0.000    0.000    0.000    0.000 
#    0.000    0.000    0.000    0.000    0.000    0.000 
#
# Total GULP energy -111921.527174 kJ/mol
# GULP energy per Si atom -5596.076359 kJ/mol
# Density = 2.487048 g / cm^3
# Si number density = 24.927217 Si / 1000 Ang^3
#
#
#
# Elastic Constant Matrix: (Units=GPa)
#
#
# Indices 1 2 3 4 5 6 
#
# 1 145.7041 20.0473 31.3478 0.0000 0.0000 0.0000
# 2 20.0473 18.3661 23.0671 0.0000 0.0000 0.0000
# 3 31.3478 23.0671 122.2563 0.0000 0.0000 0.0000
# 4 0.0000 0.0000 0.0000 26.6850 0.0000 0.0000
# 5 0.0000 0.0000 0.0000 0.0000 41.5554 0.0000
# 6 0.0000 0.0000 0.0000 0.0000 0.0000 26.1585
#
#
#
# Elastic Compliance Matrix: (Units=1/GPa)
#
#
# Indices 1 2 3 4 5 6 
#
# 1 0.008103 -0.008172 -0.000536 0.000000 0.000000 0.000000
# 2 -0.008172 0.079599 -0.012923 0.000000 0.000000 0.000000
# 3 -0.000536 -0.012923 0.010755 0.000000 0.000000 0.000000
# 4 0.000000 0.000000 0.000000 0.037474 0.000000 0.000000
# 5 0.000000 0.000000 0.000000 0.000000 0.024064 0.000000
# 6 0.000000 0.000000 0.000000 0.000000 0.000000 0.038228
#
#
# Mechanical properties :
#
#
# Convention : Reuss Voigt Hill
#
# Bulk Modulus (GPa) = 18.11741 48.36122 33.23931
# Shear Modulus (GPa) = 19.23937 33.00407 26.12172
#
# Velocity S-wave (km/s) = 2.78118 3.64265 3.24067
# Velocity P-wave (km/s) = 4.19490 6.09385 5.23126
#
# Compressibility (1/GPa) = 0.05519553
#
# Stress axis : x y z
#
# Youngs Moduli (GPa) = 123.41378 12.56300 92.97746
#
# Poissons Ratio (x) = 0.10266 0.04982
# Poissons Ratio (y) = 1.00848 1.20158
# Poissons Ratio (z) = 0.06613 0.16236
#
# Static dielectric constant tensor:
#      x y z
#    x 2.010490 0.000000 0.000000 
#    y 0.000000 1.946210 0.000000 
#    z 0.000000 0.000000 2.011820 
# 
# From -- ./inp_files/5407.got.cif
#   From: 2010.05.17/outbox.cif.g08.bks.cpg/sg46_3_cif.got.tgz:5407.got - 2010.06.03 19:58:25.
