data_PCOD9379515
_publ_section_title
;
Structure prediction by ZEFSAII (Michael W. Deem and Ramdas Pophale) SiO2 
 PCOD9379515
Probable space group: I M A 2
;
_chemical_formula_sum "Si O2"
_cell_formula_units_Z 56
_cell_length_a 22.437323
_cell_length_b 11.732138
_cell_length_c 11.027974
_cell_angle_alpha 90.000000
_cell_angle_beta 90.000000
_cell_angle_gamma 90.000000
_cell_volume 2902.979281
_symmetry_space_group_name_H-M "I M A 2"
_symmetry_group_IT_number 46
_symmetry_cell_setting 'orthorhombic'
loop_
_space_group_symop_operation_xyz
x,y,z
-x,-y,z
1/2-x,y,z
1/2+x,-y,z
1/2+x,1/2+y,1/2+z
1/2-x,1/2-y,1/2+z
-x,1/2+y,1/2+z
x,1/2-y,1/2+z
loop_
_atom_site_type_symbol
_atom_site_label
_atom_site_fract_x
_atom_site_fract_y
_atom_site_fract_z
Si Si1 0.027394 0.371251 0.279700
Si Si2 0.623867 0.620392 0.080379
Si Si3 0.087188 0.704504 0.400875
Si Si4 0.633419 0.857238 0.977069
Si Si5 0.568010 0.046728 0.399727
Si Si6 0.182151 0.531582 0.291911
Si Si7 0.931350 0.466109 0.622909
O O1 0.062671 0.350190 0.154956
O O2 0.076198 0.350304 0.385439
O O3 0.000000 0.500000 0.280912
O O4 0.970474 0.296723 0.312610
O O5 0.658827 0.539140 0.174797
O O6 0.653069 0.735764 0.029263
O O7 0.606988 0.548365 0.963415
O O8 0.086912 0.831696 0.454142
O O9 0.140187 0.639314 0.328091
O O10 0.077928 0.624757 0.517455
O O11 0.677290 0.938110 0.900714
O O12 0.609676 0.927408 0.090734
O O13 0.581902 0.066543 0.259225
O O14 0.500000 0.000000 0.412090
O O15 0.250000 0.567786 0.275317
O O16 0.000000 0.500000 0.616800
#
# Coordination Sequence:
#
# PCOD9379515 Si02
#       7
#     8   8   8   8   8   8   8
#     4  11  18  35  58  89 124 168 197 247 325 402
#     4  11  24  37  62  94 130 162 208 267 329 384
#     4  11  21  40  63  86 131 170 208 262 318 383
#     4  10  20  37  64  90 126 159 206 262 329 383
#     4  11  26  33  58 100 132 161 199 252 317 399
#     4  10  24  45  68  88 116 176 234 264 313 374
#     4  10  20  36  55  88 131 163 195 241 317 393
#
# _framework density 19.290527999999998
#
# number of rings (size 3 to 8) (size 9 to 14) (size 15 to 20)
#    0.000    1.429    5.714    1.286   10.000    0.571 
#    0.000    0.714    0.000    0.857    0.000    0.000 
#    0.000    0.000    0.000    0.000    0.000    0.000 
#
# Total GULP energy -156100.518360 kJ/mol
# GULP energy per Si atom -5575.018513 kJ/mol
# Density = 1.924662 g / cm^3
# Si number density = 19.290528 Si / 1000 Ang^3
#
#
#
# Elastic Constant Matrix: (Units=GPa)
#
#
# Indices 1 2 3 4 5 6 
#
# 1 70.3561 1.6797 12.0564 0.0000 0.0000 0.0000
# 2 1.6797 85.9684 2.6878 0.0000 0.0000 0.0000
# 3 12.0564 2.6878 56.3102 0.0000 0.0000 0.0000
# 4 0.0000 0.0000 0.0000 28.2553 0.0000 0.0000
# 5 0.0000 0.0000 0.0000 0.0000 9.8248 0.0000
# 6 0.0000 0.0000 0.0000 0.0000 0.0000 9.2238
#
#
#
# Elastic Compliance Matrix: (Units=1/GPa)
#
#
# Indices 1 2 3 4 5 6 
#
# 1 0.014758 -0.000190 -0.003151 0.000000 0.000000 0.000000
# 2 -0.000190 0.011652 -0.000516 0.000000 0.000000 0.000000
# 3 -0.003151 -0.000516 0.018458 0.000000 0.000000 0.000000
# 4 0.000000 0.000000 0.000000 0.035392 0.000000 0.000000
# 5 0.000000 0.000000 0.000000 0.000000 0.101783 0.000000
# 6 0.000000 0.000000 0.000000 0.000000 0.000000 0.108415
#
#
# Mechanical properties :
#
#
# Convention : Reuss Voigt Hill
#
# Bulk Modulus (GPa) = 26.91378 27.27584 27.09481
# Shear Modulus (GPa) = 16.10020 22.54150 19.32085
#
# Velocity S-wave (km/s) = 2.89211 3.42208 3.16820
# Velocity P-wave (km/s) = 5.01343 5.45751 5.24017
#
# Compressibility (1/GPa) = 0.03715569
#
# Stress axis : x y z
#
# Youngs Moduli (GPa) = 67.76056 85.82209 54.17715
#
# Poissons Ratio (x) = 0.01629 0.17070
# Poissons Ratio (y) = 0.01286 0.02793
# Poissons Ratio (z) = 0.21349 0.04424
#
# Static dielectric constant tensor:
#      x y z
#    x 1.662330 0.000000 0.000000 
#    y 0.000000 1.781220 0.000000 
#    z 0.000000 0.000000 1.672930 
# 
# From -- ./inp_files/12803.got.cif
#   From: 2010.05.17/outbox.cif.g08.bks.cpg/sg46_7_cif.got.tgz:12803.got - 2010.06.03 19:58:25.
