data_PCOD9379639
_publ_section_title
;
Structure prediction by ZEFSAII (Michael W. Deem and Ramdas Pophale) SiO2 
 PCOD9379639
Probable space group: I M A 2
;
_chemical_formula_sum "Si O2"
_cell_formula_units_Z 64
_cell_length_a 14.061940
_cell_length_b 12.899723
_cell_length_c 18.946732
_cell_angle_alpha 90.000000
_cell_angle_beta 90.000000
_cell_angle_gamma 90.000000
_cell_volume 3436.844930
_symmetry_space_group_name_H-M "I M A 2"
_symmetry_group_IT_number 46
_symmetry_cell_setting 'orthorhombic'
loop_
_space_group_symop_operation_xyz
x,y,z
-x,-y,z
1/2-x,y,z
1/2+x,-y,z
1/2+x,1/2+y,1/2+z
1/2-x,1/2-y,1/2+z
-x,1/2+y,1/2+z
x,1/2-y,1/2+z
loop_
_atom_site_type_symbol
_atom_site_label
_atom_site_fract_x
_atom_site_fract_y
_atom_site_fract_z
Si Si1 0.363634 0.591681 0.391140
Si Si2 0.637576 0.227180 0.763444
Si Si3 0.557520 0.150708 0.625856
Si Si4 0.854898 0.776314 0.792505
Si Si5 0.639630 0.926042 0.664024
Si Si6 0.141848 0.131394 0.949134
Si Si7 0.531765 0.236745 0.478862
Si Si8 0.986975 0.378711 0.835688
O O1 0.250000 0.585931 0.385017
O O2 0.397953 0.631009 0.313631
O O3 0.392152 0.483219 0.426205
O O4 0.397191 0.682391 0.442339
O O5 0.750000 0.216140 0.754009
O O6 0.587140 0.227629 0.688024
O O7 0.610899 0.330668 0.806115
O O8 0.443863 0.133718 0.623600
O O9 0.579527 0.187977 0.547556
O O10 0.609971 0.045125 0.651044
O O11 0.750000 0.735680 0.773355
O O12 0.870213 0.876899 0.742677
O O13 0.853257 0.813261 0.873069
O O14 0.934175 0.687870 0.792713
O O15 0.750000 0.912226 0.643476
O O16 0.250000 0.127815 0.978244
O O17 0.064272 0.195895 0.992937
O O18 0.507607 0.152105 0.418509
O O19 0.000000 0.500000 0.826135
#
# Coordination Sequence:
#
# PCOD9379639 Si02
#       8
#     8   8   8   8   8   8   8   8
#     4   9  18  34  58  86 114 147 191 240 290 338
#     4  10  20  37  59  86 114 146 191 245 294 344
#     4  11  22  36  58  85 118 153 183 231 294 348
#     4   9  17  34  59  87 110 138 184 242 292 331
#     4  10  21  36  58  86 113 143 185 234 289 343
#     4   9  17  32  57  86 113 144 187 237 284 330
#     4  10  22  35  54  81 120 156 189 228 281 347
#     4  10  21  37  57  81 114 153 195 237 279 343
#
# _framework density 18.621731
#
# number of rings (size 3 to 8) (size 9 to 14) (size 15 to 20)
#    0.000    2.250    1.250    1.500    1.750    4.000 
#    0.000    1.250    0.000    0.000    0.000    0.000 
#    0.000    0.000    0.000    0.000    0.000    0.000 
#
# Total GULP energy -178197.656081 kJ/mol
# GULP energy per Si atom -5568.676753 kJ/mol
# Density = 1.857935 g / cm^3
# Si number density = 18.621731 Si / 1000 Ang^3
#
#
#
# Elastic Constant Matrix: (Units=GPa)
#
#
# Indices 1 2 3 4 5 6 
#
# 1 66.9092 26.6745 19.4912 0.0000 0.0000 0.0000
# 2 26.6745 100.1385 36.7878 0.0000 0.0000 0.0000
# 3 19.4912 36.7878 86.8045 0.0000 0.0000 0.0000
# 4 0.0000 0.0000 0.0000 13.0115 0.0000 0.0000
# 5 0.0000 0.0000 0.0000 0.0000 16.0139 0.0000
# 6 0.0000 0.0000 0.0000 0.0000 0.0000 15.9812
#
#
#
# Elastic Compliance Matrix: (Units=1/GPa)
#
#
# Indices 1 2 3 4 5 6 
#
# 1 0.017088 -0.003722 -0.002260 0.000000 0.000000 0.000000
# 2 -0.003722 0.012638 -0.004520 0.000000 0.000000 0.000000
# 3 -0.002260 -0.004520 0.013943 0.000000 0.000000 0.000000
# 4 0.000000 0.000000 0.000000 0.076855 0.000000 0.000000
# 5 0.000000 0.000000 0.000000 0.000000 0.062446 0.000000
# 6 0.000000 0.000000 0.000000 0.000000 0.000000 0.062573
#
#
# Mechanical properties :
#
#
# Convention : Reuss Voigt Hill
#
# Bulk Modulus (GPa) = 44.11952 46.63990 45.37971
# Shear Modulus (GPa) = 18.24137 20.39456 19.31797
#
# Velocity S-wave (km/s) = 3.13321 3.31297 3.22435
# Velocity P-wave (km/s) = 6.06904 6.30355 6.18741
#
# Compressibility (1/GPa) = 0.02266570
#
# Stress axis : x y z
#
# Youngs Moduli (GPa) = 58.52218 79.12535 71.71918
#
# Poissons Ratio (x) = 0.29447 0.16206
# Poissons Ratio (y) = 0.21780 0.32420
# Poissons Ratio (z) = 0.13224 0.35768
#
# Static dielectric constant tensor:
#      x y z
#    x 1.707070 0.000000 0.000000 
#    y 0.000000 1.649470 0.000000 
#    z 0.000000 0.000000 1.644360 
# 
# From -- ./inp_files/19649.got.cif
#   From: 2010.05.17/outbox.cif.g08.bks.cpg/sg46_10_cif.got.tgz:19649.got - 2010.06.03 19:58:25.
