data_PCOD9379016
_publ_section_title
;
Structure prediction by ZEFSAII (Michael W. Deem and Ramdas Pophale) SiO2 
 PCOD9379016
Probable space group: I M A 2
;
_chemical_formula_sum "Si O2"
_cell_formula_units_Z 56
_cell_length_a 16.930340
_cell_length_b 4.996658
_cell_length_c 31.472348
_cell_angle_alpha 90.000000
_cell_angle_beta 90.000000
_cell_angle_gamma 90.000000
_cell_volume 2662.407018
_symmetry_space_group_name_H-M "I M A 2"
_symmetry_group_IT_number 46
_symmetry_cell_setting 'orthorhombic'
loop_
_space_group_symop_operation_xyz
x,y,z
-x,-y,z
1/2-x,y,z
1/2+x,-y,z
1/2+x,1/2+y,1/2+z
1/2-x,1/2-y,1/2+z
-x,1/2+y,1/2+z
x,1/2-y,1/2+z
loop_
_atom_site_type_symbol
_atom_site_label
_atom_site_fract_x
_atom_site_fract_y
_atom_site_fract_z
Si Si1 0.595955 0.002076 0.383230
Si Si2 0.057436 0.755416 0.297895
Si Si3 0.341799 0.456882 0.530292
Si Si4 0.160020 0.739947 0.714021
Si Si5 0.592148 0.464592 0.074039
Si Si6 0.904289 0.492689 0.435192
Si Si7 0.840357 0.748568 0.656164
O O1 0.610284 0.135372 0.337281
O O2 0.623729 0.208364 0.418418
O O3 0.500000 0.000000 0.383810
O O4 0.621286 0.712594 0.399957
O O5 0.109630 0.720634 0.256251
O O6 0.000000 0.500000 0.308334
O O7 0.000000 0.000000 0.287831
O O8 0.250000 0.520948 0.531130
O O9 0.383806 0.659178 0.563877
O O10 0.375064 0.477850 0.482872
O O11 0.357385 0.151899 0.543140
O O12 0.250000 0.651748 0.724074
O O13 0.129715 0.522075 0.679131
O O14 0.163623 0.027384 0.692248
O O15 0.500000 0.500000 0.064857
O O16 0.610893 0.601485 0.119431
O O17 0.000000 0.500000 0.436109
O O18 0.750000 0.695569 0.640296
#
# Coordination Sequence:
#
# PCOD9379016 Si02
#       7
#     8   8   8   8   8   8   8
#     4   9  18  33  56  83 113 150 193 243 297 349
#     4  11  21  36  59  88 119 155 203 251 298 356
#     4  12  25  42  63  91 127 163 201 250 315 379
#     4  10  22  39  59  85 119 158 196 241 303 365
#     4  12  25  42  65  93 122 158 208 259 307 370
#     4  10  19  35  58  83 113 152 198 244 292 353
#     4  10  21  39  61  85 118 158 197 242 304 366
#
# _framework density 21.033598999999999
#
# number of rings (size 3 to 8) (size 9 to 14) (size 15 to 20)
#    0.000    1.429    0.000    7.286    0.000    4.000 
#    0.000    1.429    0.000    0.000    0.000    1.000 
#    0.000    0.000    0.000    0.000    0.000    0.000 
#
# Total GULP energy -156222.308694 kJ/mol
# GULP energy per Si atom -5579.368168 kJ/mol
# Density = 2.098573 g / cm^3
# Si number density = 21.033599 Si / 1000 Ang^3
#
#
#
# Elastic Constant Matrix: (Units=GPa)
#
#
# Indices 1 2 3 4 5 6 
#
# 1 42.9950 6.5339 12.5699 0.0000 0.0000 0.0000
# 2 6.5339 84.4248 -4.5232 0.0000 0.0000 0.0000
# 3 12.5699 -4.5232 87.1074 0.0000 0.0000 0.0000
# 4 0.0000 0.0000 0.0000 38.4733 0.0000 0.0000
# 5 0.0000 0.0000 0.0000 0.0000 55.2385 0.0000
# 6 0.0000 0.0000 0.0000 0.0000 0.0000 13.4549
#
#
#
# Elastic Compliance Matrix: (Units=1/GPa)
#
#
# Indices 1 2 3 4 5 6 
#
# 1 0.024650 -0.002104 -0.003666 0.000000 0.000000 0.000000
# 2 -0.002104 0.012058 0.000930 0.000000 0.000000 0.000000
# 3 -0.003666 0.000930 0.012057 0.000000 0.000000 0.000000
# 4 0.000000 0.000000 0.000000 0.025992 0.000000 0.000000
# 5 0.000000 0.000000 0.000000 0.000000 0.018103 0.000000
# 6 0.000000 0.000000 0.000000 0.000000 0.000000 0.074322
#
#
# Mechanical properties :
#
#
# Convention : Reuss Voigt Hill
#
# Bulk Modulus (GPa) = 25.58623 27.07649 26.33136
# Shear Modulus (GPa) = 26.33070 34.76310 30.54690
#
# Velocity S-wave (km/s) = 3.54197 4.06980 3.81503
# Velocity P-wave (km/s) = 5.37757 5.91484 5.65259
#
# Compressibility (1/GPa) = 0.03908352
#
# Stress axis : x y z
#
# Youngs Moduli (GPa) = 40.56763 82.93580 82.93636
#
# Poissons Ratio (x) = 0.17451 0.30408
# Poissons Ratio (y) = 0.08536 -0.07711
# Poissons Ratio (z) = 0.14874 -0.07711
#
# Static dielectric constant tensor:
#      x y z
#    x 1.730740 0.000000 0.000000 
#    y 0.000000 1.743160 0.000000 
#    z 0.000000 0.000000 1.785840 
# 
# From -- ./inp_files/25398.got.cif
#   From: 2010.05.17/outbox.cif.g08.bks.cpg/sg46_13_cif.got.tgz:25398.got - 2010.06.03 19:58:25.
