data_PCOD9379035
_publ_section_title
;
Structure prediction by ZEFSAII (Michael W. Deem and Ramdas Pophale) SiO2 
 PCOD9379035
Probable space group: I M A 2
;
_chemical_formula_sum "Si O2"
_cell_formula_units_Z 64
_cell_length_a 16.244188
_cell_length_b 14.080509
_cell_length_c 14.410657
_cell_angle_alpha 90.000000
_cell_angle_beta 90.000000
_cell_angle_gamma 90.000000
_cell_volume 3296.098206
_symmetry_space_group_name_H-M "I M A 2"
_symmetry_group_IT_number 46
_symmetry_cell_setting 'orthorhombic'
loop_
_space_group_symop_operation_xyz
x,y,z
-x,-y,z
1/2-x,y,z
1/2+x,-y,z
1/2+x,1/2+y,1/2+z
1/2-x,1/2-y,1/2+z
-x,1/2+y,1/2+z
x,1/2-y,1/2+z
loop_
_atom_site_type_symbol
_atom_site_label
_atom_site_fract_x
_atom_site_fract_y
_atom_site_fract_z
Si Si1 0.157133 0.218228 0.399530
Si Si2 0.652929 0.114374 0.003842
Si Si3 0.910947 0.110423 0.803342
Si Si4 0.612236 0.777522 0.606854
Si Si5 0.467734 0.409702 0.786309
Si Si6 0.609821 0.894491 0.789748
Si Si7 0.070755 0.732657 0.664591
Si Si8 0.155358 0.441607 0.627274
O O1 0.250000 0.193300 0.372688
O O2 0.141476 0.191703 0.506019
O O3 0.091252 0.161018 0.340305
O O4 0.143729 0.329375 0.373473
O O5 0.750000 0.119846 0.988705
O O6 0.625597 0.181990 0.087763
O O7 0.633027 0.007132 0.039229
O O8 0.608854 0.140196 0.908242
O O9 0.886069 0.184365 0.723397
O O10 0.010258 0.107798 0.794610
O O11 0.871085 0.006065 0.791647
O O12 0.636993 0.842591 0.694269
O O13 0.512986 0.769322 0.614384
O O14 0.648153 0.671129 0.613950
O O15 0.500000 0.500000 0.843286
O O16 0.536386 0.344000 0.738701
O O17 0.411509 0.458327 0.706827
O O18 0.250000 0.465533 0.651989
#
# Coordination Sequence:
#
# PCOD9379035 Si02
#       8
#     8   8   8   8   8   8   8   8
#     4  12  23  38  61  94 128 160 202 257 316 370
#     4  11  23  37  61  91 116 158 207 258 312 357
#     4  10  21  40  63  89 122 157 211 253 299 368
#     4  10  21  36  60  90 120 158 201 243 313 373
#     4  11  21  38  58  89 119 163 205 252 303 368
#     4  10  21  39  62  92 121 164 199 250 307 367
#     4  10  21  40  62  84 120 159 205 255 302 362
#     4  10  19  35  59  89 124 153 192 256 312 361
#
# _framework density 19.416896999999999
#
# number of rings (size 3 to 8) (size 9 to 14) (size 15 to 20)
#    0.000    1.500    5.000    2.250    0.000    5.500 
#    4.500    0.000    0.000    1.500    0.000    0.000 
#    0.000    0.000    0.000    0.000    0.000    0.000 
#
# Total GULP energy -178565.422162 kJ/mol
# GULP energy per Si atom -5580.169443 kJ/mol
# Density = 1.937270 g / cm^3
# Si number density = 19.416897 Si / 1000 Ang^3
#
#
#
# Elastic Constant Matrix: (Units=GPa)
#
#
# Indices 1 2 3 4 5 6 
#
# 1 26.1135 28.0486 17.0157 0.0000 0.0000 0.0000
# 2 28.0486 101.5178 52.9468 0.0000 0.0000 0.0000
# 3 17.0157 52.9468 107.5592 0.0000 0.0000 0.0000
# 4 0.0000 0.0000 0.0000 25.8228 0.0000 0.0000
# 5 0.0000 0.0000 0.0000 0.0000 212.6779 0.0000
# 6 0.0000 0.0000 0.0000 0.0000 0.0000 15.5326
#
#
#
# Elastic Compliance Matrix: (Units=1/GPa)
#
#
# Indices 1 2 3 4 5 6 
#
# 1 0.054667 -0.014253 -0.001632 0.000000 0.000000 0.000000
# 2 -0.014253 0.016969 -0.006098 0.000000 0.000000 0.000000
# 3 -0.001632 -0.006098 0.012557 0.000000 0.000000 0.000000
# 4 0.000000 0.000000 0.000000 0.038725 0.000000 0.000000
# 5 0.000000 0.000000 0.000000 0.000000 0.004702 0.000000
# 6 0.000000 0.000000 0.000000 0.000000 0.000000 0.064381
#
#
# Mechanical properties :
#
#
# Convention : Reuss Voigt Hill
#
# Bulk Modulus (GPa) = 24.85917 47.91252 36.38585
# Shear Modulus (GPa) = 20.04998 59.95194 40.00096
#
# Velocity S-wave (km/s) = 3.21690 5.56266 4.54377
# Velocity P-wave (km/s) = 5.16029 8.12323 6.80498
#
# Compressibility (1/GPa) = 0.04022660
#
# Stress axis : x y z
#
# Youngs Moduli (GPa) = 18.29264 58.93094 79.63449
#
# Poissons Ratio (x) = 0.83993 0.12998
# Poissons Ratio (y) = 0.26072 0.48564
# Poissons Ratio (z) = 0.02986 0.35938
#
# Static dielectric constant tensor:
#      x y z
#    x 1.620260 0.000000 0.000000 
#    y 0.000000 1.719980 0.000000 
#    z 0.000000 0.000000 1.682500 
# 
# From -- ./inp_files/16840.got.cif
#   From: 2010.05.17/outbox.cif.g08.bks.cpg/sg46_9_cif.got.tgz:16840.got - 2010.06.03 19:58:25.
