data_PCOD9379043
_publ_section_title
;
Structure prediction by ZEFSAII (Michael W. Deem and Ramdas Pophale) SiO2 
 PCOD9379043
Probable space group: I M A 2
;
_chemical_formula_sum "Si O2"
_cell_formula_units_Z 64
_cell_length_a 8.832543
_cell_length_b 28.980519
_cell_length_c 12.716972
_cell_angle_alpha 90.000000
_cell_angle_beta 90.000000
_cell_angle_gamma 90.000000
_cell_volume 3255.184690
_symmetry_space_group_name_H-M "I M A 2"
_symmetry_group_IT_number 46
_symmetry_cell_setting 'orthorhombic'
loop_
_space_group_symop_operation_xyz
x,y,z
-x,-y,z
1/2-x,y,z
1/2+x,-y,z
1/2+x,1/2+y,1/2+z
1/2-x,1/2-y,1/2+z
-x,1/2+y,1/2+z
x,1/2-y,1/2+z
loop_
_atom_site_type_symbol
_atom_site_label
_atom_site_fract_x
_atom_site_fract_y
_atom_site_fract_z
Si Si1 0.069065 0.097923 0.534010
Si Si2 0.927707 0.706267 0.532013
Si Si3 0.572670 0.302545 0.979947
Si Si4 0.428590 0.956553 0.104096
Si Si5 0.928922 0.580297 0.803938
Si Si6 0.924200 0.324556 0.743159
Si Si7 0.432446 0.448732 0.254015
Si Si8 0.071178 0.619086 0.428429
O O1 0.250000 0.105137 0.540523
O O2 0.039720 0.069507 0.426039
O O3 0.022333 0.070794 0.638500
O O4 0.994455 0.148415 0.518426
O O5 0.750000 0.704673 0.513369
O O6 0.988550 0.758099 0.523503
O O7 0.968288 0.690682 0.649961
O O8 0.006300 0.669789 0.452666
O O9 0.750000 0.301486 0.006962
O O10 0.559486 0.298236 0.853259
O O11 0.250000 0.962534 0.122425
O O12 0.523096 0.953375 0.211464
O O13 0.500000 0.000000 0.043311
O O14 0.449094 0.910677 0.035332
O O15 0.750000 0.590764 0.795588
O O16 0.031563 0.624121 0.776501
O O17 0.750000 0.322122 0.706959
O O18 0.500000 0.500000 0.270225
O O19 0.250000 0.451532 0.259637
O O20 0.491142 0.411058 0.338161
O O21 0.250000 0.621905 0.406172
#
# Coordination Sequence:
#
# PCOD9379043 Si02
#       8
#     8   8   8   8   8   8   8   8
#     4   9  21  41  63  90 125 163 206 260 314 372
#     4  12  24  38  62  91 123 164 208 257 315 378
#     4  10  22  39  62  91 123 163 209 260 314 374
#     4  11  23  37  57  85 119 154 193 247 302 362
#     4  10  19  35  60  87 117 153 195 243 303 365
#     4  10  20  37  59  84 117 155 196 246 304 363
#     4  11  24  43  66  92 127 170 218 268 323 384
#     4  11  24  42  63  88 122 160 208 263 314 374
#
# _framework density 19.660941000000001
#
# number of rings (size 3 to 8) (size 9 to 14) (size 15 to 20)
#    0.000    1.500    1.250    3.750    0.000    7.000 
#    0.000    1.250    0.000    0.000    0.000    0.000 
#    0.000    0.000    0.000    0.000    0.000    0.000 
#
# Total GULP energy -178653.209438 kJ/mol
# GULP energy per Si atom -5582.912795 kJ/mol
# Density = 1.961619 g / cm^3
# Si number density = 19.660941 Si / 1000 Ang^3
#
#
#
# Elastic Constant Matrix: (Units=GPa)
#
#
# Indices 1 2 3 4 5 6 
#
# 1 50.8131 13.7599 30.3225 0.0000 0.0000 0.0000
# 2 13.7599 56.1753 15.5222 0.0000 0.0000 0.0000
# 3 30.3225 15.5222 86.3672 0.0001 0.0000 0.0000
# 4 0.0000 0.0000 0.0001 22.8027 0.0000 0.0000
# 5 0.0000 0.0000 0.0000 0.0000 25.3355 0.0000
# 6 0.0000 0.0000 0.0000 0.0000 0.0000 30.0481
#
#
#
# Elastic Compliance Matrix: (Units=1/GPa)
#
#
# Indices 1 2 3 4 5 6 
#
# 1 0.025724 -0.004004 -0.008312 0.000000 0.000000 0.000000
# 2 -0.004004 0.019355 -0.002073 0.000000 0.000000 0.000000
# 3 -0.008312 -0.002073 0.014869 0.000000 0.000000 0.000000
# 4 0.000000 0.000000 0.000000 0.043855 0.000000 0.000000
# 5 0.000000 0.000000 0.000000 0.000000 0.039470 0.000000
# 6 0.000000 0.000000 0.000000 0.000000 0.000000 0.033280
#
#
# Mechanical properties :
#
#
# Convention : Reuss Voigt Hill
#
# Bulk Modulus (GPa) = 32.08133 34.72944 33.40538
# Shear Modulus (GPa) = 23.17804 24.55398 23.86601
#
# Velocity S-wave (km/s) = 3.43722 3.53777 3.48786
# Velocity P-wave (km/s) = 5.66616 5.86432 5.76609
#
# Compressibility (1/GPa) = 0.03117077
#
# Stress axis : x y z
#
# Youngs Moduli (GPa) = 38.87362 51.66625 67.25329
#
# Poissons Ratio (x) = 0.20689 0.55900
# Poissons Ratio (y) = 0.15567 0.13939
# Poissons Ratio (z) = 0.32311 0.10709
#
# Static dielectric constant tensor:
#      x y z
#    x 1.664670 0.000000 0.000000 
#    y 0.000000 1.463550 0.000000 
#    z 0.000000 0.000000 1.732640 
# 
# From -- ./inp_files/9670.got.cif
#   From: 2010.05.17/outbox.cif.g08.bks.cpg/sg46_5_cif.got.tgz:9670.got - 2010.06.03 19:58:25.
