data_PCOD9379007
_publ_section_title
;
Structure prediction by ZEFSAII (Michael W. Deem and Ramdas Pophale) SiO2 
 PCOD9379007
Probable space group: I M A 2
;
_chemical_formula_sum "Si O2"
_cell_formula_units_Z 64
_cell_length_a 8.756106
_cell_length_b 25.565892
_cell_length_c 15.421401
_cell_angle_alpha 90.000000
_cell_angle_beta 90.000000
_cell_angle_gamma 90.000000
_cell_volume 3452.198747
_symmetry_space_group_name_H-M "I M A 2"
_symmetry_group_IT_number 46
_symmetry_cell_setting 'orthorhombic'
loop_
_space_group_symop_operation_xyz
x,y,z
-x,-y,z
1/2-x,y,z
1/2+x,-y,z
1/2+x,1/2+y,1/2+z
1/2-x,1/2-y,1/2+z
-x,1/2+y,1/2+z
x,1/2-y,1/2+z
loop_
_atom_site_type_symbol
_atom_site_label
_atom_site_fract_x
_atom_site_fract_y
_atom_site_fract_z
Si Si1 0.066594 0.238497 0.343000
Si Si2 0.066414 0.111729 0.572000
Si Si3 0.566380 0.636587 0.739271
Si Si4 0.567224 0.556859 0.250266
Si Si5 0.565269 0.558096 0.890605
Si Si6 0.567238 0.163511 0.064805
Si Si7 0.067078 0.780611 0.532382
Si Si8 0.933346 0.350475 0.364860
O O1 0.250000 0.242319 0.342887
O O2 0.018876 0.193364 0.276335
O O3 0.010357 0.219901 0.437681
O O4 0.995490 0.295473 0.327919
O O5 0.250000 0.118476 0.570491
O O6 0.026932 0.074578 0.652269
O O7 0.019148 0.086395 0.480354
O O8 0.990306 0.168367 0.581760
O O9 0.750000 0.635707 0.737895
O O10 0.515786 0.592907 0.808345
O O11 0.505220 0.631033 0.642398
O O12 0.500000 0.500000 0.268777
O O13 0.750000 0.555640 0.257237
O O14 0.501053 0.600824 0.313746
O O15 0.500000 0.500000 0.886989
O O16 0.750000 0.555948 0.890524
O O17 0.750000 0.159670 0.070273
O O18 0.524935 0.224914 0.074366
O O19 0.522592 0.148002 0.966912
O O20 0.250000 0.781662 0.522335
O O21 0.750000 0.350207 0.359866
#
# Coordination Sequence:
#
# PCOD9379007 Si02
#       8
#     8   8   8   8   8   8   8   8
#     4  10  19  35  57  84 118 155 192 237 292 351
#     4  10  21  38  58  83 120 157 193 237 288 352
#     4  10  21  36  57  84 117 154 194 238 290 346
#     4  11  24  41  63  89 116 155 201 248 302 354
#     4  10  21  39  58  83 116 153 194 237 285 342
#     4   9  21  38  56  83 118 152 192 241 293 345
#     4  10  20  34  54  85 119 155 194 234 289 347
#     4  10  22  41  61  85 118 154 196 249 298 353
#
# _framework density 18.538909
#
# number of rings (size 3 to 8) (size 9 to 14) (size 15 to 20)
#    0.000    2.000    1.250    2.625    1.750    6.000 
#    0.000    0.625    0.000    1.500    0.000    0.000 
#    0.000    0.000    0.000    0.000    0.000    0.000 
#
# Total GULP energy -178719.857098 kJ/mol
# GULP energy per Si atom -5584.995534 kJ/mol
# Density = 1.849671 g / cm^3
# Si number density = 18.538909 Si / 1000 Ang^3
#
#
#
# Elastic Constant Matrix: (Units=GPa)
#
#
# Indices 1 2 3 4 5 6 
#
# 1 28.1514 35.3972 27.7342 0.0000 0.0000 0.0000
# 2 35.3972 127.4611 59.2170 0.0001 0.0001 0.0000
# 3 27.7342 59.2170 92.4165 0.0003 0.0001 0.0000
# 4 0.0000 0.0001 0.0003 26.8753 0.0000 0.0000
# 5 0.0000 0.0001 0.0001 0.0000 -2.4011 0.0000
# 6 0.0000 0.0000 0.0000 0.0000 0.0000 34.7651
#
#
#
# Elastic Compliance Matrix: (Units=1/GPa)
#
#
# Indices 1 2 3 4 5 6 
#
# 1 0.061133 -0.012037 -0.010633 0.000000 0.000000 0.000000
# 2 -0.012037 0.013541 -0.005064 0.000000 0.000000 0.000000
# 3 -0.010633 -0.005064 0.017257 0.000000 0.000001 0.000000
# 4 0.000000 0.000000 0.000000 0.037209 0.000000 0.000000
# 5 0.000000 0.000000 0.000001 0.000000 -0.416483 0.000000
# 6 0.000000 0.000000 0.000000 0.000000 0.000000 0.028764
#
#
# Mechanical properties :
#
#
# Convention : Reuss Voigt Hill
#
# Bulk Modulus (GPa) = 27.42606 54.74731 41.08668
# Shear Modulus (GPa) = -26.18409 20.22658 -2.97876
#
# Velocity S-wave (km/s) = -3.76225 3.30666 -1.26895
# Velocity P-wave (km/s) = 2.01166 6.64634 4.47923
#
# Compressibility (1/GPa) = 0.03646167
#
# Stress axis : x y z
#
# Youngs Moduli (GPa) = 16.35774 73.84848 57.94892
#
# Poissons Ratio (x) = 0.88894 0.61617
# Poissons Ratio (y) = 0.19690 0.29347
# Poissons Ratio (z) = 0.17393 0.37399
#
# Static dielectric constant tensor:
#      x y z
#    x 1.623080 0.000000 0.000000 
#    y 0.000000 1.614280 0.000000 
#    z 0.000000 0.000000 1.646110 
# 
# From -- ./inp_files/14426.got.cif
#   From: 2010.05.17/outbox.cif.g08.bks.cpg/sg46_8_cif.got.tgz:14426.got - 2010.06.03 19:58:25.
