data_PCOD9379906
_publ_section_title
;
Structure prediction by ZEFSAII (Michael W. Deem and Ramdas Pophale) SiO2 
 PCOD9379906
Probable space group: I M A 2
;
_chemical_formula_sum "Si O2"
_cell_formula_units_Z 36
_cell_length_a 9.859484
_cell_length_b 7.673370
_cell_length_c 20.778899
_cell_angle_alpha 90.000000
_cell_angle_beta 90.000000
_cell_angle_gamma 90.000000
_cell_volume 1572.037344
_symmetry_space_group_name_H-M "I M A 2"
_symmetry_group_IT_number 46
_symmetry_cell_setting 'orthorhombic'
loop_
_space_group_symop_operation_xyz
x,y,z
-x,-y,z
1/2-x,y,z
1/2+x,-y,z
1/2+x,1/2+y,1/2+z
1/2-x,1/2-y,1/2+z
-x,1/2+y,1/2+z
x,1/2-y,1/2+z
loop_
_atom_site_type_symbol
_atom_site_label
_atom_site_fract_x
_atom_site_fract_y
_atom_site_fract_z
Si Si1 0.000000 0.500000 0.605660
Si Si2 0.000000 0.000000 0.780756
Si Si3 0.250000 0.081685 0.189417
Si Si4 0.750000 0.217487 0.759519
Si Si5 0.750000 0.275763 0.415274
Si Si6 0.750000 0.714395 0.321615
Si Si7 0.750000 0.685450 0.453100
Si Si8 0.975865 0.302669 0.015113
O O1 0.885432 0.595518 0.647761
O O2 0.927507 0.345400 0.565086
O O3 0.895917 0.884397 0.822393
O O4 0.110981 0.884968 0.743665
O O5 0.250000 0.892251 0.220932
O O6 0.250000 0.203961 0.251455
O O7 0.750000 0.245741 0.837732
O O8 0.750000 0.484225 0.430205
O O9 0.621268 0.197254 0.452828
O O10 0.750000 0.809206 0.389638
O O11 0.619080 0.725911 0.493641
O O12 0.000000 0.500000 0.039084
#
# Coordination Sequence:
#
# PCOD9379906 Si02
#       8
#     4   4   4   4   4   4   4   8
#     4  12  26  53  72 102 146 195 244 300 346 428
#     4  10  20  41  64  92 142 167 240 262 340 426
#     4  12  28  48  72  98 150 190 240 288 354 428
#     4  11  24  42  67 108 138 191 225 283 361 429
#     4  12  22  44  73 107 151 181 231 303 367 429
#     4  11  24  42  67 108 138 191 225 283 361 429
#     4  12  22  44  73 107 151 181 231 303 367 429
#     4  12  27  46  74 108 139 188 250 297 357 418
#
# _framework density 22.900219
#
# number of rings (size 3 to 8) (size 9 to 14) (size 15 to 20)
#    0.000    0.444    4.444    4.667    3.111    0.000 
#   12.000    0.000    0.000    0.000    0.000    0.000 
#    0.000    0.000    0.000    0.000    0.000    0.000 
#
# Total GULP energy -100556.052246 kJ/mol
# GULP energy per Si atom -5586.447347 kJ/mol
# Density = 2.284810 g / cm^3
# Si number density = 22.900219 Si / 1000 Ang^3
#
#
#
# Elastic Constant Matrix: (Units=GPa)
#
#
# Indices 1 2 3 4 5 6 
#
# 1 148.4901 4.4927 9.1068 0.0000 0.0000 0.0000
# 2 4.4927 89.5736 20.7368 0.0000 0.0000 0.0000
# 3 9.1068 20.7368 76.5441 0.0000 0.0000 0.0000
# 4 0.0000 0.0000 0.0000 68.4081 0.0000 0.0000
# 5 0.0000 0.0000 0.0000 0.0000 1.4623 0.0000
# 6 0.0000 0.0000 0.0000 0.0000 0.0000 28.7978
#
#
#
# Elastic Compliance Matrix: (Units=1/GPa)
#
#
# Indices 1 2 3 4 5 6 
#
# 1 0.006786 -0.000164 -0.000763 0.000000 0.000000 0.000000
# 2 -0.000164 0.011915 -0.003208 0.000000 0.000000 0.000000
# 3 -0.000763 -0.003208 0.014024 0.000000 0.000000 0.000000
# 4 0.000000 0.000000 0.000000 0.014618 0.000000 0.000000
# 5 0.000000 0.000000 0.000000 0.000000 0.683873 0.000000
# 6 0.000000 0.000000 0.000000 0.000000 0.000000 0.034725
#
#
# Mechanical properties :
#
#
# Convention : Reuss Voigt Hill
#
# Bulk Modulus (GPa) = 40.89118 42.58669 41.73894
# Shear Modulus (GPa) = 6.39089 38.41839 22.40464
#
# Velocity S-wave (km/s) = 1.67237 4.10035 3.13127
# Velocity P-wave (km/s) = 4.65017 6.40735 5.59813
#
# Compressibility (1/GPa) = 0.02445515
#
# Stress axis : x y z
#
# Youngs Moduli (GPa) = 147.35776 83.92791 71.30454
#
# Poissons Ratio (x) = 0.01374 0.05441
# Poissons Ratio (y) = 0.02413 0.22878
# Poissons Ratio (z) = 0.11244 0.26928
#
# Static dielectric constant tensor:
#      x y z
#    x 1.785910 0.000000 0.000000 
#    y 0.000000 1.842400 0.000000 
#    z 0.000000 0.000000 1.863760 
# 
# From -- ./inp_files/20763.got.cif
#   From: 2010.05.17/outbox.cif.g08.bks.cpg/sg46_11_cif.got.tgz:20763.got - 2010.06.03 19:58:25.
