data_PCOD9379843
_publ_section_title
;
Structure prediction by ZEFSAII (Michael W. Deem and Ramdas Pophale) SiO2 
 PCOD9379843
Probable space group: I M A 2
;
_chemical_formula_sum "Si O2"
_cell_formula_units_Z 60
_cell_length_a 9.728101
_cell_length_b 17.409449
_cell_length_c 17.256173
_cell_angle_alpha 90.000000
_cell_angle_beta 90.000000
_cell_angle_gamma 90.000000
_cell_volume 2922.520614
_symmetry_space_group_name_H-M "I M A 2"
_symmetry_group_IT_number 46
_symmetry_cell_setting 'orthorhombic'
loop_
_space_group_symop_operation_xyz
x,y,z
-x,-y,z
1/2-x,y,z
1/2+x,-y,z
1/2+x,1/2+y,1/2+z
1/2-x,1/2-y,1/2+z
-x,1/2+y,1/2+z
x,1/2-y,1/2+z
loop_
_atom_site_type_symbol
_atom_site_label
_atom_site_fract_x
_atom_site_fract_y
_atom_site_fract_z
Si Si1 0.410772 0.423963 0.753980
Si Si2 0.087511 0.644815 0.156095
Si Si3 0.403173 0.212177 0.376189
Si Si4 0.910996 0.071267 0.988859
Si Si5 0.914803 0.352577 0.329811
Si Si6 0.978000 0.604540 0.996344
Si Si7 0.250000 0.973379 0.463688
Si Si8 0.409574 0.672182 0.634584
O O1 0.500000 0.500000 0.769417
O O2 0.250000 0.443005 0.738257
O O3 0.412027 0.366272 0.826625
O O4 0.484705 0.377094 0.685446
O O5 0.250000 0.627123 0.143669
O O6 0.048078 0.621340 0.243112
O O7 0.071280 0.737057 0.147300
O O8 0.002397 0.605416 0.088369
O O9 0.250000 0.244356 0.365334
O O10 0.513629 0.271701 0.346011
O O11 0.425638 0.185779 0.464012
O O12 0.750000 0.050433 0.988697
O O13 0.953102 0.093261 0.901600
O O14 0.925946 0.143654 0.046269
O O15 0.000000 0.000000 0.017901
O O16 0.750000 0.343449 0.330873
O O17 0.868886 0.539884 0.974986
O O18 0.127052 0.590738 0.958816
O O19 0.250000 0.654874 0.656964
#
# Coordination Sequence:
#
# PCOD9379843 Si02
#       8
#     8   8   8   8   8   8   4   8
#     4  11  24  38  57  89 124 161 200 250 304 366
#     4  10  20  40  65  92 122 161 208 256 311 374
#     4  11  24  40  61  92 128 161 205 253 311 374
#     4  10  22  40  63  91 122 160 208 255 307 367
#     4  10  22  42  66  93 123 162 209 256 309 378
#     4  11  22  42  61  92 121 169 206 258 309 378
#     4  10  24  40  62  88 128 158 212 256 314 368
#     4  10  20  39  63  88 119 158 206 252 303 369
#
# _framework density 20.530224
#
# number of rings (size 3 to 8) (size 9 to 14) (size 15 to 20)
#    0.000    1.600    2.667    1.600    2.800    3.733 
#    4.800    0.000    0.000    0.000    0.000    0.000 
#    0.000    0.000    0.000    0.000    0.000    0.000 
#
# Total GULP energy -167071.240788 kJ/mol
# GULP energy per Si atom -5569.041360 kJ/mol
# Density = 2.048350 g / cm^3
# Si number density = 20.530224 Si / 1000 Ang^3
#
#
#
# Elastic Constant Matrix: (Units=GPa)
#
#
# Indices 1 2 3 4 5 6 
#
# 1 90.1289 17.7250 8.5476 0.0000 0.0000 0.0000
# 2 17.7250 26.2977 -11.2484 0.0000 0.0000 0.0000
# 3 8.5476 -11.2484 79.9291 0.0000 0.0000 0.0000
# 4 0.0000 0.0000 0.0000 12.5161 0.0000 0.0000
# 5 0.0000 0.0000 0.0000 0.0000 17.9579 0.0000
# 6 0.0000 0.0000 0.0000 0.0000 0.0000 42.8089
#
#
#
# Elastic Compliance Matrix: (Units=1/GPa)
#
#
# Indices 1 2 3 4 5 6 
#
# 1 0.013384 -0.010250 -0.002874 0.000000 0.000000 0.000000
# 2 -0.010250 0.048312 0.007895 0.000000 0.000000 0.000000
# 3 -0.002874 0.007895 0.013929 0.000000 0.000000 0.000000
# 4 0.000000 0.000000 0.000000 0.079897 0.000000 0.000000
# 5 0.000000 0.000000 0.000000 0.000000 0.055686 0.000000
# 6 0.000000 0.000000 0.000000 0.000000 0.000000 0.023360
#
#
# Mechanical properties :
#
#
# Convention : Reuss Voigt Hill
#
# Bulk Modulus (GPa) = 15.34507 25.15602 20.25054
# Shear Modulus (GPa) = 18.74437 26.74535 22.74486
#
# Velocity S-wave (km/s) = 3.02489 3.61325 3.33208
# Velocity P-wave (km/s) = 4.43740 5.44860 4.96879
#
# Compressibility (1/GPa) = 0.06516751
#
# Stress axis : x y z
#
# Youngs Moduli (GPa) = 74.71884 20.69896 71.79033
#
# Poissons Ratio (x) = 0.21216 0.20630
# Poissons Ratio (y) = 0.76585 -0.56678
# Poissons Ratio (z) = 0.21472 -0.16342
#
# Static dielectric constant tensor:
#      x y z
#    x 1.702130 0.000000 0.000000 
#    y 0.000000 1.716940 0.000000 
#    z 0.000000 0.000000 1.793470 
# 
# From -- ./inp_files/18351.got.cif
#   From: 2010.05.17/outbox.cif.g08.bks.cpg/sg46_10_cif.got.tgz:18351.got - 2010.06.03 19:58:25.
