data_PCOD9379703
_publ_section_title
;
Structure prediction by ZEFSAII (Michael W. Deem and Ramdas Pophale) SiO2 
 PCOD9379703
Probable space group: I M A 2
;
_chemical_formula_sum "Si O2"
_cell_formula_units_Z 52
_cell_length_a 13.729744
_cell_length_b 8.476748
_cell_length_c 21.762177
_cell_angle_alpha 90.000000
_cell_angle_beta 90.000000
_cell_angle_gamma 90.000000
_cell_volume 2532.760068
_symmetry_space_group_name_H-M "I M A 2"
_symmetry_group_IT_number 46
_symmetry_cell_setting 'orthorhombic'
loop_
_space_group_symop_operation_xyz
x,y,z
-x,-y,z
1/2-x,y,z
1/2+x,-y,z
1/2+x,1/2+y,1/2+z
1/2-x,1/2-y,1/2+z
-x,1/2+y,1/2+z
x,1/2-y,1/2+z
loop_
_atom_site_type_symbol
_atom_site_label
_atom_site_fract_x
_atom_site_fract_y
_atom_site_fract_z
Si Si1 0.042249 0.830275 0.162780
Si Si2 0.868005 0.234783 0.030806
Si Si3 0.642535 0.880675 0.665764
Si Si4 0.132439 0.091580 0.960174
Si Si5 0.500000 0.500000 0.351611
Si Si6 0.641359 0.170809 0.761006
Si Si7 0.363788 0.422228 0.019701
O O1 0.092003 0.774616 0.099947
O O2 0.114392 0.822795 0.220654
O O3 0.950058 0.723630 0.180902
O O4 0.000000 0.000000 0.150330
O O5 0.750000 0.240865 0.033920
O O6 0.902249 0.403095 0.002136
O O7 0.892435 0.072674 0.995286
O O8 0.750000 0.805184 0.673128
O O9 0.631960 0.919773 0.593772
O O10 0.640917 0.032852 0.709162
O O11 0.250000 0.092473 0.953730
O O12 0.077984 0.085339 0.895415
O O13 0.101526 0.251460 0.995793
O O14 0.438876 0.621765 0.310323
O O15 0.750000 0.180058 0.787644
O O16 0.250000 0.424110 0.001569
#
# Coordination Sequence:
#
# PCOD9379703 Si02
#       7
#     8   8   8   8   4   8   8
#     4  12  23  36  63 102 137 163 211 270 342 415
#     4  10  21  39  64  98 138 173 208 266 341 404
#     4  10  20  37  62  93 125 162 207 264 332 398
#     4  10  23  41  63  95 132 170 221 275 324 397
#     4  12  24  44  66  90 122 182 236 268 322 394
#     4  11  23  44  69  92 126 172 223 277 329 398
#     4   9  18  36  63  94 128 164 203 258 334 395
#
# _framework density 20.530963
#
# number of rings (size 3 to 8) (size 9 to 14) (size 15 to 20)
#    0.000    1.538    3.077    1.846    3.231    2.462 
#    0.000    1.538    0.000    1.846    0.000    0.000 
#    0.000    0.000    0.000    0.000    0.000    0.000 
#
# Total GULP energy -145171.182813 kJ/mol
# GULP energy per Si atom -5583.507031 kJ/mol
# Density = 2.048423 g / cm^3
# Si number density = 20.530963 Si / 1000 Ang^3
#
#
#
# Elastic Constant Matrix: (Units=GPa)
#
#
# Indices 1 2 3 4 5 6 
#
# 1 99.6800 34.5083 29.8864 0.0000 0.0000 0.0000
# 2 34.5083 131.5312 37.0144 0.0000 0.0000 0.0000
# 3 29.8864 37.0144 90.7005 0.0000 0.0000 0.0000
# 4 0.0000 0.0000 0.0000 8.8078 0.0000 0.0000
# 5 0.0000 0.0000 0.0000 0.0000 37.1650 0.0000
# 6 0.0000 0.0000 0.0000 0.0000 0.0000 29.2703
#
#
#
# Elastic Compliance Matrix: (Units=1/GPa)
#
#
# Indices 1 2 3 4 5 6 
#
# 1 0.011688 -0.002240 -0.002937 0.000000 0.000000 0.000000
# 2 -0.002240 0.009018 -0.002942 0.000000 0.000000 0.000000
# 3 -0.002937 -0.002942 0.013194 0.000000 0.000000 0.000000
# 4 0.000000 0.000000 0.000000 0.113535 0.000000 0.000000
# 5 0.000000 0.000000 0.000000 0.000000 0.026907 0.000000
# 6 0.000000 0.000000 0.000000 0.000000 0.000000 0.034164
#
#
# Mechanical properties :
#
#
# Convention : Reuss Voigt Hill
#
# Bulk Modulus (GPa) = 56.62013 58.30334 57.46174
# Shear Modulus (GPa) = 21.67942 29.74879 25.71411
#
# Velocity S-wave (km/s) = 3.25305 3.81067 3.54284
# Velocity P-wave (km/s) = 6.46123 6.91527 6.69210
#
# Compressibility (1/GPa) = 0.01766156
#
# Stress axis : x y z
#
# Youngs Moduli (GPa) = 85.55641 110.88419 75.79279
#
# Poissons Ratio (x) = 0.24837 0.22262
# Poissons Ratio (y) = 0.19164 0.22301
# Poissons Ratio (z) = 0.25130 0.32625
#
# Static dielectric constant tensor:
#      x y z
#    x 1.794320 0.000000 0.000000 
#    y 0.000000 1.771170 0.000000 
#    z 0.000000 0.000000 1.689240 
# 
# From -- ./inp_files/21941.got.cif
#   From: 2010.05.17/outbox.cif.g08.bks.cpg/sg46_11_cif.got.tgz:21941.got - 2010.06.03 19:58:25.
