data_PCOD9379618
_publ_section_title
;
Structure prediction by ZEFSAII (Michael W. Deem and Ramdas Pophale) SiO2 
 PCOD9379618
Probable space group: I M A 2
;
_chemical_formula_sum "Si O2"
_cell_formula_units_Z 64
_cell_length_a 8.471812
_cell_length_b 31.777894
_cell_length_c 12.208091
_cell_angle_alpha 90.000000
_cell_angle_beta 90.000000
_cell_angle_gamma 90.000000
_cell_volume 3286.617623
_symmetry_space_group_name_H-M "I M A 2"
_symmetry_group_IT_number 46
_symmetry_cell_setting 'orthorhombic'
loop_
_space_group_symop_operation_xyz
x,y,z
-x,-y,z
1/2-x,y,z
1/2+x,-y,z
1/2+x,1/2+y,1/2+z
1/2-x,1/2-y,1/2+z
-x,1/2+y,1/2+z
x,1/2-y,1/2+z
loop_
_atom_site_type_symbol
_atom_site_label
_atom_site_fract_x
_atom_site_fract_y
_atom_site_fract_z
Si Si1 0.558384 0.335083 0.786410
Si Si2 0.941367 0.201589 0.055132
Si Si3 0.557081 0.202803 0.515923
Si Si4 0.562931 0.544670 0.027960
Si Si5 0.439338 0.624433 0.163780
Si Si6 0.439279 0.455640 0.552567
Si Si7 0.060665 0.933288 0.291270
Si Si8 0.939013 0.625377 0.410751
O O1 0.750000 0.333087 0.786197
O O2 0.503533 0.314369 0.673969
O O3 0.504048 0.312064 0.895976
O O4 0.516786 0.383985 0.790077
O O5 0.750000 0.201218 0.053588
O O6 0.993780 0.249539 0.037561
O O7 0.998357 0.168192 0.965537
O O8 0.750000 0.202738 0.516639
O O9 0.507486 0.167623 0.603892
O O10 0.500000 0.500000 0.071182
O O11 0.750000 0.545980 0.037942
O O12 0.491102 0.584466 0.091621
O O13 0.514461 0.547803 0.900380
O O14 0.250000 0.625128 0.167756
O O15 0.504615 0.621597 0.286204
O O16 0.500000 0.500000 0.506067
O O17 0.250000 0.455973 0.555007
O O18 0.502743 0.451637 0.676398
O O19 0.492761 0.415004 0.482724
O O20 0.250000 0.937412 0.298553
O O21 0.750000 0.625889 0.413524
#
# Coordination Sequence:
#
# PCOD9379618 Si02
#       8
#     8   8   8   8   8   8   8   8
#     4   9  17  32  58  92 125 155 197 253 302 351
#     4  10  20  36  64  94 120 160 207 254 303 359
#     4   9  19  35  61  95 124 153 203 257 303 357
#     4  12  25  42  64  92 126 163 205 251 308 369
#     4  11  23  42  66  91 121 162 210 259 309 366
#     4  11  24  41  62  88 120 158 202 251 309 369
#     4  11  20  37  63  92 127 161 202 252 305 361
#     4  11  25  43  60  86 126 164 202 255 312 372
#
# _framework density 19.472906999999999
#
# number of rings (size 3 to 8) (size 9 to 14) (size 15 to 20)
#    0.000    1.500    2.500    3.000    1.750    2.000 
#    0.000    2.500    0.000    0.000    0.000    0.000 
#    0.000    0.000    0.000    0.000    0.000    0.000 
#
# Total GULP energy -178845.044641 kJ/mol
# GULP energy per Si atom -5588.907645 kJ/mol
# Density = 1.942859 g / cm^3
# Si number density = 19.472907 Si / 1000 Ang^3
#
#
#
# Elastic Constant Matrix: (Units=GPa)
#
#
# Indices 1 2 3 4 5 6 
#
# 1 32.7957 18.2137 7.5637 0.0002 0.0000 0.0000
# 2 18.2137 167.4017 59.2562 0.0005 0.0000 0.0000
# 3 7.5637 59.2562 122.4601 0.0011 0.0001 0.0001
# 4 0.0002 0.0005 0.0011 55.3976 -0.0001 -0.0002
# 5 0.0000 0.0000 0.0001 -0.0001 20.7465 0.0000
# 6 0.0000 0.0000 0.0001 -0.0002 0.0000 21.6781
#
#
#
# Elastic Compliance Matrix: (Units=1/GPa)
#
#
# Indices 1 2 3 4 5 6 
#
# 1 0.032466 -0.003406 -0.000357 0.000000 0.000000 0.000000
# 2 -0.003406 0.007566 -0.003450 0.000000 0.000000 0.000000
# 3 -0.000357 -0.003450 0.009858 0.000000 0.000000 0.000000
# 4 0.000000 0.000000 0.000000 0.018051 0.000000 0.000000
# 5 0.000000 0.000000 0.000000 0.000000 0.048201 0.000000
# 6 0.000000 0.000000 0.000000 0.000000 0.000000 0.046130
#
#
# Mechanical properties :
#
#
# Convention : Reuss Voigt Hill
#
# Bulk Modulus (GPa) = 28.19935 54.74720 41.47327
# Shear Modulus (GPa) = 26.52257 35.40602 30.96430
#
# Velocity S-wave (km/s) = 3.69457 4.26868 3.99196
# Velocity P-wave (km/s) = 5.71949 7.24370 6.52624
#
# Compressibility (1/GPa) = 0.03546181
#
# Stress axis : x y z
#
# Youngs Moduli (GPa) = 30.80167 132.17685 101.44434
#
# Poissons Ratio (x) = 0.45019 0.03623
# Poissons Ratio (y) = 0.10491 0.35003
# Poissons Ratio (z) = 0.01100 0.45608
#
# Static dielectric constant tensor:
#      x y z
#    x 1.672430 0.000000 0.000000 
#    y 0.000000 1.679410 0.000000 
#    z 0.000000 0.000000 1.650600 
# 
# From -- ./inp_files/9679.got.cif
#   From: 2010.05.17/outbox.cif.g08.bks.cpg/sg46_5_cif.got.tgz:9679.got - 2010.06.03 19:58:25.
