data_PCOD9379483
_publ_section_title
;
Structure prediction by ZEFSAII (Michael W. Deem and Ramdas Pophale) SiO2 
 PCOD9379483
Probable space group: I M A 2
;
_chemical_formula_sum "Si O2"
_cell_formula_units_Z 64
_cell_length_a 14.909440
_cell_length_b 17.591384
_cell_length_c 13.121461
_cell_angle_alpha 90.000000
_cell_angle_beta 90.000000
_cell_angle_gamma 90.000000
_cell_volume 3441.466405
_symmetry_space_group_name_H-M "I M A 2"
_symmetry_group_IT_number 46
_symmetry_cell_setting 'orthorhombic'
loop_
_space_group_symop_operation_xyz
x,y,z
-x,-y,z
1/2-x,y,z
1/2+x,-y,z
1/2+x,1/2+y,1/2+z
1/2-x,1/2-y,1/2+z
-x,1/2+y,1/2+z
x,1/2-y,1/2+z
loop_
_atom_site_type_symbol
_atom_site_label
_atom_site_fract_x
_atom_site_fract_y
_atom_site_fract_z
Si Si1 0.349955 0.405372 0.177340
Si Si2 0.858190 0.059960 0.299565
Si Si3 0.054252 0.818873 0.973719
Si Si4 0.143747 0.951907 0.526475
Si Si5 0.474009 0.683701 0.119510
Si Si6 0.925490 0.939131 0.887497
Si Si7 0.142492 0.534901 0.576470
Si Si8 0.355059 0.738602 0.792314
O O1 0.250000 0.374863 0.157545
O O2 0.363963 0.477401 0.102921
O O3 0.431288 0.348414 0.156800
O O4 0.357141 0.430916 0.295139
O O5 0.750000 0.055639 0.297270
O O6 0.884386 0.028287 0.410285
O O7 0.888198 0.021991 0.193373
O O8 0.881282 0.149736 0.297287
O O9 0.013466 0.753047 0.042294
O O10 0.101553 0.884938 0.039363
O O11 0.125734 0.779263 0.899452
O O12 0.977294 0.861317 0.909967
O O13 0.250000 0.929532 0.524571
O O14 0.082813 0.883526 0.566766
O O15 0.413973 0.717020 0.210442
O O16 0.000000 0.000000 0.851826
O O17 0.887843 0.972690 0.993531
O O18 0.250000 0.539756 0.574387
O O19 0.250000 0.742456 0.766285
#
# Coordination Sequence:
#
# PCOD9379483 Si02
#       8
#     8   8   8   8   8   8   8   8
#     4  11  24  42  61  83 116 161 209 252 290 339
#     4   9  18  34  55  87 125 153 182 229 302 373
#     4  11  22  36  58  88 122 153 195 240 298 360
#     4  10  21  36  59  90 122 158 196 243 301 361
#     4  12  22  38  61  89 122 154 198 245 300 357
#     4  10  21  39  59  86 117 153 200 247 295 350
#     4  10  20  35  58  88 122 158 192 241 298 355
#     4  11  21  34  57  92 128 154 184 238 307 370
#
# _framework density 18.596723000000001
#
# number of rings (size 3 to 8) (size 9 to 14) (size 15 to 20)
#    0.000    1.500    3.750    2.250    1.750    1.000 
#    0.000    6.250    0.000    0.000    0.000    0.000 
#    0.000    0.000    0.000    0.000    0.000    0.000 
#
# Total GULP energy -178636.091004 kJ/mol
# GULP energy per Si atom -5582.377844 kJ/mol
# Density = 1.855440 g / cm^3
# Si number density = 18.596723 Si / 1000 Ang^3
#
#
#
# Elastic Constant Matrix: (Units=GPa)
#
#
# Indices 1 2 3 4 5 6 
#
# 1 89.4252 41.4798 45.6426 0.0000 0.0000 0.0000
# 2 41.4798 59.4029 30.2702 0.0000 0.0000 0.0000
# 3 45.6426 30.2702 92.2660 0.0000 0.0000 0.0000
# 4 0.0000 0.0000 0.0000 16.0419 0.0000 0.0000
# 5 0.0000 0.0000 0.0000 0.0000 11.0681 0.0000
# 6 0.0000 0.0000 0.0000 0.0000 0.0000 18.1264
#
#
#
# Elastic Compliance Matrix: (Units=1/GPa)
#
#
# Indices 1 2 3 4 5 6 
#
# 1 0.018995 -0.010177 -0.006058 0.000000 0.000000 0.000000
# 2 -0.010177 0.025666 -0.003386 0.000000 0.000000 0.000000
# 3 -0.006058 -0.003386 0.014946 0.000000 0.000000 0.000000
# 4 0.000000 0.000000 0.000000 0.062337 0.000000 0.000000
# 5 0.000000 0.000000 0.000000 0.000000 0.090350 0.000000
# 6 0.000000 0.000000 0.000000 0.000000 0.000000 0.055168
#
#
# Mechanical properties :
#
#
# Convention : Reuss Voigt Hill
#
# Bulk Modulus (GPa) = 49.10292 52.87545 50.98919
# Shear Modulus (GPa) = 15.94942 17.29404 16.62173
#
# Velocity S-wave (km/s) = 2.93174 3.05282 2.99289
# Velocity P-wave (km/s) = 6.15804 6.39693 6.27862
#
# Compressibility (1/GPa) = 0.02036539
#
# Stress axis : x y z
#
# Youngs Moduli (GPa) = 52.64560 38.96218 66.90865
#
# Poissons Ratio (x) = 0.39651 0.40531
# Poissons Ratio (y) = 0.53577 0.22655
# Poissons Ratio (z) = 0.31891 0.13193
#
# Static dielectric constant tensor:
#      x y z
#    x 1.636920 0.000000 0.000000 
#    y 0.000000 1.605310 0.000000 
#    z 0.000000 0.000000 1.688190 
# 
# From -- ./inp_files/11311.got.cif
#   From: 2010.05.17/outbox.cif.g08.bks.cpg/sg46_6_cif.got.tgz:11311.got - 2010.06.03 19:58:25.
