data_PCOD9379582
_publ_section_title
;
Structure prediction by ZEFSAII (Michael W. Deem and Ramdas Pophale) SiO2 
 PCOD9379582
Probable space group: I M A 2
;
_chemical_formula_sum "Si O2"
_cell_formula_units_Z 40
_cell_length_a 11.107430
_cell_length_b 11.351207
_cell_length_c 14.557493
_cell_angle_alpha 90.000000
_cell_angle_beta 90.000000
_cell_angle_gamma 90.000000
_cell_volume 1835.448564
_symmetry_space_group_name_H-M "I M A 2"
_symmetry_group_IT_number 46
_symmetry_cell_setting 'orthorhombic'
loop_
_space_group_symop_operation_xyz
x,y,z
-x,-y,z
1/2-x,y,z
1/2+x,-y,z
1/2+x,1/2+y,1/2+z
1/2-x,1/2-y,1/2+z
-x,1/2+y,1/2+z
x,1/2-y,1/2+z
loop_
_atom_site_type_symbol
_atom_site_label
_atom_site_fract_x
_atom_site_fract_y
_atom_site_fract_z
Si Si1 0.000000 0.500000 0.288270
Si Si2 0.750000 0.244793 0.889705
Si Si3 0.750000 0.215445 0.098811
Si Si4 0.880059 0.921753 0.279175
Si Si5 0.013233 0.241938 0.905191
Si Si6 0.991347 0.635968 0.599503
Si Si7 0.250000 0.569327 0.214714
O O1 0.006281 0.383035 0.351670
O O2 0.123152 0.503335 0.228885
O O3 0.618729 0.302326 0.892830
O O4 0.750000 0.161721 0.800686
O O5 0.750000 0.181185 0.990641
O O6 0.624378 0.168006 0.137198
O O7 0.750000 0.354065 0.121686
O O8 0.750000 0.981647 0.282330
O O9 0.891075 0.825761 0.358657
O O10 0.896372 0.856807 0.180992
O O11 0.000000 0.000000 0.283013
O O12 0.034409 0.215574 0.011745
O O13 0.000000 0.500000 0.568869
#
# Coordination Sequence:
#
# PCOD9379582 Si02
#       7
#     4   4   4   8   8   8   4
#     4  10  20  36  60 102 126 162 202 264 334 376
#     4   8  18  34  64  91 120 171 210 252 313 397
#     4  10  20  38  62  95 128 175 205 259 336 393
#     4  11  27  44  66  95 131 180 222 271 327 396
#     4  10  20  40  67  99 131 163 217 274 331 383
#     4  10  21  38  69  97 128 166 223 273 320 383
#     4  10  20  36  62  92 132 166 205 265 323 392
#
# _framework density 21.793039
#
# number of rings (size 3 to 8) (size 9 to 14) (size 15 to 20)
#    0.000    2.000    1.000    2.400    8.400    0.800 
#    0.000    0.000   19.800    0.000    0.000    0.000 
#    0.000    0.000    0.000    0.000    0.000    0.000 
#
# Total GULP energy -111560.801679 kJ/mol
# GULP energy per Si atom -5578.040084 kJ/mol
# Density = 2.174344 g / cm^3
# Si number density = 21.793039 Si / 1000 Ang^3
#
#
#
# Elastic Constant Matrix: (Units=GPa)
#
#
# Indices 1 2 3 4 5 6 
#
# 1 159.7042 38.6788 35.4700 0.0000 0.0000 0.0000
# 2 38.6788 32.1120 37.2973 0.0000 0.0000 0.0000
# 3 35.4700 37.2973 89.7381 0.0000 0.0000 0.0000
# 4 0.0000 0.0000 0.0000 29.6921 0.0000 0.0000
# 5 0.0000 0.0000 0.0000 0.0000 -8.3688 0.0000
# 6 0.0000 0.0000 0.0000 0.0000 0.0000 33.1362
#
#
#
# Elastic Compliance Matrix: (Units=1/GPa)
#
#
# Indices 1 2 3 4 5 6 
#
# 1 0.008994 -0.012960 0.001832 0.000000 0.000000 0.000000
# 2 -0.012960 0.078880 -0.027662 0.000000 0.000000 0.000000
# 3 0.001832 -0.027662 0.021916 0.000000 0.000000 0.000000
# 4 0.000000 0.000000 0.000000 0.033679 0.000000 0.000000
# 5 0.000000 0.000000 0.000000 0.000000 -0.119492 0.000000
# 6 0.000000 0.000000 0.000000 0.000000 0.000000 0.030178
#
#
# Mechanical properties :
#
#
# Convention : Reuss Voigt Hill
#
# Bulk Modulus (GPa) = 31.04678 56.04961 43.54820
# Shear Modulus (GPa) = 35.09475 22.23247 28.66361
#
# Velocity S-wave (km/s) = 4.01729 3.19747 3.63059
# Velocity P-wave (km/s) = 5.98291 6.27747 6.13196
#
# Compressibility (1/GPa) = 0.03220945
#
# Stress axis : x y z
#
# Youngs Moduli (GPa) = 111.19026 12.67754 45.62814
#
# Poissons Ratio (x) = 0.16430 -0.08358
# Poissons Ratio (y) = 1.44106 1.26214
# Poissons Ratio (z) = -0.20368 0.35068
#
# Static dielectric constant tensor:
#      x y z
#    x 1.823000 0.000000 0.000000 
#    y 0.000000 1.834070 0.000000 
#    z 0.000000 0.000000 1.797870 
# 
# From -- ./inp_files/15062.got.cif
#   From: 2010.05.17/outbox.cif.g08.bks.cpg/sg46_8_cif.got.tgz:15062.got - 2010.06.03 19:58:25.
