data_PCOD9379093
_publ_section_title
;
Structure prediction by ZEFSAII (Michael W. Deem and Ramdas Pophale) SiO2 
 PCOD9379093
Probable space group: I M A 2
;
_chemical_formula_sum "Si O2"
_cell_formula_units_Z 64
_cell_length_a 15.351119
_cell_length_b 15.119132
_cell_length_c 12.442456
_cell_angle_alpha 90.000000
_cell_angle_beta 90.000000
_cell_angle_gamma 90.000000
_cell_volume 2887.839222
_symmetry_space_group_name_H-M "I M A 2"
_symmetry_group_IT_number 46
_symmetry_cell_setting 'orthorhombic'
loop_
_space_group_symop_operation_xyz
x,y,z
-x,-y,z
1/2-x,y,z
1/2+x,-y,z
1/2+x,1/2+y,1/2+z
1/2-x,1/2-y,1/2+z
-x,1/2+y,1/2+z
x,1/2-y,1/2+z
loop_
_atom_site_type_symbol
_atom_site_label
_atom_site_fract_x
_atom_site_fract_y
_atom_site_fract_z
Si Si1 0.644226 0.583789 0.403840
Si Si2 0.144663 0.120587 0.148124
Si Si3 0.147825 0.056916 0.542092
Si Si4 0.652993 0.113719 0.880606
Si Si5 0.351156 0.697928 0.916737
Si Si6 0.606523 0.118653 0.643436
Si Si7 0.419361 0.192259 0.697987
Si Si8 0.355935 0.519970 0.815766
O O1 0.750000 0.581846 0.390115
O O2 0.624299 0.619959 0.521980
O O3 0.612223 0.481887 0.400525
O O4 0.607180 0.641228 0.306440
O O5 0.250000 0.127624 0.159314
O O6 0.101460 0.204795 0.204054
O O7 0.117477 0.029994 0.207983
O O8 0.250000 0.034363 0.549398
O O9 0.133612 0.150767 0.596957
O O10 0.097584 0.984214 0.612449
O O11 0.121386 0.041721 0.418649
O O12 0.750000 0.110647 0.931366
O O13 0.607389 0.204769 0.915455
O O14 0.659592 0.122243 0.752498
O O15 0.250000 0.710215 0.883584
O O16 0.388443 0.619176 0.842177
O O17 0.353035 0.661587 0.037449
O O18 0.517746 0.168510 0.669435
O O19 0.250000 0.526247 0.814394
#
# Coordination Sequence:
#
# PCOD9379093 Si02
#       8
#     8   8   8   8   8   8   8   8
#     4  10  22  39  61  90 121 158 209 257 305 366
#     4  10  22  39  60  89 124 165 205 251 306 366
#     4  10  19  36  62  88 113 151 204 258 302 357
#     4  10  20  37  63  89 117 155 202 257 308 363
#     4   9  19  37  64  94 119 155 204 257 311 368
#     4  11  22  37  57  88 121 156 198 255 312 362
#     4  12  24  36  57  88 123 165 204 246 308 367
#     4   8  17  35  60  89 118 146 194 254 306 353
#
# _framework density 22.161898000000001
#
# number of rings (size 3 to 8) (size 9 to 14) (size 15 to 20)
#    0.000    2.000    1.250    3.375    1.750    2.000 
#    0.000    3.750    0.000    1.500    0.000    0.000 
#    0.000    0.000    0.000    0.000    0.000    0.000 
#
# Total GULP energy -178677.594552 kJ/mol
# GULP energy per Si atom -5583.674830 kJ/mol
# Density = 2.211146 g / cm^3
# Si number density = 22.161898 Si / 1000 Ang^3
#
#
#
# Elastic Constant Matrix: (Units=GPa)
#
#
# Indices 1 2 3 4 5 6 
#
# 1 51.9288 13.7286 11.0870 0.0000 0.0000 0.0000
# 2 13.7286 137.1223 33.2128 0.0000 0.0000 0.0000
# 3 11.0870 33.2128 60.6880 0.0000 0.0000 0.0000
# 4 0.0000 0.0000 0.0000 21.0359 0.0000 0.0000
# 5 0.0000 0.0000 0.0000 0.0000 -27.3130 0.0000
# 6 0.0000 0.0000 0.0000 0.0000 0.0000 -28.0570
#
#
#
# Elastic Compliance Matrix: (Units=1/GPa)
#
#
# Indices 1 2 3 4 5 6 
#
# 1 0.020239 -0.001304 -0.002984 0.000000 0.000000 0.000000
# 2 -0.001304 0.008491 -0.004409 0.000000 0.000000 0.000000
# 3 -0.002984 -0.004409 0.019436 0.000000 0.000000 0.000000
# 4 0.000000 0.000000 0.000000 0.047538 0.000000 0.000000
# 5 0.000000 0.000000 0.000000 0.000000 -0.036613 0.000000
# 6 0.000000 0.000000 0.000000 0.000000 0.000000 -0.035642
#
#
# Mechanical properties :
#
#
# Convention : Reuss Voigt Hill
#
# Bulk Modulus (GPa) = 32.49609 40.64399 36.57004
# Shear Modulus (GPa) = 97.84834 5.91390 51.88112
#
# Velocity S-wave (km/s) = 6.65188 1.63533 4.84364
# Velocity P-wave (km/s) = 8.58437 4.68456 6.91508
#
# Compressibility (1/GPa) = 0.03077293
#
# Stress axis : x y z
#
# Youngs Moduli (GPa) = 49.40994 117.76987 51.45170
#
# Poissons Ratio (x) = 0.15352 0.15353
# Poissons Ratio (y) = 0.06441 0.22684
# Poissons Ratio (z) = 0.14744 0.51923
#
# Static dielectric constant tensor:
#      x y z
#    x 1.854260 0.000000 0.000000 
#    y 0.000000 1.836210 0.000000 
#    z 0.000000 0.000000 1.771100 
# 
# From -- ./inp_files/11983.got.cif
#   From: 2010.05.17/outbox.cif.g08.bks.cpg/sg46_6_cif.got.tgz:11983.got - 2010.06.03 19:58:25.
