data_PCOD9379246
_publ_section_title
;
Structure prediction by ZEFSAII (Michael W. Deem and Ramdas Pophale) SiO2 
 PCOD9379246
Probable space group: I M A 2
;
_chemical_formula_sum "Si O2"
_cell_formula_units_Z 64
_cell_length_a 7.771120
_cell_length_b 21.172328
_cell_length_c 20.592622
_cell_angle_alpha 90.000000
_cell_angle_beta 90.000000
_cell_angle_gamma 90.000000
_cell_volume 3388.159730
_symmetry_space_group_name_H-M "I M A 2"
_symmetry_group_IT_number 46
_symmetry_cell_setting 'orthorhombic'
loop_
_space_group_symop_operation_xyz
x,y,z
-x,-y,z
1/2-x,y,z
1/2+x,-y,z
1/2+x,1/2+y,1/2+z
1/2-x,1/2-y,1/2+z
-x,1/2+y,1/2+z
x,1/2-y,1/2+z
loop_
_atom_site_type_symbol
_atom_site_label
_atom_site_fract_x
_atom_site_fract_y
_atom_site_fract_z
Si Si1 0.960405 0.266818 0.708320
Si Si2 0.043343 0.570061 0.072893
Si Si3 0.051856 0.726076 0.850372
Si Si4 0.539742 0.186041 0.071308
Si Si5 0.538722 0.189884 0.490061
Si Si6 0.553871 0.632363 0.350368
Si Si7 0.542683 0.119438 0.709094
Si Si8 0.045051 0.928919 0.983115
O O1 0.750000 0.267995 0.709896
O O2 0.023984 0.287856 0.779294
O O3 0.016886 0.305851 0.645685
O O4 0.007073 0.193064 0.699623
O O5 0.250000 0.575797 0.075291
O O6 0.979067 0.581154 0.146706
O O7 0.000000 0.500000 0.050363
O O8 0.982004 0.626473 0.026449
O O9 0.250000 0.704799 0.848261
O O10 0.976142 0.697578 0.916164
O O11 0.052031 0.802565 0.856484
O O12 0.750000 0.185312 0.071940
O O13 0.488355 0.248296 0.031055
O O14 0.480298 0.123742 0.033711
O O15 0.750000 0.190187 0.488959
O O16 0.750000 0.653608 0.351077
O O17 0.517945 0.600734 0.280794
O O18 0.521767 0.587850 0.411394
O O19 0.750000 0.116884 0.710059
O O20 0.250000 0.923009 0.980265
O O21 0.000000 0.000000 0.001547
#
# Coordination Sequence:
#
# PCOD9379246 Si02
#       8
#     8   8   8   8   8   8   8   8
#     4   8  13  24  47  77  98 118 158 210 250 286
#     4  10  20  33  51  73 102 135 170 210 250 294
#     4   9  16  29  52  77 100 128 169 211 249 290
#     4   9  15  27  51  77  97 121 163 211 251 288
#     4   9  15  28  51  77  98 127 169 211 247 289
#     4  11  21  32  48  73 105 135 165 201 246 301
#     4   9  17  31  50  70  96 134 173 206 241 289
#     4  11  22  36  53  72  99 133 169 209 251 297
#
# _framework density 18.889309000000001
#
# number of rings (size 3 to 8) (size 9 to 14) (size 15 to 20)
#    0.000    2.500    2.500    2.250    0.000    1.000 
#    0.000    1.875    0.000    6.750    0.000    0.000 
#    0.000    0.000    0.000    0.000    0.000    0.000 
#
# Total GULP energy -178492.795407 kJ/mol
# GULP energy per Si atom -5577.899856 kJ/mol
# Density = 1.884632 g / cm^3
# Si number density = 18.889309 Si / 1000 Ang^3
#
#
#
# Elastic Constant Matrix: (Units=GPa)
#
#
# Indices 1 2 3 4 5 6 
#
# 1 31.9559 -1.4268 6.6970 0.0000 0.0000 0.0000
# 2 -1.4268 116.7400 84.8580 0.0000 0.0000 0.0000
# 3 6.6970 84.8580 164.8789 0.0000 0.0000 0.0000
# 4 0.0000 0.0000 0.0000 33.3061 0.0000 0.0000
# 5 0.0000 0.0000 0.0000 0.0000 -9.0262 0.0000
# 6 0.0000 0.0000 0.0000 0.0000 0.0000 12.2222
#
#
#
# Elastic Compliance Matrix: (Units=1/GPa)
#
#
# Indices 1 2 3 4 5 6 
#
# 1 0.031889 0.002127 -0.002390 0.000000 0.000000 0.000000
# 2 0.002127 0.013828 -0.007203 0.000000 0.000000 0.000000
# 3 -0.002390 -0.007203 0.009869 0.000000 0.000000 0.000000
# 4 0.000000 0.000000 0.000000 0.030025 0.000000 0.000000
# 5 0.000000 0.000000 0.000000 0.000000 -0.110788 0.000000
# 6 0.000000 0.000000 0.000000 0.000000 0.000000 0.081819
#
#
# Mechanical properties :
#
#
# Convention : Reuss Voigt Hill
#
# Bulk Modulus (GPa) = 24.59784 54.87013 39.73399
# Shear Modulus (GPa) = 58.73721 22.19685 40.46703
#
# Velocity S-wave (km/s) = 5.58238 3.43169 4.63355
# Velocity P-wave (km/s) = 7.38925 6.69428 7.05033
#
# Compressibility (1/GPa) = 0.04065398
#
# Stress axis : x y z
#
# Youngs Moduli (GPa) = 31.35884 72.31666 101.32298
#
# Poissons Ratio (x) = -0.15382 0.24216
# Poissons Ratio (y) = -0.06670 0.72986
# Poissons Ratio (z) = 0.07495 0.52092
#
# Static dielectric constant tensor:
#      x y z
#    x 1.704020 0.000000 0.000000 
#    y 0.000000 1.603440 0.000000 
#    z 0.000000 0.000000 1.682170 
# 
# From -- ./inp_files/21295.got.cif
#   From: 2010.05.17/outbox.cif.g08.bks.cpg/sg46_11_cif.got.tgz:21295.got - 2010.06.03 19:58:25.
