data_PCOD9379245
_publ_section_title
;
Structure prediction by ZEFSAII (Michael W. Deem and Ramdas Pophale) SiO2 
 PCOD9379245
Probable space group: I M A 2
;
_chemical_formula_sum "Si O2"
_cell_formula_units_Z 64
_cell_length_a 8.036321
_cell_length_b 25.770770
_cell_length_c 15.554955
_cell_angle_alpha 90.000000
_cell_angle_beta 90.000000
_cell_angle_gamma 90.000000
_cell_volume 3221.465092
_symmetry_space_group_name_H-M "I M A 2"
_symmetry_group_IT_number 46
_symmetry_cell_setting 'orthorhombic'
loop_
_space_group_symop_operation_xyz
x,y,z
-x,-y,z
1/2-x,y,z
1/2+x,-y,z
1/2+x,1/2+y,1/2+z
1/2-x,1/2-y,1/2+z
-x,1/2+y,1/2+z
x,1/2-y,1/2+z
loop_
_atom_site_type_symbol
_atom_site_label
_atom_site_fract_x
_atom_site_fract_y
_atom_site_fract_z
Si Si1 0.051461 0.440218 0.175740
Si Si2 0.448183 0.610924 0.355315
Si Si3 0.046173 0.134807 0.525599
Si Si4 0.553734 0.224195 0.829458
Si Si5 0.451603 0.265867 0.133390
Si Si6 0.953735 0.649959 0.649643
Si Si7 0.053756 0.339112 0.843703
Si Si8 0.552663 0.941738 0.028422
O O1 0.250000 0.437707 0.173923
O O2 0.988794 0.409284 0.091762
O O3 0.000000 0.500000 0.176332
O O4 0.996297 0.411728 0.262820
O O5 0.250000 0.614191 0.357898
O O6 0.513053 0.669916 0.366725
O O7 0.505273 0.573956 0.431753
O O8 0.250000 0.133561 0.523740
O O9 0.998694 0.190460 0.565825
O O10 0.985594 0.131927 0.427546
O O11 0.750000 0.229031 0.847117
O O12 0.525577 0.220908 0.726657
O O13 0.467616 0.277336 0.857956
O O14 0.250000 0.267437 0.141772
O O15 0.499868 0.206636 0.112780
O O16 0.750000 0.648853 0.650984
O O17 0.013581 0.648217 0.748790
O O18 0.015442 0.602314 0.592726
O O19 0.250000 0.350139 0.839553
O O20 0.750000 0.939698 0.034691
O O21 0.500000 0.000000 0.048897
#
# Coordination Sequence:
#
# PCOD9379245 Si02
#       8
#     8   8   8   8   8   8   8   8
#     4  11  22  38  58  82 112 148 187 227 273 325
#     4  11  23  38  55  80 113 148 184 224 274 333
#     4   9  18  32  57  86 110 142 188 230 266 316
#     4  10  20  33  50  80 117 148 178 216 274 332
#     4   9  16  32  55  81 108 140 184 224 264 320
#     4   8  17  33  56  82 108 138 181 230 275 320
#     4   9  18  35  59  83 111 146 186 230 267 320
#     4  11  23  39  58  80 107 143 187 234 279 326
#
# _framework density 19.866737000000001
#
# number of rings (size 3 to 8) (size 9 to 14) (size 15 to 20)
#    0.000    2.250    1.250    2.625    1.750    1.500 
#    0.000    7.500    0.000    0.000    0.000    0.000 
#    0.000    0.000    0.000    0.000    0.000    0.000 
#
# Total GULP energy -178611.344968 kJ/mol
# GULP energy per Si atom -5581.604530 kJ/mol
# Density = 1.982152 g / cm^3
# Si number density = 19.866737 Si / 1000 Ang^3
#
#
#
# Elastic Constant Matrix: (Units=GPa)
#
#
# Indices 1 2 3 4 5 6 
#
# 1 18.8292 2.0140 0.0469 0.0000 0.0000 0.0000
# 2 2.0140 110.8675 45.4098 0.0000 0.0000 0.0000
# 3 0.0469 45.4098 69.0550 0.0000 0.0000 0.0000
# 4 0.0000 0.0000 0.0000 30.9794 0.0000 0.0000
# 5 0.0000 0.0000 0.0000 0.0000 3.9342 0.0000
# 6 0.0000 0.0000 0.0000 0.0000 0.0000 20.5588
#
#
#
# Elastic Compliance Matrix: (Units=1/GPa)
#
#
# Indices 1 2 3 4 5 6 
#
# 1 0.053246 -0.001304 0.000821 0.000000 0.000000 0.000000
# 2 -0.001304 0.012377 -0.008138 0.000000 0.000000 0.000000
# 3 0.000821 -0.008138 0.019832 0.000000 0.000000 0.000000
# 4 0.000000 0.000000 0.000000 0.032279 0.000000 0.000000
# 5 0.000000 0.000000 0.000000 0.000000 0.254184 0.000000
# 6 0.000000 0.000000 0.000000 0.000000 0.000000 0.048641
#
#
# Mechanical properties :
#
#
# Convention : Reuss Voigt Hill
#
# Bulk Modulus (GPa) = 14.65969 32.63257 23.64613
# Shear Modulus (GPa) = 10.85686 21.17986 16.01836
#
# Velocity S-wave (km/s) = 2.34024 3.26866 2.84261
# Velocity P-wave (km/s) = 3.83371 5.54138 4.76467
#
# Compressibility (1/GPa) = 0.06821427
#
# Stress axis : x y z
#
# Youngs Moduli (GPa) = 18.78061 80.79768 50.42357
#
# Poissons Ratio (x) = 0.10532 -0.04140
# Poissons Ratio (y) = 0.02448 0.41034
# Poissons Ratio (z) = -0.01542 0.65752
#
# Static dielectric constant tensor:
#      x y z
#    x 1.696480 0.000000 0.000000 
#    y 0.000000 1.718090 0.000000 
#    z 0.000000 0.000000 1.725900 
# 
# From -- ./inp_files/14433.got.cif
#   From: 2010.05.17/outbox.cif.g08.bks.cpg/sg46_8_cif.got.tgz:14433.got - 2010.06.03 19:58:25.
