data_PCOD9379724
_publ_section_title
;
Structure prediction by ZEFSAII (Michael W. Deem and Ramdas Pophale) SiO2 
 PCOD9379724
Probable space group: I M A 2
;
_chemical_formula_sum "Si O2"
_cell_formula_units_Z 40
_cell_length_a 8.113155
_cell_length_b 19.077063
_cell_length_c 10.961746
_cell_angle_alpha 90.000000
_cell_angle_beta 90.000000
_cell_angle_gamma 90.000000
_cell_volume 1696.606090
_symmetry_space_group_name_H-M "I M A 2"
_symmetry_group_IT_number 46
_symmetry_cell_setting 'orthorhombic'
loop_
_space_group_symop_operation_xyz
x,y,z
-x,-y,z
1/2-x,y,z
1/2+x,-y,z
1/2+x,1/2+y,1/2+z
1/2-x,1/2-y,1/2+z
-x,1/2+y,1/2+z
x,1/2-y,1/2+z
loop_
_atom_site_type_symbol
_atom_site_label
_atom_site_fract_x
_atom_site_fract_y
_atom_site_fract_z
Si Si1 0.551413 0.918563 0.125000
Si Si2 0.941759 0.714629 0.233852
Si Si3 0.437921 0.778208 0.480119
Si Si4 0.949465 0.580131 0.357464
Si Si5 0.551704 0.580701 0.896617
O O1 0.750000 0.911117 0.125404
O O2 0.495697 0.896299 0.259308
O O3 0.500000 0.000000 0.122830
O O4 0.492018 0.894405 0.992096
O O5 0.750000 0.711370 0.200770
O O6 0.008343 0.636438 0.259974
O O7 0.956423 0.750601 0.366139
O O8 0.024585 0.749186 0.116138
O O9 0.250000 0.764544 0.448502
O O10 0.474293 0.861587 0.483919
O O11 0.750000 0.582308 0.357985
O O12 0.000000 0.500000 0.336998
O O13 0.500000 0.500000 0.916791
O O14 0.750000 0.584089 0.903198
#
# Coordination Sequence:
#
# PCOD9379724 Si02
#       5
#     8   8   8   8   8
#     4   8  15  29  52  87 124 160 202 252 311 376
#     4  11  25  46  70  96 131 179 227 273 335 406
#     4  12  27  46  67  98 135 175 224 280 341 405
#     4   9  19  36  62  95 128 166 213 265 323 387
#     4  10  20  37  64  96 132 174 221 274 333 398
#
# _framework density 23.576478999999999
#
# number of rings (size 3 to 8) (size 9 to 14) (size 15 to 20)
#    0.000    2.000    0.000    3.000    2.800    3.200 
#    0.000    2.000    0.000    0.000    0.000    0.000 
#    0.000    0.000    0.000    0.000    0.000    0.000 
#
# Total GULP energy -111694.187767 kJ/mol
# GULP energy per Si atom -5584.709388 kJ/mol
# Density = 2.352282 g / cm^3
# Si number density = 23.576479 Si / 1000 Ang^3
#
#
#
# Elastic Constant Matrix: (Units=GPa)
#
#
# Indices 1 2 3 4 5 6 
#
# 1 32.7024 -14.6937 -7.7288 0.0000 0.0000 0.0000
# 2 -14.6937 84.5061 30.1740 0.0002 -0.0001 0.0000
# 3 -7.7288 30.1740 125.3913 0.0002 -0.0001 0.0000
# 4 0.0000 0.0002 0.0002 42.3245 -0.0001 0.0000
# 5 0.0000 -0.0001 -0.0001 -0.0001 19.6583 0.0000
# 6 0.0000 0.0000 0.0000 0.0000 0.0000 24.5006
#
#
#
# Elastic Compliance Matrix: (Units=1/GPa)
#
#
# Indices 1 2 3 4 5 6 
#
# 1 0.033230 0.005521 0.000720 0.000000 0.000000 0.000000
# 2 0.005521 0.013863 -0.002996 0.000000 0.000000 0.000000
# 3 0.000720 -0.002996 0.008740 0.000000 0.000000 0.000000
# 4 0.000000 0.000000 0.000000 0.023627 0.000000 0.000000
# 5 0.000000 0.000000 0.000000 0.000000 0.050869 0.000000
# 6 0.000000 0.000000 0.000000 0.000000 0.000000 0.040815
#
#
# Mechanical properties :
#
#
# Convention : Reuss Voigt Hill
#
# Bulk Modulus (GPa) = 16.04556 28.67809 22.36183
# Shear Modulus (GPa) = 26.96455 32.95324 29.95890
#
# Velocity S-wave (km/s) = 3.38554 3.74266 3.56857
# Velocity P-wave (km/s) = 4.70139 5.55580 5.14636
#
# Compressibility (1/GPa) = 0.06232254
#
# Stress axis : x y z
#
# Youngs Moduli (GPa) = 30.09373 72.13410 114.41294
#
# Poissons Ratio (x) = -0.39825 -0.08234
# Poissons Ratio (y) = -0.16614 0.34275
# Poissons Ratio (z) = -0.02166 0.21609
#
# Static dielectric constant tensor:
#      x y z
#    x 1.874320 0.000000 0.000000 
#    y 0.000000 1.920090 0.000000 
#    z 0.000000 0.000000 1.925540 
# 
# From -- ./inp_files/9163.got.cif
#   From: 2010.05.17/outbox.cif.g08.bks.cpg/sg46_5_cif.got.tgz:9163.got - 2010.06.03 19:58:25.
