data_PCOD9379316
_publ_section_title
;
Structure prediction by ZEFSAII (Michael W. Deem and Ramdas Pophale) SiO2 
 PCOD9379316
Probable space group: I M A 2
;
_chemical_formula_sum "Si O2"
_cell_formula_units_Z 64
_cell_length_a 9.332768
_cell_length_b 28.115912
_cell_length_c 12.720637
_cell_angle_alpha 90.000000
_cell_angle_beta 90.000000
_cell_angle_gamma 90.000000
_cell_volume 3337.886038
_symmetry_space_group_name_H-M "I M A 2"
_symmetry_group_IT_number 46
_symmetry_cell_setting 'orthorhombic'
loop_
_space_group_symop_operation_xyz
x,y,z
-x,-y,z
1/2-x,y,z
1/2+x,-y,z
1/2+x,1/2+y,1/2+z
1/2-x,1/2-y,1/2+z
-x,1/2+y,1/2+z
x,1/2-y,1/2+z
loop_
_atom_site_type_symbol
_atom_site_label
_atom_site_fract_x
_atom_site_fract_y
_atom_site_fract_z
Si Si1 0.079924 0.913686 0.555640
Si Si2 0.079758 0.378783 0.663493
Si Si3 0.420795 0.212057 0.038720
Si Si4 0.077586 0.550312 0.820446
Si Si5 0.410762 0.319707 0.302839
Si Si6 0.587520 0.567775 0.258214
Si Si7 0.579937 0.195499 0.601164
Si Si8 0.918978 0.543815 0.487177
O O1 0.250000 0.916049 0.573687
O O2 0.049433 0.936125 0.442418
O O3 0.039886 0.857387 0.559729
O O4 0.001238 0.939035 0.652595
O O5 0.250000 0.378950 0.691074
O O6 0.036246 0.325359 0.630252
O O7 0.064350 0.409450 0.556587
O O8 0.988769 0.407257 0.749768
O O9 0.250000 0.219157 0.049473
O O10 0.501732 0.261769 0.042728
O O11 0.444859 0.189351 0.923971
O O12 0.250000 0.546657 0.804824
O O13 0.000000 0.500000 0.797590
O O14 0.250000 0.300176 0.281765
O O15 0.404581 0.375734 0.279634
O O16 0.525553 0.300223 0.221155
O O17 0.750000 0.549888 0.244356
O O18 0.525231 0.549575 0.368357
O O19 0.750000 0.199966 0.593997
O O20 0.750000 0.534064 0.481213
O O21 0.000000 0.500000 0.538976
#
# Coordination Sequence:
#
# PCOD9379316 Si02
#       8
#     8   8   8   8   8   8   8   8
#     4   9  21  40  58  79 114 153 191 239 293 346
#     4  10  21  39  60  83 115 151 193 242 292 346
#     4  10  20  36  59  85 114 152 197 244 293 350
#     4  11  24  42  62  85 117 159 204 251 302 355
#     4   9  17  34  57  78 106 145 186 233 285 340
#     4   9  17  33  57  81 106 140 181 227 282 337
#     4  10  21  36  55  84 118 153 192 241 298 354
#     4  10  20  34  53  81 113 143 175 223 279 334
#
# _framework density 19.173812000000002
#
# number of rings (size 3 to 8) (size 9 to 14) (size 15 to 20)
#    0.000    2.250    1.250    1.125    0.000    6.000 
#    0.000    5.000    0.000    0.000    0.000    0.000 
#    0.000    0.000    0.000    0.000    0.000    0.000 
#
# Total GULP energy -178488.358641 kJ/mol
# GULP energy per Si atom -5577.761208 kJ/mol
# Density = 1.913017 g / cm^3
# Si number density = 19.173812 Si / 1000 Ang^3
#
#
#
# Elastic Constant Matrix: (Units=GPa)
#
#
# Indices 1 2 3 4 5 6 
#
# 1 32.6779 24.5279 35.7382 -0.0001 0.0000 -0.0001
# 2 24.5279 52.5336 12.1170 0.0000 0.0003 0.0000
# 3 35.7382 12.1170 90.3333 -0.0002 -0.0001 -0.0008
# 4 -0.0001 0.0000 -0.0002 11.5814 0.0000 0.0002
# 5 0.0000 0.0003 -0.0001 0.0000 20.7149 0.0003
# 6 -0.0001 0.0000 -0.0008 0.0002 0.0003 16.1222
#
#
#
# Elastic Compliance Matrix: (Units=1/GPa)
#
#
# Indices 1 2 3 4 5 6 
#
# 1 0.091834 -0.035598 -0.031557 0.000000 0.000000 -0.000001
# 2 -0.035598 0.033443 0.009598 0.000000 0.000000 0.000000
# 3 -0.031557 0.009598 0.022267 0.000000 0.000000 0.000001
# 4 0.000000 0.000000 0.000000 0.086345 0.000000 -0.000001
# 5 0.000000 0.000000 0.000000 0.000000 0.048274 -0.000001
# 6 -0.000001 0.000000 0.000001 -0.000001 -0.000001 0.062026
#
#
# Mechanical properties :
#
#
# Convention : Reuss Voigt Hill
#
# Bulk Modulus (GPa) = 30.83668 35.59010 33.21339
# Shear Modulus (GPa) = 10.63572 16.56117 13.59844
#
# Velocity S-wave (km/s) = 2.35776 2.94213 2.66601
# Velocity P-wave (km/s) = 4.85074 5.49032 5.18041
#
# Compressibility (1/GPa) = 0.03242892
#
# Stress axis : x y z
#
# Youngs Moduli (GPa) = 10.88923 29.90206 44.90879
#
# Poissons Ratio (x) = 1.06447 1.41718
# Poissons Ratio (y) = 0.38764 -0.43102
# Poissons Ratio (z) = 0.34363 -0.28699
#
# Static dielectric constant tensor:
#      x y z
#    x 1.663130 0.000000 0.000000 
#    y 0.000000 1.701570 0.000000 
#    z 0.000000 0.000000 1.666150 
# 
# From -- ./inp_files/9772.got.cif
#   From: 2010.05.17/outbox.cif.g08.bks.cpg/sg46_5_cif.got.tgz:9772.got - 2010.06.03 19:58:25.
