data_PCOD9379115
_publ_section_title
;
Structure prediction by ZEFSAII (Michael W. Deem and Ramdas Pophale) SiO2 
 PCOD9379115
Probable space group: I M A 2
;
_chemical_formula_sum "Si O2"
_cell_formula_units_Z 64
_cell_length_a 8.669844
_cell_length_b 25.573168
_cell_length_c 15.233475
_cell_angle_alpha 90.000000
_cell_angle_beta 90.000000
_cell_angle_gamma 90.000000
_cell_volume 3377.495655
_symmetry_space_group_name_H-M "I M A 2"
_symmetry_group_IT_number 46
_symmetry_cell_setting 'orthorhombic'
loop_
_space_group_symop_operation_xyz
x,y,z
-x,-y,z
1/2-x,y,z
1/2+x,-y,z
1/2+x,1/2+y,1/2+z
1/2-x,1/2-y,1/2+z
-x,1/2+y,1/2+z
x,1/2-y,1/2+z
loop_
_atom_site_type_symbol
_atom_site_label
_atom_site_fract_x
_atom_site_fract_y
_atom_site_fract_z
Si Si1 0.433631 0.221154 0.904850
Si Si2 0.566725 0.334398 0.891123
Si Si3 0.566266 0.389812 0.381462
Si Si4 0.063127 0.150852 0.584183
Si Si5 0.935195 0.941589 0.056739
Si Si6 0.936460 0.633117 0.716558
Si Si7 0.935194 0.943590 0.711288
Si Si8 0.564810 0.734118 0.612119
O O1 0.250000 0.220630 0.890242
O O2 0.501283 0.276043 0.872865
O O3 0.507468 0.169206 0.865528
O O4 0.463048 0.220456 0.010014
O O5 0.750000 0.332700 0.894870
O O6 0.508860 0.370838 0.812320
O O7 0.500473 0.351125 0.985548
O O8 0.750000 0.391394 0.381845
O O9 0.502179 0.409387 0.474820
O O10 0.500432 0.426960 0.305743
O O11 0.250000 0.152599 0.579295
O O12 0.018355 0.101587 0.642700
O O13 0.010133 0.206465 0.625448
O O14 0.750000 0.942096 0.048799
O O15 0.975201 0.912206 0.147396
O O16 0.000000 0.000000 0.054965
O O17 0.750000 0.634952 0.724243
O O18 0.993416 0.687730 0.673180
O O19 0.750000 0.945226 0.715350
O O20 0.000000 0.000000 0.686128
O O21 0.750000 0.734734 0.623558
#
# Coordination Sequence:
#
# PCOD9379115 Si02
#       8
#     8   8   8   8   8   8   8   8
#     4  10  19  37  60  85 120 162 204 239 288 358
#     4  11  23  37  57  91 128 158 194 248 309 359
#     4  12  24  38  59  91 127 159 197 248 304 359
#     4   9  20  40  64  87 113 155 205 248 301 361
#     4  11  23  41  63  88 120 162 207 250 300 356
#     4  10  20  37  61  87 118 160 206 246 295 358
#     4  11  24  42  64  89 118 157 206 253 302 359
#     4   8  15  32  58  86 111 146 195 241 286 347
#
# _framework density 18.948951000000001
#
# number of rings (size 3 to 8) (size 9 to 14) (size 15 to 20)
#    0.000    1.750    1.250    4.500    1.750    2.000 
#    0.000    1.250    0.000    0.000    0.000    0.000 
#    0.000    0.000    0.000    0.000    0.000    0.000 
#
# Total GULP energy -178808.984800 kJ/mol
# GULP energy per Si atom -5587.780775 kJ/mol
# Density = 1.890582 g / cm^3
# Si number density = 18.948951 Si / 1000 Ang^3
#
#
#
# Elastic Constant Matrix: (Units=GPa)
#
#
# Indices 1 2 3 4 5 6 
#
# 1 50.2857 26.8640 15.6495 0.0000 0.0000 0.0000
# 2 26.8640 97.1686 26.5626 0.0000 0.0000 0.0000
# 3 15.6495 26.5626 53.9550 0.0000 0.0000 0.0000
# 4 0.0000 0.0000 0.0000 29.3578 0.0000 0.0000
# 5 0.0000 0.0000 0.0000 0.0000 10.5398 0.0000
# 6 0.0000 0.0000 0.0000 0.0000 0.0000 28.6887
#
#
#
# Elastic Compliance Matrix: (Units=1/GPa)
#
#
# Indices 1 2 3 4 5 6 
#
# 1 0.024166 -0.005506 -0.004299 0.000000 0.000000 0.000000
# 2 -0.005506 0.013146 -0.004875 0.000000 0.000000 0.000000
# 3 -0.004299 -0.004875 0.022181 0.000000 0.000000 0.000000
# 4 0.000000 0.000000 0.000000 0.034063 0.000000 0.000000
# 5 0.000000 0.000000 0.000000 0.000000 0.094879 0.000000
# 6 0.000000 0.000000 0.000000 0.000000 0.000000 0.034857
#
#
# Mechanical properties :
#
#
# Convention : Reuss Voigt Hill
#
# Bulk Modulus (GPa) = 33.18557 37.72904 35.45731
# Shear Modulus (GPa) = 19.03353 22.53946 20.78649
#
# Velocity S-wave (km/s) = 3.17277 3.45263 3.31565
# Velocity P-wave (km/s) = 5.56535 5.98735 5.78020
#
# Compressibility (1/GPa) = 0.03013358
#
# Stress axis : x y z
#
# Youngs Moduli (GPa) = 41.38123 76.06716 45.08402
#
# Poissons Ratio (x) = 0.41882 0.19380
# Poissons Ratio (y) = 0.22784 0.21979
# Poissons Ratio (z) = 0.17788 0.37083
#
# Static dielectric constant tensor:
#      x y z
#    x 1.632380 0.000000 0.000000 
#    y 0.000000 1.649140 0.000000 
#    z 0.000000 0.000000 1.652390 
# 
# From -- ./inp_files/14444.got.cif
#   From: 2010.05.17/outbox.cif.g08.bks.cpg/sg46_8_cif.got.tgz:14444.got - 2010.06.03 19:58:25.
