data_PCOD9379654
_publ_section_title
;
Structure prediction by ZEFSAII (Michael W. Deem and Ramdas Pophale) SiO2 
 PCOD9379654
Probable space group: I M A 2
;
_chemical_formula_sum "Si O2"
_cell_formula_units_Z 56
_cell_length_a 8.165589
_cell_length_b 21.479071
_cell_length_c 14.634459
_cell_angle_alpha 90.000000
_cell_angle_beta 90.000000
_cell_angle_gamma 90.000000
_cell_volume 2566.727021
_symmetry_space_group_name_H-M "I M A 2"
_symmetry_group_IT_number 46
_symmetry_cell_setting 'orthorhombic'
loop_
_space_group_symop_operation_xyz
x,y,z
-x,-y,z
1/2-x,y,z
1/2+x,-y,z
1/2+x,1/2+y,1/2+z
1/2-x,1/2-y,1/2+z
-x,1/2+y,1/2+z
x,1/2-y,1/2+z
loop_
_atom_site_type_symbol
_atom_site_label
_atom_site_fract_x
_atom_site_fract_y
_atom_site_fract_z
Si Si1 0.057861 0.933308 0.976640
Si Si2 0.051409 0.356802 0.914386
Si Si3 0.059444 0.568970 0.750473
Si Si4 0.434546 0.332782 0.615149
Si Si5 0.049839 0.250618 0.275039
Si Si6 0.447253 0.431712 0.084211
Si Si7 0.052739 0.392796 0.281932
O O1 0.250000 0.936043 0.977054
O O2 0.995287 0.927909 0.873479
O O3 0.000000 0.000000 0.016871
O O4 0.008094 0.870142 0.029976
O O5 0.250000 0.360096 0.908629
O O6 0.002315 0.293439 0.860952
O O7 0.969418 0.410569 0.853992
O O8 0.005137 0.374358 0.017788
O O9 0.250000 0.577451 0.724355
O O10 0.000000 0.500000 0.736941
O O11 0.943612 0.613715 0.692091
O O12 0.250000 0.315047 0.589312
O O13 0.507887 0.276537 0.676252
O O14 0.250000 0.248777 0.271101
O O15 0.996902 0.321120 0.288315
O O16 0.500000 0.500000 0.050658
O O17 0.250000 0.431516 0.086584
O O18 0.509719 0.421693 0.187272
O O19 0.250000 0.392136 0.277760
#
# Coordination Sequence:
#
# PCOD9379654 Si02
#       7
#     8   8   8   8   8   8   8
#     4  12  25  41  60  86 117 154 197 246 298 351
#     4   9  18  34  54  80 111 146 187 234 281 335
#     4  11  20  31  49  77 112 149 186 230 282 342
#     4  10  20  37  60  86 114 148 188 236 288 346
#     4   8  17  35  61  88 115 146 186 229 279 339
#     4  10  21  35  55  81 111 144 186 233 280 330
#     4  10  21  39  61  86 114 151 194 240 287 341
#
# _framework density 21.817668000000001
#
# number of rings (size 3 to 8) (size 9 to 14) (size 15 to 20)
#    0.000    2.000    0.000    5.143    0.000    4.571 
#    0.000    7.857    0.000    1.714    0.000    0.000 
#    0.000    0.000    0.000    0.000    0.000    0.000 
#
# Total GULP energy -156193.656038 kJ/mol
# GULP energy per Si atom -5578.344858 kJ/mol
# Density = 2.176801 g / cm^3
# Si number density = 21.817668 Si / 1000 Ang^3
#
#
#
# Elastic Constant Matrix: (Units=GPa)
#
#
# Indices 1 2 3 4 5 6 
#
# 1 29.5936 4.1824 6.1389 0.0000 0.0000 0.0000
# 2 4.1824 97.0479 19.9000 0.0000 0.0000 0.0000
# 3 6.1389 19.9000 100.9931 0.0000 0.0000 0.0000
# 4 0.0000 0.0000 0.0000 26.5305 0.0000 0.0000
# 5 0.0000 0.0000 0.0000 0.0000 -0.3719 0.0000
# 6 0.0000 0.0000 0.0000 0.0000 0.0000 13.2869
#
#
#
# Elastic Compliance Matrix: (Units=1/GPa)
#
#
# Indices 1 2 3 4 5 6 
#
# 1 0.034334 -0.001096 -0.001871 0.000000 0.000000 0.000000
# 2 -0.001096 0.010773 -0.002056 0.000000 0.000000 0.000000
# 3 -0.001871 -0.002056 0.010421 0.000000 -0.000001 0.000000
# 4 0.000000 0.000000 0.000000 0.037693 -0.000001 0.000000
# 5 0.000000 0.000000 -0.000001 -0.000001 -2.688535 0.000001
# 6 0.000000 0.000000 0.000000 0.000000 0.000001 0.075262
#
#
# Mechanical properties :
#
#
# Convention : Reuss Voigt Hill
#
# Bulk Modulus (GPa) = 21.98704 32.00858 26.99781
# Shear Modulus (GPa) = -2.00413 21.04997 9.52292
#
# Velocity S-wave (km/s) = -0.95947 3.10951 2.09147
# Velocity P-wave (km/s) = 2.97860 5.25308 4.27007
#
# Compressibility (1/GPa) = 0.04548133
#
# Stress axis : x y z
#
# Youngs Moduli (GPa) = 29.12553 92.82431 95.96427
#
# Poissons Ratio (x) = 0.10174 0.17956
# Poissons Ratio (y) = 0.03192 0.19732
# Poissons Ratio (z) = 0.05450 0.19086
#
# Static dielectric constant tensor:
#      x y z
#    x 1.792940 0.000000 0.000000 
#    y 0.000000 1.802250 0.000000 
#    z 0.000000 0.000000 1.848650 
# 
# From -- ./inp_files/14140.got.cif
#   From: 2010.05.17/outbox.cif.g08.bks.cpg/sg46_8_cif.got.tgz:14140.got - 2010.06.03 19:58:25.
