data_PCOD9379911
_publ_section_title
;
Structure prediction by ZEFSAII (Michael W. Deem and Ramdas Pophale) SiO2 
 PCOD9379911
Probable space group: I M A 2
;
_chemical_formula_sum "Si O2"
_cell_formula_units_Z 32
_cell_length_a 19.901565
_cell_length_b 7.317847
_cell_length_c 9.085291
_cell_angle_alpha 90.000000
_cell_angle_beta 90.000000
_cell_angle_gamma 90.000000
_cell_volume 1323.150961
_symmetry_space_group_name_H-M "I M A 2"
_symmetry_group_IT_number 46
_symmetry_cell_setting 'orthorhombic'
loop_
_space_group_symop_operation_xyz
x,y,z
-x,-y,z
1/2-x,y,z
1/2+x,-y,z
1/2+x,1/2+y,1/2+z
1/2-x,1/2-y,1/2+z
-x,1/2+y,1/2+z
x,1/2-y,1/2+z
loop_
_atom_site_type_symbol
_atom_site_label
_atom_site_fract_x
_atom_site_fract_y
_atom_site_fract_z
Si Si1 0.896884 0.854282 0.808650
Si Si2 0.955568 0.296817 0.400567
Si Si3 0.250000 0.993647 0.231206
Si Si4 0.250000 0.293039 0.442413
Si Si5 0.394793 0.961923 0.194978
O O1 0.822034 0.865774 0.879505
O O2 0.892895 0.683655 0.696032
O O3 0.964221 0.797235 0.898553
O O4 0.922143 0.061297 0.779964
O O5 0.928627 0.104477 0.345574
O O6 0.930798 0.373717 0.555816
O O7 0.250000 0.081953 0.392860
O O8 0.318398 0.892132 0.200782
O O9 0.250000 0.160880 0.113727
#
# Coordination Sequence:
#
# PCOD9379911 Si02
#       5
#     8   8   4   4   8
#     4  10  24  42  70  95 139 180 228 278 339 407
#     4  11  25  43  73 101 137 181 228 286 344 406
#     4  10  22  43  71  97 142 177 230 279 338 411
#     4  10  20  41  67  97 132 185 220 279 336 403
#     4  11  25  46  68 105 139 179 230 284 340 411
#
# _framework density 24.184695000000001
#
# number of rings (size 3 to 8) (size 9 to 14) (size 15 to 20)
#    0.000    1.500    2.500    0.750    7.000    4.000 
#    9.000    0.000    0.000    0.000    0.000    0.000 
#    0.000    0.000    0.000    0.000    0.000    0.000 
#
# Total GULP energy -89134.293573 kJ/mol
# GULP energy per Si atom -5570.893348 kJ/mol
# Density = 2.412965 g / cm^3
# Si number density = 24.184695 Si / 1000 Ang^3
#
#
#
# Elastic Constant Matrix: (Units=GPa)
#
#
# Indices 1 2 3 4 5 6 
#
# 1 251.0135 24.9728 42.2584 0.0000 0.0000 0.0000
# 2 24.9728 96.9553 28.8953 0.0000 0.0000 0.0000
# 3 42.2584 28.8953 76.4426 0.0000 0.0000 0.0000
# 4 0.0000 0.0000 0.0000 22.4511 0.0000 0.0000
# 5 0.0000 0.0000 0.0000 0.0000 39.3819 0.0000
# 6 0.0000 0.0000 0.0000 0.0000 0.0000 36.3477
#
#
#
# Elastic Compliance Matrix: (Units=1/GPa)
#
#
# Indices 1 2 3 4 5 6 
#
# 1 0.004411 -0.000461 -0.002264 0.000000 0.000000 0.000000
# 2 -0.000461 0.011672 -0.004157 0.000000 0.000000 0.000000
# 3 -0.002264 -0.004157 0.015905 0.000000 0.000000 0.000000
# 4 0.000000 0.000000 0.000000 0.044541 0.000000 0.000000
# 5 0.000000 0.000000 0.000000 0.000000 0.025392 0.000000
# 6 0.000000 0.000000 0.000000 0.000000 0.000000 0.027512
#
#
# Mechanical properties :
#
#
# Convention : Reuss Voigt Hill
#
# Bulk Modulus (GPa) = 54.87654 68.51826 61.69740
# Shear Modulus (GPa) = 33.49600 41.52181 37.50890
#
# Velocity S-wave (km/s) = 3.72561 4.14800 3.94246
# Velocity P-wave (km/s) = 6.42236 7.16477 6.80370
#
# Compressibility (1/GPa) = 0.01822272
#
# Stress axis : x y z
#
# Youngs Moduli (GPa) = 226.71130 85.67710 62.87504
#
# Poissons Ratio (x) = 0.03953 0.14235
# Poissons Ratio (y) = 0.10460 0.26136
# Poissons Ratio (z) = 0.51327 0.35615
#
# Static dielectric constant tensor:
#      x y z
#    x 1.936080 0.000000 0.000000 
#    y 0.000000 1.976670 0.000000 
#    z 0.000000 0.000000 1.964100 
# 
# From -- ./inp_files/7110.got.cif
#   From: 2010.05.17/outbox.cif.g08.bks.cpg/sg46_4_cif.got.tgz:7110.got - 2010.06.03 19:58:25.
