data_PCOD9379250
_publ_section_title
;
Structure prediction by ZEFSAII (Michael W. Deem and Ramdas Pophale) SiO2 
 PCOD9379250
Probable space group: I M A 2
;
_chemical_formula_sum "Si O2"
_cell_formula_units_Z 64
_cell_length_a 8.709049
_cell_length_b 23.676306
_cell_length_c 19.497564
_cell_angle_alpha 90.000000
_cell_angle_beta 90.000000
_cell_angle_gamma 90.000000
_cell_volume 4020.360829
_symmetry_space_group_name_H-M "I M A 2"
_symmetry_group_IT_number 46
_symmetry_cell_setting 'orthorhombic'
loop_
_space_group_symop_operation_xyz
x,y,z
-x,-y,z
1/2-x,y,z
1/2+x,-y,z
1/2+x,1/2+y,1/2+z
1/2-x,1/2-y,1/2+z
-x,1/2+y,1/2+z
x,1/2-y,1/2+z
loop_
_atom_site_type_symbol
_atom_site_label
_atom_site_fract_x
_atom_site_fract_y
_atom_site_fract_z
Si Si1 0.066843 0.273216 0.907750
Si Si2 0.434504 0.338502 0.042134
Si Si3 0.566464 0.660268 0.495217
Si Si4 0.066342 0.728212 0.616458
Si Si5 0.933577 0.062514 0.628370
Si Si6 0.066686 0.562234 0.405727
Si Si7 0.066597 0.116915 0.767208
Si Si8 0.568010 0.257565 0.268229
O O1 0.250000 0.274312 0.895893
O O2 0.980121 0.275751 0.836177
O O3 0.029006 0.320790 0.964017
O O4 0.031223 0.213184 0.944519
O O5 0.250000 0.340061 0.049377
O O6 0.499079 0.287499 0.088754
O O7 0.507587 0.396017 0.068673
O O8 0.750000 0.653265 0.495787
O O9 0.507370 0.679871 0.569442
O O10 0.486549 0.605211 0.464924
O O11 0.250000 0.728317 0.606973
O O12 0.032386 0.725730 0.697250
O O13 0.750000 0.061410 0.630150
O O14 0.996309 0.088458 0.699562
O O15 0.000000 0.000000 0.620061
O O16 0.250000 0.560415 0.401459
O O17 0.000000 0.500000 0.417074
O O18 0.999114 0.586640 0.334635
O O19 0.250000 0.111833 0.766115
O O20 0.019259 0.182570 0.768897
O O21 0.750000 0.269316 0.269068
#
# Coordination Sequence:
#
# PCOD9379250 Si02
#       8
#     8   8   8   8   8   8   8   8
#     4   9  19  33  52  75 104 136 172 212 261 313
#     4  10  20  35  53  75 102 136 176 219 262 309
#     4  10  20  35  53  76 103 136 177 218 262 310
#     4  10  20  33  51  76 106 138 174 216 262 313
#     4  12  24  38  54  75 103 139 181 219 262 310
#     4  12  24  38  55  75 104 140 180 220 261 308
#     4  12  23  36  52  73 106 142 180 218 256 304
#     4  11  21  32  51  79 108 139 176 213 259 312
#
# _framework density 15.918969000000001
#
# number of rings (size 3 to 8) (size 9 to 14) (size 15 to 20)
#    0.000    1.250    2.500    6.000    0.000    4.000 
#    0.000    0.000    0.000    0.000    0.000    0.875 
#    0.000    2.000    0.000    0.000    0.000    0.000 
#
# Total GULP energy -178812.144115 kJ/mol
# GULP energy per Si atom -5587.879504 kJ/mol
# Density = 1.588274 g / cm^3
# Si number density = 15.918969 Si / 1000 Ang^3
#
#
#
# Elastic Constant Matrix: (Units=GPa)
#
#
# Indices 1 2 3 4 5 6 
#
# 1 111.6339 46.8187 65.5444 0.0000 0.0000 0.0000
# 2 46.8187 92.2623 62.4822 0.0000 0.0000 0.0000
# 3 65.5444 62.4822 126.2061 0.0000 0.0000 0.0000
# 4 0.0000 0.0000 0.0000 15.2116 0.0000 0.0000
# 5 0.0000 0.0000 0.0000 0.0000 27.3818 0.0000
# 6 0.0000 0.0000 0.0000 0.0000 0.0000 26.3731
#
#
#
# Elastic Compliance Matrix: (Units=1/GPa)
#
#
# Indices 1 2 3 4 5 6 
#
# 1 0.013472 -0.003156 -0.005434 0.000000 0.000000 0.000000
# 2 -0.003156 0.017045 -0.006799 0.000000 0.000000 0.000000
# 3 -0.005434 -0.006799 0.014112 0.000000 0.000000 0.000000
# 4 0.000000 0.000000 0.000000 0.065739 0.000000 0.000000
# 5 0.000000 0.000000 0.000000 0.000000 0.036521 0.000000
# 6 0.000000 0.000000 0.000000 0.000000 0.000000 0.037917
#
#
# Mechanical properties :
#
#
# Convention : Reuss Voigt Hill
#
# Bulk Modulus (GPa) = 72.20488 75.53253 73.86870
# Shear Modulus (GPa) = 22.70636 24.14378 23.42507
#
# Velocity S-wave (km/s) = 3.78083 3.89867 3.84020
# Velocity P-wave (km/s) = 8.03217 8.23512 8.13428
#
# Compressibility (1/GPa) = 0.01384948
#
# Stress axis : x y z
#
# Youngs Moduli (GPa) = 74.22722 58.66777 70.86207
#
# Poissons Ratio (x) = 0.18518 0.38506
# Poissons Ratio (y) = 0.23429 0.48182
# Poissons Ratio (z) = 0.40335 0.39891
#
# Static dielectric constant tensor:
#      x y z
#    x 1.531980 0.000000 0.000000 
#    y 0.000000 1.505530 0.000000 
#    z 0.000000 0.000000 1.534050 
# 
# From -- ./inp_files/18557.got.cif
#   From: 2010.05.17/outbox.cif.g08.bks.cpg/sg46_10_cif.got.tgz:18557.got - 2010.06.03 19:58:25.
