data_PCOD9379866
_publ_section_title
;
Structure prediction by ZEFSAII (Michael W. Deem and Ramdas Pophale) SiO2 
 PCOD9379866
Probable space group: I M A 2
;
_chemical_formula_sum "Si O2"
_cell_formula_units_Z 40
_cell_length_a 10.460464
_cell_length_b 19.006426
_cell_length_c 10.071539
_cell_angle_alpha 90.000000
_cell_angle_beta 90.000000
_cell_angle_gamma 90.000000
_cell_volume 2002.383450
_symmetry_space_group_name_H-M "I M A 2"
_symmetry_group_IT_number 46
_symmetry_cell_setting 'orthorhombic'
loop_
_space_group_symop_operation_xyz
x,y,z
-x,-y,z
1/2-x,y,z
1/2+x,-y,z
1/2+x,1/2+y,1/2+z
1/2-x,1/2-y,1/2+z
-x,1/2+y,1/2+z
x,1/2-y,1/2+z
loop_
_atom_site_type_symbol
_atom_site_label
_atom_site_fract_x
_atom_site_fract_y
_atom_site_fract_z
Si Si1 0.750000 0.334655 0.467580
Si Si2 0.750000 0.573219 0.164815
Si Si3 0.994594 0.078995 0.040997
Si Si4 0.250000 0.180365 0.419641
Si Si5 0.750000 0.216614 0.265825
Si Si6 0.750000 0.650867 0.446507
Si Si7 0.517787 0.118063 0.337019
Si Si8 0.500000 0.000000 0.557577
O O1 0.623873 0.381267 0.476649
O O2 0.750000 0.292370 0.331489
O O3 0.750000 0.288443 0.605225
O O4 0.750000 0.612109 0.304676
O O5 0.750000 0.636259 0.056518
O O6 0.877086 0.526497 0.139758
O O7 0.123159 0.122628 0.017766
O O8 0.971539 0.076810 0.198807
O O9 0.000000 0.000000 0.988690
O O10 0.250000 0.264483 0.436726
O O11 0.379269 0.154592 0.348065
O O12 0.626562 0.176671 0.323973
O O13 0.536110 0.064950 0.459669
#
# Coordination Sequence:
#
# PCOD9379866 Si02
#       8
#     4   4   8   4   4   4   8   4
#     4  10  23  43  63  92 126 164 208 261 309 381
#     4  10  25  41  66  91 129 169 204 261 315 374
#     4  11  23  41  65  93 123 163 209 258 318 363
#     4  10  23  41  63  94 120 167 211 251 325 356
#     4  10  21  40  60  96 124 165 206 251 325 365
#     4  12  26  41  62  91 137 163 207 256 316 388
#     4  10  20  39  70  90 122 156 215 269 296 374
#     4  10  20  44  64  96 120 162 218 256 314 360
#
# _framework density 19.976195000000001
#
# number of rings (size 3 to 8) (size 9 to 14) (size 15 to 20)
#    0.000    1.600    1.000    3.000    4.200    0.000 
#   10.800    0.000    0.000    0.000    0.000    0.000 
#    0.000    0.000    0.000    0.000    0.000    0.000 
#
# Total GULP energy -111758.878631 kJ/mol
# GULP energy per Si atom -5587.943932 kJ/mol
# Density = 1.993073 g / cm^3
# Si number density = 19.976195 Si / 1000 Ang^3
#
#
#
# Elastic Constant Matrix: (Units=GPa)
#
#
# Indices 1 2 3 4 5 6 
#
# 1 119.4981 41.7726 8.1674 -0.0003 0.0000 0.0001
# 2 41.7726 128.1437 19.1603 -0.0003 0.0000 0.0001
# 3 8.1674 19.1603 43.6049 -0.0005 0.0000 0.0001
# 4 -0.0003 -0.0003 -0.0005 9.4468 0.0000 0.0002
# 5 0.0000 0.0000 0.0000 0.0000 21.6642 0.0000
# 6 0.0001 0.0001 0.0001 0.0002 0.0000 -23.3895
#
#
#
# Elastic Compliance Matrix: (Units=1/GPa)
#
#
# Indices 1 2 3 4 5 6 
#
# 1 0.009453 -0.003015 -0.000446 0.000000 0.000000 0.000000
# 2 -0.003015 0.009314 -0.003528 0.000000 0.000000 0.000000
# 3 -0.000446 -0.003528 0.024567 0.000001 0.000000 0.000000
# 4 0.000000 0.000000 0.000001 0.105856 0.000000 0.000001
# 5 0.000000 0.000000 0.000000 0.000000 0.046159 0.000000
# 6 0.000000 0.000000 0.000000 0.000001 0.000000 -0.042754
#
#
# Mechanical properties :
#
#
# Convention : Reuss Voigt Hill
#
# Bulk Modulus (GPa) = 34.06397 47.71636 40.89016
# Shear Modulus (GPa) = 28.35150 16.35404 22.35277
#
# Velocity S-wave (km/s) = 3.77140 2.86436 3.34873
# Velocity P-wave (km/s) = 6.00449 5.90575 5.95532
#
# Compressibility (1/GPa) = 0.02935653
#
# Stress axis : x y z
#
# Youngs Moduli (GPa) = 105.79029 107.36517 40.70513
#
# Poissons Ratio (x) = 0.32368 0.01815
# Poissons Ratio (y) = 0.31893 0.14361
# Poissons Ratio (z) = 0.04716 0.37878
#
# Static dielectric constant tensor:
#      x y z
#    x 1.672950 0.000000 0.000000 
#    y 0.000000 1.695910 0.000000 
#    z 0.000000 0.000000 1.703310 
# 
# From -- ./inp_files/4508.got.cif
#   From: 2010.05.17/outbox.cif.g08.bks.cpg/sg46_3_cif.got.tgz:4508.got - 2010.06.03 19:58:25.
