data_PCOD9379621
_publ_section_title
;
Structure prediction by ZEFSAII (Michael W. Deem and Ramdas Pophale) SiO2 
 PCOD9379621
Probable space group: I M A 2
;
_chemical_formula_sum "Si O2"
_cell_formula_units_Z 64
_cell_length_a 24.069720
_cell_length_b 9.005422
_cell_length_c 13.482117
_cell_angle_alpha 90.000000
_cell_angle_beta 90.000000
_cell_angle_gamma 90.000000
_cell_volume 2922.356528
_symmetry_space_group_name_H-M "I M A 2"
_symmetry_group_IT_number 46
_symmetry_cell_setting 'orthorhombic'
loop_
_space_group_symop_operation_xyz
x,y,z
-x,-y,z
1/2-x,y,z
1/2+x,-y,z
1/2+x,1/2+y,1/2+z
1/2-x,1/2-y,1/2+z
-x,1/2+y,1/2+z
x,1/2-y,1/2+z
loop_
_atom_site_type_symbol
_atom_site_label
_atom_site_fract_x
_atom_site_fract_y
_atom_site_fract_z
Si Si1 0.896132 0.868567 0.057620
Si Si2 0.052252 0.610506 0.435215
Si Si3 0.006320 0.677814 0.085016
Si Si4 0.101398 0.774845 0.736994
Si Si5 0.813902 0.420850 0.852138
Si Si6 0.812770 0.727439 0.388666
Si Si7 0.186313 0.909189 0.579983
Si Si8 0.687633 0.779916 0.673775
O O1 0.854437 0.849307 0.147991
O O2 0.947257 0.760767 0.082155
O O3 0.916197 0.029776 0.025817
O O4 0.860831 0.816064 0.962664
O O5 0.033477 0.768020 0.480957
O O6 0.086276 0.629335 0.334766
O O7 0.000000 0.500000 0.416215
O O8 0.043267 0.738025 0.176971
O O9 0.000000 0.500000 0.091614
O O10 0.137616 0.640443 0.782500
O O11 0.141953 0.845904 0.655487
O O12 0.750000 0.378352 0.823720
O O13 0.814665 0.598546 0.862659
O O14 0.823450 0.366104 0.965847
O O15 0.750000 0.692911 0.425268
O O16 0.821018 0.650839 0.281956
O O17 0.250000 0.868768 0.605277
O O18 0.182839 0.087782 0.594261
O O19 0.750000 0.721725 0.671894
#
# Coordination Sequence:
#
# PCOD9379621 Si02
#       8
#     8   8   8   8   8   8   8   8
#     4  11  22  41  68  93 134 171 214 286 343 394
#     4  10  25  45  61  92 132 166 218 292 344 404
#     4  11  26  44  67  93 126 178 234 278 349 416
#     4  12  23  40  67  91 128 175 229 283 332 414
#     4  10  22  40  62  96 138 178 223 283 349 419
#     4  10  21  38  64 101 138 178 226 274 344 422
#     4  10  20  38  63  94 132 178 224 275 343 418
#     4  10  20  36  65  97 129 172 224 275 336 416
#
# _framework density 21.900133
#
# number of rings (size 3 to 8) (size 9 to 14) (size 15 to 20)
#    0.000    1.500    1.250    3.375    3.500    2.000 
#    0.000    3.750    0.000    0.000    0.000    0.000 
#    0.000    0.000    0.000    0.000    0.000    0.000 
#
# Total GULP energy -178717.104026 kJ/mol
# GULP energy per Si atom -5584.909501 kJ/mol
# Density = 2.185029 g / cm^3
# Si number density = 21.900133 Si / 1000 Ang^3
#
#
#
# Elastic Constant Matrix: (Units=GPa)
#
#
# Indices 1 2 3 4 5 6 
#
# 1 127.7276 40.8111 57.7249 0.0000 0.0000 0.0000
# 2 40.8111 67.1725 30.7049 0.0000 0.0000 0.0000
# 3 57.7249 30.7049 99.2546 0.0000 0.0000 0.0000
# 4 0.0000 0.0000 0.0000 30.4832 0.0000 0.0000
# 5 0.0000 0.0000 0.0000 0.0000 53.9432 0.0000
# 6 0.0000 0.0000 0.0000 0.0000 0.0000 19.5139
#
#
#
# Elastic Compliance Matrix: (Units=1/GPa)
#
#
# Indices 1 2 3 4 5 6 
#
# 1 0.011762 -0.004681 -0.005392 0.000000 0.000000 0.000000
# 2 -0.004681 0.019202 -0.003218 0.000000 0.000000 0.000000
# 3 -0.005392 -0.003218 0.014207 0.000000 0.000000 0.000000
# 4 0.000000 0.000000 0.000000 0.032805 0.000000 0.000000
# 5 0.000000 0.000000 0.000000 0.000000 0.018538 0.000000
# 6 0.000000 0.000000 0.000000 0.000000 0.000000 0.051246
#
#
# Mechanical properties :
#
#
# Convention : Reuss Voigt Hill
#
# Bulk Modulus (GPa) = 53.79830 61.40405 57.60117
# Shear Modulus (GPa) = 27.69506 31.78231 29.73869
#
# Velocity S-wave (km/s) = 3.55999 3.81364 3.68900
# Velocity P-wave (km/s) = 6.44334 6.89137 6.67112
#
# Compressibility (1/GPa) = 0.01858795
#
# Stress axis : x y z
#
# Youngs Moduli (GPa) = 85.02044 52.07802 70.38956
#
# Poissons Ratio (x) = 0.24378 0.37957
# Poissons Ratio (y) = 0.39799 0.22650
# Poissons Ratio (z) = 0.45846 0.16757
#
# Static dielectric constant tensor:
#      x y z
#    x 1.818950 0.000000 0.000000 
#    y 0.000000 1.801840 0.000000 
#    z 0.000000 0.000000 1.832230 
# 
# From -- ./inp_files/17436.got.cif
#   From: 2010.05.17/outbox.cif.g08.bks.cpg/sg46_9_cif.got.tgz:17436.got - 2010.06.03 19:58:25.
