data_PCOD9379742
_publ_section_title
;
Structure prediction by ZEFSAII (Michael W. Deem and Ramdas Pophale) SiO2 
 PCOD9379742
Probable space group: I M A 2
;
_chemical_formula_sum "Si O2"
_cell_formula_units_Z 64
_cell_length_a 18.610298
_cell_length_b 28.204286
_cell_length_c 5.369733
_cell_angle_alpha 90.000000
_cell_angle_beta 90.000000
_cell_angle_gamma 90.000000
_cell_volume 2818.520053
_symmetry_space_group_name_H-M "I M A 2"
_symmetry_group_IT_number 46
_symmetry_cell_setting 'orthorhombic'
loop_
_space_group_symop_operation_xyz
x,y,z
-x,-y,z
1/2-x,y,z
1/2+x,-y,z
1/2+x,1/2+y,1/2+z
1/2-x,1/2-y,1/2+z
-x,1/2+y,1/2+z
x,1/2-y,1/2+z
loop_
_atom_site_type_symbol
_atom_site_label
_atom_site_fract_x
_atom_site_fract_y
_atom_site_fract_z
Si Si1 0.859677 0.264399 0.851660
Si Si2 0.561853 0.534357 0.966165
Si Si3 0.335095 0.635046 0.099126
Si Si4 0.669342 0.587896 0.599719
Si Si5 0.396210 0.592267 0.604807
Si Si6 0.669790 0.009165 0.818347
Si Si7 0.477683 0.271270 0.270127
Si Si8 0.964319 0.880981 0.849878
O O1 0.828959 0.269516 0.571244
O O2 0.853212 0.312752 0.003249
O O3 0.941825 0.250295 0.796716
O O4 0.500000 0.500000 0.850465
O O5 0.610608 0.495692 0.108347
O O6 0.531478 0.574779 0.156715
O O7 0.619487 0.564451 0.809952
O O8 0.250000 0.629731 0.096151
O O9 0.370475 0.604285 0.879719
O O10 0.363501 0.623270 0.374198
O O11 0.750000 0.603179 0.674571
O O12 0.677897 0.544085 0.412421
O O13 0.616315 0.623536 0.458292
O O14 0.365277 0.541147 0.531585
O O15 0.480582 0.602920 0.567990
O O16 0.750000 0.026370 0.749338
O O17 0.443366 0.253280 0.528608
O O18 0.482768 0.328375 0.250951
#
# Coordination Sequence:
#
# PCOD9379742 Si02
#       8
#     8   8   8   8   8   8   8   8
#     4  10  20  38  59  86 123 169 224 285 336 402
#     4  11  23  40  65 104 138 184 237 290 348 420
#     4  12  26  42  62  94 140 190 236 287 345 408
#     4  10  25  44  67  98 137 184 234 289 359 435
#     4  12  25  41  65 100 138 182 241 288 337 403
#     4  10  22  40  60  90 135 185 227 279 338 404
#     4  10  21  39  66 100 135 172 230 294 360 422
#     4  11  25  41  72  99 139 182 234 301 359 424
#
# _framework density 22.706951
#
# number of rings (size 3 to 8) (size 9 to 14) (size 15 to 20)
#    0.000    1.250    1.250    5.250    7.000    1.000 
#    0.000    0.000    0.000    0.750    0.000    0.000 
#    0.000    0.000    0.000    0.000    0.000    0.000 
#
# Total GULP energy -178566.758721 kJ/mol
# GULP energy per Si atom -5580.211210 kJ/mol
# Density = 2.265527 g / cm^3
# Si number density = 22.706951 Si / 1000 Ang^3
#
#
#
# Elastic Constant Matrix: (Units=GPa)
#
#
# Indices 1 2 3 4 5 6 
#
# 1 135.3814 20.4041 12.1191 0.0000 0.0000 0.0000
# 2 20.4041 77.8580 11.7746 0.0000 0.0000 0.0000
# 3 12.1191 11.7746 92.2975 -0.0001 0.0002 0.0000
# 4 0.0000 0.0000 -0.0001 24.6057 0.0000 0.0000
# 5 0.0000 0.0000 0.0002 0.0000 1.1337 0.0000
# 6 0.0000 0.0000 0.0000 0.0000 0.0000 37.9086
#
#
#
# Elastic Compliance Matrix: (Units=1/GPa)
#
#
# Indices 1 2 3 4 5 6 
#
# 1 0.007744 -0.001913 -0.000773 0.000000 0.000000 0.000000
# 2 -0.001913 0.013569 -0.001480 0.000000 0.000000 0.000000
# 3 -0.000773 -0.001480 0.011125 0.000000 -0.000002 0.000000
# 4 0.000000 0.000000 0.000000 0.040641 0.000001 0.000000
# 5 0.000000 0.000000 -0.000002 0.000001 0.882051 0.000000
# 6 0.000000 0.000000 0.000000 0.000000 0.000000 0.026379
#
#
# Mechanical properties :
#
#
# Convention : Reuss Voigt Hill
#
# Bulk Modulus (GPa) = 41.48156 43.79253 42.63705
# Shear Modulus (GPa) = 5.01065 30.14554 17.57809
#
# Velocity S-wave (km/s) = 1.48709 3.64756 2.78533
# Velocity P-wave (km/s) = 4.61047 6.08831 5.40018
#
# Compressibility (1/GPa) = 0.02410710
#
# Stress axis : x y z
#
# Youngs Moduli (GPa) = 129.13265 73.69781 89.88927
#
# Poissons Ratio (x) = 0.14095 0.06947
# Poissons Ratio (y) = 0.24698 0.13303
# Poissons Ratio (z) = 0.09980 0.10906
#
# Static dielectric constant tensor:
#      x y z
#    x 1.788500 0.000000 0.000000 
#    y 0.000000 1.934690 0.000000 
#    z 0.000000 0.000000 1.987460 
# 
# From -- ./inp_files/1879.got.cif
#   From: 2010.05.17/outbox.cif.g08.bks.cpg/sg46_1_cif.got.tgz:1879.got - 2010.06.03 19:58:25.
