data_PCOD9379014
_publ_section_title
;
Structure prediction by ZEFSAII (Michael W. Deem and Ramdas Pophale) SiO2 
 PCOD9379014
Probable space group: I M A 2
;
_chemical_formula_sum "Si O2"
_cell_formula_units_Z 28
_cell_length_a 27.572584
_cell_length_b 8.130475
_cell_length_c 5.298986
_cell_angle_alpha 90.000000
_cell_angle_beta 90.000000
_cell_angle_gamma 90.000000
_cell_volume 1187.917169
_symmetry_space_group_name_H-M "I M A 2"
_symmetry_group_IT_number 46
_symmetry_cell_setting 'orthorhombic'
loop_
_space_group_symop_operation_xyz
x,y,z
-x,-y,z
1/2-x,y,z
1/2+x,-y,z
1/2+x,1/2+y,1/2+z
1/2-x,1/2-y,1/2+z
-x,1/2+y,1/2+z
x,1/2-y,1/2+z
loop_
_atom_site_type_symbol
_atom_site_label
_atom_site_fract_x
_atom_site_fract_y
_atom_site_fract_z
Si Si1 0.594764 0.826920 0.023340
Si Si2 0.250000 0.854668 0.098030
Si Si3 0.013299 0.691549 0.982170
Si Si4 0.355185 0.856030 0.195269
O O1 0.613194 0.700966 0.239513
O O2 0.536980 0.794934 0.004715
O O3 0.606690 0.002190 0.136969
O O4 0.250000 0.706787 0.307875
O O5 0.301507 0.937310 0.154873
O O6 0.039460 0.729550 0.243520
O O7 0.000000 0.500000 0.960541
O O8 0.357693 0.781816 0.475473
#
# Coordination Sequence:
#
# PCOD9379014 Si02
#       4
#     8   4   8   8
#     4  10  21  38  55  81 115 144 181 228 275 329
#     4   8  16  30  52  80 110 142 182 222 266 320
#     4  10  21  40  60  81 109 144 181 228 279 332
#     4  10  19  35  58  83 110 147 187 226 268 323
#
# _framework density 23.570667
#
# number of rings (size 3 to 8) (size 9 to 14) (size 15 to 20)
#    0.000    2.286    0.000    2.571    0.000    0.000 
#    0.000   35.714    0.000    0.000    0.000    0.000 
#    0.000    0.000    0.000    0.000    0.000    0.000 
#
# Total GULP energy -78243.213779 kJ/mol
# GULP energy per Si atom -5588.800984 kJ/mol
# Density = 2.351702 g / cm^3
# Si number density = 23.570667 Si / 1000 Ang^3
#
#
#
# Elastic Constant Matrix: (Units=GPa)
#
#
# Indices 1 2 3 4 5 6 
#
# 1 86.9628 35.1520 -3.1328 0.0004 0.0001 0.0003
# 2 35.1520 71.6392 5.7126 -0.0015 -0.0005 -0.0009
# 3 -3.1328 5.7126 179.3227 -0.0021 -0.0007 -0.0016
# 4 0.0004 -0.0015 -0.0021 33.9017 -0.0008 -0.0016
# 5 0.0001 -0.0005 -0.0007 -0.0008 27.2444 -0.0005
# 6 0.0003 -0.0009 -0.0016 -0.0016 -0.0005 15.8623
#
#
#
# Elastic Compliance Matrix: (Units=1/GPa)
#
#
# Indices 1 2 3 4 5 6 
#
# 1 0.014385 -0.007096 0.000477 0.000000 0.000000 -0.000001
# 2 -0.007096 0.017495 -0.000681 0.000001 0.000000 0.000001
# 3 0.000477 -0.000681 0.005607 0.000000 0.000000 0.000001
# 4 0.000000 0.000001 0.000000 0.029497 0.000001 0.000003
# 5 0.000000 0.000000 0.000000 0.000001 0.036705 0.000001
# 6 -0.000001 0.000001 0.000001 0.000003 0.000001 0.063042
#
#
# Mechanical properties :
#
#
# Convention : Reuss Voigt Hill
#
# Bulk Modulus (GPa) = 43.69495 45.93204 44.81349
# Shear Modulus (GPa) = 26.46056 35.41455 30.93755
#
# Velocity S-wave (km/s) = 3.35417 3.88039 3.62684
# Velocity P-wave (km/s) = 5.79471 6.29332 6.04915
#
# Compressibility (1/GPa) = 0.02288594
#
# Stress axis : x y z
#
# Youngs Moduli (GPa) = 69.51745 57.15835 178.36179
#
# Poissons Ratio (x) = 0.40562 -0.08514
# Poissons Ratio (y) = 0.49333 0.12152
# Poissons Ratio (z) = -0.03319 0.03894
#
# Static dielectric constant tensor:
#      x y z
#    x 1.984340 0.000000 0.000000 
#    y 0.000000 1.849750 0.000000 
#    z 0.000000 0.000000 2.098750 
# 
# From -- ./inp_files/2477.got.cif
#   From: 2010.05.17/outbox.cif.g08.bks.cpg/sg46_2_cif.got.tgz:2477.got - 2010.06.03 19:58:25.
