data_PCOD9379327
_publ_section_title
;
Structure prediction by ZEFSAII (Michael W. Deem and Ramdas Pophale) SiO2 
 PCOD9379327
Probable space group: I M A 2
;
_chemical_formula_sum "Si O2"
_cell_formula_units_Z 64
_cell_length_a 8.846465
_cell_length_b 34.183126
_cell_length_c 12.043089
_cell_angle_alpha 90.000000
_cell_angle_beta 90.000000
_cell_angle_gamma 90.000000
_cell_volume 3641.828039
_symmetry_space_group_name_H-M "I M A 2"
_symmetry_group_IT_number 46
_symmetry_cell_setting 'orthorhombic'
loop_
_space_group_symop_operation_xyz
x,y,z
-x,-y,z
1/2-x,y,z
1/2+x,-y,z
1/2+x,1/2+y,1/2+z
1/2-x,1/2-y,1/2+z
-x,1/2+y,1/2+z
x,1/2-y,1/2+z
loop_
_atom_site_type_symbol
_atom_site_label
_atom_site_fract_x
_atom_site_fract_y
_atom_site_fract_z
Si Si1 0.928721 0.319234 0.237580
Si Si2 0.068582 0.541912 0.733521
Si Si3 0.926869 0.960763 0.989161
Si Si4 0.578125 0.109578 0.891291
Si Si5 0.431713 0.376670 0.803641
Si Si6 0.574679 0.330442 0.598296
Si Si7 0.068821 0.182687 0.495246
Si Si8 0.069592 0.269962 0.435500
O O1 0.750000 0.311397 0.240868
O O2 0.952596 0.362561 0.287635
O O3 0.008486 0.289941 0.323713
O O4 0.991046 0.317347 0.114319
O O5 0.250000 0.540664 0.737036
O O6 0.000000 0.500000 0.771568
O O7 0.012202 0.546482 0.606019
O O8 0.006579 0.580511 0.794741
O O9 0.750000 0.965675 0.011321
O O10 0.960701 0.924693 0.909823
O O11 0.000000 0.000000 0.941852
O O12 0.750000 0.094048 0.884845
O O13 0.571584 0.137711 0.998920
O O14 0.250000 0.380594 0.796925
O O15 0.487965 0.349590 0.701399
O O16 0.472683 0.353323 0.915640
O O17 0.750000 0.323257 0.627267
O O18 0.501535 0.292134 0.542152
O O19 0.250000 0.181562 0.510524
O O20 0.032225 0.224153 0.437896
O O21 0.250000 0.274710 0.440545
#
# Coordination Sequence:
#
# PCOD9379327 Si02
#       8
#     8   8   8   8   8   8   8   8
#     4  10  22  39  59  82 109 144 188 236 284 335
#     4  11  21  35  55  82 117 153 188 235 288 347
#     4  11  20  30  50  80 113 147 181 221 275 335
#     4   9  18  34  53  76 109 142 178 224 276 329
#     4  11  22  37  57  84 116 153 193 236 287 347
#     4  10  20  34  54  82 113 146 185 232 281 335
#     4  10  24  41  58  81 112 151 193 236 283 341
#     4  10  21  38  59  81 111 150 189 234 284 339
#
# _framework density 17.573591
#
# number of rings (size 3 to 8) (size 9 to 14) (size 15 to 20)
#    0.000    1.750    1.250    5.250    1.750    4.500 
#    0.000    0.000    0.000    0.750    0.000    5.250 
#    0.000    0.000    0.000    0.000    0.000    0.000 
#
# Total GULP energy -178670.015523 kJ/mol
# GULP energy per Si atom -5583.437985 kJ/mol
# Density = 1.753359 g / cm^3
# Si number density = 17.573591 Si / 1000 Ang^3
#
#
#
# Elastic Constant Matrix: (Units=GPa)
#
#
# Indices 1 2 3 4 5 6 
#
# 1 106.2026 69.2148 44.0152 -0.0001 0.0000 0.0000
# 2 69.2148 108.9983 48.2525 -0.0001 0.0000 0.0000
# 3 44.0152 48.2525 84.5056 -0.0002 -0.0001 -0.0001
# 4 -0.0001 -0.0001 -0.0002 16.4884 0.0000 0.0000
# 5 0.0000 0.0000 -0.0001 0.0000 23.1615 -0.0001
# 6 0.0000 0.0000 -0.0001 0.0000 -0.0001 28.0081
#
#
#
# Elastic Compliance Matrix: (Units=1/GPa)
#
#
# Indices 1 2 3 4 5 6 
#
# 1 0.016830 -0.009109 -0.003565 0.000000 0.000000 0.000000
# 2 -0.009109 0.017208 -0.005081 0.000000 0.000000 0.000000
# 3 -0.003565 -0.005081 0.016592 0.000000 0.000000 0.000000
# 4 0.000000 0.000000 0.000000 0.060649 0.000000 0.000000
# 5 0.000000 0.000000 0.000000 0.000000 0.043175 0.000000
# 6 0.000000 0.000000 0.000000 0.000000 0.000000 0.035704
#
#
# Mechanical properties :
#
#
# Convention : Reuss Voigt Hill
#
# Bulk Modulus (GPa) = 66.13940 69.18574 67.66257
# Shear Modulus (GPa) = 21.67243 22.74654 22.20948
#
# Velocity S-wave (km/s) = 3.51556 3.60162 3.55885
# Velocity P-wave (km/s) = 7.36181 7.53327 7.44804
#
# Compressibility (1/GPa) = 0.01511958
#
# Stress axis : x y z
#
# Youngs Moduli (GPa) = 59.41782 58.11155 60.27122
#
# Poissons Ratio (x) = 0.52934 0.21485
# Poissons Ratio (y) = 0.54124 0.30626
# Poissons Ratio (z) = 0.21181 0.29529
#
# Static dielectric constant tensor:
#      x y z
#    x 1.595480 0.000000 0.000000 
#    y 0.000000 1.616110 0.000000 
#    z 0.000000 0.000000 1.566730 
# 
# From -- ./inp_files/9752.got.cif
#   From: 2010.05.17/outbox.cif.g08.bks.cpg/sg46_5_cif.got.tgz:9752.got - 2010.06.03 19:58:25.
