data_PCOD9379482
_publ_section_title
;
Structure prediction by ZEFSAII (Michael W. Deem and Ramdas Pophale) SiO2 
 PCOD9379482
Probable space group: I M A 2
;
_chemical_formula_sum "Si O2"
_cell_formula_units_Z 60
_cell_length_a 13.978935
_cell_length_b 11.962253
_cell_length_c 19.577814
_cell_angle_alpha 90.000000
_cell_angle_beta 90.000000
_cell_angle_gamma 90.000000
_cell_volume 3273.793387
_symmetry_space_group_name_H-M "I M A 2"
_symmetry_group_IT_number 46
_symmetry_cell_setting 'orthorhombic'
loop_
_space_group_symop_operation_xyz
x,y,z
-x,-y,z
1/2-x,y,z
1/2+x,-y,z
1/2+x,1/2+y,1/2+z
1/2-x,1/2-y,1/2+z
-x,1/2+y,1/2+z
x,1/2-y,1/2+z
loop_
_atom_site_type_symbol
_atom_site_label
_atom_site_fract_x
_atom_site_fract_y
_atom_site_fract_z
Si Si1 0.366378 0.820155 0.775650
Si Si2 0.000000 0.500000 0.208056
Si Si3 0.863934 0.399310 0.020163
Si Si4 0.947977 0.234905 0.922609
Si Si5 0.140276 0.771654 0.135139
Si Si6 0.354572 0.300277 0.491099
Si Si7 0.394902 0.954712 0.029261
Si Si8 0.863430 0.619990 0.101054
O O1 0.250000 0.832535 0.781706
O O2 0.411197 0.780345 0.846527
O O3 0.392446 0.736393 0.712849
O O4 0.422499 0.932103 0.752693
O O5 0.065593 0.417196 0.161419
O O6 0.750000 0.381210 0.011355
O O7 0.900442 0.321309 0.083076
O O8 0.878610 0.525801 0.042658
O O9 0.916042 0.353022 0.953983
O O10 0.060655 0.219649 0.937376
O O11 0.898160 0.138285 0.969525
O O12 0.250000 0.735783 0.140351
O O13 0.137177 0.889218 0.096635
O O14 0.250000 0.256921 0.469698
O O15 0.346414 0.432026 0.505182
O O16 0.379376 0.237410 0.562512
O O17 0.500000 0.000000 0.043288
O O18 0.750000 0.613537 0.121370
#
# Coordination Sequence:
#
# PCOD9379482 Si02
#       8
#     8   4   8   8   8   8   8   8
#     4  11  24  38  56  86 117 148 189 236 287 340
#     4  12  22  34  58  82 120 150 182 226 292 352
#     4   9  16  32  58  84 109 141 187 239 281 322
#     4  10  21  37  55  85 110 147 191 234 286 333
#     4   9  17  33  55  81 107 139 182 234 279 320
#     4  10  21  35  56  84 116 149 188 232 282 343
#     4   9  19  33  57  81 109 142 189 233 280 329
#     4  10  20  35  58  88 116 146 186 236 286 341
#
# _framework density 18.327362999999998
#
# number of rings (size 3 to 8) (size 9 to 14) (size 15 to 20)
#    0.000    2.133    1.333    2.000    6.533    1.600 
#    0.000    0.667    2.933    0.000    0.000    0.000 
#    0.000    0.000    0.000    0.000    0.000    0.000 
#
# Total GULP energy -167130.336661 kJ/mol
# GULP energy per Si atom -5571.011222 kJ/mol
# Density = 1.828565 g / cm^3
# Si number density = 18.327363 Si / 1000 Ang^3
#
#
#
# Elastic Constant Matrix: (Units=GPa)
#
#
# Indices 1 2 3 4 5 6 
#
# 1 96.8645 -4.6239 36.3438 0.0000 0.0000 0.0000
# 2 -4.6239 32.2671 11.3999 0.0000 0.0000 0.0000
# 3 36.3438 11.3999 124.9167 0.0000 0.0000 0.0000
# 4 0.0000 0.0000 0.0000 20.6797 0.0000 0.0000
# 5 0.0000 0.0000 0.0000 0.0000 41.8766 0.0000
# 6 0.0000 0.0000 0.0000 0.0000 0.0000 37.5426
#
#
#
# Elastic Compliance Matrix: (Units=1/GPa)
#
#
# Indices 1 2 3 4 5 6 
#
# 1 0.011866 0.003018 -0.003728 0.000000 0.000000 0.000000
# 2 0.003018 0.032791 -0.003870 0.000000 0.000000 0.000000
# 3 -0.003728 -0.003870 0.009443 0.000000 0.000000 0.000000
# 4 0.000000 0.000000 0.000000 0.048357 0.000000 0.000000
# 5 0.000000 0.000000 0.000000 0.000000 0.023880 0.000000
# 6 0.000000 0.000000 0.000000 0.000000 0.000000 0.026636
#
#
# Mechanical properties :
#
#
# Convention : Reuss Voigt Hill
#
# Bulk Modulus (GPa) = 22.25230 37.80979 30.03104
# Shear Modulus (GPa) = 28.23025 34.08165 31.15595
#
# Velocity S-wave (km/s) = 3.92897 4.31699 4.12754
# Velocity P-wave (km/s) = 5.72279 6.74712 6.25595
#
# Compressibility (1/GPa) = 0.04493917
#
# Stress axis : x y z
#
# Youngs Moduli (GPa) = 84.27119 30.49600 105.89679
#
# Poissons Ratio (x) = -0.09202 0.39477
# Poissons Ratio (y) = -0.25429 0.40987
# Poissons Ratio (z) = 0.31415 0.11803
#
# Static dielectric constant tensor:
#      x y z
#    x 1.661810 0.000000 0.000000 
#    y 0.000000 1.648050 0.000000 
#    z 0.000000 0.000000 1.619890 
# 
# From -- ./inp_files/19595.got.cif
#   From: 2010.05.17/outbox.cif.g08.bks.cpg/sg46_10_cif.got.tgz:19595.got - 2010.06.03 19:58:25.
