data_PCOD9379529
_publ_section_title
;
Structure prediction by ZEFSAII (Michael W. Deem and Ramdas Pophale) SiO2 
 PCOD9379529
Probable space group: I M A 2
;
_chemical_formula_sum "Si O2"
_cell_formula_units_Z 40
_cell_length_a 8.816594
_cell_length_b 9.907171
_cell_length_c 25.594377
_cell_angle_alpha 90.000000
_cell_angle_beta 90.000000
_cell_angle_gamma 90.000000
_cell_volume 2235.604958
_symmetry_space_group_name_H-M "I M A 2"
_symmetry_group_IT_number 46
_symmetry_cell_setting 'orthorhombic'
loop_
_space_group_symop_operation_xyz
x,y,z
-x,-y,z
1/2-x,y,z
1/2+x,-y,z
1/2+x,1/2+y,1/2+z
1/2-x,1/2-y,1/2+z
-x,1/2+y,1/2+z
x,1/2-y,1/2+z
loop_
_atom_site_type_symbol
_atom_site_label
_atom_site_fract_x
_atom_site_fract_y
_atom_site_fract_z
Si Si1 0.068263 0.146806 0.522480
Si Si2 0.567352 0.849775 0.234123
Si Si3 0.432164 0.353071 0.142402
Si Si4 0.931578 0.148337 0.818528
Si Si5 0.569266 0.146455 0.940563
O O1 0.250000 0.143137 0.519413
O O2 0.025338 0.180848 0.582566
O O3 0.002887 0.249391 0.480569
O O4 0.000000 0.000000 0.511824
O O5 0.750000 0.856998 0.236339
O O6 0.522483 0.763251 0.182737
O O7 0.505212 0.762032 0.282426
O O8 0.500000 0.000000 0.233514
O O9 0.500000 0.500000 0.155721
O O10 0.250000 0.365350 0.144603
O O11 0.750000 0.144202 0.811032
O O12 0.963133 0.178066 0.879646
O O13 0.000000 0.000000 0.806634
O O14 0.750000 0.143398 0.946866
O O15 0.500000 0.000000 0.951012
#
# Coordination Sequence:
#
# PCOD9379529 Si02
#       5
#     8   8   8   8   8
#     4  10  20  36  57  82 112 145 183 224 269 321
#     4  11  23  38  56  81 112 144 181 225 274 323
#     4   9  20  37  57  81 108 142 182 223 268 322
#     4  10  21  38  59  82 109 143 183 224 269 324
#     4  10  21  37  57  82 111 144 182 224 271 322
#
# _framework density 17.892249
#
# number of rings (size 3 to 8) (size 9 to 14) (size 15 to 20)
#    0.000    2.000    0.000    3.000    0.000    8.000 
#    0.000    2.000    0.000    0.000    0.000    0.000 
#    0.000    0.000    0.000    0.000    0.000    0.000 
#
# Total GULP energy -111702.034167 kJ/mol
# GULP energy per Si atom -5585.101708 kJ/mol
# Density = 1.785153 g / cm^3
# Si number density = 17.892249 Si / 1000 Ang^3
#
#
#
# Elastic Constant Matrix: (Units=GPa)
#
#
# Indices 1 2 3 4 5 6 
#
# 1 69.4858 75.9543 72.2100 0.0000 0.0000 0.0000
# 2 75.9543 184.4556 139.5238 0.0000 0.0000 0.0000
# 3 72.2100 139.5238 139.3826 0.0000 0.0000 0.0000
# 4 0.0000 0.0000 0.0000 38.6412 0.0000 0.0000
# 5 0.0000 0.0000 0.0000 0.0000 29.1678 0.0000
# 6 0.0000 0.0000 0.0000 0.0000 0.0000 39.2105
#
#
#
# Elastic Compliance Matrix: (Units=1/GPa)
#
#
# Indices 1 2 3 4 5 6 
#
# 1 0.031471 -0.002579 -0.013722 0.000000 0.000000 0.000000
# 2 -0.002579 0.022538 -0.021224 0.000000 0.000000 0.000000
# 3 -0.013722 -0.021224 0.035529 0.000000 0.000000 0.000000
# 4 0.000000 0.000000 0.000000 0.025879 0.000000 0.000000
# 5 0.000000 0.000000 0.000000 0.000000 0.034284 0.000000
# 6 0.000000 0.000000 0.000000 0.000000 0.000000 0.025503
#
#
# Mechanical properties :
#
#
# Convention : Reuss Voigt Hill
#
# Bulk Modulus (GPa) = 69.03012 107.63335 88.33173
# Shear Modulus (GPa) = 19.60127 28.44629 24.02378
#
# Velocity S-wave (km/s) = 3.31345 3.99164 3.66825
# Velocity P-wave (km/s) = 7.30092 9.02947 8.21080
#
# Compressibility (1/GPa) = 0.01448643
#
# Stress axis : x y z
#
# Youngs Moduli (GPa) = 31.77499 44.37029 28.14584
#
# Poissons Ratio (x) = 0.11445 0.38623
# Poissons Ratio (y) = 0.08196 0.59737
# Poissons Ratio (z) = 0.43603 0.94172
#
# Static dielectric constant tensor:
#      x y z
#    x 1.596410 0.000000 0.000000 
#    y 0.000000 1.559750 0.000000 
#    z 0.000000 0.000000 1.617610 
# 
# From -- ./inp_files/22726.got.cif
#   From: 2010.05.17/outbox.cif.g08.bks.cpg/sg46_12_cif.got.tgz:22726.got - 2010.06.03 19:58:25.
