data_PCOD9379222
_publ_section_title
;
Structure prediction by ZEFSAII (Michael W. Deem and Ramdas Pophale) SiO2 
 PCOD9379222
Probable space group: I M A 2
;
_chemical_formula_sum "Si O2"
_cell_formula_units_Z 56
_cell_length_a 8.820732
_cell_length_b 18.997000
_cell_length_c 21.324948
_cell_angle_alpha 90.000000
_cell_angle_beta 90.000000
_cell_angle_gamma 90.000000
_cell_volume 3573.367068
_symmetry_space_group_name_H-M "I M A 2"
_symmetry_group_IT_number 46
_symmetry_cell_setting 'orthorhombic'
loop_
_space_group_symop_operation_xyz
x,y,z
-x,-y,z
1/2-x,y,z
1/2+x,-y,z
1/2+x,1/2+y,1/2+z
1/2-x,1/2-y,1/2+z
-x,1/2+y,1/2+z
x,1/2-y,1/2+z
loop_
_atom_site_type_symbol
_atom_site_label
_atom_site_fract_x
_atom_site_fract_y
_atom_site_fract_z
Si Si1 0.067780 0.923276 0.381430
Si Si2 0.568675 0.923526 0.887315
Si Si3 0.432289 0.842244 0.508997
Si Si4 0.068125 0.344776 0.257688
Si Si5 0.568204 0.782693 0.945609
Si Si6 0.931449 0.284112 0.819355
Si Si7 0.931863 0.421991 0.137537
O O1 0.250000 0.927974 0.382316
O O2 0.021507 0.890301 0.449072
O O3 0.025995 0.866064 0.327972
O O4 0.000000 0.000000 0.372524
O O5 0.750000 0.929910 0.885897
O O6 0.523237 0.889886 0.819873
O O7 0.530336 0.865411 0.940442
O O8 0.500000 0.000000 0.896431
O O9 0.250000 0.833469 0.505553
O O10 0.509869 0.766035 0.501728
O O11 0.470498 0.881349 0.573265
O O12 0.250000 0.344744 0.254547
O O13 0.008818 0.265265 0.267868
O O14 0.997624 0.380547 0.196917
O O15 0.750000 0.775986 0.939099
O O16 0.486396 0.749469 0.884981
O O17 0.750000 0.279108 0.814122
O O18 0.750000 0.426083 0.142279
O O19 0.000000 0.500000 0.136134
#
# Coordination Sequence:
#
# PCOD9379222 Si02
#       7
#     8   8   8   8   8   8   8
#     4   9  17  28  44  67  93 119 149 186 227 272
#     4   9  18  29  43  66  92 117 147 184 225 270
#     4   9  19  33  46  64  91 124 159 190 225 271
#     4  10  20  33  47  66  92 123 160 194 228 273
#     4   9  17  29  45  66  90 117 152 191 229 272
#     4   9  17  30  46  65  90 120 153 189 231 276
#     4  11  22  34  48  68  95 126 160 194 228 270
#
# _framework density 15.671493999999999
#
# number of rings (size 3 to 8) (size 9 to 14) (size 15 to 20)
#    0.000    2.571    0.000    4.286    0.000    8.571 
#    0.000    0.000    0.000    0.000    0.000    1.000 
#    0.000    6.857    0.000    0.000    0.000    0.000 
#
# Total GULP energy -155978.541198 kJ/mol
# GULP energy per Si atom -5570.662186 kJ/mol
# Density = 1.563583 g / cm^3
# Si number density = 15.671494 Si / 1000 Ang^3
#
#
#
# Elastic Constant Matrix: (Units=GPa)
#
#
# Indices 1 2 3 4 5 6 
#
# 1 36.2535 49.0062 33.5457 0.0000 0.0000 0.0000
# 2 49.0062 172.4052 69.5114 0.0000 0.0000 0.0000
# 3 33.5457 69.5114 74.9229 0.0000 0.0000 0.0000
# 4 0.0000 0.0000 0.0000 23.9708 0.0000 0.0000
# 5 0.0000 0.0000 0.0000 0.0000 9.7206 0.0000
# 6 0.0000 0.0000 0.0000 0.0000 0.0000 33.2570
#
#
#
# Elastic Compliance Matrix: (Units=1/GPa)
#
#
# Indices 1 2 3 4 5 6 
#
# 1 0.054734 -0.009070 -0.016091 0.000000 0.000000 0.000000
# 2 -0.009070 0.010770 -0.005931 0.000000 0.000000 0.000000
# 3 -0.016091 -0.005931 0.026054 0.000000 0.000000 0.000000
# 4 0.000000 0.000000 0.000000 0.041717 0.000000 0.000000
# 5 0.000000 0.000000 0.000000 0.000000 0.102874 0.000000
# 6 0.000000 0.000000 0.000000 0.000000 0.000000 0.030069
#
#
# Mechanical properties :
#
#
# Convention : Reuss Voigt Hill
#
# Bulk Modulus (GPa) = 34.04471 65.30091 49.67281
# Shear Modulus (GPa) = 14.78447 22.15757 18.47102
#
# Velocity S-wave (km/s) = 3.07481 3.76424 3.43685
# Velocity P-wave (km/s) = 5.86320 7.78792 6.89307
#
# Compressibility (1/GPa) = 0.02937314
#
# Stress axis : x y z
#
# Youngs Moduli (GPa) = 18.27032 92.85274 38.38194
#
# Poissons Ratio (x) = 0.84221 0.61760
# Poissons Ratio (y) = 0.16572 0.22763
# Poissons Ratio (z) = 0.29399 0.55069
#
# Static dielectric constant tensor:
#      x y z
#    x 1.581650 0.000000 0.000000 
#    y 0.000000 1.541980 0.000000 
#    z 0.000000 0.000000 1.519910 
# 
# From -- ./inp_files/21214.got.cif
#   From: 2010.05.17/outbox.cif.g08.bks.cpg/sg46_11_cif.got.tgz:21214.got - 2010.06.03 19:58:25.
