data_PCOD9379488
_publ_section_title
;
Structure prediction by ZEFSAII (Michael W. Deem and Ramdas Pophale) SiO2 
 PCOD9379488
Probable space group: I M A 2
;
_chemical_formula_sum "Si O2"
_cell_formula_units_Z 60
_cell_length_a 14.179839
_cell_length_b 11.690389
_cell_length_c 19.347964
_cell_angle_alpha 90.000000
_cell_angle_beta 90.000000
_cell_angle_gamma 90.000000
_cell_volume 3207.270082
_symmetry_space_group_name_H-M "I M A 2"
_symmetry_group_IT_number 46
_symmetry_cell_setting 'orthorhombic'
loop_
_space_group_symop_operation_xyz
x,y,z
-x,-y,z
1/2-x,y,z
1/2+x,-y,z
1/2+x,1/2+y,1/2+z
1/2-x,1/2-y,1/2+z
-x,1/2+y,1/2+z
x,1/2-y,1/2+z
loop_
_atom_site_type_symbol
_atom_site_label
_atom_site_fract_x
_atom_site_fract_y
_atom_site_fract_z
Si Si1 0.938836 0.755901 0.267460
Si Si2 0.852316 0.120430 0.573799
Si Si3 0.645066 0.217728 0.202503
Si Si4 0.636564 0.686673 0.914933
Si Si5 0.856295 0.726890 0.564106
Si Si6 0.000000 0.500000 0.974515
Si Si7 0.590048 0.919965 0.661691
Si Si8 0.105301 0.462978 0.667891
O O1 0.910560 0.761983 0.346723
O O2 0.889930 0.646141 0.231989
O O3 0.898773 0.869300 0.229143
O O4 0.051566 0.753618 0.248239
O O5 0.750000 0.137449 0.539217
O O6 0.869062 0.224840 0.626818
O O7 0.844946 0.010587 0.624139
O O8 0.934931 0.084291 0.521295
O O9 0.750000 0.256174 0.227332
O O10 0.649628 0.081143 0.192489
O O11 0.750000 0.667813 0.906467
O O12 0.576426 0.572576 0.931820
O O13 0.623325 0.765440 0.983167
O O14 0.750000 0.772360 0.572841
O O15 0.919857 0.814302 0.608101
O O16 0.858341 0.604419 0.600942
O O17 0.500000 0.000000 0.673419
O O18 0.000000 0.500000 0.650576
#
# Coordination Sequence:
#
# PCOD9379488 Si02
#       8
#     8   8   8   8   8   4   8   8
#     4  10  22  39  56  85 119 157 197 241 289 346
#     4  11  20  34  62  94 119 149 191 246 304 354
#     4  10  20  35  59  89 120 153 194 242 295 353
#     4  11  25  40  58  86 119 157 199 242 295 354
#     4  10  20  36  58  87 114 150 197 246 293 345
#     4  12  22  38  60  84 124 152 192 246 298 358
#     4  11  18  35  61  86 118 147 195 245 297 342
#     4   9  20  35  60  84 113 151 199 244 292 342
#
# _framework density 18.707498000000001
#
# number of rings (size 3 to 8) (size 9 to 14) (size 15 to 20)
#    0.000    1.600    3.333    1.200    6.533    3.200 
#    0.000    1.333    0.000    0.000    0.000    0.000 
#    0.000    0.000    0.000    0.000    0.000    0.000 
#
# Total GULP energy -167008.665341 kJ/mol
# GULP energy per Si atom -5566.955511 kJ/mol
# Density = 1.866492 g / cm^3
# Si number density = 18.707498 Si / 1000 Ang^3
#
#
#
# Elastic Constant Matrix: (Units=GPa)
#
#
# Indices 1 2 3 4 5 6 
#
# 1 84.4880 -5.1253 23.9911 0.0000 0.0000 0.0000
# 2 -5.1253 52.2202 17.1252 0.0000 0.0000 0.0000
# 3 23.9911 17.1252 110.5321 0.0000 0.0000 0.0000
# 4 0.0000 0.0000 0.0000 25.3829 0.0000 0.0000
# 5 0.0000 0.0000 0.0000 0.0000 16.8220 0.0000
# 6 0.0000 0.0000 0.0000 0.0000 0.0000 2.8323
#
#
#
# Elastic Compliance Matrix: (Units=1/GPa)
#
#
# Indices 1 2 3 4 5 6 
#
# 1 0.012869 0.002296 -0.003149 0.000000 0.000000 0.000000
# 2 0.002296 0.020584 -0.003688 0.000000 0.000000 0.000000
# 3 -0.003149 -0.003688 0.010302 0.000000 0.000000 0.000000
# 4 0.000000 0.000000 0.000000 0.039397 0.000000 0.000000
# 5 0.000000 0.000000 0.000000 0.000000 0.059446 0.000000
# 6 0.000000 0.000000 0.000000 0.000000 0.000000 0.353070
#
#
# Mechanical properties :
#
#
# Convention : Reuss Voigt Hill
#
# Bulk Modulus (GPa) = 28.83985 35.46915 32.15450
# Shear Modulus (GPa) = 9.68414 23.09073 16.38744
#
# Velocity S-wave (km/s) = 2.27768 3.51708 2.96291
# Velocity P-wave (km/s) = 4.72935 5.95769 5.37870
#
# Compressibility (1/GPa) = 0.03467424
#
# Stress axis : x y z
#
# Youngs Moduli (GPa) = 77.70329 48.58072 97.06884
#
# Poissons Ratio (x) = -0.11153 0.30567
# Poissons Ratio (y) = -0.17839 0.35794
# Poissons Ratio (z) = 0.24469 0.17914
#
# Static dielectric constant tensor:
#      x y z
#    x 1.734810 0.000000 0.000000 
#    y 0.000000 1.676890 0.000000 
#    z 0.000000 0.000000 1.639230 
# 
# From -- ./inp_files/19597.got.cif
#   From: 2010.05.17/outbox.cif.g08.bks.cpg/sg46_10_cif.got.tgz:19597.got - 2010.06.03 19:58:25.
