data_PCOD9379773
_publ_section_title
;
Structure prediction by ZEFSAII (Michael W. Deem and Ramdas Pophale) SiO2 
 PCOD9379773
Probable space group: I M A 2
;
_chemical_formula_sum "Si O2"
_cell_formula_units_Z 48
_cell_length_a 8.447984
_cell_length_b 28.081077
_cell_length_c 9.860116
_cell_angle_alpha 90.000000
_cell_angle_beta 90.000000
_cell_angle_gamma 90.000000
_cell_volume 2339.100422
_symmetry_space_group_name_H-M "I M A 2"
_symmetry_group_IT_number 46
_symmetry_cell_setting 'orthorhombic'
loop_
_space_group_symop_operation_xyz
x,y,z
-x,-y,z
1/2-x,y,z
1/2+x,-y,z
1/2+x,1/2+y,1/2+z
1/2-x,1/2-y,1/2+z
-x,1/2+y,1/2+z
x,1/2-y,1/2+z
loop_
_atom_site_type_symbol
_atom_site_label
_atom_site_fract_x
_atom_site_fract_y
_atom_site_fract_z
Si Si1 0.060583 0.778049 0.097630
Si Si2 0.943628 0.195046 0.794275
Si Si3 0.062858 0.447490 0.942876
Si Si4 0.936607 0.548314 0.498288
Si Si5 0.937166 0.412801 0.225997
Si Si6 0.438647 0.372767 0.723881
O O1 0.250000 0.773908 0.087063
O O2 0.002935 0.730995 0.175941
O O3 0.020542 0.823031 0.192347
O O4 0.001522 0.788132 0.944223
O O5 0.750000 0.195437 0.797284
O O6 0.991234 0.141069 0.760255
O O7 0.250000 0.448873 0.920522
O O8 0.000493 0.404135 0.849834
O O9 0.000000 0.500000 0.909978
O O10 0.023699 0.434712 0.097215
O O11 0.750000 0.544275 0.473198
O O12 0.963369 0.593227 0.594506
O O13 0.000000 0.500000 0.564527
O O14 0.027839 0.556497 0.358845
O O15 0.750000 0.412093 0.198138
O O16 0.250000 0.364468 0.739412
#
# Coordination Sequence:
#
# PCOD9379773 Si02
#       6
#     8   8   8   8   8   8
#     4  10  20  38  62  89 120 155 198 246 294 350
#     4   9  20  36  60  91 119 151 196 246 293 348
#     4  11  24  42  61  87 121 159 202 248 298 353
#     4  11  22  38  61  87 117 154 195 245 298 354
#     4  11  22  39  61  89 121 157 200 243 296 355
#     4  10  23  41  60  87 122 156 197 246 299 356
#
# _framework density 20.520709
#
# number of rings (size 3 to 8) (size 9 to 14) (size 15 to 20)
#    0.000    1.667    1.667    2.500    2.333    2.000 
#    0.000    2.500    0.000    0.000    0.000    0.000 
#    0.000    0.000    0.000    0.000    0.000    0.000 
#
# Total GULP energy -134101.726359 kJ/mol
# GULP energy per Si atom -5587.571932 kJ/mol
# Density = 2.047400 g / cm^3
# Si number density = 20.520709 Si / 1000 Ang^3
#
#
#
# Elastic Constant Matrix: (Units=GPa)
#
#
# Indices 1 2 3 4 5 6 
#
# 1 8.1912 6.2480 -0.8879 -0.0047 0.0044 0.0001
# 2 6.2480 93.2037 -6.6045 0.0239 0.0021 0.0000
# 3 -0.8879 -6.6045 45.8814 0.0151 0.0150 0.0004
# 4 -0.0047 0.0239 0.0151 -43.8433 -0.2030 -0.0018
# 5 0.0044 0.0021 0.0150 -0.2030 142.0102 -0.0001
# 6 0.0001 0.0000 0.0004 -0.0018 -0.0001 20.5525
#
#
#
# Elastic Compliance Matrix: (Units=1/GPa)
#
#
# Indices 1 2 3 4 5 6 
#
# 1 0.128734 -0.008540 0.001262 -0.000018 -0.000004 0.000000
# 2 -0.008540 0.011406 0.001477 0.000008 0.000000 0.000000
# 3 0.001262 0.001477 0.022032 0.000008 -0.000002 0.000000
# 4 -0.000018 0.000008 0.000008 -0.022808 -0.000033 -0.000002
# 5 -0.000004 0.000000 -0.000002 -0.000033 0.007042 0.000000
# 6 0.000000 0.000000 0.000000 -0.000002 0.000000 0.048656
#
#
# Mechanical properties :
#
#
# Convention : Reuss Voigt Hill
#
# Bulk Modulus (GPa) = 6.64148 16.08750 11.36449
# Shear Modulus (GPa) = 19.46623 33.64524 26.55573
#
# Velocity S-wave (km/s) = 3.08330 4.05356 3.60125
# Velocity P-wave (km/s) = 3.98988 5.45574 4.77934
#
# Compressibility (1/GPa) = 0.15056884
#
# Stress axis : x y z
#
# Youngs Moduli (GPa) = 7.76796 87.67063 45.38788
#
# Poissons Ratio (x) = 0.74874 -0.05727
# Poissons Ratio (y) = 0.06634 -0.06702
# Poissons Ratio (z) = -0.00980 -0.12946
#
# Static dielectric constant tensor:
#      x y z
#    x 1.709830 0.000230 0.000000 
#    y 0.000230 3.801740 0.000040 
#    z 0.000000 0.000040 1.718900 
# 
# From -- ./inp_files/3892.got.cif
#   From: 2010.05.17/outbox.cif.g08.bks.cpg/sg46_2_cif.got.tgz:3892.got - 2010.06.03 19:58:25.
