data_PCOD9379570
_publ_section_title
;
Structure prediction by ZEFSAII (Michael W. Deem and Ramdas Pophale) SiO2 
 PCOD9379570
Probable space group: I M A 2
;
_chemical_formula_sum "Si O2"
_cell_formula_units_Z 48
_cell_length_a 8.735343
_cell_length_b 9.589431
_cell_length_c 31.601138
_cell_angle_alpha 90.000000
_cell_angle_beta 90.000000
_cell_angle_gamma 90.000000
_cell_volume 2647.131546
_symmetry_space_group_name_H-M "I M A 2"
_symmetry_group_IT_number 46
_symmetry_cell_setting 'orthorhombic'
loop_
_space_group_symop_operation_xyz
x,y,z
-x,-y,z
1/2-x,y,z
1/2+x,-y,z
1/2+x,1/2+y,1/2+z
1/2-x,1/2-y,1/2+z
-x,1/2+y,1/2+z
x,1/2-y,1/2+z
loop_
_atom_site_type_symbol
_atom_site_label
_atom_site_fract_x
_atom_site_fract_y
_atom_site_fract_z
Si Si1 0.567088 0.344697 0.391800
Si Si2 0.432807 0.153757 0.563233
Si Si3 0.432339 0.656083 0.636159
Si Si4 0.566928 0.845488 0.464892
Si Si5 0.933706 0.842954 0.316982
Si Si6 0.067179 0.156499 0.222346
O O1 0.500000 0.500000 0.390524
O O2 0.750000 0.349461 0.391399
O O3 0.508471 0.264249 0.433436
O O4 0.506450 0.255603 0.352051
O O5 0.250000 0.152797 0.569037
O O6 0.509052 0.257769 0.596231
O O7 0.464246 0.189881 0.514079
O O8 0.500000 0.000000 0.570263
O O9 0.500000 0.500000 0.633398
O O10 0.250000 0.649239 0.637146
O O11 0.492874 0.721278 0.680464
O O12 0.750000 0.848547 0.458639
O O13 0.500000 0.000000 0.456761
O O14 0.750000 0.849646 0.322093
O O15 0.966194 0.787237 0.269314
O O16 0.000000 0.000000 0.320788
O O17 0.250000 0.151167 0.216945
O O18 0.000000 0.000000 0.223660
#
# Coordination Sequence:
#
# PCOD9379570 Si02
#       6
#     8   8   8   8   8   8
#     4  12  25  40  58  81 113 147 181 226 278 331
#     4  10  21  38  59  83 112 145 183 227 274 326
#     4  11  21  34  55  82 114 149 186 229 275 325
#     4  10  21  39  62  85 110 143 184 227 271 324
#     4  10  20  36  59  85 112 145 186 228 271 323
#     4   9  17  31  53  80 110 143 183 229 272 319
#
# _framework density 18.132835
#
# number of rings (size 3 to 8) (size 9 to 14) (size 15 to 20)
#    0.000    1.667    0.000    6.500    0.000    4.667 
#    0.000    0.833    0.000    4.000    0.000    0.000 
#    0.000    0.000    0.000    0.000    0.000    0.000 
#
# Total GULP energy -134037.251623 kJ/mol
# GULP energy per Si atom -5584.885484 kJ/mol
# Density = 1.809156 g / cm^3
# Si number density = 18.132835 Si / 1000 Ang^3
#
#
#
# Elastic Constant Matrix: (Units=GPa)
#
#
# Indices 1 2 3 4 5 6 
#
# 1 147.0635 66.1155 101.1881 0.0000 0.0000 0.0000
# 2 66.1155 98.5026 100.6851 0.0000 0.0000 0.0000
# 3 101.1881 100.6851 164.0393 0.0000 0.0000 0.0000
# 4 0.0000 0.0000 0.0000 39.1436 0.0000 0.0000
# 5 0.0000 0.0000 0.0000 0.0000 30.2580 0.0000
# 6 0.0000 0.0000 0.0000 0.0000 0.0000 32.0316
#
#
#
# Elastic Compliance Matrix: (Units=1/GPa)
#
#
# Indices 1 2 3 4 5 6 
#
# 1 0.011875 -0.001297 -0.006530 0.000000 0.000000 0.000000
# 2 -0.001297 0.027387 -0.016010 0.000000 0.000000 0.000000
# 3 -0.006530 -0.016010 0.019951 0.000000 0.000000 0.000000
# 4 0.000000 0.000000 0.000000 0.025547 0.000000 0.000000
# 5 0.000000 0.000000 0.000000 0.000000 0.033049 0.000000
# 6 0.000000 0.000000 0.000000 0.000000 0.000000 0.031219
#
#
# Mechanical properties :
#
#
# Convention : Reuss Voigt Hill
#
# Bulk Modulus (GPa) = 86.64954 105.06475 95.85715
# Shear Modulus (GPa) = 24.93179 29.72777 27.32978
#
# Velocity S-wave (km/s) = 3.71206 4.05340 3.88648
# Velocity P-wave (km/s) = 8.14016 8.94283 8.55092
#
# Compressibility (1/GPa) = 0.01154074
#
# Stress axis : x y z
#
# Youngs Moduli (GPa) = 84.20774 36.51371 50.12400
#
# Poissons Ratio (x) = 0.04735 0.32728
# Poissons Ratio (y) = 0.10919 0.80248
# Poissons Ratio (z) = 0.54983 0.58458
#
# Static dielectric constant tensor:
#      x y z
#    x 1.600370 0.000000 0.000000 
#    y 0.000000 1.574940 0.000000 
#    z 0.000000 0.000000 1.650040 
# 
# From -- ./inp_files/24985.got.cif
#   From: 2010.05.17/outbox.cif.g08.bks.cpg/sg46_13_cif.got.tgz:24985.got - 2010.06.03 19:58:25.
