data_PCOD9379642
_publ_section_title
;
Structure prediction by ZEFSAII (Michael W. Deem and Ramdas Pophale) SiO2 
 PCOD9379642
Probable space group: I M A 2
;
_chemical_formula_sum "Si O2"
_cell_formula_units_Z 48
_cell_length_a 9.994304
_cell_length_b 9.089229
_cell_length_c 27.775205
_cell_angle_alpha 90.000000
_cell_angle_beta 90.000000
_cell_angle_gamma 90.000000
_cell_volume 2523.114003
_symmetry_space_group_name_H-M "I M A 2"
_symmetry_group_IT_number 46
_symmetry_cell_setting 'orthorhombic'
loop_
_space_group_symop_operation_xyz
x,y,z
-x,-y,z
1/2-x,y,z
1/2+x,-y,z
1/2+x,1/2+y,1/2+z
1/2-x,1/2-y,1/2+z
-x,1/2+y,1/2+z
x,1/2-y,1/2+z
loop_
_atom_site_type_symbol
_atom_site_label
_atom_site_fract_x
_atom_site_fract_y
_atom_site_fract_z
Si Si1 0.403782 0.638200 0.038300
Si Si2 0.602675 0.763176 0.865097
Si Si3 0.099540 0.764926 0.229342
Si Si4 0.910856 0.360021 0.625647
Si Si5 0.500000 0.500000 0.800916
Si Si6 0.500000 0.500000 0.295142
Si Si7 0.408893 0.644557 0.447626
O O1 0.500000 0.500000 0.034382
O O2 0.250000 0.587118 0.038663
O O3 0.427418 0.731662 0.086690
O O4 0.419286 0.748702 0.993369
O O5 0.750000 0.756967 0.888093
O O6 0.579174 0.617241 0.833363
O O7 0.479979 0.778211 0.902026
O O8 0.595535 0.907776 0.830975
O O9 0.250000 0.730193 0.216096
O O10 0.036483 0.807150 0.178141
O O11 0.050947 0.626537 0.259745
O O12 0.090212 0.902628 0.265360
O O13 0.750000 0.396136 0.627515
O O14 0.000000 0.500000 0.611457
O O15 0.500000 0.500000 0.455632
O O16 0.250000 0.613101 0.439575
#
# Coordination Sequence:
#
# PCOD9379642 Si02
#       7
#     8   8   8   8   4   4   8
#     4  10  24  43  65  94 124 155 196 249 306 362
#     4  11  23  39  61  90 123 162 208 253 302 359
#     4  10  20  37  59  86 123 162 200 249 299 354
#     4  10  21  40  64  91 123 159 202 246 300 361
#     4  10  22  38  58  88 122 166 202 254 296 360
#     4  10  22  36  58  88 122 164 204 252 294 362
#     4  11  24  42  64  91 122 160 203 250 303 364
#
# _framework density 19.02411
#
# number of rings (size 3 to 8) (size 9 to 14) (size 15 to 20)
#    0.000    1.667    1.667    2.000    2.333    5.333 
#    0.000    0.833    0.000    0.000    0.000    0.000 
#    0.000    0.000    0.000    0.000    0.000    0.000 
#
# Total GULP energy -133832.676781 kJ/mol
# GULP energy per Si atom -5576.361533 kJ/mol
# Density = 1.898081 g / cm^3
# Si number density = 19.024110 Si / 1000 Ang^3
#
#
#
# Elastic Constant Matrix: (Units=GPa)
#
#
# Indices 1 2 3 4 5 6 
#
# 1 110.0437 53.4075 55.2949 0.0000 0.0000 0.0000
# 2 53.4075 113.5261 56.3307 0.0000 0.0000 0.0000
# 3 55.2949 56.3307 99.3026 0.0000 0.0000 0.0000
# 4 0.0000 0.0000 0.0000 19.8220 0.0000 0.0000
# 5 0.0000 0.0000 0.0000 0.0000 23.9717 0.0000
# 6 0.0000 0.0000 0.0000 0.0000 0.0000 20.8980
#
#
#
# Elastic Compliance Matrix: (Units=1/GPa)
#
#
# Indices 1 2 3 4 5 6 
#
# 1 0.013643 -0.003686 -0.005506 0.000000 0.000000 0.000000
# 2 -0.003686 0.013255 -0.005467 0.000000 0.000000 0.000000
# 3 -0.005506 -0.005467 0.016237 0.000000 0.000000 0.000000
# 4 0.000000 0.000000 0.000000 0.050449 0.000000 0.000000
# 5 0.000000 0.000000 0.000000 0.000000 0.041716 0.000000
# 6 0.000000 0.000000 0.000000 0.000000 0.000000 0.047851
#
#
# Mechanical properties :
#
#
# Convention : Reuss Voigt Hill
#
# Bulk Modulus (GPa) = 72.36959 72.54872 72.45915
# Shear Modulus (GPa) = 23.03359 23.46097 23.24728
#
# Velocity S-wave (km/s) = 3.48337 3.51554 3.49949
# Velocity P-wave (km/s) = 7.36899 7.39571 7.38237
#
# Compressibility (1/GPa) = 0.01381796
#
# Stress axis : x y z
#
# Youngs Moduli (GPa) = 73.29824 75.44216 61.58803
#
# Poissons Ratio (x) = 0.27810 0.33908
# Poissons Ratio (y) = 0.27020 0.33667
# Poissons Ratio (z) = 0.40356 0.41241
#
# Static dielectric constant tensor:
#      x y z
#    x 1.673570 0.000000 0.000000 
#    y 0.000000 1.649340 0.000000 
#    z 0.000000 0.000000 1.694840 
# 
# From -- ./inp_files/25056.got.cif
#   From: 2010.05.17/outbox.cif.g08.bks.cpg/sg46_13_cif.got.tgz:25056.got - 2010.06.03 19:58:25.
