data_PCOD9379689
_publ_section_title
;
Structure prediction by ZEFSAII (Michael W. Deem and Ramdas Pophale) SiO2 
 PCOD9379689
Probable space group: I M A 2
;
_chemical_formula_sum "Si O2"
_cell_formula_units_Z 64
_cell_length_a 8.966906
_cell_length_b 15.748027
_cell_length_c 24.170944
_cell_angle_alpha 90.000000
_cell_angle_beta 90.000000
_cell_angle_gamma 90.000000
_cell_volume 3413.205054
_symmetry_space_group_name_H-M "I M A 2"
_symmetry_group_IT_number 46
_symmetry_cell_setting 'orthorhombic'
loop_
_space_group_symop_operation_xyz
x,y,z
-x,-y,z
1/2-x,y,z
1/2+x,-y,z
1/2+x,1/2+y,1/2+z
1/2-x,1/2-y,1/2+z
-x,1/2+y,1/2+z
x,1/2-y,1/2+z
loop_
_atom_site_type_symbol
_atom_site_label
_atom_site_fract_x
_atom_site_fract_y
_atom_site_fract_z
Si Si1 0.428443 0.410471 0.581890
Si Si2 0.929125 0.253138 0.774969
Si Si3 0.572322 0.850972 0.461977
Si Si4 0.571557 0.589529 0.838457
Si Si5 0.429125 0.746862 0.645378
Si Si6 0.428070 0.911992 0.846028
Si Si7 0.427678 0.149028 0.958370
Si Si8 0.428070 0.911992 0.574319
O O1 0.500000 0.500000 0.597967
O O2 0.250000 0.414081 0.586351
O O3 0.491204 0.333755 0.618380
O O4 0.466625 0.390336 0.517746
O O5 0.750000 0.263366 0.780687
O O6 0.964024 0.245826 0.710173
O O7 0.971862 0.167825 0.807873
O O8 0.008797 0.333755 0.801967
O O9 0.750000 0.862151 0.471102
O O10 0.533375 0.890336 0.402601
O O11 0.542271 0.750000 0.460173
O O12 0.484468 0.892334 0.512414
O O13 0.500000 0.500000 0.822380
O O14 0.750000 0.585919 0.833996
O O15 0.250000 0.736634 0.639660
O O16 0.471861 0.832175 0.612474
O O17 0.250000 0.919338 0.845595
O O18 0.484468 0.892334 0.907933
O O19 0.500000 0.000000 0.826961
O O20 0.250000 0.137849 0.949245
O O21 0.250000 0.919338 0.574752
O O22 0.500000 0.000000 0.593386
#
# Coordination Sequence:
#
# PCOD9379689 Si02
#       8
#     8   8   8   8   8   8   8   8
#     4  11  23  39  62  90 121 156 195 240 294 352
#     4  10  23  43  63  85 116 155 201 249 294 345
#     4  10  20  37  61  90 123 155 191 239 294 353
#     4  11  23  39  62  90 121 156 195 240 294 352
#     4  10  23  43  63  85 116 155 201 249 294 345
#     4  11  23  38  61  90 121 157 197 241 294 352
#     4  10  20  37  61  90 123 155 191 239 294 353
#     4  11  23  38  61  90 121 157 197 241 294 352
#
# _framework density 18.750703999999999
#
# number of rings (size 3 to 8) (size 9 to 14) (size 15 to 20)
#    0.000    1.500    2.500    2.250    0.000    7.000 
#    0.000    0.000    0.000    0.000    0.000    0.000 
#    0.000    0.000    0.000    0.000    0.000    0.000 
#
# Total GULP energy -178921.330627 kJ/mol
# GULP energy per Si atom -5591.291582 kJ/mol
# Density = 1.870803 g / cm^3
# Si number density = 18.750704 Si / 1000 Ang^3
#
#
#
# Elastic Constant Matrix: (Units=GPa)
#
#
# Indices 1 2 3 4 5 6 
#
# 1 41.7130 62.4892 50.8511 0.0000 0.0000 0.0000
# 2 62.4892 177.0682 72.6438 0.0000 0.0000 0.0000
# 3 50.8511 72.6438 121.6886 0.0000 0.0000 0.0000
# 4 0.0000 0.0000 0.0000 -3.2975 0.0000 0.0000
# 5 0.0000 0.0000 0.0000 0.0000 -0.7649 0.0000
# 6 0.0000 0.0000 0.0000 0.0000 0.0000 35.3363
#
#
#
# Elastic Compliance Matrix: (Units=1/GPa)
#
#
# Indices 1 2 3 4 5 6 
#
# 1 0.078488 -0.018863 -0.021538 0.000000 0.000000 0.000000
# 2 -0.018863 0.012013 0.000711 0.000000 0.000000 0.000000
# 3 -0.021538 0.000711 0.016793 0.000000 0.000000 0.000000
# 4 0.000000 0.000000 0.000000 -0.303264 0.000000 0.000000
# 5 0.000000 0.000000 0.000000 0.000000 -1.307434 0.000000
# 6 0.000000 0.000000 0.000000 0.000000 0.000000 0.028299
#
#
# Mechanical properties :
#
#
# Convention : Reuss Voigt Hill
#
# Bulk Modulus (GPa) = 35.82351 79.15977 57.49164
# Shear Modulus (GPa) = -3.60641 16.55384 6.47372
#
# Velocity S-wave (km/s) = -1.38835 2.97448 1.86011
# Velocity P-wave (km/s) = 4.07144 7.35563 5.94483
#
# Compressibility (1/GPa) = 0.02791463
#
# Stress axis : x y z
#
# Youngs Moduli (GPa) = 12.74082 83.24531 59.54761
#
# Poissons Ratio (x) = 1.57026 1.28253
# Poissons Ratio (y) = 0.24033 -0.04236
# Poissons Ratio (z) = 0.27441 -0.05922
#
# Static dielectric constant tensor:
#      x y z
#    x 1.623380 0.000000 0.000000 
#    y 0.000000 1.632660 0.000000 
#    z 0.000000 0.000000 1.621400 
# 
# From -- ./inp_files/7956.got.cif
#   From: 2010.05.17/outbox.cif.g08.bks.cpg/sg46_4_cif.got.tgz:7956.got - 2010.06.03 19:58:25.
