data_PCOD9379196
_publ_section_title
;
Structure prediction by ZEFSAII (Michael W. Deem and Ramdas Pophale) SiO2 
 PCOD9379196
Probable space group: I M A 2
;
_chemical_formula_sum "Si O2"
_cell_formula_units_Z 48
_cell_length_a 8.778806
_cell_length_b 13.460469
_cell_length_c 17.974717
_cell_angle_alpha 90.000000
_cell_angle_beta 90.000000
_cell_angle_gamma 90.000000
_cell_volume 2124.015616
_symmetry_space_group_name_H-M "I M A 2"
_symmetry_group_IT_number 46
_symmetry_cell_setting 'orthorhombic'
loop_
_space_group_symop_operation_xyz
x,y,z
-x,-y,z
1/2-x,y,z
1/2+x,-y,z
1/2+x,1/2+y,1/2+z
1/2-x,1/2-y,1/2+z
-x,1/2+y,1/2+z
x,1/2-y,1/2+z
loop_
_atom_site_type_symbol
_atom_site_label
_atom_site_fract_x
_atom_site_fract_y
_atom_site_fract_z
Si Si1 0.578550 0.133413 0.709040
Si Si2 0.071173 0.397683 0.830831
Si Si3 0.566937 0.825544 0.025066
Si Si4 0.067138 0.683986 0.371197
Si Si5 0.422010 0.631406 0.677447
Si Si6 0.426942 0.399746 0.058511
O O1 0.750000 0.092043 0.698340
O O2 0.529813 0.125957 0.794707
O O3 0.591343 0.250944 0.693028
O O4 0.461233 0.099402 0.646856
O O5 0.250000 0.392887 0.845774
O O6 0.000000 0.500000 0.860314
O O7 0.992463 0.297268 0.860417
O O8 0.036670 0.400109 0.742292
O O9 0.750000 0.830782 0.031110
O O10 0.489305 0.879435 0.095069
O O11 0.518585 0.708298 0.030897
O O12 0.508969 0.859844 0.944879
O O13 0.250000 0.685847 0.377723
O O14 0.250000 0.590148 0.684904
O O15 0.500000 0.500000 0.027842
O O16 0.250000 0.403628 0.043206
#
# Coordination Sequence:
#
# PCOD9379196 Si02
#       6
#     8   8   8   8   8   8
#     4   8  16  31  50  70  94 125 164 203 241 287
#     4  11  21  34  52  75 103 134 168 208 251 301
#     4  10  20  33  50  75 103 134 169 206 248 295
#     4  10  20  34  52  75 102 134 167 204 251 300
#     4   9  17  32  52  73  97 129 168 208 247 293
#     4  10  20  32  49  72  99 130 164 201 244 290
#
# _framework density 22.598703
#
# number of rings (size 3 to 8) (size 9 to 14) (size 15 to 20)
#    0.000    2.333    0.000    4.500    0.000    7.333 
#    0.000    1.667    0.000    1.000    0.000    2.333 
#    0.000    0.000    0.000    0.000    0.000    0.000 
#
# Total GULP energy -134057.666050 kJ/mol
# GULP energy per Si atom -5585.736085 kJ/mol
# Density = 2.254727 g / cm^3
# Si number density = 22.598703 Si / 1000 Ang^3
#
#
#
# Elastic Constant Matrix: (Units=GPa)
#
#
# Indices 1 2 3 4 5 6 
#
# 1 67.5035 7.1710 24.7163 0.0000 0.0000 0.0000
# 2 7.1710 48.0705 -11.9738 0.0000 0.0000 0.0000
# 3 24.7163 -11.9738 165.2283 0.0000 0.0000 0.0000
# 4 0.0000 0.0000 0.0000 -4.3003 0.0000 0.0000
# 5 0.0000 0.0000 0.0000 0.0000 21.3574 0.0000
# 6 0.0000 0.0000 0.0000 0.0000 0.0000 24.2231
#
#
#
# Elastic Compliance Matrix: (Units=1/GPa)
#
#
# Indices 1 2 3 4 5 6 
#
# 1 0.016102 -0.003057 -0.002630 0.000000 0.000000 0.000000
# 2 -0.003057 0.021766 0.002035 0.000000 0.000000 0.000000
# 3 -0.002630 0.002035 0.006593 0.000000 0.000000 0.000000
# 4 0.000000 0.000000 0.000000 -0.232544 0.000000 0.000000
# 5 0.000000 0.000000 0.000000 0.000000 0.046822 0.000000
# 6 0.000000 0.000000 0.000000 0.000000 0.000000 0.041283
#
#
# Mechanical properties :
#
#
# Convention : Reuss Voigt Hill
#
# Bulk Modulus (GPa) = 26.91415 35.62546 31.26981
# Shear Modulus (GPa) = -62.27628 25.64863 -18.31382
#
# Velocity S-wave (km/s) = -5.25521 3.37257 -2.84983
# Velocity P-wave (km/s) = 4.98875 5.56455 1.74308
#
# Compressibility (1/GPa) = 0.03715517
#
# Stress axis : x y z
#
# Youngs Moduli (GPa) = 62.10464 45.94392 151.67300
#
# Poissons Ratio (x) = 0.14046 0.39893
# Poissons Ratio (y) = 0.18986 -0.30860
# Poissons Ratio (z) = 0.16335 -0.09348
#
# Static dielectric constant tensor:
#      x y z
#    x 1.776770 0.000000 0.000000 
#    y 0.000000 1.911030 0.000000 
#    z 0.000000 0.000000 1.857680 
# 
# From -- ./inp_files/13898.got.cif
#   From: 2010.05.17/outbox.cif.g08.bks.cpg/sg46_7_cif.got.tgz:13898.got - 2010.06.03 19:58:25.
