data_PCOD9379722
_publ_section_title
;
Structure prediction by ZEFSAII (Michael W. Deem and Ramdas Pophale) SiO2 
 PCOD9379722
Probable space group: I M A 2
;
_chemical_formula_sum "Si O2"
_cell_formula_units_Z 64
_cell_length_a 15.095913
_cell_length_b 17.475457
_cell_length_c 11.236243
_cell_angle_alpha 90.000000
_cell_angle_beta 90.000000
_cell_angle_gamma 90.000000
_cell_volume 2964.210552
_symmetry_space_group_name_H-M "I M A 2"
_symmetry_group_IT_number 46
_symmetry_cell_setting 'orthorhombic'
loop_
_space_group_symop_operation_xyz
x,y,z
-x,-y,z
1/2-x,y,z
1/2+x,-y,z
1/2+x,1/2+y,1/2+z
1/2-x,1/2-y,1/2+z
-x,1/2+y,1/2+z
x,1/2-y,1/2+z
loop_
_atom_site_type_symbol
_atom_site_label
_atom_site_fract_x
_atom_site_fract_y
_atom_site_fract_z
Si Si1 0.855901 0.305007 0.926190
Si Si2 0.857353 0.899426 0.955062
Si Si3 0.510280 0.579472 0.646102
Si Si4 0.144305 0.092067 0.683095
Si Si5 0.844279 0.617501 0.811284
Si Si6 0.602489 0.017750 0.473145
Si Si7 0.142189 0.696071 0.649333
Si Si8 0.350911 0.270017 0.033188
O O1 0.750000 0.301914 0.927875
O O2 0.882233 0.393111 0.950000
O O3 0.879793 0.282100 0.788629
O O4 0.883455 0.254065 0.041228
O O5 0.750000 0.910214 0.967652
O O6 0.881873 0.915502 0.819137
O O7 0.883252 0.812461 0.992230
O O8 0.923483 0.945158 0.039732
O O9 0.500000 0.500000 0.714344
O O10 0.572738 0.631533 0.728287
O O11 0.418051 0.621304 0.624678
O O12 0.250000 0.103376 0.682725
O O13 0.105143 0.170533 0.625593
O O14 0.129242 0.017923 0.601246
O O15 0.750000 0.621520 0.746559
O O16 0.849304 0.535829 0.876726
O O17 0.846242 0.679675 0.914198
O O18 0.500000 0.000000 0.467465
O O19 0.250000 0.684137 0.644491
O O20 0.250000 0.256230 0.074614
#
# Coordination Sequence:
#
# PCOD9379722 Si02
#       8
#     8   8   8   8   8   8   8   8
#     4  10  21  44  71  96 126 173 227 282 337 394
#     4  10  22  39  59  87 128 172 208 255 324 397
#     4  12  26  41  60  89 128 165 213 262 325 395
#     4   9  19  37  58  86 123 165 214 263 319 390
#     4  10  20  37  64  96 124 158 205 258 319 390
#     4  11  21  36  63  96 131 168 221 276 330 388
#     4  10  24  46  71  97 129 171 227 285 338 397
#     4   8  17  34  59  89 121 158 200 249 307 383
#
# _framework density 21.590907999999999
#
# number of rings (size 3 to 8) (size 9 to 14) (size 15 to 20)
#    0.000    2.000    0.000    4.125    1.750    5.500 
#    4.500    0.000    0.000    0.000    0.000    0.000 
#    0.000    0.000    0.000    0.000    0.000    0.000 
#
# Total GULP energy -178352.037355 kJ/mol
# GULP energy per Si atom -5573.501167 kJ/mol
# Density = 2.154177 g / cm^3
# Si number density = 21.590908 Si / 1000 Ang^3
#
#
#
# Elastic Constant Matrix: (Units=GPa)
#
#
# Indices 1 2 3 4 5 6 
#
# 1 56.2866 9.3601 28.4421 0.0000 0.0000 0.0000
# 2 9.3601 84.1488 33.5757 0.0000 0.0000 0.0000
# 3 28.4421 33.5757 153.2759 0.0000 0.0000 0.0000
# 4 0.0000 0.0000 0.0000 1.8532 0.0000 0.0000
# 5 0.0000 0.0000 0.0000 0.0000 31.2692 0.0000
# 6 0.0000 0.0000 0.0000 0.0000 0.0000 19.7207
#
#
#
# Elastic Compliance Matrix: (Units=1/GPa)
#
#
# Indices 1 2 3 4 5 6 
#
# 1 0.019654 -0.000801 -0.003471 0.000000 0.000000 0.000000
# 2 -0.000801 0.013055 -0.002711 0.000000 0.000000 0.000000
# 3 -0.003471 -0.002711 0.007762 0.000000 0.000000 0.000000
# 4 0.000000 0.000000 0.000000 0.539597 0.000000 0.000000
# 5 0.000000 0.000000 0.000000 0.000000 0.031980 0.000000
# 6 0.000000 0.000000 0.000000 0.000000 0.000000 0.050708
#
#
# Mechanical properties :
#
#
# Convention : Reuss Voigt Hill
#
# Bulk Modulus (GPa) = 37.73104 48.49632 43.11368
# Shear Modulus (GPa) = 7.29334 25.39087 16.34211
#
# Velocity S-wave (km/s) = 1.83992 3.43300 2.75416
# Velocity P-wave (km/s) = 4.69330 6.18257 5.48869
#
# Compressibility (1/GPa) = 0.02650337
#
# Stress axis : x y z
#
# Youngs Moduli (GPa) = 50.88125 76.60188 128.82925
#
# Poissons Ratio (x) = 0.06136 0.44723
# Poissons Ratio (y) = 0.04075 0.34926
# Poissons Ratio (z) = 0.17663 0.20767
#
# Static dielectric constant tensor:
#      x y z
#    x 0.282260 0.000000 0.000000 
#    y 0.000000 1.858200 0.000000 
#    z 0.000000 0.000000 1.835370 
# 
# From -- ./inp_files/11301.got.cif
#   From: 2010.05.17/outbox.cif.g08.bks.cpg/sg46_6_cif.got.tgz:11301.got - 2010.06.03 19:58:25.
