data_PCOD9379461
_publ_section_title
;
Structure prediction by ZEFSAII (Michael W. Deem and Ramdas Pophale) SiO2 
 PCOD9379461
Probable space group: I M A 2
;
_chemical_formula_sum "Si O2"
_cell_formula_units_Z 64
_cell_length_a 22.686934
_cell_length_b 8.846638
_cell_length_c 15.764856
_cell_angle_alpha 90.000000
_cell_angle_beta 90.000000
_cell_angle_gamma 90.000000
_cell_volume 3164.055351
_symmetry_space_group_name_H-M "I M A 2"
_symmetry_group_IT_number 46
_symmetry_cell_setting 'orthorhombic'
loop_
_space_group_symop_operation_xyz
x,y,z
-x,-y,z
1/2-x,y,z
1/2+x,-y,z
1/2+x,1/2+y,1/2+z
1/2-x,1/2-y,1/2+z
-x,1/2+y,1/2+z
x,1/2-y,1/2+z
loop_
_atom_site_type_symbol
_atom_site_label
_atom_site_fract_x
_atom_site_fract_y
_atom_site_fract_z
Si Si1 0.128207 0.400616 0.680520
Si Si2 0.371793 0.400616 0.131591
Si Si3 0.818047 0.362551 0.809851
Si Si4 0.026953 0.170936 0.500432
Si Si5 0.318047 0.862551 0.502261
Si Si6 0.082337 0.843438 0.068411
Si Si7 0.973047 0.670936 0.811679
Si Si8 0.582337 0.343438 0.243701
O O1 0.163058 0.250000 0.656056
O O2 0.165008 0.515781 0.738422
O O3 0.099267 0.491010 0.601610
O O4 0.075586 0.339360 0.739667
O O5 0.400733 0.491010 0.210501
O O6 0.424414 0.339360 0.072445
O O7 0.334992 0.515781 0.073689
O O8 0.750000 0.317587 0.800576
O O9 0.826727 0.421058 0.906056
O O10 0.862840 0.225083 0.795046
O O11 0.051007 0.197538 0.406056
O O12 0.977095 0.296568 0.519804
O O13 0.000000 0.000000 0.500741
O O14 0.250000 0.817587 0.511536
O O15 0.362840 0.725083 0.517065
O O16 0.076851 0.750000 0.156056
O O17 0.000000 0.500000 0.811371
O O18 0.022905 0.796568 0.792307
#
# Coordination Sequence:
#
# PCOD9379461 Si02
#       8
#     8   8   8   8   8   8   8   8
#     4  11  24  37  58  86 122 154 191 238 288 344
#     4  11  24  37  58  86 122 154 191 238 288 344
#     4  10  21  40  63  83 108 149 198 241 290 348
#     4  11  20  34  58  84 116 151 190 234 287 342
#     4  10  21  40  63  83 108 149 198 241 290 348
#     4  10  20  35  57  86 112 147 192 237 281 337
#     4  11  20  34  58  84 116 151 190 234 287 342
#     4  10  20  35  57  86 112 147 192 237 281 337
#
# _framework density 20.227207
#
# number of rings (size 3 to 8) (size 9 to 14) (size 15 to 20)
#    0.000    1.500    5.000    2.250    0.000    5.000 
#    0.000    6.250    0.000    3.000    0.000    0.000 
#    0.000    0.000    0.000    0.000    0.000    0.000 
#
# Total GULP energy -178574.378969 kJ/mol
# GULP energy per Si atom -5580.449343 kJ/mol
# Density = 2.018117 g / cm^3
# Si number density = 20.227207 Si / 1000 Ang^3
#
#
#
# Elastic Constant Matrix: (Units=GPa)
#
#
# Indices 1 2 3 4 5 6 
#
# 1 87.0424 0.9491 22.5530 0.0000 0.0000 0.0000
# 2 0.9491 71.7068 14.6393 0.0000 0.0000 0.0000
# 3 22.5530 14.6393 70.6456 0.0000 0.0000 0.0000
# 4 0.0000 0.0000 0.0000 19.5923 0.0000 0.0000
# 5 0.0000 0.0000 0.0000 0.0000 35.4329 0.0000
# 6 0.0000 0.0000 0.0000 0.0000 0.0000 4.3854
#
#
#
# Elastic Compliance Matrix: (Units=1/GPa)
#
#
# Indices 1 2 3 4 5 6 
#
# 1 0.012556 0.000681 -0.004150 0.000000 0.000000 0.000000
# 2 0.000681 0.014599 -0.003243 0.000000 0.000000 0.000000
# 3 -0.004150 -0.003243 0.016152 0.000000 0.000000 0.000000
# 4 0.000000 0.000000 0.000000 0.051041 0.000000 0.000000
# 5 0.000000 0.000000 0.000000 0.000000 0.028222 0.000000
# 6 0.000000 0.000000 0.000000 0.000000 0.000000 0.228030
#
#
# Mechanical properties :
#
#
# Convention : Reuss Voigt Hill
#
# Bulk Modulus (GPa) = 33.46222 33.96418 33.71320
# Shear Modulus (GPa) = 13.36957 24.63235 19.00096
#
# Velocity S-wave (km/s) = 2.57372 3.49346 3.06825
# Velocity P-wave (km/s) = 5.04095 5.75327 5.40885
#
# Compressibility (1/GPa) = 0.02988445
#
# Stress axis : x y z
#
# Youngs Moduli (GPa) = 79.64057 68.49953 61.91253
#
# Poissons Ratio (x) = -0.04665 0.25691
# Poissons Ratio (y) = -0.05423 0.20075
# Poissons Ratio (z) = 0.33048 0.22211
#
# Static dielectric constant tensor:
#      x y z
#    x 1.700150 0.000000 0.000000 
#    y 0.000000 1.782350 0.000000 
#    z 0.000000 0.000000 1.732140 
# 
# From -- ./inp_files/17426.got.cif
#   From: 2010.05.17/outbox.cif.g08.bks.cpg/sg46_9_cif.got.tgz:17426.got - 2010.06.03 19:58:25.
