data_PCOD9379572
_publ_section_title
;
Structure prediction by ZEFSAII (Michael W. Deem and Ramdas Pophale) SiO2 
 PCOD9379572
Probable space group: I M A 2
;
_chemical_formula_sum "Si O2"
_cell_formula_units_Z 48
_cell_length_a 8.747423
_cell_length_b 9.331459
_cell_length_c 31.321046
_cell_angle_alpha 90.000000
_cell_angle_beta 90.000000
_cell_angle_gamma 90.000000
_cell_volume 2556.618563
_symmetry_space_group_name_H-M "I M A 2"
_symmetry_group_IT_number 46
_symmetry_cell_setting 'orthorhombic'
loop_
_space_group_symop_operation_xyz
x,y,z
-x,-y,z
1/2-x,y,z
1/2+x,-y,z
1/2+x,1/2+y,1/2+z
1/2-x,1/2-y,1/2+z
-x,1/2+y,1/2+z
x,1/2-y,1/2+z
loop_
_atom_site_type_symbol
_atom_site_label
_atom_site_fract_x
_atom_site_fract_y
_atom_site_fract_z
Si Si1 0.933745 0.340335 0.638240
Si Si2 0.565822 0.342140 0.054887
Si Si3 0.566591 0.840351 0.716807
Si Si4 0.067023 0.342067 0.801073
Si Si5 0.565834 0.342932 0.474908
Si Si6 0.566426 0.158185 0.877081
O O1 0.750000 0.346199 0.640802
O O2 0.977099 0.260109 0.594328
O O3 0.000000 0.500000 0.639160
O O4 0.998239 0.248873 0.677553
O O5 0.500000 0.500000 0.060453
O O6 0.750000 0.351253 0.054304
O O7 0.514541 0.269961 0.010458
O O8 0.750000 0.846417 0.712943
O O9 0.528003 0.758050 0.760670
O O10 0.500000 0.000000 0.717180
O O11 0.250000 0.350137 0.804214
O O12 0.000000 0.500000 0.794814
O O13 0.999881 0.269879 0.843507
O O14 0.500000 0.500000 0.484454
O O15 0.750000 0.351436 0.476652
O O16 0.523559 0.305614 0.426131
O O17 0.750000 0.153731 0.873993
O O18 0.500000 0.000000 0.867982
#
# Coordination Sequence:
#
# PCOD9379572 Si02
#       6
#     8   8   8   8   8   8
#     4  11  23  39  61  87 116 150 189 234 283 336
#     4  10  22  38  56  82 115 150 189 232 280 334
#     4  11  24  41  62  87 116 150 188 232 282 336
#     4  11  24  40  59  84 115 151 190 234 284 337
#     4   9  19  36  57  83 113 147 188 232 280 334
#     4  10  20  36  59  85 115 150 190 236 284 337
#
# _framework density 18.774798000000001
#
# number of rings (size 3 to 8) (size 9 to 14) (size 15 to 20)
#    0.000    1.667    0.000    4.000    0.000   10.000 
#    0.000    1.667    0.000    0.000    0.000    0.000 
#    0.000    0.000    0.000    0.000    0.000    0.000 
#
# Total GULP energy -134166.396432 kJ/mol
# GULP energy per Si atom -5590.266518 kJ/mol
# Density = 1.873207 g / cm^3
# Si number density = 18.774798 Si / 1000 Ang^3
#
#
#
# Elastic Constant Matrix: (Units=GPa)
#
#
# Indices 1 2 3 4 5 6 
#
# 1 42.7828 57.7541 53.6366 0.0000 0.0000 0.0000
# 2 57.7541 196.1554 114.6870 0.0000 0.0000 0.0000
# 3 53.6366 114.6870 136.3986 0.0000 0.0000 0.0000
# 4 0.0000 0.0000 0.0000 42.1129 0.0000 0.0000
# 5 0.0000 0.0000 0.0000 0.0000 30.1762 0.0000
# 6 0.0000 0.0000 0.0000 0.0000 0.0000 40.4771
#
#
#
# Elastic Compliance Matrix: (Units=1/GPa)
#
#
# Indices 1 2 3 4 5 6 
#
# 1 0.049788 -0.006318 -0.014266 0.000000 0.000000 0.000000
# 2 -0.006318 0.010829 -0.006621 0.000000 0.000000 0.000000
# 3 -0.014266 -0.006621 0.018509 0.000000 0.000000 0.000000
# 4 0.000000 0.000000 0.000000 0.023746 0.000000 0.000000
# 5 0.000000 0.000000 0.000000 0.000000 0.033139 0.000000
# 6 0.000000 0.000000 0.000000 0.000000 0.000000 0.024705
#
#
# Mechanical properties :
#
#
# Convention : Reuss Voigt Hill
#
# Bulk Modulus (GPa) = 40.46014 91.94359 66.20187
# Shear Modulus (GPa) = 22.38485 32.50384 27.44435
#
# Velocity S-wave (km/s) = 3.45669 4.16534 3.82745
# Velocity P-wave (km/s) = 6.12606 8.49774 7.40743
#
# Compressibility (1/GPa) = 0.02471568
#
# Stress axis : x y z
#
# Youngs Moduli (GPa) = 20.08500 92.34044 54.02920
#
# Poissons Ratio (x) = 0.58343 0.77078
# Poissons Ratio (y) = 0.12690 0.35773
# Poissons Ratio (z) = 0.28653 0.61140
#
# Static dielectric constant tensor:
#      x y z
#    x 1.630810 0.000000 0.000000 
#    y 0.000000 1.600630 0.000000 
#    z 0.000000 0.000000 1.645880 
# 
# From -- ./inp_files/24974.got.cif
#   From: 2010.05.17/outbox.cif.g08.bks.cpg/sg46_13_cif.got.tgz:24974.got - 2010.06.03 19:58:25.
