data_PCOD9379414
_publ_section_title
;
Structure prediction by ZEFSAII (Michael W. Deem and Ramdas Pophale) SiO2 
 PCOD9379414
Probable space group: I M A 2
;
_chemical_formula_sum "Si O2"
_cell_formula_units_Z 64
_cell_length_a 14.952568
_cell_length_b 17.200923
_cell_length_c 10.036985
_cell_angle_alpha 90.000000
_cell_angle_beta 90.000000
_cell_angle_gamma 90.000000
_cell_volume 2581.492175
_symmetry_space_group_name_H-M "I M A 2"
_symmetry_group_IT_number 46
_symmetry_cell_setting 'orthorhombic'
loop_
_space_group_symop_operation_xyz
x,y,z
-x,-y,z
1/2-x,y,z
1/2+x,-y,z
1/2+x,1/2+y,1/2+z
1/2-x,1/2-y,1/2+z
-x,1/2+y,1/2+z
x,1/2-y,1/2+z
loop_
_atom_site_type_symbol
_atom_site_label
_atom_site_fract_x
_atom_site_fract_y
_atom_site_fract_z
Si Si1 0.104338 0.001718 0.561810
Si Si2 0.143358 0.665900 0.948366
Si Si3 0.849697 0.886541 0.335000
Si Si4 0.359869 0.785808 0.735479
Si Si5 0.405128 0.546932 0.337800
Si Si6 0.640851 0.741739 0.162166
Si Si7 0.641543 0.670021 0.416937
Si Si8 0.600476 0.978138 0.092823
O O1 0.124318 0.924434 0.475653
O O2 0.144645 0.991843 0.710027
O O3 0.121676 0.077694 0.474834
O O4 0.000000 0.000000 0.585519
O O5 0.250000 0.671909 0.944150
O O6 0.113129 0.712182 0.080723
O O7 0.111408 0.709105 0.815692
O O8 0.750000 0.858316 0.359058
O O9 0.891163 0.817004 0.248348
O O10 0.849999 0.957432 0.228422
O O11 0.250000 0.794045 0.741701
O O12 0.404159 0.862405 0.800415
O O13 0.500000 0.500000 0.350355
O O14 0.363991 0.540328 0.485921
O O15 0.750000 0.740592 0.159265
O O16 0.612892 0.674060 0.263221
O O17 0.614686 0.755932 0.009651
O O18 0.750000 0.664407 0.419557
O O19 0.605443 0.598244 0.499768
O O20 0.500000 0.000000 0.133047
#
# Coordination Sequence:
#
# PCOD9379414 Si02
#       8
#     8   8   8   8   8   8   8   8
#     4  10  20  36  56  80 111 148 185 226 276 333
#     4   9  18  34  55  82 111 141 181 231 278 326
#     4  10  20  35  55  82 111 142 183 232 278 327
#     4   9  18  33  56  83 110 141 184 233 280 327
#     4   9  20  37  55  77 111 148 184 227 276 334
#     4   8  16  30  49  74 105 135 171 217 267 320
#     4   9  17  32  53  79 108 140 178 225 273 322
#     4  10  20  35  54  77 110 149 185 223 268 325
#
# _framework density 24.791861000000001
#
# number of rings (size 3 to 8) (size 9 to 14) (size 15 to 20)
#    0.000    2.750    0.000    1.875    0.000    3.500 
#    0.000    5.000    0.000   16.500    0.000    0.000 
#    0.000    0.000    0.000    0.000    0.000    0.000 
#
# Total GULP energy -178460.774550 kJ/mol
# GULP energy per Si atom -5576.899205 kJ/mol
# Density = 2.473543 g / cm^3
# Si number density = 24.791861 Si / 1000 Ang^3
#
#
#
# Elastic Constant Matrix: (Units=GPa)
#
#
# Indices 1 2 3 4 5 6 
#
# 1 53.6813 3.6079 3.1934 0.0000 0.0000 0.0000
# 2 3.6079 48.4490 6.0954 0.0000 0.0000 0.0000
# 3 3.1934 6.0954 86.1489 0.0000 0.0000 0.0000
# 4 0.0000 0.0000 0.0000 -36.0407 0.0000 0.0000
# 5 0.0000 0.0000 0.0000 0.0000 -5.9934 0.0000
# 6 0.0000 0.0000 0.0000 0.0000 0.0000 30.5416
#
#
#
# Elastic Compliance Matrix: (Units=1/GPa)
#
#
# Indices 1 2 3 4 5 6 
#
# 1 0.018753 -0.001321 -0.000602 0.000000 0.000000 0.000000
# 2 -0.001321 0.020919 -0.001431 0.000000 0.000000 0.000000
# 3 -0.000602 -0.001431 0.011731 0.000000 0.000000 0.000000
# 4 0.000000 0.000000 0.000000 -0.027746 0.000000 0.000000
# 5 0.000000 0.000000 0.000000 0.000000 -0.166851 0.000000
# 6 0.000000 0.000000 0.000000 0.000000 0.000000 0.032742
#
#
# Mechanical properties :
#
#
# Convention : Reuss Voigt Hill
#
# Bulk Modulus (GPa) = 22.37347 23.78586 23.07966
# Shear Modulus (GPa) = -56.27711 9.39368 -23.44171
#
# Velocity S-wave (km/s) = -4.76960 1.94865 -3.07830
# Velocity P-wave (km/s) = 4.61390 3.83119 1.81797
#
# Compressibility (1/GPa) = 0.04469579
#
# Stress axis : x y z
#
# Youngs Moduli (GPa) = 53.32474 47.80423 85.24152
#
# Poissons Ratio (x) = 0.06314 0.05129
# Poissons Ratio (y) = 0.07043 0.12199
# Poissons Ratio (z) = 0.03209 0.06841
#
# Static dielectric constant tensor:
#      x y z
#    x 1.889310 0.000000 0.000000 
#    y 0.000000 2.250390 0.000000 
#    z 0.000000 0.000000 2.044390 
# 
# From -- ./inp_files/11314.got.cif
#   From: 2010.05.17/outbox.cif.g08.bks.cpg/sg46_6_cif.got.tgz:11314.got - 2010.06.03 19:58:25.
