data_PCOD9379303
_publ_section_title
;
Structure prediction by ZEFSAII (Michael W. Deem and Ramdas Pophale) SiO2 
 PCOD9379303
Probable space group: I M A 2
;
_chemical_formula_sum "Si O2"
_cell_formula_units_Z 64
_cell_length_a 8.912150
_cell_length_b 33.446663
_cell_length_c 12.055274
_cell_angle_alpha 90.000000
_cell_angle_beta 90.000000
_cell_angle_gamma 90.000000
_cell_volume 3593.456299
_symmetry_space_group_name_H-M "I M A 2"
_symmetry_group_IT_number 46
_symmetry_cell_setting 'orthorhombic'
loop_
_space_group_symop_operation_xyz
x,y,z
-x,-y,z
1/2-x,y,z
1/2+x,-y,z
1/2+x,1/2+y,1/2+z
1/2-x,1/2-y,1/2+z
-x,1/2+y,1/2+z
x,1/2-y,1/2+z
loop_
_atom_site_type_symbol
_atom_site_label
_atom_site_fract_x
_atom_site_fract_y
_atom_site_fract_z
Si Si1 0.568100 0.120130 0.163720
Si Si2 0.569423 0.955644 0.048073
Si Si3 0.930364 0.353592 0.909893
Si Si4 0.420263 0.184437 0.745034
Si Si5 0.930753 0.224929 0.544050
Si Si6 0.931174 0.543597 0.295314
Si Si7 0.078370 0.102639 0.605892
Si Si8 0.430768 0.685553 0.479365
O O1 0.750000 0.116394 0.162816
O O2 0.496619 0.077812 0.129629
O O3 0.521601 0.135874 0.285291
O O4 0.525188 0.153369 0.072198
O O5 0.750000 0.957919 0.057313
O O6 0.500000 0.000000 0.064760
O O7 0.531034 0.942620 0.920728
O O8 0.750000 0.352890 0.910554
O O9 0.980325 0.310273 0.958767
O O10 0.986870 0.387057 0.995991
O O11 0.250000 0.197945 0.763587
O O12 0.507929 0.214849 0.665788
O O13 0.416910 0.143458 0.676098
O O14 0.500298 0.176385 0.860484
O O15 0.750000 0.223857 0.547337
O O16 0.977527 0.269242 0.509523
O O17 0.750000 0.542478 0.290291
O O18 0.984202 0.570537 0.192925
O O19 0.000000 0.500000 0.283776
O O20 0.250000 0.091903 0.576172
O O21 0.250000 0.685008 0.472355
#
# Coordination Sequence:
#
# PCOD9379303 Si02
#       8
#     8   8   8   8   8   8   8   8
#     4  10  21  36  54  81 111 143 185 231 274 325
#     4  10  20  36  58  83 112 145 179 222 276 330
#     4   9  19  35  54  76 104 139 181 227 269 314
#     4  10  20  34  52  75 105 136 172 220 270 322
#     4   9  19  35  56  77 102 140 183 225 273 324
#     4   9  18  32  52  79 107 134 166 211 263 316
#     4   9  18  34  53  73 102 138 172 209 260 319
#     4  10  21  34  55  80 106 141 182 227 271 326
#
# _framework density 17.810151000000001
#
# number of rings (size 3 to 8) (size 9 to 14) (size 15 to 20)
#    0.000    2.500    0.000    1.500    1.750    4.000 
#    0.000    0.625    0.000    1.500    0.000    0.000 
#    0.000    0.000    0.000    0.000    0.000    0.000 
#
# Total GULP energy -178411.876987 kJ/mol
# GULP energy per Si atom -5575.371156 kJ/mol
# Density = 1.776961 g / cm^3
# Si number density = 17.810151 Si / 1000 Ang^3
#
#
#
# Elastic Constant Matrix: (Units=GPa)
#
#
# Indices 1 2 3 4 5 6 
#
# 1 14.0631 25.0626 34.7684 0.0000 0.0000 0.0000
# 2 25.0626 78.5836 59.0066 0.0002 0.0000 0.0000
# 3 34.7684 59.0066 149.6360 0.0001 0.0003 0.0001
# 4 0.0000 0.0002 0.0001 14.4487 0.0001 0.0000
# 5 0.0000 0.0000 0.0003 0.0001 17.0841 0.0000
# 6 0.0000 0.0000 0.0001 0.0000 0.0000 21.5725
#
#
#
# Elastic Compliance Matrix: (Units=1/GPa)
#
#
# Indices 1 2 3 4 5 6 
#
# 1 0.273613 -0.056153 -0.041432 0.000002 0.000000 0.000000
# 2 -0.056153 0.029602 0.001374 -0.000001 0.000000 0.000000
# 3 -0.041432 0.001374 0.015768 0.000000 0.000000 0.000000
# 4 0.000002 -0.000001 0.000000 0.069210 0.000000 0.000000
# 5 0.000000 0.000000 0.000000 0.000000 0.058534 0.000000
# 6 0.000000 0.000000 0.000000 0.000000 0.000000 0.046355
#
#
# Mechanical properties :
#
#
# Convention : Reuss Voigt Hill
#
# Bulk Modulus (GPa) = 7.90126 53.32865 30.61496
# Shear Modulus (GPa) = 6.87104 18.85073 12.86088
#
# Velocity S-wave (km/s) = 1.96629 3.25688 2.69013
# Velocity P-wave (km/s) = 3.09856 6.64461 5.18420
#
# Compressibility (1/GPa) = 0.12656209
#
# Stress axis : x y z
#
# Youngs Moduli (GPa) = 3.65479 33.78109 63.42026
#
# Poissons Ratio (x) = 1.89691 2.62762
# Poissons Ratio (y) = 0.20523 -0.08715
# Poissons Ratio (z) = 0.15142 -0.04642
#
# Static dielectric constant tensor:
#      x y z
#    x 1.610200 0.000000 0.000000 
#    y 0.000000 1.604990 0.000000 
#    z 0.000000 0.000000 1.599880 
# 
# From -- ./inp_files/9756.got.cif
#   From: 2010.05.17/outbox.cif.g08.bks.cpg/sg46_5_cif.got.tgz:9756.got - 2010.06.03 19:58:25.
