data_PCOD9379624
_publ_section_title
;
Structure prediction by ZEFSAII (Michael W. Deem and Ramdas Pophale) SiO2 
 PCOD9379624
Probable space group: I M A 2
;
_chemical_formula_sum "Si O2"
_cell_formula_units_Z 36
_cell_length_a 7.550294
_cell_length_b 24.233005
_cell_length_c 7.570869
_cell_angle_alpha 90.000000
_cell_angle_beta 90.000000
_cell_angle_gamma 90.000000
_cell_volume 1385.213981
_symmetry_space_group_name_H-M "I M A 2"
_symmetry_group_IT_number 46
_symmetry_cell_setting 'orthorhombic'
loop_
_space_group_symop_operation_xyz
x,y,z
-x,-y,z
1/2-x,y,z
1/2+x,-y,z
1/2+x,1/2+y,1/2+z
1/2-x,1/2-y,1/2+z
-x,1/2+y,1/2+z
x,1/2-y,1/2+z
loop_
_atom_site_type_symbol
_atom_site_label
_atom_site_fract_x
_atom_site_fract_y
_atom_site_fract_z
Si Si1 0.050353 0.940252 0.857720
Si Si2 0.040007 0.276504 0.169447
Si Si3 0.046632 0.165033 0.049923
Si Si4 0.947714 0.563900 0.962916
Si Si5 0.250000 0.650711 0.956303
O O1 0.250000 0.941558 0.788880
O O2 0.035933 0.893199 0.002270
O O3 0.943456 0.928910 0.678320
O O4 0.000000 0.000000 0.929025
O O5 0.250000 0.277177 0.111971
O O6 0.036911 0.302730 0.362621
O O7 0.905926 0.311260 0.052497
O O8 0.974251 0.212593 0.177382
O O9 0.250000 0.155496 0.095058
O O10 0.750000 0.573781 0.896087
O O11 0.000000 0.500000 0.933352
O O12 0.093688 0.606142 0.895095
#
# Coordination Sequence:
#
# PCOD9379624 Si02
#       5
#     8   8   8   8   4
#     4  11  19  30  50  78 111 142 182 233 285 327
#     4  10  22  36  55  78 114 151 185 231 274 329
#     4  10  20  37  54  80 113 146 185 227 279 332
#     4  11  18  29  47  75 111 145 177 227 285 329
#     4  12  20  32  50  76 112 150 184 222 280 336
#
# _framework density 25.988765000000001
#
# number of rings (size 3 to 8) (size 9 to 14) (size 15 to 20)
#    0.000    1.333    4.444    4.000    1.556    0.000 
#    0.000    0.000    0.000    0.000    0.000    3.111 
#    6.667    0.000    0.000    0.000    0.000    0.000 
#
# Total GULP energy -100320.505061 kJ/mol
# GULP energy per Si atom -5573.361392 kJ/mol
# Density = 2.592961 g / cm^3
# Si number density = 25.988765 Si / 1000 Ang^3
#
#
#
# Elastic Constant Matrix: (Units=GPa)
#
#
# Indices 1 2 3 4 5 6 
#
# 1 153.9879 14.5367 14.0102 0.0023 0.0004 -0.0002
# 2 14.5367 163.6050 46.2811 0.0031 0.0004 -0.0001
# 3 14.0102 46.2811 92.8560 0.0183 -0.0016 -0.0012
# 4 0.0023 0.0031 0.0183 3.3831 -0.0010 -0.0001
# 5 0.0004 0.0004 -0.0016 -0.0010 5.4160 -0.0001
# 6 -0.0002 -0.0001 -0.0012 -0.0001 -0.0001 35.6549
#
#
#
# Elastic Compliance Matrix: (Units=1/GPa)
#
#
# Indices 1 2 3 4 5 6 
#
# 1 0.006602 -0.000355 -0.000819 0.000000 -0.000001 0.000000
# 2 -0.000355 0.007135 -0.003502 0.000013 -0.000001 0.000000
# 3 -0.000819 -0.003502 0.012639 -0.000065 0.000004 0.000000
# 4 0.000000 0.000013 -0.000065 0.295591 0.000054 0.000001
# 5 -0.000001 -0.000001 0.000004 0.000054 0.184637 0.000000
# 6 0.000000 0.000000 0.000000 0.000001 0.000000 0.028047
#
#
# Mechanical properties :
#
#
# Convention : Reuss Voigt Hill
#
# Bulk Modulus (GPa) = 58.74695 62.23388 60.49041
# Shear Modulus (GPa) = 9.09626 31.26551 20.18088
#
# Velocity S-wave (km/s) = 1.87288 3.47225 2.78964
# Velocity P-wave (km/s) = 5.22788 6.33039 5.80536
#
# Compressibility (1/GPa) = 0.01702216
#
# Stress axis : x y z
#
# Youngs Moduli (GPa) = 151.46798 140.16187 79.12211
#
# Poissons Ratio (x) = 0.04974 0.06482
# Poissons Ratio (y) = 0.05375 0.27712
# Poissons Ratio (z) = 0.12409 0.49091
#
# Static dielectric constant tensor:
#      x y z
#    x 2.002630 0.000000 0.000000 
#    y 0.000000 2.130670 0.000000 
#    z 0.000000 0.000000 2.120130 
# 
# From -- ./inp_files/9127.got.cif
#   From: 2010.05.17/outbox.cif.g08.bks.cpg/sg46_5_cif.got.tgz:9127.got - 2010.06.03 19:58:25.
