data_PCOD9379757
_publ_section_title
;
Structure prediction by ZEFSAII (Michael W. Deem and Ramdas Pophale) SiO2 
 PCOD9379757
Probable space group: I M A 2
;
_chemical_formula_sum "Si O2"
_cell_formula_units_Z 48
_cell_length_a 8.499503
_cell_length_b 18.270115
_cell_length_c 15.345245
_cell_angle_alpha 90.000000
_cell_angle_beta 90.000000
_cell_angle_gamma 90.000000
_cell_volume 2382.915484
_symmetry_space_group_name_H-M "I M A 2"
_symmetry_group_IT_number 46
_symmetry_cell_setting 'orthorhombic'
loop_
_space_group_symop_operation_xyz
x,y,z
-x,-y,z
1/2-x,y,z
1/2+x,-y,z
1/2+x,1/2+y,1/2+z
1/2-x,1/2-y,1/2+z
-x,1/2+y,1/2+z
x,1/2-y,1/2+z
loop_
_atom_site_type_symbol
_atom_site_label
_atom_site_fract_x
_atom_site_fract_y
_atom_site_fract_z
Si Si1 0.435845 0.367744 0.155430
Si Si2 0.935747 0.078927 0.477263
Si Si3 0.438630 0.634263 0.344479
Si Si4 0.437529 0.298565 0.849163
Si Si5 0.060449 0.702926 0.661309
Si Si6 0.939177 0.422834 0.528205
O O1 0.250000 0.376501 0.144269
O O2 0.524355 0.410073 0.079022
O O3 0.485740 0.389338 0.253194
O O4 0.483465 0.282198 0.147225
O O5 0.750000 0.082817 0.463797
O O6 0.016277 0.144402 0.423647
O O7 0.000000 0.000000 0.448948
O O8 0.250000 0.630463 0.336212
O O9 0.486234 0.718624 0.362531
O O10 0.492228 0.589291 0.428722
O O11 0.250000 0.290386 0.844008
O O12 0.505012 0.324304 0.755956
O O13 0.250000 0.711394 0.660554
O O14 0.012020 0.645316 0.587787
O O15 0.750000 0.423439 0.528155
O O16 0.000000 0.500000 0.562130
#
# Coordination Sequence:
#
# PCOD9379757 Si02
#       6
#     8   8   8   8   8   8
#     4  11  22  38  61  90 117 150 193 241 291 344
#     4  12  25  42  61  85 117 155 193 238 293 354
#     4  10  20  38  61  87 117 155 197 241 288 340
#     4  11  22  38  61  90 117 150 193 241 291 344
#     4  10  20  38  61  87 117 155 197 241 288 340
#     4  10  23  38  57  83 115 153 193 234 285 338
#
# _framework density 20.143391000000001
#
# number of rings (size 3 to 8) (size 9 to 14) (size 15 to 20)
#    0.000    1.333    0.000    8.500    0.000    5.333 
#    0.000    3.333    0.000    0.000    0.000    0.000 
#    0.000    0.000    0.000    0.000    0.000    0.000 
#
# Total GULP energy -134239.427822 kJ/mol
# GULP energy per Si atom -5593.309493 kJ/mol
# Density = 2.009754 g / cm^3
# Si number density = 20.143391 Si / 1000 Ang^3
#
#
#
# Elastic Constant Matrix: (Units=GPa)
#
#
# Indices 1 2 3 4 5 6 
#
# 1 54.5106 -11.7432 -12.2434 0.0000 0.0000 0.0000
# 2 -11.7432 19.9105 8.8758 0.0000 0.0000 0.0000
# 3 -12.2434 8.8758 53.2492 0.0000 0.0000 0.0000
# 4 0.0000 0.0000 0.0000 -31.6712 0.0000 0.0000
# 5 0.0000 0.0000 0.0000 0.0000 26.6412 0.0000
# 6 0.0000 0.0000 0.0000 0.0000 0.0000 28.9964
#
#
#
# Elastic Compliance Matrix: (Units=1/GPa)
#
#
# Indices 1 2 3 4 5 6 
#
# 1 0.021465 0.011299 0.003052 0.000000 0.000000 0.000000
# 2 0.011299 0.060204 -0.007437 0.000000 0.000000 0.000000
# 3 0.003052 -0.007437 0.020721 0.000000 0.000000 0.000000
# 4 0.000000 0.000000 0.000000 -0.031574 0.000000 0.000000
# 5 0.000000 0.000000 0.000000 0.000000 0.037536 0.000000
# 6 0.000000 0.000000 0.000000 0.000000 0.000000 0.034487
#
#
# Mechanical properties :
#
#
# Convention : Reuss Voigt Hill
#
# Bulk Modulus (GPa) = 8.60449 10.82763 9.71606
# Shear Modulus (GPa) = 29.80634 14.31202 22.05918
#
# Velocity S-wave (km/s) = 3.85087 2.66843 3.31283
# Velocity P-wave (km/s) = 4.90440 3.85758 4.41215
#
# Compressibility (1/GPa) = 0.11621837
#
# Stress axis : x y z
#
# Youngs Moduli (GPa) = 46.58801 16.61012 48.26028
#
# Poissons Ratio (x) = -0.18768 -0.14729
# Poissons Ratio (y) = -0.52641 0.35891
# Poissons Ratio (z) = -0.14218 0.12353
#
# Static dielectric constant tensor:
#      x y z
#    x 1.674640 0.000000 0.000000 
#    y 0.000000 1.687660 0.000000 
#    z 0.000000 0.000000 1.719610 
# 
# From -- ./inp_files/13904.got.cif
#   From: 2010.05.17/outbox.cif.g08.bks.cpg/sg46_7_cif.got.tgz:13904.got - 2010.06.03 19:58:25.
