data_PCOD9379493
_publ_section_title
;
Structure prediction by ZEFSAII (Michael W. Deem and Ramdas Pophale) SiO2 
 PCOD9379493
Probable space group: I M A 2
;
_chemical_formula_sum "Si O2"
_cell_formula_units_Z 44
_cell_length_a 25.740688
_cell_length_b 9.618649
_cell_length_c 8.278364
_cell_angle_alpha 90.000000
_cell_angle_beta 90.000000
_cell_angle_gamma 90.000000
_cell_volume 2049.645465
_symmetry_space_group_name_H-M "I M A 2"
_symmetry_group_IT_number 46
_symmetry_cell_setting 'orthorhombic'
loop_
_space_group_symop_operation_xyz
x,y,z
-x,-y,z
1/2-x,y,z
1/2+x,-y,z
1/2+x,1/2+y,1/2+z
1/2-x,1/2-y,1/2+z
-x,1/2+y,1/2+z
x,1/2-y,1/2+z
loop_
_atom_site_type_symbol
_atom_site_label
_atom_site_fract_x
_atom_site_fract_y
_atom_site_fract_z
Si Si1 0.000000 0.000000 0.347770
Si Si2 0.136387 0.431361 0.581517
Si Si3 0.097293 0.170996 0.429613
Si Si4 0.090191 0.820856 0.226202
Si Si5 0.861279 0.418920 0.064828
Si Si6 0.750000 0.332929 0.976098
Si Si7 0.750000 0.465736 0.608731
O O1 0.040503 0.098750 0.443085
O O2 0.966623 0.112332 0.246224
O O3 0.107074 0.332325 0.456931
O O4 0.117530 0.369341 0.752833
O O5 0.116831 0.589905 0.583992
O O6 0.198384 0.443608 0.579545
O O7 0.131401 0.083460 0.557268
O O8 0.101375 0.661616 0.187932
O O9 0.119681 0.862544 0.389944
O O10 0.801304 0.380284 0.072089
O O11 0.750000 0.165620 0.986785
O O12 0.750000 0.400499 0.793978
#
# Coordination Sequence:
#
# PCOD9379493 Si02
#       7
#     4   8   8   8   8   4   4
#     4   8  20  40  64  86 122 168 200 270 324 356
#     4  10  22  39  57  89 126 164 203 261 305 379
#     4  10  22  39  60  86 128 160 208 253 316 369
#     4  10  20  36  59  88 118 153 213 257 304 363
#     4  10  20  35  60  88 116 158 208 253 297 374
#     4  12  18  39  63  89 125 169 201 256 304 378
#     4  12  22  39  65  91 131 167 215 250 324 366
#
# _framework density 21.467127000000001
#
# number of rings (size 3 to 8) (size 9 to 14) (size 15 to 20)
#    0.000    2.182    5.455    0.000    0.000    8.727 
#    3.273    0.000    0.000   17.455    0.000    0.000 
#    0.000    0.000    0.000    0.000    0.000    0.000 
#
# Total GULP energy -122602.038187 kJ/mol
# GULP energy per Si atom -5572.819918 kJ/mol
# Density = 2.141827 g / cm^3
# Si number density = 21.467127 Si / 1000 Ang^3
#
#
#
# Elastic Constant Matrix: (Units=GPa)
#
#
# Indices 1 2 3 4 5 6 
#
# 1 132.6037 11.6837 1.9264 0.0000 0.0000 0.0000
# 2 11.6837 38.4701 14.7667 0.0000 0.0000 0.0000
# 3 1.9264 14.7667 38.5922 0.0000 0.0000 0.0000
# 4 0.0000 0.0000 0.0000 33.4611 0.0000 0.0000
# 5 0.0000 0.0000 0.0000 0.0000 -73.1300 0.0000
# 6 0.0000 0.0000 0.0000 0.0000 0.0000 28.8516
#
#
#
# Elastic Compliance Matrix: (Units=1/GPa)
#
#
# Indices 1 2 3 4 5 6 
#
# 1 0.007761 -0.002588 0.000603 0.000000 0.000000 0.000000
# 2 -0.002588 0.031333 -0.011860 0.000000 0.000000 0.000000
# 3 0.000603 -0.011860 0.030420 0.000000 0.000000 0.000000
# 4 0.000000 0.000000 0.000000 0.029885 0.000000 0.000000
# 5 0.000000 0.000000 0.000000 0.000000 -0.013674 0.000000
# 6 0.000000 0.000000 0.000000 0.000000 0.000000 0.034660
#
#
# Mechanical properties :
#
#
# Convention : Reuss Voigt Hill
#
# Bulk Modulus (GPa) = 23.91040 29.60216 26.75628
# Shear Modulus (GPa) = 30.86122 9.92248 20.39185
#
# Velocity S-wave (km/s) = 3.79569 2.15226 3.08541
# Velocity P-wave (km/s) = 5.51108 4.47166 5.01835
#
# Compressibility (1/GPa) = 0.04182281
#
# Stress axis : x y z
#
# Youngs Moduli (GPa) = 128.85642 31.91558 32.87327
#
# Poissons Ratio (x) = 0.08261 -0.01982
# Poissons Ratio (y) = 0.33354 0.38987
# Poissons Ratio (z) = -0.07771 0.37851
#
# Static dielectric constant tensor:
#      x y z
#    x 1.821510 0.000000 0.000000 
#    y 0.000000 1.808620 0.000000 
#    z 0.000000 0.000000 1.840710 
# 
# From -- ./inp_files/12684.got.cif
#   From: 2010.05.17/outbox.cif.g08.bks.cpg/sg46_7_cif.got.tgz:12684.got - 2010.06.03 19:58:25.
