data_PCOD9379018
_publ_section_title
;
Structure prediction by ZEFSAII (Michael W. Deem and Ramdas Pophale) SiO2 
 PCOD9379018
Probable space group: I M A 2
;
_chemical_formula_sum "Si O2"
_cell_formula_units_Z 64
_cell_length_a 8.364993
_cell_length_b 28.702846
_cell_length_c 12.811532
_cell_angle_alpha 90.000000
_cell_angle_beta 90.000000
_cell_angle_gamma 90.000000
_cell_volume 3076.037378
_symmetry_space_group_name_H-M "I M A 2"
_symmetry_group_IT_number 46
_symmetry_cell_setting 'orthorhombic'
loop_
_space_group_symop_operation_xyz
x,y,z
-x,-y,z
1/2-x,y,z
1/2+x,-y,z
1/2+x,1/2+y,1/2+z
1/2-x,1/2-y,1/2+z
-x,1/2+y,1/2+z
x,1/2-y,1/2+z
loop_
_atom_site_type_symbol
_atom_site_label
_atom_site_fract_x
_atom_site_fract_y
_atom_site_fract_z
Si Si1 0.434633 0.306186 0.810790
Si Si2 0.556345 0.051865 0.570527
Si Si3 0.061335 0.877302 0.746724
Si Si4 0.566143 0.068173 0.119465
Si Si5 0.435053 0.451168 0.401180
Si Si6 0.061062 0.791556 0.872038
Si Si7 0.067762 0.165742 0.080752
Si Si8 0.056696 0.589255 0.845645
O O1 0.250000 0.301964 0.842922
O O2 0.531424 0.262616 0.853259
O O3 0.442066 0.303963 0.685033
O O4 0.496011 0.357463 0.842331
O O5 0.750000 0.051970 0.573769
O O6 0.496286 0.091956 0.650394
O O7 0.505914 0.064571 0.452408
O O8 0.500000 0.000000 0.598233
O O9 0.250000 0.872966 0.727045
O O10 0.002843 0.825680 0.777884
O O11 0.030844 0.909062 0.848760
O O12 0.750000 0.052490 0.110543
O O13 0.553787 0.123491 0.098162
O O14 0.505708 0.063409 0.238374
O O15 0.462480 0.048327 0.025385
O O16 0.500000 0.500000 0.358872
O O17 0.250000 0.445508 0.376716
O O18 0.250000 0.800061 0.885192
O O19 0.971868 0.807267 0.976356
O O20 0.250000 0.146813 0.075364
O O21 0.250000 0.590421 0.842304
#
# Coordination Sequence:
#
# PCOD9379018 Si02
#       8
#     8   8   8   8   8   8   8   8
#     4  10  22  38  58  88 123 158 202 254 308 367
#     4  10  22  41  63  89 122 162 207 257 309 369
#     4  10  22  40  60  85 118 155 201 252 301 361
#     4  10  19  35  58  84 114 149 191 239 296 358
#     4  12  24  37  57  84 116 151 190 241 297 357
#     4  11  22  36  59  87 119 161 205 251 306 368
#     4  10  20  36  57  82 115 154 192 242 301 355
#     4   9  20  39  62  87 120 160 202 249 302 364
#
# _framework density 20.805990000000001
#
# number of rings (size 3 to 8) (size 9 to 14) (size 15 to 20)
#    0.000    1.750    1.250    3.000    0.000    6.000 
#    0.000    2.500    0.000    0.000    0.000    0.000 
#    0.000    0.000    0.000    0.000    0.000    0.000 
#
# Total GULP energy -178666.184208 kJ/mol
# GULP energy per Si atom -5583.318256 kJ/mol
# Density = 2.075864 g / cm^3
# Si number density = 20.805990 Si / 1000 Ang^3
#
#
#
# Elastic Constant Matrix: (Units=GPa)
#
#
# Indices 1 2 3 4 5 6 
#
# 1 19.3463 -10.3107 5.0663 0.0000 0.0001 0.0001
# 2 -10.3107 50.4531 6.9227 0.0002 0.0001 0.0001
# 3 5.0663 6.9227 94.7940 0.0002 0.0003 0.0002
# 4 0.0000 0.0002 0.0002 25.2911 -0.0001 0.0000
# 5 0.0001 0.0001 0.0003 -0.0001 16.4826 0.0001
# 6 0.0001 0.0001 0.0002 0.0000 0.0001 24.5637
#
#
#
# Elastic Compliance Matrix: (Units=1/GPa)
#
#
# Indices 1 2 3 4 5 6 
#
# 1 0.059554 0.012735 -0.004113 0.000000 0.000000 0.000000
# 2 0.012735 0.022744 -0.002342 0.000000 0.000000 0.000000
# 3 -0.004113 -0.002342 0.010940 0.000000 0.000000 0.000000
# 4 0.000000 0.000000 0.000000 0.039540 0.000000 0.000000
# 5 0.000000 0.000000 0.000000 0.000000 0.060670 0.000000
# 6 0.000000 0.000000 0.000000 0.000000 0.000000 0.040711
#
#
# Mechanical properties :
#
#
# Convention : Reuss Voigt Hill
#
# Bulk Modulus (GPa) = 9.45191 18.66110 14.05651
# Shear Modulus (GPa) = 19.46559 24.12847 21.79703
#
# Velocity S-wave (km/s) = 3.06204 3.40911 3.24023
# Velocity P-wave (km/s) = 4.12967 4.94820 4.55735
#
# Compressibility (1/GPa) = 0.10579869
#
# Stress axis : x y z
#
# Youngs Moduli (GPa) = 16.79159 43.96719 91.40762
#
# Poissons Ratio (x) = -0.55992 0.37595
# Poissons Ratio (y) = -0.21384 0.21404
# Poissons Ratio (z) = 0.06906 0.10295
#
# Static dielectric constant tensor:
#      x y z
#    x 1.719120 0.000000 0.000000 
#    y 0.000000 1.732560 0.000000 
#    z 0.000000 0.000000 1.766190 
# 
# From -- ./inp_files/9785.got.cif
#   From: 2010.05.17/outbox.cif.g08.bks.cpg/sg46_5_cif.got.tgz:9785.got - 2010.06.03 19:58:25.
