data_PCOD9379011
_publ_section_title
;
Structure prediction by ZEFSAII (Michael W. Deem and Ramdas Pophale) SiO2 
 PCOD9379011
Probable space group: I M A 2
;
_chemical_formula_sum "Si O2"
_cell_formula_units_Z 64
_cell_length_a 8.551478
_cell_length_b 33.840279
_cell_length_c 12.008213
_cell_angle_alpha 90.000000
_cell_angle_beta 90.000000
_cell_angle_gamma 90.000000
_cell_volume 3474.989531
_symmetry_space_group_name_H-M "I M A 2"
_symmetry_group_IT_number 46
_symmetry_cell_setting 'orthorhombic'
loop_
_space_group_symop_operation_xyz
x,y,z
-x,-y,z
1/2-x,y,z
1/2+x,-y,z
1/2+x,1/2+y,1/2+z
1/2-x,1/2-y,1/2+z
-x,1/2+y,1/2+z
x,1/2-y,1/2+z
loop_
_atom_site_type_symbol
_atom_site_label
_atom_site_fract_x
_atom_site_fract_y
_atom_site_fract_z
Si Si1 0.565576 0.728488 0.822750
Si Si2 0.439060 0.955388 0.831554
Si Si3 0.929915 0.825153 0.528475
Si Si4 0.061476 0.623206 0.454130
Si Si5 0.934855 0.187527 0.768669
Si Si6 0.564052 0.850930 0.193263
Si Si7 0.938860 0.044023 0.579322
Si Si8 0.068110 0.604948 0.898742
O O1 0.750000 0.736156 0.799618
O O2 0.468641 0.768044 0.808011
O O3 0.513396 0.691914 0.743282
O O4 0.554142 0.712883 0.949278
O O5 0.250000 0.957138 0.834615
O O6 0.491212 0.920662 0.915229
O O7 0.485148 0.943053 0.704749
O O8 0.500000 0.000000 0.852395
O O9 0.750000 0.838901 0.514496
O O10 0.970439 0.817974 0.655254
O O11 0.046412 0.857301 0.478310
O O12 0.250000 0.622355 0.456929
O O13 0.015875 0.655448 0.360911
O O14 0.003207 0.637383 0.574040
O O15 0.750000 0.182039 0.747593
O O16 0.750000 0.849084 0.186051
O O17 0.517152 0.883521 0.285196
O O18 0.750000 0.045224 0.576795
O O19 0.996020 0.069827 0.475635
O O20 0.000000 0.000000 0.567273
O O21 0.250000 0.598022 0.873982
#
# Coordination Sequence:
#
# PCOD9379011 Si02
#       8
#     8   8   8   8   8   8   8   8
#     4   9  21  39  55  76 108 145 182 228 283 332
#     4   9  18  35  57  82 115 147 182 229 284 338
#     4  10  21  37  56  79 108 143 181 223 275 329
#     4  10  22  39  57  82 114 149 189 238 286 337
#     4  11  23  36  56  84 111 142 185 233 279 333
#     4  10  22  39  58  80 109 149 192 234 282 339
#     4   9  18  32  54  84 115 145 178 225 282 336
#     4  10  19  35  58  81 109 144 183 228 277 330
#
# _framework density 18.417321000000001
#
# number of rings (size 3 to 8) (size 9 to 14) (size 15 to 20)
#    0.000    2.250    0.000    3.000    1.750    7.500 
#    0.000    3.125    0.000    0.000    0.000    0.000 
#    0.000    0.000    0.000    0.000    0.000    0.000 
#
# Total GULP energy -178492.733380 kJ/mol
# GULP energy per Si atom -5577.897918 kJ/mol
# Density = 1.837540 g / cm^3
# Si number density = 18.417321 Si / 1000 Ang^3
#
#
#
# Elastic Constant Matrix: (Units=GPa)
#
#
# Indices 1 2 3 4 5 6 
#
# 1 13.9001 15.2282 21.6549 0.0000 0.0000 0.0000
# 2 15.2282 85.1975 66.9935 0.0003 0.0000 0.0000
# 3 21.6549 66.9935 138.7991 0.0006 0.0001 0.0000
# 4 0.0000 0.0003 0.0006 12.5647 0.0001 0.0000
# 5 0.0000 0.0000 0.0001 0.0001 12.5242 0.0000
# 6 0.0000 0.0000 0.0000 0.0000 0.0000 22.5664
#
#
#
# Elastic Compliance Matrix: (Units=1/GPa)
#
#
# Indices 1 2 3 4 5 6 
#
# 1 0.099108 -0.008954 -0.011140 0.000001 0.000000 0.000000
# 2 -0.008954 0.019726 -0.008124 0.000000 0.000000 0.000000
# 3 -0.011140 -0.008124 0.012864 0.000000 0.000000 0.000000
# 4 0.000001 0.000000 0.000000 0.079588 0.000000 0.000000
# 5 0.000000 0.000000 0.000000 0.000000 0.079845 0.000000
# 6 0.000000 0.000000 0.000000 0.000000 0.000000 0.044314
#
#
# Mechanical properties :
#
#
# Convention : Reuss Voigt Hill
#
# Bulk Modulus (GPa) = 13.28726 49.51666 31.40196
# Shear Modulus (GPa) = 11.99127 18.46574 15.22851
#
# Velocity S-wave (km/s) = 2.55441 3.16987 2.87863
# Velocity P-wave (km/s) = 3.99127 6.35151 5.30433
#
# Compressibility (1/GPa) = 0.07526007
#
# Stress axis : x y z
#
# Youngs Moduli (GPa) = 10.09002 50.69404 77.73651
#
# Poissons Ratio (x) = 0.45394 0.86602
# Poissons Ratio (y) = 0.09035 0.63154
# Poissons Ratio (z) = 0.11241 0.41184
#
# Static dielectric constant tensor:
#      x y z
#    x 1.637390 0.000000 0.000000 
#    y 0.000000 1.630890 0.000000 
#    z 0.000000 0.000000 1.629690 
# 
# From -- ./inp_files/9765.got.cif
#   From: 2010.05.17/outbox.cif.g08.bks.cpg/sg46_5_cif.got.tgz:9765.got - 2010.06.03 19:58:25.
