data_PCOD9379723
_publ_section_title
;
Structure prediction by ZEFSAII (Michael W. Deem and Ramdas Pophale) SiO2 
 PCOD9379723
Probable space group: I M A 2
;
_chemical_formula_sum "Si O2"
_cell_formula_units_Z 60
_cell_length_a 10.999887
_cell_length_b 19.724908
_cell_length_c 12.433692
_cell_angle_alpha 90.000000
_cell_angle_beta 90.000000
_cell_angle_gamma 90.000000
_cell_volume 2697.760025
_symmetry_space_group_name_H-M "I M A 2"
_symmetry_group_IT_number 46
_symmetry_cell_setting 'orthorhombic'
loop_
_space_group_symop_operation_xyz
x,y,z
-x,-y,z
1/2-x,y,z
1/2+x,-y,z
1/2+x,1/2+y,1/2+z
1/2-x,1/2-y,1/2+z
-x,1/2+y,1/2+z
x,1/2-y,1/2+z
loop_
_atom_site_type_symbol
_atom_site_label
_atom_site_fract_x
_atom_site_fract_y
_atom_site_fract_z
Si Si1 0.500000 0.000000 0.032771
Si Si2 0.113107 0.750118 0.893961
Si Si3 0.613905 0.411584 0.870381
Si Si4 0.878155 0.604922 0.399596
Si Si5 0.522635 0.671780 0.204789
Si Si6 0.887677 0.047764 0.613713
Si Si7 0.060062 0.208827 0.066771
Si Si8 0.888664 0.920228 0.213979
O O1 0.601821 0.977048 0.119609
O O2 0.509525 0.936701 0.950745
O O3 0.250000 0.771688 0.876239
O O4 0.105441 0.668911 0.893038
O O5 0.037286 0.778991 0.793735
O O6 0.069398 0.777565 0.009950
O O7 0.750000 0.423640 0.821421
O O8 0.495775 0.428955 0.800091
O O9 0.612120 0.449566 0.984045
O O10 0.750000 0.567758 0.416460
O O11 0.894547 0.622912 0.276335
O O12 0.872554 0.675192 0.465813
O O13 0.422111 0.623475 0.152019
O O14 0.591145 0.719109 0.119086
O O15 0.750000 0.029516 0.648932
O O16 0.000000 0.000000 0.648391
O O17 0.077041 0.150874 0.155728
O O18 0.750000 0.917074 0.254591
#
# Coordination Sequence:
#
# PCOD9379723 Si02
#       8
#     4   8   8   8   8   8   8   8
#     4  10  22  44  66  88 134 182 222 272 326 392
#     4  10  20  37  64  96 130 170 217 273 334 400
#     4  10  22  41  67 100 135 172 221 275 336 405
#     4  10  24  43  64  96 137 177 229 283 333 408
#     4  11  22  41  68  98 133 174 224 281 343 407
#     4  11  26  47  68  96 136 183 232 281 335 404
#     4  10  20  39  63  96 132 171 215 271 340 400
#     4  11  24  43  68 101 138 176 224 280 340 408
#
# _framework density 22.240673999999999
#
# number of rings (size 3 to 8) (size 9 to 14) (size 15 to 20)
#    0.000    1.600    2.667    2.000    1.867    4.267 
#    0.000   12.000    0.000    0.000    0.000    0.000 
#    0.000    0.000    0.000    0.000    0.000    0.000 
#
# Total GULP energy -167097.702500 kJ/mol
# GULP energy per Si atom -5569.923417 kJ/mol
# Density = 2.219005 g / cm^3
# Si number density = 22.240674 Si / 1000 Ang^3
#
#
#
# Elastic Constant Matrix: (Units=GPa)
#
#
# Indices 1 2 3 4 5 6 
#
# 1 131.6084 51.0083 39.6194 0.0000 0.0000 0.0000
# 2 51.0083 96.8206 24.6711 0.0000 0.0000 0.0000
# 3 39.6194 24.6711 73.9160 0.0000 0.0000 0.0000
# 4 0.0000 0.0000 0.0000 35.0864 0.0000 0.0000
# 5 0.0000 0.0000 0.0000 0.0000 9.8848 0.0000
# 6 0.0000 0.0000 0.0000 0.0000 0.0000 4.3314
#
#
#
# Elastic Compliance Matrix: (Units=1/GPa)
#
#
# Indices 1 2 3 4 5 6 
#
# 1 0.010609 -0.004525 -0.004176 0.000000 0.000000 0.000000
# 2 -0.004525 0.013219 -0.001986 0.000000 0.000000 0.000000
# 3 -0.004176 -0.001986 0.016430 0.000000 0.000000 0.000000
# 4 0.000000 0.000000 0.000000 0.028501 0.000000 0.000000
# 5 0.000000 0.000000 0.000000 0.000000 0.101165 0.000000
# 6 0.000000 0.000000 0.000000 0.000000 0.000000 0.230870
#
#
# Mechanical properties :
#
#
# Convention : Reuss Voigt Hill
#
# Bulk Modulus (GPa) = 52.95921 59.21585 56.08753
# Shear Modulus (GPa) = 11.66955 22.33026 16.99991
#
# Velocity S-wave (km/s) = 2.29311 3.17208 2.76771
# Velocity P-wave (km/s) = 5.55650 6.33237 5.95708
#
# Compressibility (1/GPa) = 0.01888246
#
# Stress axis : x y z
#
# Youngs Moduli (GPa) = 94.25596 75.65105 60.86266
#
# Poissons Ratio (x) = 0.34234 0.25418
# Poissons Ratio (y) = 0.42653 0.12090
# Poissons Ratio (z) = 0.39364 0.15028
#
# Static dielectric constant tensor:
#      x y z
#    x 1.860390 0.000000 0.000000 
#    y 0.000000 1.841030 0.000000 
#    z 0.000000 0.000000 1.827840 
# 
# From -- ./inp_files/10430.got.cif
#   From: 2010.05.17/outbox.cif.g08.bks.cpg/sg46_6_cif.got.tgz:10430.got - 2010.06.03 19:58:25.
