data_PCOD9379887
_publ_section_title
;
Structure prediction by ZEFSAII (Michael W. Deem and Ramdas Pophale) SiO2 
 PCOD9379887
Probable space group: I M A 2
;
_chemical_formula_sum "Si O2"
_cell_formula_units_Z 52
_cell_length_a 19.678987
_cell_length_b 8.958183
_cell_length_c 13.737495
_cell_angle_alpha 90.000000
_cell_angle_beta 90.000000
_cell_angle_gamma 90.000000
_cell_volume 2421.755062
_symmetry_space_group_name_H-M "I M A 2"
_symmetry_group_IT_number 46
_symmetry_cell_setting 'orthorhombic'
loop_
_space_group_symop_operation_xyz
x,y,z
-x,-y,z
1/2-x,y,z
1/2+x,-y,z
1/2+x,1/2+y,1/2+z
1/2-x,1/2-y,1/2+z
-x,1/2+y,1/2+z
x,1/2-y,1/2+z
loop_
_atom_site_type_symbol
_atom_site_label
_atom_site_fract_x
_atom_site_fract_y
_atom_site_fract_z
Si Si1 0.034786 0.690988 0.576130
Si Si2 0.250000 0.245449 0.113077
Si Si3 0.602067 0.060208 0.479775
Si Si4 0.110615 0.282663 0.498140
Si Si5 0.922664 0.035683 0.875721
Si Si6 0.107070 0.818776 0.274630
Si Si7 0.750000 0.099373 0.573119
Si Si8 0.250000 0.587866 0.703364
O O1 0.056144 0.862727 0.561582
O O2 0.072199 0.615688 0.482570
O O3 0.063279 0.645055 0.680022
O O4 0.954895 0.666543 0.561464
O O5 0.318963 0.218318 0.053696
O O6 0.250000 0.432298 0.129515
O O7 0.250000 0.090477 0.177562
O O8 0.578508 0.120045 0.375272
O O9 0.680563 0.096853 0.509274
O O10 0.594750 0.885652 0.473260
O O11 0.114384 0.383098 0.401713
O O12 0.889309 0.141459 0.796311
O O13 0.000000 0.000000 0.846580
O O14 0.181255 0.884772 0.261297
O O15 0.750000 0.263921 0.628292
#
# Coordination Sequence:
#
# PCOD9379887 Si02
#       8
#     8   4   8   8   8   8   4   4
#     4  10  20  40  65  92 128 173 223 275 341 404
#     4  10  24  41  68  99 125 180 230 267 341 407
#     4  10  21  40  65  94 134 175 225 276 341 411
#     4  10  21  41  65  92 131 176 218 281 345 401
#     4   9  21  41  60  93 131 168 223 274 337 407
#     4  11  23  39  67 101 127 176 230 276 337 409
#     4  10  21  43  67  94 141 182 220 280 338 407
#     4  12  23  44  67 101 136 178 228 275 339 406
#
# _framework density 21.472031000000001
#
# number of rings (size 3 to 8) (size 9 to 14) (size 15 to 20)
#    0.000    1.846    1.538    1.846    2.154    1.846 
#    2.769   23.077    0.000    0.000    0.000    0.000 
#    0.000    0.000    0.000    0.000    0.000    0.000 
#
# Total GULP energy -144841.135069 kJ/mol
# GULP energy per Si atom -5570.812887 kJ/mol
# Density = 2.142316 g / cm^3
# Si number density = 21.472031 Si / 1000 Ang^3
#
#
#
# Elastic Constant Matrix: (Units=GPa)
#
#
# Indices 1 2 3 4 5 6 
#
# 1 67.9881 -1.7095 18.1102 0.0000 0.0000 0.0000
# 2 -1.7095 101.7295 13.6235 0.0000 0.0000 0.0000
# 3 18.1102 13.6235 67.7101 0.0000 0.0000 0.0000
# 4 0.0000 0.0000 0.0000 20.9272 0.0000 0.0000
# 5 0.0000 0.0000 0.0000 0.0000 21.8798 0.0000
# 6 0.0000 0.0000 0.0000 0.0000 0.0000 21.0379
#
#
#
# Elastic Compliance Matrix: (Units=1/GPa)
#
#
# Indices 1 2 3 4 5 6 
#
# 1 0.015910 0.000860 -0.004428 0.000000 0.000000 0.000000
# 2 0.000860 0.010149 -0.002272 0.000000 0.000000 0.000000
# 3 -0.004428 -0.002272 0.016410 0.000000 0.000000 0.000000
# 4 0.000000 0.000000 0.000000 0.047785 0.000000 0.000000
# 5 0.000000 0.000000 0.000000 0.000000 0.045704 0.000000
# 6 0.000000 0.000000 0.000000 0.000000 0.000000 0.047533
#
#
# Mechanical properties :
#
#
# Convention : Reuss Voigt Hill
#
# Bulk Modulus (GPa) = 32.47952 33.05292 32.76622
# Shear Modulus (GPa) = 24.33870 26.59589 25.46730
#
# Velocity S-wave (km/s) = 3.37041 3.52323 3.44767
# Velocity P-wave (km/s) = 5.50504 5.65489 5.58047
#
# Compressibility (1/GPa) = 0.03078863
#
# Stress axis : x y z
#
# Youngs Moduli (GPa) = 62.85467 98.53459 60.93676
#
# Poissons Ratio (x) = -0.08478 0.26985
# Poissons Ratio (y) = -0.05408 0.13845
# Poissons Ratio (z) = 0.27835 0.22388
#
# Static dielectric constant tensor:
#      x y z
#    x 1.731750 0.000000 0.000000 
#    y 0.000000 1.968240 0.000000 
#    z 0.000000 0.000000 1.757670 
# 
# From -- ./inp_files/17078.got.cif
#   From: 2010.05.17/outbox.cif.g08.bks.cpg/sg46_9_cif.got.tgz:17078.got - 2010.06.03 19:58:25.
