data_PCOD9379352
_publ_section_title
;
Structure prediction by ZEFSAII (Michael W. Deem and Ramdas Pophale) SiO2 
 PCOD9379352
Probable space group: I M A 2
;
_chemical_formula_sum "Si O2"
_cell_formula_units_Z 64
_cell_length_a 22.422938
_cell_length_b 11.625083
_cell_length_c 9.071865
_cell_angle_alpha 90.000000
_cell_angle_beta 90.000000
_cell_angle_gamma 90.000000
_cell_volume 2364.749581
_symmetry_space_group_name_H-M "I M A 2"
_symmetry_group_IT_number 46
_symmetry_cell_setting 'orthorhombic'
loop_
_space_group_symop_operation_xyz
x,y,z
-x,-y,z
1/2-x,y,z
1/2+x,-y,z
1/2+x,1/2+y,1/2+z
1/2-x,1/2-y,1/2+z
-x,1/2+y,1/2+z
x,1/2-y,1/2+z
loop_
_atom_site_type_symbol
_atom_site_label
_atom_site_fract_x
_atom_site_fract_y
_atom_site_fract_z
Si Si1 0.347966 0.891825 0.878520
Si Si2 0.059879 0.600077 0.953914
Si Si3 0.313282 0.459151 0.602954
Si Si4 0.525396 0.169303 0.786249
Si Si5 0.101783 0.296110 0.267134
Si Si6 0.682455 0.698608 0.028916
Si Si7 0.315471 0.674122 0.052378
Si Si8 0.440791 0.443262 0.707977
O O1 0.419221 0.892422 0.866503
O O2 0.323514 0.844210 0.725714
O O3 0.325887 0.805703 0.005966
O O4 0.320054 0.011058 0.929731
O O5 0.039589 0.697656 0.834888
O O6 0.053420 0.473622 0.882693
O O7 0.033563 0.635211 0.113451
O O8 0.130807 0.610944 0.973556
O O9 0.250000 0.504067 0.661005
O O10 0.310298 0.321976 0.609457
O O11 0.376976 0.497030 0.665384
O O12 0.457168 0.141366 0.829249
O O13 0.142750 0.232604 0.388057
O O14 0.068049 0.191280 0.180632
O O15 0.141336 0.366239 0.149243
O O16 0.750000 0.655397 0.999664
O O17 0.250000 0.637196 0.006744
O O18 0.500000 0.500000 0.640774
#
# Coordination Sequence:
#
# PCOD9379352 Si02
#       8
#     8   8   8   8   8   8   8   8
#     4  10  22  37  59  90 131 170 210 265 308 378
#     4  10  22  38  58  91 128 165 206 271 307 383
#     4  10  23  42  65  94 132 172 220 268 321 391
#     4  10  21  38  63  91 128 167 214 253 323 383
#     4  11  22  42  70  93 125 172 211 268 333 387
#     4  10  23  44  69  96 124 165 220 271 327 389
#     4  10  20  34  55  85 124 172 215 250 311 377
#     4  11  24  40  65  96 130 167 217 271 328 390
#
# _framework density 27.064176
#
# number of rings (size 3 to 8) (size 9 to 14) (size 15 to 20)
#    0.000    1.750    1.250    2.250    7.000    3.000 
#    4.500    0.000    0.000    0.000    0.000    0.000 
#    0.000    0.000    0.000    0.000    0.000    0.000 
#
# Total GULP energy -178875.628340 kJ/mol
# GULP energy per Si atom -5589.863386 kJ/mol
# Density = 2.700258 g / cm^3
# Si number density = 27.064176 Si / 1000 Ang^3
#
#
#
# Elastic Constant Matrix: (Units=GPa)
#
#
# Indices 1 2 3 4 5 6 
#
# 1 263.2370 -0.9462 44.1951 0.0000 0.0000 0.0000
# 2 -0.9462 80.4777 15.8035 0.0000 0.0000 0.0000
# 3 44.1951 15.8035 124.2224 0.0000 0.0000 0.0000
# 4 0.0000 0.0000 0.0000 34.8700 0.0000 0.0000
# 5 0.0000 0.0000 0.0000 0.0000 9.1122 0.0000
# 6 0.0000 0.0000 0.0000 0.0000 0.0000 14.4149
#
#
#
# Elastic Compliance Matrix: (Units=1/GPa)
#
#
# Indices 1 2 3 4 5 6 
#
# 1 0.004049 0.000339 -0.001484 0.000000 0.000000 0.000000
# 2 0.000339 0.012773 -0.001746 0.000000 0.000000 0.000000
# 3 -0.001484 -0.001746 0.008800 0.000000 0.000000 0.000000
# 4 0.000000 0.000000 0.000000 0.028678 0.000000 0.000000
# 5 0.000000 0.000000 0.000000 0.000000 0.109743 0.000000
# 6 0.000000 0.000000 0.000000 0.000000 0.000000 0.069373
#
#
# Mechanical properties :
#
#
# Convention : Reuss Voigt Hill
#
# Bulk Modulus (GPa) = 50.40012 65.11578 57.75795
# Shear Modulus (GPa) = 20.34092 38.93839 29.63965
#
# Velocity S-wave (km/s) = 2.74447 3.79719 3.31291
# Velocity P-wave (km/s) = 5.35777 6.58308 6.00177
#
# Compressibility (1/GPa) = 0.01984122
#
# Stress axis : x y z
#
# Youngs Moduli (GPa) = 246.96364 78.29287 113.63628
#
# Poissons Ratio (x) = -0.02654 0.16860
# Poissons Ratio (y) = -0.08371 0.19835
# Poissons Ratio (z) = 0.36642 0.13666
#
# Static dielectric constant tensor:
#      x y z
#    x 2.238490 0.000000 0.000000 
#    y 0.000000 2.236040 0.000000 
#    z 0.000000 0.000000 2.107740 
# 
# From -- ./inp_files/7951.got.cif
#   From: 2010.05.17/outbox.cif.g08.bks.cpg/sg46_4_cif.got.tgz:7951.got - 2010.06.03 19:58:25.
