data_PCOD9379056
_publ_section_title
;
Structure prediction by ZEFSAII (Michael W. Deem and Ramdas Pophale) SiO2 
 PCOD9379056
Probable space group: I M A 2
;
_chemical_formula_sum "Si O2"
_cell_formula_units_Z 64
_cell_length_a 29.768735
_cell_length_b 14.035522
_cell_length_c 8.915566
_cell_angle_alpha 90.000000
_cell_angle_beta 90.000000
_cell_angle_gamma 90.000000
_cell_volume 3725.099424
_symmetry_space_group_name_H-M "I M A 2"
_symmetry_group_IT_number 46
_symmetry_cell_setting 'orthorhombic'
loop_
_space_group_symop_operation_xyz
x,y,z
-x,-y,z
1/2-x,y,z
1/2+x,-y,z
1/2+x,1/2+y,1/2+z
1/2-x,1/2-y,1/2+z
-x,1/2+y,1/2+z
x,1/2-y,1/2+z
loop_
_atom_site_type_symbol
_atom_site_label
_atom_site_fract_x
_atom_site_fract_y
_atom_site_fract_z
Si Si1 0.538901 0.578389 0.969420
Si Si2 0.508908 0.796381 0.986422
Si Si3 0.943386 0.218061 0.719552
Si Si4 0.698295 0.117144 0.701083
Si Si5 0.449924 0.462473 0.619926
Si Si6 0.387703 0.954539 0.570954
Si Si7 0.881043 0.391332 0.733662
Si Si8 0.801416 0.313731 0.540990
O O1 0.500000 0.500000 0.000659
O O2 0.524372 0.686794 0.983046
O O3 0.549639 0.566959 0.793969
O O4 0.580767 0.547333 0.071259
O O5 0.477229 0.820839 0.845440
O O6 0.474570 0.789695 0.124699
O O7 0.549834 0.868427 0.016524
O O8 0.918811 0.133785 0.629149
O O9 0.904973 0.290501 0.773555
O O10 0.750000 0.082152 0.692393
O O11 0.657916 0.045285 0.665925
O O12 0.692903 0.202297 0.579964
O O13 0.691942 0.162509 0.866273
O O14 0.500000 0.500000 0.584958
O O15 0.411697 0.542983 0.622724
O O16 0.375741 0.939276 0.395758
O O17 0.835853 0.369492 0.645262
O O18 0.750000 0.337763 0.579593
#
# Coordination Sequence:
#
# PCOD9379056 Si02
#       8
#     8   8   8   8   8   8   8   8
#     4  10  19  36  51  70 102 138 175 213 260 305
#     4  12  21  37  51  71 106 141 180 216 258 302
#     4  12  21  33  52  74 103 141 176 214 253 301
#     4  10  21  35  51  75 106 137 172 216 267 320
#     4  10  20  35  52  70 100 141 174 214 258 306
#     4  11  22  34  54  77 102 142 178 215 264 317
#     4  11  21  35  54  76 104 139 180 215 264 316
#     4  10  21  35  52  75 105 137 172 217 266 321
#
# _framework density 17.18075
#
# number of rings (size 3 to 8) (size 9 to 14) (size 15 to 20)
#    0.000    1.250    6.250    1.500    1.750    1.500 
#    4.500    0.000    0.000    0.000    0.000    0.875 
#    0.000    0.000    0.000    0.000    0.000    0.000 
#
# Total GULP energy -178360.441553 kJ/mol
# GULP energy per Si atom -5573.763799 kJ/mol
# Density = 1.714165 g / cm^3
# Si number density = 17.180750 Si / 1000 Ang^3
#
#
#
# Elastic Constant Matrix: (Units=GPa)
#
#
# Indices 1 2 3 4 5 6 
#
# 1 101.2208 36.1093 32.7991 0.0000 0.0000 0.0000
# 2 36.1093 63.7037 3.9349 0.0000 0.0000 0.0000
# 3 32.7991 3.9349 45.5727 0.0000 0.0000 0.0000
# 4 0.0000 0.0000 0.0000 14.4687 0.0000 0.0000
# 5 0.0000 0.0000 0.0000 0.0000 30.0189 0.0000
# 6 0.0000 0.0000 0.0000 0.0000 0.0000 18.8295
#
#
#
# Elastic Compliance Matrix: (Units=1/GPa)
#
#
# Indices 1 2 3 4 5 6 
#
# 1 0.016628 -0.008733 -0.011214 0.000000 0.000000 0.000000
# 2 -0.008733 0.020368 0.004526 0.000000 0.000000 0.000000
# 3 -0.011214 0.004526 0.029623 0.000000 0.000000 0.000000
# 4 0.000000 0.000000 0.000000 0.069115 0.000000 0.000000
# 5 0.000000 0.000000 0.000000 0.000000 0.033312 0.000000
# 6 0.000000 0.000000 0.000000 0.000000 0.000000 0.053108
#
#
# Mechanical properties :
#
#
# Convention : Reuss Voigt Hill
#
# Bulk Modulus (GPa) = 27.94916 39.57597 33.76256
# Shear Modulus (GPa) = 18.87360 21.84035 20.35698
#
# Velocity S-wave (km/s) = 3.31801 3.56927 3.44593
# Velocity P-wave (km/s) = 5.56614 6.33019 5.96042
#
# Compressibility (1/GPa) = 0.03577926
#
# Stress axis : x y z
#
# Youngs Moduli (GPa) = 60.13849 49.09635 33.75796
#
# Poissons Ratio (x) = 0.42875 0.37855
# Poissons Ratio (y) = 0.52518 -0.15280
# Poissons Ratio (z) = 0.67436 -0.22223
#
# Static dielectric constant tensor:
#      x y z
#    x 1.616010 0.000000 0.000000 
#    y 0.000000 1.641830 0.000000 
#    z 0.000000 0.000000 1.629460 
# 
# From -- ./inp_files/8546.got.cif
#   From: 2010.05.17/outbox.cif.g08.bks.cpg/sg46_5_cif.got.tgz:8546.got - 2010.06.03 19:58:25.
