data_PCOD9379442
_publ_section_title
;
Structure prediction by ZEFSAII (Michael W. Deem and Ramdas Pophale) SiO2 
 PCOD9379442
Probable space group: I M A 2
;
_chemical_formula_sum "Si O2"
_cell_formula_units_Z 56
_cell_length_a 8.927423
_cell_length_b 20.284349
_cell_length_c 16.053650
_cell_angle_alpha 90.000000
_cell_angle_beta 90.000000
_cell_angle_gamma 90.000000
_cell_volume 2907.106736
_symmetry_space_group_name_H-M "I M A 2"
_symmetry_group_IT_number 46
_symmetry_cell_setting 'orthorhombic'
loop_
_space_group_symop_operation_xyz
x,y,z
-x,-y,z
1/2-x,y,z
1/2+x,-y,z
1/2+x,1/2+y,1/2+z
1/2-x,1/2-y,1/2+z
-x,1/2+y,1/2+z
x,1/2-y,1/2+z
loop_
_atom_site_type_symbol
_atom_site_label
_atom_site_fract_x
_atom_site_fract_y
_atom_site_fract_z
Si Si1 0.424598 0.931361 0.728740
Si Si2 0.078496 0.106279 0.889997
Si Si3 0.924265 0.569288 0.075539
Si Si4 0.922390 0.747489 0.810484
Si Si5 0.928374 0.285078 0.634897
Si Si6 0.569609 0.428306 0.566515
Si Si7 0.427729 0.298845 0.983430
O O1 0.250000 0.927782 0.717178
O O2 0.467723 0.925049 0.823427
O O3 0.506562 0.891476 0.656270
O O4 0.500000 0.000000 0.704465
O O5 0.250000 0.080968 0.886210
O O6 0.081910 0.179824 0.852095
O O7 0.010192 0.093773 0.980140
O O8 0.750000 0.556646 0.093290
O O9 0.938997 0.624691 0.006075
O O10 0.000000 0.500000 0.049589
O O11 0.750000 0.727740 0.794074
O O12 0.008642 0.740329 0.723622
O O13 0.988385 0.708688 0.889613
O O14 0.750000 0.274688 0.632556
O O15 0.956386 0.364314 0.625375
O O16 0.998202 0.247404 0.554343
O O17 0.500000 0.500000 0.590206
O O18 0.750000 0.435243 0.555654
O O19 0.250000 0.280964 0.982041
#
# Coordination Sequence:
#
# PCOD9379442 Si02
#       7
#     8   8   8   8   8   8   8
#     4  11  21  33  50  76 113 150 189 232 287 352
#     4  11  21  36  58  85 116 153 197 246 302 364
#     4  10  20  35  56  82 115 152 197 243 295 359
#     4  10  22  39  62  88 117 158 204 247 301 369
#     4  11  24  40  62  93 126 160 203 259 316 367
#     4  11  24  41  61  88 122 164 209 258 316 374
#     4  10  21  40  63  88 117 157 203 247 299 367
#
# _framework density 19.263137
#
# number of rings (size 3 to 8) (size 9 to 14) (size 15 to 20)
#    0.000    1.429    1.429    5.143    0.000    8.000 
#    0.000    0.714    0.000    3.429    0.000    0.000 
#    0.000    0.000    0.000    0.000    0.000    0.000 
#
# Total GULP energy -155929.576938 kJ/mol
# GULP energy per Si atom -5568.913462 kJ/mol
# Density = 1.921929 g / cm^3
# Si number density = 19.263137 Si / 1000 Ang^3
#
#
#
# Elastic Constant Matrix: (Units=GPa)
#
#
# Indices 1 2 3 4 5 6 
#
# 1 108.7301 40.5943 35.5414 0.0000 0.0000 0.0000
# 2 40.5943 91.3502 34.7453 0.0000 0.0000 0.0000
# 3 35.5414 34.7453 96.1049 0.0000 0.0000 0.0000
# 4 0.0000 0.0000 0.0000 23.0927 0.0000 0.0000
# 5 0.0000 0.0000 0.0000 0.0000 7.9943 0.0000
# 6 0.0000 0.0000 0.0000 0.0000 0.0000 4.8853
#
#
#
# Elastic Compliance Matrix: (Units=1/GPa)
#
#
# Indices 1 2 3 4 5 6 
#
# 1 0.011653 -0.004103 -0.002826 0.000000 0.000000 0.000000
# 2 -0.004103 0.014137 -0.003594 0.000000 0.000000 0.000000
# 3 -0.002826 -0.003594 0.012750 0.000000 0.000000 0.000000
# 4 0.000000 0.000000 0.000000 0.043304 0.000000 0.000000
# 5 0.000000 0.000000 0.000000 0.000000 0.125089 0.000000
# 6 0.000000 0.000000 0.000000 0.000000 0.000000 0.204694
#
#
# Mechanical properties :
#
#
# Convention : Reuss Voigt Hill
#
# Bulk Modulus (GPa) = 57.16320 57.54969 57.35644
# Shear Modulus (GPa) = 11.40241 19.54807 15.47524
#
# Velocity S-wave (km/s) = 2.43560 3.18904 2.83744
# Velocity P-wave (km/s) = 6.13587 6.59548 6.36982
#
# Compressibility (1/GPa) = 0.01749377
#
# Stress axis : x y z
#
# Youngs Moduli (GPa) = 85.81602 70.73529 78.43409
#
# Poissons Ratio (x) = 0.29026 0.22165
# Poissons Ratio (y) = 0.35214 0.28186
# Poissons Ratio (z) = 0.24251 0.25419
#
# Static dielectric constant tensor:
#      x y z
#    x 1.667490 0.000000 0.000000 
#    y 0.000000 1.471770 0.000000 
#    z 0.000000 0.000000 1.744010 
# 
# From -- ./inp_files/14182.got.cif
#   From: 2010.05.17/outbox.cif.g08.bks.cpg/sg46_8_cif.got.tgz:14182.got - 2010.06.03 19:58:25.
