data_PCOD9379802
_publ_section_title
;
Structure prediction by ZEFSAII (Michael W. Deem and Ramdas Pophale) SiO2 
 PCOD9379802
Probable space group: I M A 2
;
_chemical_formula_sum "Si O2"
_cell_formula_units_Z 40
_cell_length_a 18.867282
_cell_length_b 9.622662
_cell_length_c 9.990204
_cell_angle_alpha 90.000000
_cell_angle_beta 90.000000
_cell_angle_gamma 90.000000
_cell_volume 1813.756278
_symmetry_space_group_name_H-M "I M A 2"
_symmetry_group_IT_number 46
_symmetry_cell_setting 'orthorhombic'
loop_
_space_group_symop_operation_xyz
x,y,z
-x,-y,z
1/2-x,y,z
1/2+x,-y,z
1/2+x,1/2+y,1/2+z
1/2-x,1/2-y,1/2+z
-x,1/2+y,1/2+z
x,1/2-y,1/2+z
loop_
_atom_site_type_symbol
_atom_site_label
_atom_site_fract_x
_atom_site_fract_y
_atom_site_fract_z
Si Si1 0.669577 0.455396 0.196310
Si Si2 0.935833 0.412317 0.986590
Si Si3 0.831570 0.748461 0.560570
Si Si4 0.467068 0.853769 0.855358
Si Si5 0.911868 0.848175 0.290765
O O1 0.750000 0.418421 0.230076
O O2 0.666480 0.620972 0.165725
O O3 0.608900 0.392904 0.291320
O O4 0.640859 0.407348 0.052512
O O5 0.958107 0.254675 0.974206
O O6 0.928693 0.499011 0.849311
O O7 0.000000 0.500000 0.058745
O O8 0.750000 0.714892 0.533157
O O9 0.869304 0.785161 0.420713
O O10 0.870942 0.636327 0.651471
O O11 0.522819 0.759424 0.769613
O O12 0.500000 0.000000 0.892619
#
# Coordination Sequence:
#
# PCOD9379802 Si02
#       5
#     8   8   8   8   8
#     4  10  21  38  62  86 122 169 207 252 319 380
#     4   9  21  39  61  90 120 159 210 264 313 368
#     4  10  20  38  64  94 127 166 211 258 315 375
#     4  11  21  38  62  89 120 161 211 259 302 377
#     4  10  21  38  64  95 124 166 211 260 312 372
#
# _framework density 22.05368
#
# number of rings (size 3 to 8) (size 9 to 14) (size 15 to 20)
#    0.000    2.000    2.000    1.200    5.600    1.600 
#    3.600    0.000    0.000    0.000    0.000    0.000 
#    0.000    0.000    0.000    0.000    0.000    0.000 
#
# Total GULP energy -111342.984397 kJ/mol
# GULP energy per Si atom -5567.149220 kJ/mol
# Density = 2.200349 g / cm^3
# Si number density = 22.053680 Si / 1000 Ang^3
#
#
#
# Elastic Constant Matrix: (Units=GPa)
#
#
# Indices 1 2 3 4 5 6 
#
# 1 159.8970 33.2128 36.3692 0.0000 0.0000 0.0000
# 2 33.2128 115.9552 24.2902 0.0000 0.0000 0.0000
# 3 36.3692 24.2902 70.0176 0.0000 0.0000 0.0000
# 4 0.0000 0.0000 0.0000 14.3111 0.0000 0.0000
# 5 0.0000 0.0000 0.0000 0.0000 26.0030 0.0000
# 6 0.0000 0.0000 0.0000 0.0000 0.0000 25.5313
#
#
#
# Elastic Compliance Matrix: (Units=1/GPa)
#
#
# Indices 1 2 3 4 5 6 
#
# 1 0.007296 -0.001397 -0.003305 0.000000 0.000000 0.000000
# 2 -0.001397 0.009568 -0.002593 0.000000 0.000000 0.000000
# 3 -0.003305 -0.002593 0.016898 0.000000 0.000000 0.000000
# 4 0.000000 0.000000 0.000000 0.069876 0.000000 0.000000
# 5 0.000000 0.000000 0.000000 0.000000 0.038457 0.000000
# 6 0.000000 0.000000 0.000000 0.000000 0.000000 0.039168
#
#
# Mechanical properties :
#
#
# Convention : Reuss Voigt Hill
#
# Bulk Modulus (GPa) = 52.16304 59.29046 55.72675
# Shear Modulus (GPa) = 24.72260 29.96892 27.34576
#
# Velocity S-wave (km/s) = 3.35179 3.69034 3.52513
# Velocity P-wave (km/s) = 6.21960 6.71573 6.47242
#
# Compressibility (1/GPa) = 0.01917066
#
# Stress axis : x y z
#
# Youngs Moduli (GPa) = 137.06098 104.52028 59.17697
#
# Poissons Ratio (x) = 0.14606 0.19558
# Poissons Ratio (y) = 0.19154 0.15346
# Poissons Ratio (z) = 0.45298 0.27105
#
# Static dielectric constant tensor:
#      x y z
#    x 1.891650 0.000000 0.000000 
#    y 0.000000 1.840240 0.000000 
#    z 0.000000 0.000000 1.873560 
# 
# From -- ./inp_files/11601.got.cif
#   From: 2010.05.17/outbox.cif.g08.bks.cpg/sg46_6_cif.got.tgz:11601.got - 2010.06.03 19:58:25.
