data_PCOD9379849
_publ_section_title
;
Structure prediction by ZEFSAII (Michael W. Deem and Ramdas Pophale) SiO2 
 PCOD9379849
Probable space group: I M A 2
;
_chemical_formula_sum "Si O2"
_cell_formula_units_Z 36
_cell_length_a 21.545083
_cell_length_b 13.506385
_cell_length_c 4.903451
_cell_angle_alpha 90.000000
_cell_angle_beta 90.000000
_cell_angle_gamma 90.000000
_cell_volume 1426.885539
_symmetry_space_group_name_H-M "I M A 2"
_symmetry_group_IT_number 46
_symmetry_cell_setting 'orthorhombic'
loop_
_space_group_symop_operation_xyz
x,y,z
-x,-y,z
1/2-x,y,z
1/2+x,-y,z
1/2+x,1/2+y,1/2+z
1/2-x,1/2-y,1/2+z
-x,1/2+y,1/2+z
x,1/2-y,1/2+z
loop_
_atom_site_type_symbol
_atom_site_label
_atom_site_fract_x
_atom_site_fract_y
_atom_site_fract_z
Si Si1 0.442644 0.822651 0.988350
Si Si2 0.250000 0.354604 0.409463
Si Si3 0.500000 0.500000 0.724061
Si Si4 0.882537 0.482080 0.134253
Si Si5 0.750000 0.512756 0.905230
Si Si6 0.113798 0.308504 0.447227
O O1 0.250000 0.044714 0.092234
O O2 0.391645 0.895778 0.857063
O O3 0.497902 0.903360 0.028309
O O4 0.441872 0.767363 0.275774
O O5 0.250000 0.109250 0.599452
O O6 0.187861 0.299821 0.492240
O O7 0.560760 0.487899 0.915314
O O8 0.885852 0.585453 0.298072
O O9 0.816685 0.466250 0.983057
O O10 0.089009 0.275115 0.740998
#
# Coordination Sequence:
#
# PCOD9379849 Si02
#       6
#     8   4   4   8   4   8
#     4  12  28  52  82 116 160 214 273 347 420 497
#     4  10  20  39  64 105 157 206 251 321 406 499
#     4  12  28  52  84 120 168 214 282 352 418 508
#     4  11  27  51  79 118 164 219 284 349 421 501
#     4  10  24  43  80 107 155 210 275 341 420 481
#     4  11  23  38  68 109 155 205 258 319 400 486
#
# _framework density 25.229776000000001
#
# number of rings (size 3 to 8) (size 9 to 14) (size 15 to 20)
#    0.000    0.889    2.222    4.000    9.333    1.778 
#    0.000    1.111    0.000    0.000    0.000    0.000 
#    0.000    0.000    0.000    0.000    0.000    0.000 
#
# Total GULP energy -100579.595049 kJ/mol
# GULP energy per Si atom -5587.755280 kJ/mol
# Density = 2.517235 g / cm^3
# Si number density = 25.229776 Si / 1000 Ang^3
#
#
#
# Elastic Constant Matrix: (Units=GPa)
#
#
# Indices 1 2 3 4 5 6 
#
# 1 155.3189 14.9913 20.4914 0.0000 0.0000 0.0000
# 2 14.9913 142.4961 22.5132 0.0000 0.0000 0.0000
# 3 20.4914 22.5132 103.3095 0.0000 0.0000 0.0000
# 4 0.0000 0.0000 0.0000 65.1166 0.0000 0.0000
# 5 0.0000 0.0000 0.0000 0.0000 36.5727 0.0000
# 6 0.0000 0.0000 0.0000 0.0000 0.0000 41.0721
#
#
#
# Elastic Compliance Matrix: (Units=1/GPa)
#
#
# Indices 1 2 3 4 5 6 
#
# 1 0.006647 -0.000508 -0.001208 0.000000 0.000000 0.000000
# 2 -0.000508 0.007307 -0.001491 0.000000 0.000000 0.000000
# 3 -0.001208 -0.001491 0.010244 0.000000 0.000000 0.000000
# 4 0.000000 0.000000 0.000000 0.015357 0.000000 0.000000
# 5 0.000000 0.000000 0.000000 0.000000 0.027343 0.000000
# 6 0.000000 0.000000 0.000000 0.000000 0.000000 0.024347
#
#
# Mechanical properties :
#
#
# Convention : Reuss Voigt Hill
#
# Bulk Modulus (GPa) = 56.23412 57.45736 56.84574
# Shear Modulus (GPa) = 48.26826 51.42753 49.84789
#
# Velocity S-wave (km/s) = 4.37870 4.51973 4.44977
# Velocity P-wave (km/s) = 6.92107 7.07533 6.99862
#
# Compressibility (1/GPa) = 0.01778280
#
# Stress axis : x y z
#
# Youngs Moduli (GPa) = 150.44921 136.85755 97.61634
#
# Poissons Ratio (x) = 0.06959 0.11788
# Poissons Ratio (y) = 0.07650 0.14559
# Poissons Ratio (z) = 0.18168 0.20412
#
# Static dielectric constant tensor:
#      x y z
#    x 2.285910 0.000000 0.000000 
#    y 0.000000 1.970260 0.000000 
#    z 0.000000 0.000000 1.979450 
# 
# From -- ./inp_files/1258.got.cif
#   From: 2010.05.17/outbox.cif.g08.bks.cpg/sg46_1_cif.got.tgz:1258.got - 2010.06.03 19:58:25.
