data_PCOD9379604
_publ_section_title
;
Structure prediction by ZEFSAII (Michael W. Deem and Ramdas Pophale) SiO2 
 PCOD9379604
Probable space group: I M A 2
;
_chemical_formula_sum "Si O2"
_cell_formula_units_Z 64
_cell_length_a 14.130074
_cell_length_b 12.268785
_cell_length_c 18.579667
_cell_angle_alpha 90.000000
_cell_angle_beta 90.000000
_cell_angle_gamma 90.000000
_cell_volume 3220.949518
_symmetry_space_group_name_H-M "I M A 2"
_symmetry_group_IT_number 46
_symmetry_cell_setting 'orthorhombic'
loop_
_space_group_symop_operation_xyz
x,y,z
-x,-y,z
1/2-x,y,z
1/2+x,-y,z
1/2+x,1/2+y,1/2+z
1/2-x,1/2-y,1/2+z
-x,1/2+y,1/2+z
x,1/2-y,1/2+z
loop_
_atom_site_type_symbol
_atom_site_label
_atom_site_fract_x
_atom_site_fract_y
_atom_site_fract_z
Si Si1 0.559706 0.853430 0.461740
Si Si2 0.969301 0.882087 0.750767
Si Si3 0.644679 0.272009 0.781944
Si Si4 0.436018 0.261129 0.107423
Si Si5 0.356956 0.359247 0.392897
Si Si6 0.858827 0.075926 0.419315
Si Si7 0.351077 0.685927 0.617308
Si Si8 0.108328 0.465921 0.539969
O O1 0.595039 0.841857 0.543653
O O2 0.580107 0.740319 0.422266
O O3 0.447497 0.876130 0.463306
O O4 0.614912 0.948333 0.419843
O O5 0.923359 0.810180 0.686758
O O6 0.901545 0.900497 0.818939
O O7 0.061467 0.816496 0.779362
O O8 0.000000 0.000000 0.721332
O O9 0.750000 0.222848 0.792734
O O10 0.632008 0.363267 0.842771
O O11 0.643952 0.326779 0.703422
O O12 0.549774 0.242971 0.098616
O O13 0.388673 0.144431 0.088094
O O14 0.250000 0.321363 0.380503
O O15 0.355608 0.442651 0.459743
O O16 0.750000 0.091546 0.443564
O O17 0.250000 0.742913 0.601100
O O18 0.348705 0.569297 0.579394
O O19 0.000000 0.500000 0.531216
#
# Coordination Sequence:
#
# PCOD9379604 Si02
#       8
#     8   8   8   8   8   8   8   8
#     4  10  21  38  60  86 120 154 188 243 296 349
#     4  11  23  39  59  82 114 160 197 239 287 352
#     4   9  19  38  61  89 118 144 188 245 297 343
#     4   9  21  37  57  82 120 156 193 234 294 351
#     4  11  22  38  57  83 117 154 196 240 289 349
#     4  10  20  36  61  90 115 150 193 237 293 349
#     4   9  17  33  60  91 117 147 191 244 291 342
#     4   9  18  36  58  85 115 152 195 241 296 344
#
# _framework density 19.869917000000001
#
# number of rings (size 3 to 8) (size 9 to 14) (size 15 to 20)
#    0.000    2.250    1.250    1.125    1.750    2.000 
#    4.500    5.000    0.000    0.000    0.000    0.000 
#    0.000    0.000    0.000    0.000    0.000    0.000 
#
# Total GULP energy -178329.030592 kJ/mol
# GULP energy per Si atom -5572.782206 kJ/mol
# Density = 1.982469 g / cm^3
# Si number density = 19.869917 Si / 1000 Ang^3
#
#
#
# Elastic Constant Matrix: (Units=GPa)
#
#
# Indices 1 2 3 4 5 6 
#
# 1 66.0598 4.7655 7.5256 0.0000 0.0000 0.0000
# 2 4.7655 54.9515 32.7655 0.0000 0.0000 0.0000
# 3 7.5256 32.7655 84.3702 0.0000 0.0000 0.0000
# 4 0.0000 0.0000 0.0000 21.2813 0.0000 0.0000
# 5 0.0000 0.0000 0.0000 0.0000 -5.9548 0.0000
# 6 0.0000 0.0000 0.0000 0.0000 0.0000 -9.4044
#
#
#
# Elastic Compliance Matrix: (Units=1/GPa)
#
#
# Indices 1 2 3 4 5 6 
#
# 1 0.015312 -0.000668 -0.001106 0.000000 0.000000 0.000000
# 2 -0.000668 0.023711 -0.009149 0.000000 0.000000 0.000000
# 3 -0.001106 -0.009149 0.015504 0.000000 0.000000 0.000000
# 4 0.000000 0.000000 0.000000 0.046990 0.000000 0.000000
# 5 0.000000 0.000000 0.000000 0.000000 -0.167932 0.000000
# 6 0.000000 0.000000 0.000000 0.000000 0.000000 -0.106333
#
#
# Mechanical properties :
#
#
# Convention : Reuss Voigt Hill
#
# Bulk Modulus (GPa) = 30.59912 32.83275 31.71594
# Shear Modulus (GPa) = -35.71207 11.87275 -11.91966
#
# Velocity S-wave (km/s) = -4.24405 2.44708 -2.45191
# Velocity P-wave (km/s) = 2.92964 4.95419 2.82500
#
# Compressibility (1/GPa) = 0.03268068
#
# Stress axis : x y z
#
# Youngs Moduli (GPa) = 65.30811 42.17498 64.49919
#
# Poissons Ratio (x) = 0.02818 0.07135
# Poissons Ratio (y) = 0.04364 0.59007
# Poissons Ratio (z) = 0.07225 0.38584
#
# Static dielectric constant tensor:
#      x y z
#    x 1.737500 0.000000 0.000000 
#    y 0.000000 1.697710 0.000000 
#    z 0.000000 0.000000 1.689640 
# 
# From -- ./inp_files/19643.got.cif
#   From: 2010.05.17/outbox.cif.g08.bks.cpg/sg46_10_cif.got.tgz:19643.got - 2010.06.03 19:58:25.
