data_PCOD9379187
_publ_section_title
;
Structure prediction by ZEFSAII (Michael W. Deem and Ramdas Pophale) SiO2 
 PCOD9379187
Probable space group: I M A 2
;
_chemical_formula_sum "Si O2"
_cell_formula_units_Z 56
_cell_length_a 29.440357
_cell_length_b 6.603747
_cell_length_c 14.462841
_cell_angle_alpha 90.000000
_cell_angle_beta 90.000000
_cell_angle_gamma 90.000000
_cell_volume 2811.817375
_symmetry_space_group_name_H-M "I M A 2"
_symmetry_group_IT_number 46
_symmetry_cell_setting 'orthorhombic'
loop_
_space_group_symop_operation_xyz
x,y,z
-x,-y,z
1/2-x,y,z
1/2+x,-y,z
1/2+x,1/2+y,1/2+z
1/2-x,1/2-y,1/2+z
-x,1/2+y,1/2+z
x,1/2-y,1/2+z
loop_
_atom_site_type_symbol
_atom_site_label
_atom_site_fract_x
_atom_site_fract_y
_atom_site_fract_z
Si Si1 0.304036 0.404304 0.488360
Si Si2 0.354155 0.662408 0.643833
Si Si3 0.453950 0.629823 0.619781
Si Si4 0.362100 0.007569 0.497486
Si Si5 0.645564 0.335332 0.340681
Si Si6 0.953211 0.418467 0.959433
Si Si7 0.956690 0.364563 0.299178
O O1 0.250000 0.400338 0.488001
O O2 0.322065 0.530704 0.577435
O O3 0.322782 0.505528 0.393675
O O4 0.325896 0.182862 0.495184
O O5 0.403664 0.551132 0.649520
O O6 0.360106 0.875848 0.590242
O O7 0.338681 0.729376 0.745635
O O8 0.500000 0.500000 0.623258
O O9 0.445320 0.712190 0.516689
O O10 0.460592 0.814876 0.691184
O O11 0.357628 0.847126 0.414318
O O12 0.413907 0.077704 0.481682
O O13 0.595286 0.430724 0.320986
O O14 0.958586 0.349158 0.854105
O O15 0.000000 0.500000 0.994946
O O16 0.000000 0.500000 0.327467
#
# Coordination Sequence:
#
# PCOD9379187 Si02
#       7
#     8   8   8   8   8   8   8
#     4  11  24  41  65  90 114 159 211 259 313 354
#     4   9  21  42  61  87 126 160 196 251 306 360
#     4  10  20  35  54  85 122 156 193 232 289 354
#     4   9  21  38  57  88 122 152 198 257 302 357
#     4   9  21  42  61  87 126 160 196 251 306 360
#     4  10  20  31  53  81 110 158 196 231 292 352
#     4  10  20  35  54  85 122 156 193 232 289 354
#
# _framework density 19.915945000000001
#
# number of rings (size 3 to 8) (size 9 to 14) (size 15 to 20)
#    0.000    2.286    0.000    2.143    4.000    4.000 
#    0.000    1.429    0.000    0.000    0.000    0.000 
#    0.000    0.000    0.000    0.000    0.000    0.000 
#
# Total GULP energy -155956.206474 kJ/mol
# GULP energy per Si atom -5569.864517 kJ/mol
# Density = 1.987062 g / cm^3
# Si number density = 19.915945 Si / 1000 Ang^3
#
#
#
# Elastic Constant Matrix: (Units=GPa)
#
#
# Indices 1 2 3 4 5 6 
#
# 1 176.0460 56.9326 27.7990 0.0000 0.0000 0.0000
# 2 56.9326 41.0169 13.1877 0.0000 0.0000 0.0000
# 3 27.7990 13.1877 115.7913 0.0000 0.0000 0.0000
# 4 0.0000 0.0000 0.0000 10.4721 0.0000 0.0000
# 5 0.0000 0.0000 0.0000 0.0000 21.4085 0.0000
# 6 0.0000 0.0000 0.0000 0.0000 0.0000 30.5388
#
#
#
# Elastic Compliance Matrix: (Units=1/GPa)
#
#
# Indices 1 2 3 4 5 6 
#
# 1 0.010394 -0.014142 -0.000885 0.000000 0.000000 0.000000
# 2 -0.014142 0.044549 -0.001679 0.000000 0.000000 0.000000
# 3 -0.000885 -0.001679 0.009040 0.000000 0.000000 0.000000
# 4 0.000000 0.000000 0.000000 0.095492 0.000000 0.000000
# 5 0.000000 0.000000 0.000000 0.000000 0.046710 0.000000
# 6 0.000000 0.000000 0.000000 0.000000 0.000000 0.032745
#
#
# Mechanical properties :
#
#
# Convention : Reuss Voigt Hill
#
# Bulk Modulus (GPa) = 32.70942 58.74364 45.72653
# Shear Modulus (GPa) = 17.69712 28.14620 22.92166
#
# Velocity S-wave (km/s) = 2.98416 3.76340 3.39620
# Velocity P-wave (km/s) = 5.32287 6.96018 6.19585
#
# Compressibility (1/GPa) = 0.03057223
#
# Stress axis : x y z
#
# Youngs Moduli (GPa) = 96.21386 22.44694 110.62215
#
# Poissons Ratio (x) = 0.31745 0.09786
# Poissons Ratio (y) = 1.36066 0.18569
# Poissons Ratio (z) = 0.08511 0.03768
#
# Static dielectric constant tensor:
#      x y z
#    x 1.770400 0.000000 0.000000 
#    y 0.000000 1.693370 0.000000 
#    z 0.000000 0.000000 1.692990 
# 
# From -- ./inp_files/17674.got.cif
#   From: 2010.05.17/outbox.cif.g08.bks.cpg/sg46_9_cif.got.tgz:17674.got - 2010.06.03 19:58:25.
