data_PCOD9379810
_publ_section_title
;
Structure prediction by ZEFSAII (Michael W. Deem and Ramdas Pophale) SiO2 
 PCOD9379810
Probable space group: I M A 2
;
_chemical_formula_sum "Si O2"
_cell_formula_units_Z 64
_cell_length_a 14.295747
_cell_length_b 17.806919
_cell_length_c 12.089507
_cell_angle_alpha 90.000000
_cell_angle_beta 90.000000
_cell_angle_gamma 90.000000
_cell_volume 3077.543696
_symmetry_space_group_name_H-M "I M A 2"
_symmetry_group_IT_number 46
_symmetry_cell_setting 'orthorhombic'
loop_
_space_group_symop_operation_xyz
x,y,z
-x,-y,z
1/2-x,y,z
1/2+x,-y,z
1/2+x,1/2+y,1/2+z
1/2-x,1/2-y,1/2+z
-x,1/2+y,1/2+z
x,1/2-y,1/2+z
loop_
_atom_site_type_symbol
_atom_site_label
_atom_site_fract_x
_atom_site_fract_y
_atom_site_fract_z
Si Si1 0.987159 0.758019 0.687050
Si Si2 0.352238 0.842033 0.565629
Si Si3 0.638226 0.872000 0.076162
Si Si4 0.611338 0.503039 0.153444
Si Si5 0.144682 0.515286 0.723777
Si Si6 0.548691 0.356862 0.845969
Si Si7 0.649551 0.594973 0.932345
Si Si8 0.143641 0.372321 0.316501
O O1 0.921577 0.692582 0.636612
O O2 0.923087 0.822318 0.740037
O O3 0.061190 0.790961 0.601377
O O4 0.047759 0.721825 0.785045
O O5 0.250000 0.806688 0.575960
O O6 0.373484 0.865071 0.439570
O O7 0.354402 0.918695 0.636123
O O8 0.750000 0.858080 0.092120
O O9 0.620633 0.954121 0.129767
O O10 0.617745 0.871063 0.945456
O O11 0.500000 0.500000 0.147052
O O12 0.639949 0.544164 0.265578
O O13 0.643471 0.554552 0.050423
O O14 0.250000 0.545170 0.700641
O O15 0.070935 0.579932 0.753636
O O16 0.150914 0.467104 0.836459
O O17 0.446881 0.363352 0.904486
O O18 0.750000 0.637040 0.926440
O O19 0.250000 0.344196 0.306809
#
# Coordination Sequence:
#
# PCOD9379810 Si02
#       8
#     8   8   8   8   8   8   8   8
#     4  12  25  42  65  93 130 180 217 258 323 396
#     4  12  26  44  64  92 130 170 219 275 320 380
#     4  10  23  44  66  98 136 165 212 274 330 389
#     4  12  21  42  68  95 124 163 216 272 326 384
#     4  10  20  38  65  95 126 165 210 273 328 373
#     4  12  23  40  66  97 131 168 220 265 327 389
#     4  11  20  34  65 102 129 156 204 274 335 378
#     4  11  24  43  67  96 129 170 212 268 335 392
#
# _framework density 20.795805000000001
#
# number of rings (size 3 to 8) (size 9 to 14) (size 15 to 20)
#    0.000    0.750    5.000    3.000    0.000    1.500 
#    2.250    1.875    0.000    1.500    0.000    0.000 
#    0.000    0.000    0.000    0.000    0.000    0.000 
#
# Total GULP energy -178822.616125 kJ/mol
# GULP energy per Si atom -5588.206754 kJ/mol
# Density = 2.074847 g / cm^3
# Si number density = 20.795805 Si / 1000 Ang^3
#
#
#
# Elastic Constant Matrix: (Units=GPa)
#
#
# Indices 1 2 3 4 5 6 
#
# 1 128.6776 25.2343 29.3137 0.0000 0.0000 0.0000
# 2 25.2343 51.4680 4.0533 0.0000 0.0000 0.0000
# 3 29.3137 4.0533 46.3628 0.0000 0.0000 0.0000
# 4 0.0000 0.0000 0.0000 30.9103 0.0000 0.0000
# 5 0.0000 0.0000 0.0000 0.0000 26.0566 0.0000
# 6 0.0000 0.0000 0.0000 0.0000 0.0000 11.3884
#
#
#
# Elastic Compliance Matrix: (Units=1/GPa)
#
#
# Indices 1 2 3 4 5 6 
#
# 1 0.009991 -0.004432 -0.005930 0.000000 0.000000 0.000000
# 2 -0.004432 0.021530 0.000920 0.000000 0.000000 0.000000
# 3 -0.005930 0.000920 0.025238 0.000000 0.000000 0.000000
# 4 0.000000 0.000000 0.000000 0.032352 0.000000 0.000000
# 5 0.000000 0.000000 0.000000 0.000000 0.038378 0.000000
# 6 0.000000 0.000000 0.000000 0.000000 0.000000 0.087809
#
#
# Mechanical properties :
#
#
# Convention : Reuss Voigt Hill
#
# Bulk Modulus (GPa) = 26.40217 38.19012 32.29614
# Shear Modulus (GPa) = 20.25885 24.86487 22.56186
#
# Velocity S-wave (km/s) = 3.12457 3.46159 3.29739
# Velocity P-wave (km/s) = 5.07353 5.86354 5.48278
#
# Compressibility (1/GPa) = 0.03787568
#
# Stress axis : x y z
#
# Youngs Moduli (GPa) = 100.08749 46.44702 39.62314
#
# Poissons Ratio (x) = 0.20584 0.23495
# Poissons Ratio (y) = 0.44355 -0.03644
# Poissons Ratio (z) = 0.59349 -0.04272
#
# Static dielectric constant tensor:
#      x y z
#    x 1.790250 0.000000 0.000000 
#    y 0.000000 1.724850 0.000000 
#    z 0.000000 0.000000 1.731770 
# 
# From -- ./inp_files/11335.got.cif
#   From: 2010.05.17/outbox.cif.g08.bks.cpg/sg46_6_cif.got.tgz:11335.got - 2010.06.03 19:58:25.
