data_PCOD9379261
_publ_section_title
;
Structure prediction by ZEFSAII (Michael W. Deem and Ramdas Pophale) SiO2 
 PCOD9379261
Probable space group: I M A 2
;
_chemical_formula_sum "Si O2"
_cell_formula_units_Z 40
_cell_length_a 9.997692
_cell_length_b 14.582076
_cell_length_c 17.588683
_cell_angle_alpha 90.000000
_cell_angle_beta 90.000000
_cell_angle_gamma 90.000000
_cell_volume 2564.203168
_symmetry_space_group_name_H-M "I M A 2"
_symmetry_group_IT_number 46
_symmetry_cell_setting 'orthorhombic'
loop_
_space_group_symop_operation_xyz
x,y,z
-x,-y,z
1/2-x,y,z
1/2+x,-y,z
1/2+x,1/2+y,1/2+z
1/2-x,1/2-y,1/2+z
-x,1/2+y,1/2+z
x,1/2-y,1/2+z
loop_
_atom_site_type_symbol
_atom_site_label
_atom_site_fract_x
_atom_site_fract_y
_atom_site_fract_z
Si Si1 0.750000 0.813486 0.569000
Si Si2 0.903530 0.673392 0.661655
Si Si3 0.750000 0.983931 0.965237
Si Si4 0.750000 0.402002 0.310396
Si Si5 0.000000 0.500000 0.570305
Si Si6 0.970222 0.696954 0.291188
Si Si7 0.750000 0.773828 0.916393
Si Si8 0.250000 0.429828 0.209761
O O1 0.876046 0.753256 0.599407
O O2 0.750000 0.806423 0.478837
O O3 0.750000 0.904721 0.620353
O O4 0.750000 0.649497 0.685817
O O5 0.971635 0.587442 0.622890
O O6 0.977908 0.718766 0.732381
O O7 0.750000 0.873358 0.957783
O O8 0.750000 0.028675 0.882112
O O9 0.623664 0.013954 0.014177
O O10 0.614164 0.343314 0.311780
O O11 0.750000 0.465441 0.235024
O O12 0.880928 0.726328 0.363229
O O13 0.878479 0.620253 0.248236
#
# Coordination Sequence:
#
# PCOD9379261 Si02
#       8
#     4   8   4   4   4   8   4   4
#     4   8  16  32  50  73  98 136 178 203 236 317
#     4   9  18  36  50  75 104 139 180 200 257 320
#     4  12  22  28  50  86 115 130 159 211 288 310
#     4  12  22  29  48  86 115 128 166 218 264 310
#     4  12  20  34  54  80 108 138 168 220 258 320
#     4  10  20  33  52  75 105 143 171 209 258 311
#     4  11  16  34  55  74 105 136 172 209 255 321
#     4   9  18  33  51  69 105 144 177 197 247 324
#
# _framework density 15.599387999999999
#
# number of rings (size 3 to 8) (size 9 to 14) (size 15 to 20)
#    0.600    1.200    7.000    1.800    0.000    0.800 
#    0.000    0.000    0.000    0.000   10.400    0.000 
#    0.000    0.000    0.000    0.000    0.000    0.000 
#
# Total GULP energy -111368.695657 kJ/mol
# GULP energy per Si atom -5568.434783 kJ/mol
# Density = 1.556388 g / cm^3
# Si number density = 15.599388 Si / 1000 Ang^3
#
#
#
# Elastic Constant Matrix: (Units=GPa)
#
#
# Indices 1 2 3 4 5 6 
#
# 1 100.0346 24.7625 36.6844 0.0000 0.0000 0.0000
# 2 24.7625 49.2962 40.2991 0.0000 0.0000 0.0000
# 3 36.6844 40.2991 94.3250 0.0000 0.0000 0.0000
# 4 0.0000 0.0000 0.0000 31.8549 0.0000 0.0000
# 5 0.0000 0.0000 0.0000 0.0000 19.9445 0.0000
# 6 0.0000 0.0000 0.0000 0.0000 0.0000 -10.1510
#
#
#
# Elastic Compliance Matrix: (Units=1/GPa)
#
#
# Indices 1 2 3 4 5 6 
#
# 1 0.012020 -0.003406 -0.003220 0.000000 0.000000 0.000000
# 2 -0.003406 0.032138 -0.012406 0.000000 0.000000 0.000000
# 3 -0.003220 -0.012406 0.017154 0.000000 0.000000 0.000000
# 4 0.000000 0.000000 0.000000 0.031392 0.000000 0.000000
# 5 0.000000 0.000000 0.000000 0.000000 0.050139 0.000000
# 6 0.000000 0.000000 0.000000 0.000000 0.000000 -0.098513
#
#
# Mechanical properties :
#
#
# Convention : Reuss Voigt Hill
#
# Bulk Modulus (GPa) = 43.01204 49.68308 46.34756
# Shear Modulus (GPa) = 55.46654 17.79034 36.62844
#
# Velocity S-wave (km/s) = 5.96943 3.38072 4.85094
# Velocity P-wave (km/s) = 8.66861 6.86714 7.81992
#
# Compressibility (1/GPa) = 0.02324931
#
# Stress axis : x y z
#
# Youngs Moduli (GPa) = 83.19195 31.11563 58.29498
#
# Poissons Ratio (x) = 0.10598 0.18769
# Poissons Ratio (y) = 0.28335 0.72321
# Poissons Ratio (z) = 0.26786 0.38602
#
# Static dielectric constant tensor:
#      x y z
#    x 1.508510 0.000000 0.000000 
#    y 0.000000 1.507350 0.000000 
#    z 0.000000 0.000000 1.536560 
# 
# From -- ./inp_files/18099.got.cif
#   From: 2010.05.17/outbox.cif.g08.bks.cpg/sg46_10_cif.got.tgz:18099.got - 2010.06.03 19:58:25.
