data_PCOD9379854
_publ_section_title
;
Structure prediction by ZEFSAII (Michael W. Deem and Ramdas Pophale) SiO2 
 PCOD9379854
Probable space group: I M A 2
;
_chemical_formula_sum "Si O2"
_cell_formula_units_Z 64
_cell_length_a 14.144288
_cell_length_b 11.584092
_cell_length_c 18.430603
_cell_angle_alpha 90.000000
_cell_angle_beta 90.000000
_cell_angle_gamma 90.000000
_cell_volume 3019.830959
_symmetry_space_group_name_H-M "I M A 2"
_symmetry_group_IT_number 46
_symmetry_cell_setting 'orthorhombic'
loop_
_space_group_symop_operation_xyz
x,y,z
-x,-y,z
1/2-x,y,z
1/2+x,-y,z
1/2+x,1/2+y,1/2+z
1/2-x,1/2-y,1/2+z
-x,1/2+y,1/2+z
x,1/2-y,1/2+z
loop_
_atom_site_type_symbol
_atom_site_label
_atom_site_fract_x
_atom_site_fract_y
_atom_site_fract_z
Si Si1 0.637850 0.283930 0.816890
Si Si2 0.860994 0.726468 0.950599
Si Si3 0.135497 0.539679 0.941304
Si Si4 0.994969 0.873481 0.222271
Si Si5 0.365441 0.565387 0.242325
Si Si6 0.494433 0.368257 0.555779
Si Si7 0.860806 0.813710 0.791583
Si Si8 0.636653 0.328845 0.087325
O O1 0.750000 0.286397 0.820068
O O2 0.602300 0.365407 0.881867
O O3 0.600642 0.330909 0.739890
O O4 0.607689 0.150342 0.809179
O O5 0.750000 0.720527 0.972099
O O6 0.892672 0.594322 0.933804
O O7 0.867272 0.803042 0.878071
O O8 0.923304 0.788685 0.010919
O O9 0.250000 0.539340 0.934557
O O10 0.112569 0.584406 0.021596
O O11 0.963725 0.880091 0.139518
O O12 0.923534 0.789084 0.261310
O O13 0.000000 0.000000 0.254384
O O14 0.250000 0.564415 0.240240
O O15 0.394558 0.435104 0.258893
O O16 0.396572 0.615457 0.163953
O O17 0.500000 0.500000 0.526988
O O18 0.590179 0.293130 0.564737
O O19 0.750000 0.798156 0.772505
O O20 0.750000 0.317057 0.090774
#
# Coordination Sequence:
#
# PCOD9379854 Si02
#       8
#     8   8   8   8   8   8   8   8
#     4  10  20  39  64  95 130 166 210 267 322 382
#     4  10  23  45  66  94 131 170 218 274 327 388
#     4   9  20  37  66  97 125 166 219 268 326 390
#     4  11  24  40  61  92 129 167 216 262 317 389
#     4   9  19  38  66  96 128 168 217 266 322 393
#     4  11  26  43  60  95 132 171 221 264 323 398
#     4  10  23  43  67  95 129 171 219 272 328 386
#     4  10  21  41  66  96 131 170 217 272 327 387
#
# _framework density 21.193239999999999
#
# number of rings (size 3 to 8) (size 9 to 14) (size 15 to 20)
#    0.000    2.000    1.250    0.750    3.500    4.500 
#    0.000    5.000    0.000    0.000    0.000    0.000 
#    0.000    0.000    0.000    0.000    0.000    0.000 
#
# Total GULP energy -178531.950268 kJ/mol
# GULP energy per Si atom -5579.123446 kJ/mol
# Density = 2.114500 g / cm^3
# Si number density = 21.193240 Si / 1000 Ang^3
#
#
#
# Elastic Constant Matrix: (Units=GPa)
#
#
# Indices 1 2 3 4 5 6 
#
# 1 67.2803 47.1991 36.8250 0.0000 0.0000 0.0000
# 2 47.1991 186.0425 75.2216 0.0000 0.0000 0.0000
# 3 36.8250 75.2216 107.5359 0.0000 0.0000 0.0000
# 4 0.0000 0.0000 0.0000 31.4339 0.0000 0.0000
# 5 0.0000 0.0000 0.0000 0.0000 29.2599 0.0000
# 6 0.0000 0.0000 0.0000 0.0000 0.0000 33.7204
#
#
#
# Elastic Compliance Matrix: (Units=1/GPa)
#
#
# Indices 1 2 3 4 5 6 
#
# 1 0.019522 -0.003137 -0.004491 0.000000 0.000000 0.000000
# 2 -0.003137 0.007999 -0.004521 0.000000 0.000000 0.000000
# 3 -0.004491 -0.004521 0.014000 0.000000 0.000000 0.000000
# 4 0.000000 0.000000 0.000000 0.031813 0.000000 0.000000
# 5 0.000000 0.000000 0.000000 0.000000 0.034176 0.000000
# 6 0.000000 0.000000 0.000000 0.000000 0.000000 0.029656
#
#
# Mechanical properties :
#
#
# Convention : Reuss Voigt Hill
#
# Bulk Modulus (GPa) = 58.06292 75.48336 66.77314
# Shear Modulus (GPa) = 29.90363 32.32370 31.11367
#
# Velocity S-wave (km/s) = 3.76040 3.90960 3.83573
# Velocity P-wave (km/s) = 6.80518 7.48826 7.15488
#
# Compressibility (1/GPa) = 0.01722270
#
# Stress axis : x y z
#
# Youngs Moduli (GPa) = 51.22462 125.01659 71.43086
#
# Poissons Ratio (x) = 0.39217 0.32078
# Poissons Ratio (y) = 0.16069 0.32294
# Poissons Ratio (z) = 0.23004 0.56521
#
# Static dielectric constant tensor:
#      x y z
#    x 1.796850 0.000000 0.000000 
#    y 0.000000 1.813390 0.000000 
#    z 0.000000 0.000000 1.749280 
# 
# From -- ./inp_files/19671.got.cif
#   From: 2010.05.17/outbox.cif.g08.bks.cpg/sg46_10_cif.got.tgz:19671.got - 2010.06.03 19:58:25.
