data_PCOD9379518
_publ_section_title
;
Structure prediction by ZEFSAII (Michael W. Deem and Ramdas Pophale) SiO2 
 PCOD9379518
Probable space group: I M A 2
;
_chemical_formula_sum "Si O2"
_cell_formula_units_Z 64
_cell_length_a 8.803667
_cell_length_b 29.409326
_cell_length_c 13.095032
_cell_angle_alpha 90.000000
_cell_angle_beta 90.000000
_cell_angle_gamma 90.000000
_cell_volume 3390.433593
_symmetry_space_group_name_H-M "I M A 2"
_symmetry_group_IT_number 46
_symmetry_cell_setting 'orthorhombic'
loop_
_space_group_symop_operation_xyz
x,y,z
-x,-y,z
1/2-x,y,z
1/2+x,-y,z
1/2+x,1/2+y,1/2+z
1/2-x,1/2-y,1/2+z
-x,1/2+y,1/2+z
x,1/2-y,1/2+z
loop_
_atom_site_type_symbol
_atom_site_label
_atom_site_fract_x
_atom_site_fract_y
_atom_site_fract_z
Si Si1 0.933132 0.640404 0.617300
Si Si2 0.919341 0.200419 0.758204
Si Si3 0.567116 0.949177 0.730274
Si Si4 0.433370 0.616867 0.399559
Si Si5 0.921361 0.217962 0.409039
Si Si6 0.574054 0.755820 0.098801
Si Si7 0.433356 0.550758 0.015564
Si Si8 0.932271 0.118124 0.330731
O O1 0.750000 0.639696 0.611902
O O2 0.989112 0.693404 0.620904
O O3 0.000335 0.619014 0.513573
O O4 0.987951 0.615858 0.720710
O O5 0.750000 0.186073 0.727349
O O6 0.973241 0.163745 0.840109
O O7 0.912244 0.249398 0.812046
O O8 0.016143 0.212046 0.660507
O O9 0.750000 0.949689 0.728884
O O10 0.504084 0.921497 0.826827
O O11 0.503552 0.930367 0.621743
O O12 0.500000 0.000000 0.736460
O O13 0.250000 0.613110 0.404254
O O14 0.750000 0.216549 0.454616
O O15 0.967875 0.167619 0.378003
O O16 0.035140 0.242994 0.483905
O O17 0.750000 0.759823 0.119572
O O18 0.500000 0.500000 0.003301
O O19 0.250000 0.549086 0.025679
O O20 0.471945 0.580743 0.916148
O O21 0.750000 0.116408 0.315055
#
# Coordination Sequence:
#
# PCOD9379518 Si02
#       8
#     8   8   8   8   8   8   8   8
#     4  11  23  38  57  84 121 160 198 245 300 353
#     4  10  21  36  57  80 110 155 202 240 283 344
#     4  11  23  42  67  94 123 154 190 239 299 357
#     4  11  23  40  62  88 118 157 204 248 292 351
#     4  10  20  36  56  80 110 154 202 242 285 344
#     4  11  23  35  51  79 117 155 193 245 299 347
#     4  10  21  40  65  93 121 153 192 241 297 353
#     4  10  22  39  61  86 115 154 203 247 290 351
#
# _framework density 18.876640999999999
#
# number of rings (size 3 to 8) (size 9 to 14) (size 15 to 20)
#    0.000    1.500    2.500    3.375    1.750    4.000 
#    0.000    0.625    0.000    1.500    0.000    0.000 
#    0.000    0.000    0.000    0.000    0.000    0.000 
#
# Total GULP energy -178529.521444 kJ/mol
# GULP energy per Si atom -5579.047545 kJ/mol
# Density = 1.883368 g / cm^3
# Si number density = 18.876641 Si / 1000 Ang^3
#
#
#
# Elastic Constant Matrix: (Units=GPa)
#
#
# Indices 1 2 3 4 5 6 
#
# 1 58.9181 26.7816 43.7851 -0.0001 -0.0001 0.0000
# 2 26.7816 71.8212 47.7075 -0.0001 0.0000 0.0000
# 3 43.7851 47.7075 115.3099 -0.0005 0.0000 0.0000
# 4 -0.0001 -0.0001 -0.0005 29.1031 0.0000 0.0000
# 5 -0.0001 0.0000 0.0000 0.0000 11.6884 -0.0001
# 6 0.0000 0.0000 0.0000 0.0000 -0.0001 21.1493
#
#
#
# Elastic Compliance Matrix: (Units=1/GPa)
#
#
# Indices 1 2 3 4 5 6 
#
# 1 0.024480 -0.004073 -0.007610 0.000000 0.000000 0.000000
# 2 -0.004073 0.019878 -0.006677 0.000000 0.000000 0.000000
# 3 -0.007610 -0.006677 0.014325 0.000000 0.000000 0.000000
# 4 0.000000 0.000000 0.000000 0.034361 0.000000 0.000000
# 5 0.000000 0.000000 0.000000 0.000000 0.085555 0.000000
# 6 0.000000 0.000000 0.000000 0.000000 0.000000 0.047283
#
#
# Mechanical properties :
#
#
# Convention : Reuss Voigt Hill
#
# Bulk Modulus (GPa) = 45.53609 53.62194 49.57902
# Shear Modulus (GPa) = 18.52384 20.90650 19.71517
#
# Velocity S-wave (km/s) = 3.13599 3.33157 3.23526
# Velocity P-wave (km/s) = 6.10638 6.57779 6.34646
#
# Compressibility (1/GPa) = 0.02196060
#
# Stress axis : x y z
#
# Youngs Moduli (GPa) = 40.85016 50.30725 69.80972
#
# Poissons Ratio (x) = 0.20491 0.53126
# Poissons Ratio (y) = 0.16639 0.46615
# Poissons Ratio (z) = 0.31087 0.33592
#
# Static dielectric constant tensor:
#      x y z
#    x 1.673670 0.000000 0.000000 
#    y 0.000000 1.659600 0.000000 
#    z 0.000000 0.000000 1.654040 
# 
# From -- ./inp_files/9781.got.cif
#   From: 2010.05.17/outbox.cif.g08.bks.cpg/sg46_5_cif.got.tgz:9781.got - 2010.06.03 19:58:25.
