data_PCOD9379574
_publ_section_title
;
Structure prediction by ZEFSAII (Michael W. Deem and Ramdas Pophale) SiO2 
 PCOD9379574
Probable space group: I M A 2
;
_chemical_formula_sum "Si O2"
_cell_formula_units_Z 56
_cell_length_a 21.500629
_cell_length_b 10.737950
_cell_length_c 10.895645
_cell_angle_alpha 90.000000
_cell_angle_beta 90.000000
_cell_angle_gamma 90.000000
_cell_volume 2515.506752
_symmetry_space_group_name_H-M "I M A 2"
_symmetry_group_IT_number 46
_symmetry_cell_setting 'orthorhombic'
loop_
_space_group_symop_operation_xyz
x,y,z
-x,-y,z
1/2-x,y,z
1/2+x,-y,z
1/2+x,1/2+y,1/2+z
1/2-x,1/2-y,1/2+z
-x,1/2+y,1/2+z
x,1/2-y,1/2+z
loop_
_atom_site_type_symbol
_atom_site_label
_atom_site_fract_x
_atom_site_fract_y
_atom_site_fract_z
Si Si1 0.428028 0.042731 0.058120
Si Si2 0.681656 0.337422 0.558120
Si Si3 0.070988 0.486037 0.828035
Si Si4 0.681700 0.661969 0.190735
Si Si5 0.181700 0.161969 0.425505
Si Si6 0.635071 0.250000 0.808120
Si Si7 0.070988 0.013963 0.788205
O O1 0.372933 0.940263 0.058120
O O2 0.500000 0.000000 0.058120
O O3 0.425020 0.091897 0.198706
O O4 0.425020 0.091897 0.917534
O O5 0.750000 0.396955 0.558120
O O6 0.673597 0.257839 0.682074
O O7 0.673597 0.257839 0.434166
O O8 0.122175 0.425572 0.915043
O O9 0.093290 0.626941 0.807010
O O10 0.000000 0.500000 0.870345
O O11 0.750000 0.596900 0.194633
O O12 0.681476 0.750000 0.308120
O O13 0.622175 0.574428 0.201197
O O14 0.678762 0.728797 0.058120
O O15 0.250000 0.096900 0.421607
O O16 0.593290 0.126940 0.809230
O O17 0.000000 0.000000 0.745895
#
# Coordination Sequence:
#
# PCOD9379574 Si02
#       7
#     8   8   8   8   8   8   8
#     4   8  18  38  58  86 128 164 210 257 314 374
#     4  10  20  36  59  86 122 165 205 249 316 385
#     4  10  22  40  65  97 128 174 216 266 323 388
#     4  10  24  45  67  95 129 170 219 275 329 386
#     4  10  24  45  67  95 129 170 219 275 329 386
#     4  10  23  40  58  94 131 164 206 268 323 374
#     4  10  22  40  65  97 128 174 216 266 323 388
#
# _framework density 22.261917
#
# number of rings (size 3 to 8) (size 9 to 14) (size 15 to 20)
#    0.000    2.286    0.000    0.429    6.000    6.286 
#    0.000    0.000    0.000    0.000    0.000    0.000 
#    0.000    0.000    0.000    0.000    0.000    0.000 
#
# Total GULP energy -155922.478358 kJ/mol
# GULP energy per Si atom -5568.659941 kJ/mol
# Density = 2.221125 g / cm^3
# Si number density = 22.261917 Si / 1000 Ang^3
#
#
#
# Elastic Constant Matrix: (Units=GPa)
#
#
# Indices 1 2 3 4 5 6 
#
# 1 202.7095 34.9870 66.5665 0.0000 0.0000 0.0000
# 2 34.9870 32.6510 15.7703 0.0000 0.0000 0.0000
# 3 66.5665 15.7703 146.8827 0.0000 0.0000 0.0000
# 4 0.0000 0.0000 0.0000 19.9205 0.0000 0.0000
# 5 0.0000 0.0000 0.0000 0.0000 -3.7114 0.0000
# 6 0.0000 0.0000 0.0000 0.0000 0.0000 7.2906
#
#
#
# Elastic Compliance Matrix: (Units=1/GPa)
#
#
# Indices 1 2 3 4 5 6 
#
# 1 0.006779 -0.006097 -0.002418 0.000000 0.000000 0.000000
# 2 -0.006097 0.037785 -0.001294 0.000000 0.000000 0.000000
# 3 -0.002418 -0.001294 0.008043 0.000000 0.000000 0.000000
# 4 0.000000 0.000000 0.000000 0.050200 0.000000 0.000000
# 5 0.000000 0.000000 0.000000 0.000000 -0.269438 0.000000
# 6 0.000000 0.000000 0.000000 0.000000 0.000000 0.137163
#
#
# Mechanical properties :
#
#
# Convention : Reuss Voigt Hill
#
# Bulk Modulus (GPa) = 30.31193 68.54343 49.42768
# Shear Modulus (GPa) = 4368.15230 22.36122 2195.25676
#
# Velocity S-wave (km/s) = 44.34437 3.17276 31.43636
# Velocity P-wave (km/s) = 51.33754 6.65419 36.60479
#
# Compressibility (1/GPa) = 0.03299031
#
# Stress axis : x y z
#
# Youngs Moduli (GPa) = 147.50566 26.46573 124.33468
#
# Poissons Ratio (x) = 0.16135 0.30062
# Poissons Ratio (y) = 0.89929 0.16087
# Poissons Ratio (z) = 0.35664 0.03424
#
# Static dielectric constant tensor:
#      x y z
#    x 1.803940 0.000000 0.000000 
#    y 0.000000 1.799060 0.000000 
#    z 0.000000 0.000000 1.892890 
# 
# From -- ./inp_files/12400.got.cif
#   From: 2010.05.17/outbox.cif.g08.bks.cpg/sg46_7_cif.got.tgz:12400.got - 2010.06.03 19:58:25.
