data_PCOD9379817
_publ_section_title
;
Structure prediction by ZEFSAII (Michael W. Deem and Ramdas Pophale) SiO2 
 PCOD9379817
Probable space group: I M A 2
;
_chemical_formula_sum "Si O2"
_cell_formula_units_Z 60
_cell_length_a 9.391672
_cell_length_b 18.269115
_cell_length_c 16.717986
_cell_angle_alpha 90.000000
_cell_angle_beta 90.000000
_cell_angle_gamma 90.000000
_cell_volume 2868.430842
_symmetry_space_group_name_H-M "I M A 2"
_symmetry_group_IT_number 46
_symmetry_cell_setting 'orthorhombic'
loop_
_space_group_symop_operation_xyz
x,y,z
-x,-y,z
1/2-x,y,z
1/2+x,-y,z
1/2+x,1/2+y,1/2+z
1/2-x,1/2-y,1/2+z
-x,1/2+y,1/2+z
x,1/2-y,1/2+z
loop_
_atom_site_type_symbol
_atom_site_label
_atom_site_fract_x
_atom_site_fract_y
_atom_site_fract_z
Si Si1 0.580912 0.332483 0.818530
Si Si2 0.250000 0.473176 0.183278
Si Si3 0.919356 0.070354 0.022938
Si Si4 0.588979 0.211692 0.590433
Si Si5 0.476295 0.897509 0.715831
Si Si6 0.920187 0.845429 0.151215
Si Si7 0.417721 0.668706 0.373112
Si Si8 0.582251 0.074959 0.473728
O O1 0.750000 0.333591 0.797544
O O2 0.484256 0.339932 0.740420
O O3 0.551737 0.254349 0.861387
O O4 0.556516 0.396465 0.883732
O O5 0.124461 0.412456 0.173233
O O6 0.371256 0.535639 0.202017
O O7 0.750000 0.058594 0.033113
O O8 0.999571 0.089469 0.104904
O O9 0.940177 0.136764 0.960726
O O10 0.000000 0.000000 0.987970
O O11 0.750000 0.239150 0.570123
O O12 0.593618 0.173812 0.677108
O O13 0.473298 0.274241 0.601817
O O14 0.554113 0.145149 0.530199
O O15 0.501266 0.879980 0.808688
O O16 0.750000 0.852544 0.151293
O O17 0.250000 0.657912 0.355181
O O18 0.750000 0.058798 0.485363
O O19 0.500000 0.000000 0.492625
#
# Coordination Sequence:
#
# PCOD9379817 Si02
#       8
#     8   4   8   8   8   8   8   8
#     4  10  21  43  69  92 125 170 221 267 322 386
#     4  10  24  32  52  90 138 172 212 256 316 378
#     4  11  25  44  68  97 132 172 214 268 325 384
#     4  11  22  40  66  94 129 171 214 260 321 385
#     4  11  21  36  57  91 130 175 214 258 312 385
#     4  12  26  44  67  97 128 167 221 272 325 382
#     4  10  20  38  66  95 126 167 214 261 318 385
#     4  10  24  41  65  97 129 171 214 266 325 385
#
# _framework density 20.917359000000001
#
# number of rings (size 3 to 8) (size 9 to 14) (size 15 to 20)
#    0.000    1.333    2.667    2.400    4.667    3.733 
#    1.200    2.667    0.000    0.000    0.000    0.000 
#    0.000    0.000    0.000    0.000    0.000    0.000 
#
# Total GULP energy -167067.392630 kJ/mol
# GULP energy per Si atom -5568.913088 kJ/mol
# Density = 2.086975 g / cm^3
# Si number density = 20.917359 Si / 1000 Ang^3
#
#
#
# Elastic Constant Matrix: (Units=GPa)
#
#
# Indices 1 2 3 4 5 6 
#
# 1 136.3566 26.0040 46.3776 0.0000 0.0000 0.0000
# 2 26.0040 43.8018 21.9379 0.0000 0.0000 0.0000
# 3 46.3776 21.9379 89.1024 0.0000 0.0000 0.0000
# 4 0.0000 0.0000 0.0000 7.2173 0.0000 0.0000
# 5 0.0000 0.0000 0.0000 0.0000 10.2928 0.0000
# 6 0.0000 0.0000 0.0000 0.0000 0.0000 32.0633
#
#
#
# Elastic Compliance Matrix: (Units=1/GPa)
#
#
# Indices 1 2 3 4 5 6 
#
# 1 0.009374 -0.003560 -0.004003 0.000000 0.000000 0.000000
# 2 -0.003560 0.027394 -0.004891 0.000000 0.000000 0.000000
# 3 -0.004003 -0.004891 0.014511 0.000000 0.000000 0.000000
# 4 0.000000 0.000000 0.000000 0.138557 0.000000 0.000000
# 5 0.000000 0.000000 0.000000 0.000000 0.097156 0.000000
# 6 0.000000 0.000000 0.000000 0.000000 0.000000 0.031188
#
#
# Mechanical properties :
#
#
# Convention : Reuss Voigt Hill
#
# Bulk Modulus (GPa) = 37.92244 50.87775 44.40009
# Shear Modulus (GPa) = 14.20947 21.57740 17.89344
#
# Velocity S-wave (km/s) = 2.60919 3.21527 2.92795
# Velocity P-wave (km/s) = 5.21979 6.17737 5.71866
#
# Compressibility (1/GPa) = 0.02636961
#
# Stress axis : x y z
#
# Youngs Moduli (GPa) = 106.67735 36.50470 68.91474
#
# Poissons Ratio (x) = 0.12997 0.27584
# Poissons Ratio (y) = 0.37982 0.33709
# Poissons Ratio (z) = 0.42698 0.17856
#
# Static dielectric constant tensor:
#      x y z
#    x 1.710130 0.000000 0.000000 
#    y 0.000000 1.789840 0.000000 
#    z 0.000000 0.000000 1.817150 
# 
# From -- ./inp_files/18366.got.cif
#   From: 2010.05.17/outbox.cif.g08.bks.cpg/sg46_10_cif.got.tgz:18366.got - 2010.06.03 19:58:25.
