data_PCOD9379281
_publ_section_title
;
Structure prediction by ZEFSAII (Michael W. Deem and Ramdas Pophale) SiO2 
 PCOD9379281
Probable space group: I M A 2
;
_chemical_formula_sum "Si O2"
_cell_formula_units_Z 56
_cell_length_a 14.138371
_cell_length_b 20.194808
_cell_length_c 9.174358
_cell_angle_alpha 90.000000
_cell_angle_beta 90.000000
_cell_angle_gamma 90.000000
_cell_volume 2619.478180
_symmetry_space_group_name_H-M "I M A 2"
_symmetry_group_IT_number 46
_symmetry_cell_setting 'orthorhombic'
loop_
_space_group_symop_operation_xyz
x,y,z
-x,-y,z
1/2-x,y,z
1/2+x,-y,z
1/2+x,1/2+y,1/2+z
1/2-x,1/2-y,1/2+z
-x,1/2+y,1/2+z
x,1/2-y,1/2+z
loop_
_atom_site_type_symbol
_atom_site_label
_atom_site_fract_x
_atom_site_fract_y
_atom_site_fract_z
Si Si1 0.643679 0.843532 0.052070
Si Si2 0.859624 0.443649 0.817297
Si Si3 0.496837 0.862263 0.525703
Si Si4 0.143167 0.272726 0.854721
Si Si5 0.464448 0.567289 0.519008
Si Si6 0.144675 0.029769 0.588291
Si Si7 0.859237 0.114338 0.747807
O O1 0.750000 0.872835 0.060762
O O2 0.635406 0.791234 0.185272
O O3 0.635112 0.803664 0.900524
O O4 0.558238 0.893836 0.065343
O O5 0.750000 0.421431 0.815099
O O6 0.901745 0.452397 0.657964
O O7 0.861011 0.509432 0.917076
O O8 0.929460 0.394382 0.902630
O O9 0.565784 0.811973 0.446550
O O10 0.562449 0.917364 0.605508
O O11 0.424305 0.838495 0.649197
O O12 0.250000 0.293141 0.899588
O O13 0.500000 0.500000 0.444505
O O14 0.401809 0.608751 0.407651
O O15 0.250000 0.055841 0.620361
O O16 0.136153 0.959976 0.674638
O O17 0.750000 0.133591 0.746695
#
# Coordination Sequence:
#
# PCOD9379281 Si02
#       7
#     8   8   8   8   8   8   8
#     4  10  24  44  65  95 128 162 204 255 314 375
#     4  10  20  33  54  82 118 156 200 254 310 363
#     4  11  18  35  60  87 112 160 208 253 306 361
#     4  10  22  41  65  93 125 159 201 253 309 372
#     4  12  23  39  60  91 123 167 207 259 321 370
#     4   9  18  33  53  84 120 156 200 255 311 372
#     4  10  22  37  54  82 125 166 207 255 306 366
#
# _framework density 21.378304
#
# number of rings (size 3 to 8) (size 9 to 14) (size 15 to 20)
#    0.000    1.714    1.429    5.571    2.000    1.143 
#    0.000    0.714    0.000    5.143    0.000    0.000 
#    0.000    0.000    0.000    0.000    0.000    0.000 
#
# Total GULP energy -156428.446803 kJ/mol
# GULP energy per Si atom -5586.730243 kJ/mol
# Density = 2.132965 g / cm^3
# Si number density = 21.378304 Si / 1000 Ang^3
#
#
#
# Elastic Constant Matrix: (Units=GPa)
#
#
# Indices 1 2 3 4 5 6 
#
# 1 166.6913 25.8057 29.4992 0.0000 0.0000 0.0000
# 2 25.8057 15.8429 -2.2859 0.0000 0.0000 0.0000
# 3 29.4992 -2.2859 71.7626 0.0000 0.0000 0.0000
# 4 0.0000 0.0000 0.0000 10.3733 0.0000 0.0000
# 5 0.0000 0.0000 0.0000 0.0000 31.3854 0.0000
# 6 0.0000 0.0000 0.0000 0.0000 0.0000 19.7368
#
#
#
# Elastic Compliance Matrix: (Units=1/GPa)
#
#
# Indices 1 2 3 4 5 6 
#
# 1 0.009157 -0.015530 -0.004259 0.000000 0.000000 0.000000
# 2 -0.015530 0.089749 0.009243 0.000000 0.000000 0.000000
# 3 -0.004259 0.009243 0.015980 0.000000 0.000000 0.000000
# 4 0.000000 0.000000 0.000000 0.096401 0.000000 0.000000
# 5 0.000000 0.000000 0.000000 0.000000 0.031862 0.000000
# 6 0.000000 0.000000 0.000000 0.000000 0.000000 0.050667
#
#
# Mechanical properties :
#
#
# Convention : Reuss Voigt Hill
#
# Bulk Modulus (GPa) = 10.66165 40.03719 25.34942
# Shear Modulus (GPa) = 14.44365 25.71761 20.08063
#
# Velocity S-wave (km/s) = 2.60209 3.47216 3.06812
# Velocity P-wave (km/s) = 3.74510 5.90281 4.94312
#
# Compressibility (1/GPa) = 0.09379408
#
# Stress axis : x y z
#
# Youngs Moduli (GPa) = 109.20607 11.14216 62.57859
#
# Poissons Ratio (x) = 0.17304 0.26651
# Poissons Ratio (y) = 1.69596 -0.57839
# Poissons Ratio (z) = 0.46509 -0.10298
#
# Static dielectric constant tensor:
#      x y z
#    x 1.771380 0.000000 0.000000 
#    y 0.000000 1.778500 0.000000 
#    z 0.000000 0.000000 1.791740 
# 
# From -- ./inp_files/5924.got.cif
#   From: 2010.05.17/outbox.cif.g08.bks.cpg/sg46_3_cif.got.tgz:5924.got - 2010.06.03 19:58:25.
