data_PCOD9379492
_publ_section_title
;
Structure prediction by ZEFSAII (Michael W. Deem and Ramdas Pophale) SiO2 
 PCOD9379492
Probable space group: I M A 2
;
_chemical_formula_sum "Si O2"
_cell_formula_units_Z 56
_cell_length_a 15.809591
_cell_length_b 19.472701
_cell_length_c 8.909285
_cell_angle_alpha 90.000000
_cell_angle_beta 90.000000
_cell_angle_gamma 90.000000
_cell_volume 2742.771840
_symmetry_space_group_name_H-M "I M A 2"
_symmetry_group_IT_number 46
_symmetry_cell_setting 'orthorhombic'
loop_
_space_group_symop_operation_xyz
x,y,z
-x,-y,z
1/2-x,y,z
1/2+x,-y,z
1/2+x,1/2+y,1/2+z
1/2-x,1/2-y,1/2+z
-x,1/2+y,1/2+z
x,1/2-y,1/2+z
loop_
_atom_site_type_symbol
_atom_site_label
_atom_site_fract_x
_atom_site_fract_y
_atom_site_fract_z
Si Si1 0.653630 0.407292 0.326810
Si Si2 0.006633 0.160136 0.711911
Si Si3 0.879889 0.650207 0.685382
Si Si4 0.843601 0.989763 0.335353
Si Si5 0.046052 0.929799 0.117767
Si Si6 0.913717 0.753402 0.448126
Si Si7 0.153974 0.055176 0.675303
O O1 0.750000 0.381421 0.325021
O O2 0.587290 0.368971 0.218699
O O3 0.612288 0.406647 0.492174
O O4 0.655636 0.485664 0.270028
O O5 0.078359 0.102011 0.734095
O O6 0.035892 0.199282 0.563770
O O7 0.020056 0.212228 0.847736
O O8 0.841821 0.575784 0.722554
O O9 0.977933 0.628458 0.656967
O O10 0.858941 0.698125 0.542863
O O11 0.865800 0.697335 0.831524
O O12 0.750000 0.019912 0.343616
O O13 0.865102 0.962852 0.501163
O O14 0.908240 0.044216 0.268439
O O15 0.000000 0.000000 0.060121
O O16 0.250000 0.085540 0.680542
#
# Coordination Sequence:
#
# PCOD9379492 Si02
#       7
#     8   8   8   8   8   8   8
#     4  11  23  38  61  90 117 150 195 246 302 350
#     4  11  21  41  62  83 118 158 192 249 285 348
#     4  10  20  38  58  86 109 155 195 236 281 352
#     4  10  21  37  57  89 122 147 185 239 292 349
#     4  10  20  35  60  87 116 150 191 237 298 346
#     4  10  22  37  61  84 112 156 204 233 286 335
#     4  10  22  38  60  91 121 152 192 240 297 353
#
# _framework density 20.417303
#
# number of rings (size 3 to 8) (size 9 to 14) (size 15 to 20)
#    0.000    1.714    2.857    1.714    4.000    1.143 
#    0.000    5.000    0.000    0.000    0.000    0.000 
#    0.000    0.000    0.000    0.000    0.000    0.000 
#
# Total GULP energy -156276.123531 kJ/mol
# GULP energy per Si atom -5581.290126 kJ/mol
# Density = 2.037083 g / cm^3
# Si number density = 20.417303 Si / 1000 Ang^3
#
#
#
# Elastic Constant Matrix: (Units=GPa)
#
#
# Indices 1 2 3 4 5 6 
#
# 1 75.5962 0.1070 3.9218 0.0000 0.0000 0.0000
# 2 0.1070 29.9165 2.8897 0.0000 0.0000 0.0000
# 3 3.9218 2.8897 54.3260 0.0000 0.0000 0.0000
# 4 0.0000 0.0000 0.0000 30.2811 0.0000 0.0000
# 5 0.0000 0.0000 0.0000 0.0000 7.4077 0.0000
# 6 0.0000 0.0000 0.0000 0.0000 0.0000 -1.7051
#
#
#
# Elastic Compliance Matrix: (Units=1/GPa)
#
#
# Indices 1 2 3 4 5 6 
#
# 1 0.013278 0.000045 -0.000961 0.000000 0.000000 0.000000
# 2 0.000045 0.033599 -0.001790 0.000000 0.000000 0.000000
# 3 -0.000961 -0.001790 0.018572 0.000000 0.000000 0.000000
# 4 0.000000 0.000000 0.000000 0.033024 0.000000 0.000000
# 5 0.000000 0.000000 0.000000 0.000000 0.134995 0.000000
# 6 0.000000 0.000000 0.000000 0.000000 0.000000 -0.586476
#
#
# Mechanical properties :
#
#
# Convention : Reuss Voigt Hill
#
# Bulk Modulus (GPa) = 16.65640 19.29729 17.97685
# Shear Modulus (GPa) = -15.26327 17.39141 1.06407
#
# Velocity S-wave (km/s) = -2.73713 2.92172 0.72270
# Velocity P-wave (km/s) = 1.34666 4.56661 3.08548
#
# Compressibility (1/GPa) = 0.06003698
#
# Stress axis : x y z
#
# Youngs Moduli (GPa) = 75.31273 29.76267 53.84450
#
# Poissons Ratio (x) = -0.00135 0.05174
# Poissons Ratio (y) = -0.00341 0.09641
# Poissons Ratio (z) = 0.07237 0.05329
#
# Static dielectric constant tensor:
#      x y z
#    x 1.731770 0.000000 0.000000 
#    y 0.000000 1.736110 0.000000 
#    z 0.000000 0.000000 1.751600 
# 
# From -- ./inp_files/5917.got.cif
#   From: 2010.05.17/outbox.cif.g08.bks.cpg/sg46_3_cif.got.tgz:5917.got - 2010.06.03 19:58:25.
