data_PCOD9379297
_publ_section_title
;
Structure prediction by ZEFSAII (Michael W. Deem and Ramdas Pophale) SiO2 
 PCOD9379297
Probable space group: I M A 2
;
_chemical_formula_sum "Si O2"
_cell_formula_units_Z 56
_cell_length_a 9.893866
_cell_length_b 19.982706
_cell_length_c 14.579252
_cell_angle_alpha 90.000000
_cell_angle_beta 90.000000
_cell_angle_gamma 90.000000
_cell_volume 2882.408737
_symmetry_space_group_name_H-M "I M A 2"
_symmetry_group_IT_number 46
_symmetry_cell_setting 'orthorhombic'
loop_
_space_group_symop_operation_xyz
x,y,z
-x,-y,z
1/2-x,y,z
1/2+x,-y,z
1/2+x,1/2+y,1/2+z
1/2-x,1/2-y,1/2+z
-x,1/2+y,1/2+z
x,1/2-y,1/2+z
loop_
_atom_site_type_symbol
_atom_site_label
_atom_site_fract_x
_atom_site_fract_y
_atom_site_fract_z
Si Si1 0.593121 0.323054 0.369080
Si Si2 0.903528 0.317969 0.074218
Si Si3 0.103404 0.448178 0.613112
Si Si4 0.090392 0.566162 0.213717
Si Si5 0.899145 0.172967 0.353084
Si Si6 0.411376 0.303506 0.547177
Si Si7 0.400806 0.055116 0.327683
O O1 0.750000 0.327673 0.403149
O O2 0.568545 0.383951 0.300127
O O3 0.585042 0.249761 0.321847
O O4 0.485301 0.319194 0.450711
O O5 0.750000 0.299268 0.103894
O O6 0.938029 0.386758 0.125456
O O7 0.012004 0.259726 0.090468
O O8 0.899055 0.326092 0.964230
O O9 0.250000 0.456279 0.569138
O O10 0.065758 0.370918 0.604508
O O11 0.114488 0.463783 0.720802
O O12 0.000000 0.500000 0.570389
O O13 0.250000 0.548786 0.211985
O O14 0.000000 0.500000 0.216975
O O15 0.750000 0.148075 0.322805
O O16 0.021052 0.125077 0.327607
O O17 0.250000 0.292090 0.537862
O O18 0.250000 0.057996 0.367996
O O19 0.500000 0.000000 0.371720
#
# Coordination Sequence:
#
# PCOD9379297 Si02
#       7
#     8   8   8   8   8   8   8
#     4   9  20  38  57  80 110 144 186 227 273 334
#     4   9  20  38  58  81 110 144 185 227 273 333
#     4   9  20  35  50  75 108 140 177 218 262 319
#     4  10  22  40  60  84 114 151 192 235 284 340
#     4   9  18  34  55  80 107 138 180 228 271 322
#     4  10  20  35  56  83 112 142 183 231 278 324
#     4  10  20  34  51  75 107 141 176 216 264 318
#
# _framework density 19.428196
#
# number of rings (size 3 to 8) (size 9 to 14) (size 15 to 20)
#    0.000    2.571    0.000    1.714    2.000    6.286 
#    0.000    4.286    0.000    0.000    0.000    0.000 
#    0.000    0.000    0.000    0.000    0.000    0.000 
#
# Total GULP energy -156047.990025 kJ/mol
# GULP energy per Si atom -5573.142501 kJ/mol
# Density = 1.938398 g / cm^3
# Si number density = 19.428196 Si / 1000 Ang^3
#
#
#
# Elastic Constant Matrix: (Units=GPa)
#
#
# Indices 1 2 3 4 5 6 
#
# 1 143.4112 106.4675 22.7525 0.0000 0.0000 0.0000
# 2 106.4675 146.3615 25.6011 0.0000 0.0000 0.0000
# 3 22.7525 25.6011 31.8017 0.0001 0.0000 0.0000
# 4 0.0000 0.0000 0.0001 51.9454 0.0000 0.0000
# 5 0.0000 0.0000 0.0000 0.0000 6.1562 0.0000
# 6 0.0000 0.0000 0.0000 0.0000 0.0000 35.8100
#
#
#
# Elastic Compliance Matrix: (Units=1/GPa)
#
#
# Indices 1 2 3 4 5 6 
#
# 1 0.015305 -0.010728 -0.002313 0.000000 0.000000 0.000000
# 2 -0.010728 0.015473 -0.004780 0.000000 0.000000 0.000000
# 3 -0.002313 -0.004780 0.036948 0.000000 0.000000 0.000000
# 4 0.000000 0.000000 0.000000 0.019251 0.000000 0.000000
# 5 0.000000 0.000000 0.000000 0.000000 0.162438 0.000000
# 6 0.000000 0.000000 0.000000 0.000000 0.000000 0.027925
#
#
# Mechanical properties :
#
#
# Convention : Reuss Voigt Hill
#
# Bulk Modulus (GPa) = 31.17027 70.13517 50.65272
# Shear Modulus (GPa) = 15.44751 29.89921 22.67336
#
# Velocity S-wave (km/s) = 2.82282 3.92721 3.41989
# Velocity P-wave (km/s) = 5.16751 7.53273 6.45930
#
# Compressibility (1/GPa) = 0.03208185
#
# Stress axis : x y z
#
# Youngs Moduli (GPa) = 65.33959 64.62986 27.06511
#
# Poissons Ratio (x) = 0.69338 0.06260
# Poissons Ratio (y) = 0.70099 0.12938
# Poissons Ratio (z) = 0.15113 0.30895
#
# Static dielectric constant tensor:
#      x y z
#    x 1.715000 0.000000 0.000000 
#    y 0.000000 1.686120 0.000000 
#    z 0.000000 0.000000 1.695510 
# 
# From -- ./inp_files/14194.got.cif
#   From: 2010.05.17/outbox.cif.g08.bks.cpg/sg46_8_cif.got.tgz:14194.got - 2010.06.03 19:58:25.
