data_PCOD9379838
_publ_section_title
;
Structure prediction by ZEFSAII (Michael W. Deem and Ramdas Pophale) SiO2 
 PCOD9379838
Probable space group: I M A 2
;
_chemical_formula_sum "Si O2"
_cell_formula_units_Z 48
_cell_length_a 16.076186
_cell_length_b 9.241827
_cell_length_c 15.661165
_cell_angle_alpha 90.000000
_cell_angle_beta 90.000000
_cell_angle_gamma 90.000000
_cell_volume 2326.831433
_symmetry_space_group_name_H-M "I M A 2"
_symmetry_group_IT_number 46
_symmetry_cell_setting 'orthorhombic'
loop_
_space_group_symop_operation_xyz
x,y,z
-x,-y,z
1/2-x,y,z
1/2+x,-y,z
1/2+x,1/2+y,1/2+z
1/2-x,1/2-y,1/2+z
-x,1/2+y,1/2+z
x,1/2-y,1/2+z
loop_
_atom_site_type_symbol
_atom_site_label
_atom_site_fract_x
_atom_site_fract_y
_atom_site_fract_z
Si Si1 0.649348 0.412700 0.085750
Si Si2 0.650326 0.418467 0.590457
Si Si3 0.089555 0.430099 0.423266
Si Si4 0.846263 0.119639 0.776867
Si Si5 0.653055 0.616950 0.933740
Si Si6 0.591163 0.433995 0.782206
O O1 0.750000 0.413596 0.078543
O O2 0.622505 0.246819 0.070069
O O3 0.628769 0.444654 0.184551
O O4 0.620584 0.526651 0.015496
O O5 0.750000 0.420170 0.589908
O O6 0.617146 0.522552 0.517583
O O7 0.619871 0.458499 0.684801
O O8 0.146886 0.504720 0.351820
O O9 0.098551 0.258725 0.417777
O O10 0.000000 0.500000 0.407617
O O11 0.750000 0.169289 0.768410
O O12 0.900661 0.261615 0.795570
O O13 0.750000 0.659340 0.947884
O O14 0.647687 0.513129 0.851956
O O15 0.500000 0.500000 0.793065
#
# Coordination Sequence:
#
# PCOD9379838 Si02
#       6
#     8   8   8   8   8   8
#     4   8  18  36  62  88 110 143 200 253 291 347
#     4  10  20  39  63  85 113 160 207 247 300 373
#     4  12  25  39  56  86 125 160 200 259 317 360
#     4  10  20  40  65  88 117 163 209 245 296 373
#     4  11  22  38  60  90 122 159 205 254 301 359
#     4  11  22  38  61  91 124 157 199 256 307 354
#
# _framework density 20.628910000000001
#
# number of rings (size 3 to 8) (size 9 to 14) (size 15 to 20)
#    0.000    1.667    0.000    6.500    0.000    2.667 
#    0.000    7.500    0.000    0.000    0.000    0.000 
#    0.000    0.000    0.000    0.000    0.000    0.000 
#
# Total GULP energy -134126.111162 kJ/mol
# GULP energy per Si atom -5588.587965 kJ/mol
# Density = 2.058196 g / cm^3
# Si number density = 20.628910 Si / 1000 Ang^3
#
#
#
# Elastic Constant Matrix: (Units=GPa)
#
#
# Indices 1 2 3 4 5 6 
#
# 1 63.1857 16.1301 -1.6901 0.0000 0.0000 0.0000
# 2 16.1301 111.7825 78.9955 0.0000 0.0000 0.0000
# 3 -1.6901 78.9955 112.4375 0.0000 0.0000 0.0000
# 4 0.0000 0.0000 0.0000 -394.2667 0.0000 0.0000
# 5 0.0000 0.0000 0.0000 0.0000 5.0293 0.0000
# 6 0.0000 0.0000 0.0000 0.0000 0.0000 22.6133
#
#
#
# Elastic Compliance Matrix: (Units=1/GPa)
#
#
# Indices 1 2 3 4 5 6 
#
# 1 0.017291 -0.005320 0.003998 0.000000 0.000000 0.000000
# 2 -0.005320 0.019405 -0.013713 0.000000 0.000000 0.000000
# 3 0.003998 -0.013713 0.018588 0.000000 0.000000 0.000000
# 4 0.000000 0.000000 0.000000 -0.002536 0.000000 0.000000
# 5 0.000000 0.000000 0.000000 0.000000 0.198835 0.000000
# 6 0.000000 0.000000 0.000000 0.000000 0.000000 0.044222
#
#
# Mechanical properties :
#
#
# Convention : Reuss Voigt Hill
#
# Bulk Modulus (GPa) = 39.66175 52.69740 46.17957
# Shear Modulus (GPa) = 14.95750 -60.39347 -22.71798
#
# Velocity S-wave (km/s) = 2.69564 -5.41661 -3.32214
# Velocity P-wave (km/s) = 5.38114 3.67678 2.77831
#
# Compressibility (1/GPa) = 0.02521321
#
# Stress axis : x y z
#
# Youngs Moduli (GPa) = 57.83190 51.53431 53.79712
#
# Poissons Ratio (x) = 0.27418 -0.21507
# Poissons Ratio (y) = 0.30769 0.73772
# Poissons Ratio (z) = -0.23121 0.70669
#
# Static dielectric constant tensor:
#      x y z
#    x 1.763250 0.000000 0.000000 
#    y 0.000000 1.712050 0.000000 
#    z 0.000000 0.000000 1.719340 
# 
# From -- ./inp_files/19388.got.cif
#   From: 2010.05.17/outbox.cif.g08.bks.cpg/sg46_10_cif.got.tgz:19388.got - 2010.06.03 19:58:25.
