data_PCOD9379805
_publ_section_title
;
Structure prediction by ZEFSAII (Michael W. Deem and Ramdas Pophale) SiO2 
 PCOD9379805
Probable space group: I M A 2
;
_chemical_formula_sum "Si O2"
_cell_formula_units_Z 56
_cell_length_a 15.488845
_cell_length_b 21.056436
_cell_length_c 7.825837
_cell_angle_alpha 90.000000
_cell_angle_beta 90.000000
_cell_angle_gamma 90.000000
_cell_volume 2552.317489
_symmetry_space_group_name_H-M "I M A 2"
_symmetry_group_IT_number 46
_symmetry_cell_setting 'orthorhombic'
loop_
_space_group_symop_operation_xyz
x,y,z
-x,-y,z
1/2-x,y,z
1/2+x,-y,z
1/2+x,1/2+y,1/2+z
1/2-x,1/2-y,1/2+z
-x,1/2+y,1/2+z
x,1/2-y,1/2+z
loop_
_atom_site_type_symbol
_atom_site_label
_atom_site_fract_x
_atom_site_fract_y
_atom_site_fract_z
Si Si1 0.888665 0.152506 0.160270
Si Si2 0.651145 0.580865 0.027472
Si Si3 0.346333 0.764293 0.479593
Si Si4 0.534427 0.805655 0.612411
Si Si5 0.097478 0.987456 0.241749
Si Si6 0.847951 0.952521 0.909356
Si Si7 0.069796 0.327916 0.506304
O O1 0.857262 0.205914 0.292317
O O2 0.866944 0.084273 0.237573
O O3 0.852658 0.187140 0.989908
O O4 0.991158 0.148234 0.124592
O O5 0.750000 0.605065 0.048888
O O6 0.581536 0.637289 0.013420
O O7 0.628269 0.547427 0.209532
O O8 0.649407 0.533703 0.867436
O O9 0.250000 0.783203 0.539920
O O10 0.435666 0.791597 0.560642
O O11 0.589146 0.741762 0.576147
O O12 0.536723 0.819117 0.812928
O O13 0.099230 0.006170 0.042221
O O14 0.000000 0.000000 0.302995
O O15 0.750000 0.974083 0.922017
O O16 0.858099 0.881124 0.984274
#
# Coordination Sequence:
#
# PCOD9379805 Si02
#       7
#     8   8   8   8   8   8   8
#     4  11  23  42  66  94 131 176 224 283 344 414
#     4  10  24  45  66 103 143 179 234 289 346 424
#     4  11  23  40  62  93 133 172 228 284 337 413
#     4  10  21  38  67  96 134 179 224 286 350 407
#     4  12  24  43  72 100 137 184 237 286 356 423
#     4  10  23  43  65  97 140 179 228 291 346 414
#     4  10  20  38  64  96 131 176 228 278 342 420
#
# _framework density 21.940844999999999
#
# number of rings (size 3 to 8) (size 9 to 14) (size 15 to 20)
#    0.000    1.429    1.429    5.143    2.000    3.429 
#    5.143    0.714    0.000    0.000    0.000    0.000 
#    0.000    0.000    0.000    0.000    0.000    0.000 
#
# Total GULP energy -156056.690778 kJ/mol
# GULP energy per Si atom -5573.453242 kJ/mol
# Density = 2.189091 g / cm^3
# Si number density = 21.940845 Si / 1000 Ang^3
#
#
#
# Elastic Constant Matrix: (Units=GPa)
#
#
# Indices 1 2 3 4 5 6 
#
# 1 70.6187 11.9115 9.9524 0.0000 0.0000 0.0000
# 2 11.9115 97.5607 22.6772 0.0000 0.0000 0.0000
# 3 9.9524 22.6772 45.7901 0.0000 0.0000 0.0000
# 4 0.0000 0.0000 0.0000 32.6438 0.0000 0.0000
# 5 0.0000 0.0000 0.0000 0.0000 21.0569 0.0000
# 6 0.0000 0.0000 0.0000 0.0000 0.0000 19.5762
#
#
#
# Elastic Compliance Matrix: (Units=1/GPa)
#
#
# Indices 1 2 3 4 5 6 
#
# 1 0.014730 -0.001191 -0.002611 0.000000 0.000000 0.000000
# 2 -0.001191 0.011680 -0.005525 0.000000 0.000000 0.000000
# 3 -0.002611 -0.005525 0.025143 0.000000 0.000000 0.000000
# 4 0.000000 0.000000 0.000000 0.030634 0.000000 0.000000
# 5 0.000000 0.000000 0.000000 0.000000 0.047490 0.000000
# 6 0.000000 0.000000 0.000000 0.000000 0.000000 0.051082
#
#
# Mechanical properties :
#
#
# Convention : Reuss Voigt Hill
#
# Bulk Modulus (GPa) = 30.39906 33.67242 32.03574
# Shear Modulus (GPa) = 23.76649 25.95060 24.85855
#
# Velocity S-wave (km/s) = 3.29478 3.44285 3.36963
# Velocity P-wave (km/s) = 5.32534 5.58431 5.45636
#
# Compressibility (1/GPa) = 0.03289575
#
# Stress axis : x y z
#
# Youngs Moduli (GPa) = 67.89079 85.61772 39.77285
#
# Poissons Ratio (x) = 0.10200 0.10386
# Poissons Ratio (y) = 0.08088 0.21976
# Poissons Ratio (z) = 0.17729 0.47307
#
# Static dielectric constant tensor:
#      x y z
#    x 1.788260 0.000000 0.000000 
#    y 0.000000 1.852100 0.000000 
#    z 0.000000 0.000000 1.896580 
# 
# From -- ./inp_files/5920.got.cif
#   From: 2010.05.17/outbox.cif.g08.bks.cpg/sg46_3_cif.got.tgz:5920.got - 2010.06.03 19:58:25.
