data_PCOD9379942
_publ_section_title
;
Structure prediction by ZEFSAII (Michael W. Deem and Ramdas Pophale) SiO2 
 PCOD9379942
Probable space group: I M A 2
;
_chemical_formula_sum "Si O2"
_cell_formula_units_Z 48
_cell_length_a 20.295291
_cell_length_b 17.606348
_cell_length_c 5.478637
_cell_angle_alpha 90.000000
_cell_angle_beta 90.000000
_cell_angle_gamma 90.000000
_cell_volume 1957.659204
_symmetry_space_group_name_H-M "I M A 2"
_symmetry_group_IT_number 46
_symmetry_cell_setting 'orthorhombic'
loop_
_space_group_symop_operation_xyz
x,y,z
-x,-y,z
1/2-x,y,z
1/2+x,-y,z
1/2+x,1/2+y,1/2+z
1/2-x,1/2-y,1/2+z
-x,1/2+y,1/2+z
x,1/2-y,1/2+z
loop_
_atom_site_type_symbol
_atom_site_label
_atom_site_fract_x
_atom_site_fract_y
_atom_site_fract_z
Si Si1 0.824540 0.879524 0.716050
Si Si2 0.154557 0.707997 0.786952
Si Si3 0.495029 0.292598 0.792500
Si Si4 0.867359 0.626045 0.715454
Si Si5 0.371442 0.948025 0.213001
Si Si6 0.574260 0.480156 0.216036
O O1 0.750000 0.908877 0.729202
O O2 0.834661 0.840407 0.456757
O O3 0.879186 0.946218 0.710511
O O4 0.841353 0.837951 0.966575
O O5 0.173238 0.753590 0.542770
O O6 0.177040 0.620701 0.770492
O O7 0.074138 0.702153 0.780905
O O8 0.478865 0.235642 0.566887
O O9 0.446261 0.363135 0.737769
O O10 0.848396 0.535941 0.705361
O O11 0.420420 0.946882 0.445711
O O12 0.400288 0.931125 0.943878
O O13 0.500000 0.500000 0.271516
#
# Coordination Sequence:
#
# PCOD9379942 Si02
#       6
#     8   8   8   8   8   8
#     4  10  21  36  55  82 116 146 184 236 288 334
#     4  10  21  34  49  75 115 156 182 220 283 347
#     4  10  21  35  51  75 109 148 186 233 289 336
#     4  10  21  36  59  81 104 145 193 238 279 339
#     4  10  21  34  53  81 114 141 190 226 281 334
#     4  10  21  32  53  86 112 142 177 237 286 336
#
# _framework density 24.519078
#
# number of rings (size 3 to 8) (size 9 to 14) (size 15 to 20)
#    0.000    2.000    0.000    3.000    9.333    0.000 
#    0.000    0.000    0.000   10.000    0.000    0.000 
#    0.000  213.333    0.000    0.000    0.000    0.000 
#
# Total GULP energy -133972.466638 kJ/mol
# GULP energy per Si atom -5582.186110 kJ/mol
# Density = 2.446327 g / cm^3
# Si number density = 24.519078 Si / 1000 Ang^3
#
#
#
# Elastic Constant Matrix: (Units=GPa)
#
#
# Indices 1 2 3 4 5 6 
#
# 1 137.2266 9.1346 1.8250 0.0000 0.0000 0.0000
# 2 9.1346 96.5990 3.2548 0.0000 0.0000 0.0000
# 3 1.8250 3.2548 195.5267 0.0000 0.0000 0.0000
# 4 0.0000 0.0000 0.0000 -8.3999 0.0000 0.0000
# 5 0.0000 0.0000 0.0000 0.0000 -74.8406 0.0000
# 6 0.0000 0.0000 0.0000 0.0000 0.0000 -72.9623
#
#
#
# Elastic Compliance Matrix: (Units=1/GPa)
#
#
# Indices 1 2 3 4 5 6 
#
# 1 0.007334 -0.000692 -0.000057 0.000000 0.000000 0.000000
# 2 -0.000692 0.010423 -0.000167 0.000000 0.000000 0.000000
# 3 -0.000057 -0.000167 0.005118 0.000000 0.000000 0.000000
# 4 0.000000 0.000000 0.000000 -0.119049 0.000000 0.000000
# 5 0.000000 0.000000 0.000000 0.000000 -0.013362 0.000000
# 6 0.000000 0.000000 0.000000 0.000000 0.000000 -0.013706
#
#
# Mechanical properties :
#
#
# Convention : Reuss Voigt Hill
#
# Bulk Modulus (GPa) = 47.52029 50.86455 49.19242
# Shear Modulus (GPa) = -43.70772 -3.56471 -23.63621
#
# Velocity S-wave (km/s) = -4.22667 -1.20707 -3.10819
# Velocity P-wave (km/s) = 2.09680 4.34134 2.68800
#
# Compressibility (1/GPa) = 0.02104364
#
# Stress axis : x y z
#
# Youngs Moduli (GPa) = 136.35105 95.94070 195.40011
#
# Poissons Ratio (x) = 0.06635 0.01113
# Poissons Ratio (y) = 0.09430 0.03264
# Poissons Ratio (z) = 0.00776 0.01603
#
# Static dielectric constant tensor:
#      x y z
#    x 1.923280 0.000000 0.000000 
#    y 0.000000 1.993320 0.000000 
#    z 0.000000 0.000000 2.031540 
# 
# From -- ./inp_files/2043.got.cif
#   From: 2010.05.17/outbox.cif.g08.bks.cpg/sg46_2_cif.got.tgz:2043.got - 2010.06.03 19:58:25.
