data_PCOD9379372
_publ_section_title
;
Structure prediction by ZEFSAII (Michael W. Deem and Ramdas Pophale) SiO2 
 PCOD9379372
Probable space group: I M A 2
;
_chemical_formula_sum "Si O2"
_cell_formula_units_Z 64
_cell_length_a 19.101372
_cell_length_b 14.967415
_cell_length_c 12.025561
_cell_angle_alpha 90.000000
_cell_angle_beta 90.000000
_cell_angle_gamma 90.000000
_cell_volume 3438.085784
_symmetry_space_group_name_H-M "I M A 2"
_symmetry_group_IT_number 46
_symmetry_cell_setting 'orthorhombic'
loop_
_space_group_symop_operation_xyz
x,y,z
-x,-y,z
1/2-x,y,z
1/2+x,-y,z
1/2+x,1/2+y,1/2+z
1/2-x,1/2-y,1/2+z
-x,1/2+y,1/2+z
x,1/2-y,1/2+z
loop_
_atom_site_type_symbol
_atom_site_label
_atom_site_fract_x
_atom_site_fract_y
_atom_site_fract_z
Si Si1 0.454154 0.251464 0.979590
Si Si2 0.052471 0.845125 0.645424
Si Si3 0.934269 0.141899 0.220103
Si Si4 0.668893 0.056718 0.039592
Si Si5 0.173215 0.151136 0.084533
Si Si6 0.923098 0.045252 0.443003
Si Si7 0.587249 0.882220 0.290414
Si Si8 0.956584 0.089043 0.891474
O O1 0.436230 0.300867 0.866537
O O2 0.508853 0.173057 0.953858
O O3 0.485660 0.320116 0.069098
O O4 0.384198 0.209466 0.025378
O O5 0.075361 0.745213 0.684514
O O6 0.096650 0.908413 0.560100
O O7 0.038255 0.896303 0.759439
O O8 0.879812 0.087278 0.143709
O O9 0.920298 0.123899 0.350730
O O10 0.015822 0.106044 0.214414
O O11 0.750000 0.088748 0.044887
O O12 0.671384 0.949696 0.039680
O O13 0.623516 0.084495 0.932406
O O14 0.250000 0.189106 0.071110
O O15 0.150504 0.142436 0.211944
O O16 0.890566 0.963062 0.372264
O O17 0.000000 0.000000 0.459196
O O18 0.000000 0.000000 0.922152
#
# Coordination Sequence:
#
# PCOD9379372 Si02
#       8
#     8   8   8   8   8   8   8   8
#     4  12  21  37  61  92 119 157 202 261 298 354
#     4  12  21  35  60  94 125 145 197 253 310 357
#     4  11  20  35  65  86 113 149 202 246 298 350
#     4  11  24  40  60  86 121 159 201 249 300 357
#     4  11  23  39  58  85 122 164 206 247 299 359
#     4  10  20  34  57  92 121 151 186 255 309 351
#     4  11  21  37  63  90 122 154 204 255 303 357
#     4  12  23  37  63  90 119 160 201 248 304 360
#
# _framework density 18.615010999999999
#
# number of rings (size 3 to 8) (size 9 to 14) (size 15 to 20)
#    0.000    0.750    8.750    0.375    0.000    0.500 
#    0.000    0.625    0.000    2.250    0.000    0.000 
#    0.000    0.000    0.000    0.000    0.000    0.000 
#
# Total GULP energy -178272.971474 kJ/mol
# GULP energy per Si atom -5571.030359 kJ/mol
# Density = 1.857264 g / cm^3
# Si number density = 18.615011 Si / 1000 Ang^3
#
#
#
# Elastic Constant Matrix: (Units=GPa)
#
#
# Indices 1 2 3 4 5 6 
#
# 1 84.3589 24.0338 38.3921 0.0000 0.0000 0.0000
# 2 24.0338 82.1473 29.4459 0.0000 0.0000 0.0000
# 3 38.3921 29.4459 103.3127 0.0000 0.0000 0.0000
# 4 0.0000 0.0000 0.0000 36.3412 0.0000 0.0000
# 5 0.0000 0.0000 0.0000 0.0000 0.6181 0.0000
# 6 0.0000 0.0000 0.0000 0.0000 0.0000 14.2753
#
#
#
# Elastic Compliance Matrix: (Units=1/GPa)
#
#
# Indices 1 2 3 4 5 6 
#
# 1 0.014756 -0.002619 -0.004737 0.000000 0.000000 0.000000
# 2 -0.002619 0.014023 -0.003024 0.000000 0.000000 0.000000
# 3 -0.004737 -0.003024 0.012301 0.000000 0.000000 0.000000
# 4 0.000000 0.000000 0.000000 0.027517 0.000000 0.000000
# 5 0.000000 0.000000 0.000000 0.000000 1.617777 0.000000
# 6 0.000000 0.000000 0.000000 0.000000 0.000000 0.070051
#
#
# Mechanical properties :
#
#
# Convention : Reuss Voigt Hill
#
# Bulk Modulus (GPa) = 49.20930 50.39583 49.80257
# Shear Modulus (GPa) = 2.80275 22.11008 12.45642
#
# Velocity S-wave (km/s) = 1.22838 3.45012 2.58962
# Velocity P-wave (km/s) = 5.33897 6.55764 5.97943
#
# Compressibility (1/GPa) = 0.02032136
#
# Stress axis : x y z
#
# Youngs Moduli (GPa) = 67.76836 71.30958 81.29121
#
# Poissons Ratio (x) = 0.18677 0.38508
# Poissons Ratio (y) = 0.17750 0.24579
# Poissons Ratio (z) = 0.32102 0.21561
#
# Static dielectric constant tensor:
#      x y z
#    x 1.663990 0.000000 0.000000 
#    y 0.000000 1.700830 0.000000 
#    z 0.000000 0.000000 1.673140 
# 
# From -- ./inp_files/11970.got.cif
#   From: 2010.05.17/outbox.cif.g08.bks.cpg/sg46_6_cif.got.tgz:11970.got - 2010.06.03 19:58:25.
