data_PCOD9379060
_publ_section_title
;
Structure prediction by ZEFSAII (Michael W. Deem and Ramdas Pophale) SiO2 
 PCOD9379060
Probable space group: I M A 2
;
_chemical_formula_sum "Si O2"
_cell_formula_units_Z 64
_cell_length_a 15.219127
_cell_length_b 18.461987
_cell_length_c 11.060103
_cell_angle_alpha 90.000000
_cell_angle_beta 90.000000
_cell_angle_gamma 90.000000
_cell_volume 3107.616033
_symmetry_space_group_name_H-M "I M A 2"
_symmetry_group_IT_number 46
_symmetry_cell_setting 'orthorhombic'
loop_
_space_group_symop_operation_xyz
x,y,z
-x,-y,z
1/2-x,y,z
1/2+x,-y,z
1/2+x,1/2+y,1/2+z
1/2-x,1/2-y,1/2+z
-x,1/2+y,1/2+z
x,1/2-y,1/2+z
loop_
_atom_site_type_symbol
_atom_site_label
_atom_site_fract_x
_atom_site_fract_y
_atom_site_fract_z
Si Si1 0.394138 0.501047 0.279590
Si Si2 0.030085 0.849243 0.108750
Si Si3 0.345072 0.663009 0.243458
Si Si4 0.911898 0.951345 0.252105
Si Si5 0.348686 0.685712 0.831093
Si Si6 0.018488 0.809403 0.536807
Si Si7 0.412213 0.448051 0.023410
Si Si8 0.152573 0.970893 0.022659
O O1 0.500000 0.500000 0.279151
O O2 0.356310 0.582154 0.286749
O O3 0.365373 0.470284 0.148970
O O4 0.362692 0.473641 0.410600
O O5 0.110812 0.831433 0.200446
O O6 0.003609 0.776837 0.036418
O O7 0.950557 0.877139 0.194227
O O8 0.071387 0.913731 0.028511
O O9 0.250000 0.670789 0.179547
O O10 0.345375 0.726750 0.341170
O O11 0.426283 0.676704 0.157190
O O12 0.873571 0.952791 0.387737
O O13 0.852956 0.987505 0.149857
O O14 0.000000 0.000000 0.259227
O O15 0.250000 0.657269 0.844422
O O16 0.418023 0.662101 0.930344
O O17 0.937957 0.863869 0.537137
O O18 0.500000 0.500000 0.022181
O O19 0.250000 0.937652 0.013200
#
# Coordination Sequence:
#
# PCOD9379060 Si02
#       8
#     8   8   8   8   8   8   8   8
#     4  11  20  35  54  78 111 154 196 243 278 338
#     4  10  20  35  56  83 118 155 195 238 290 350
#     4  10  20  32  48  77 116 155 188 229 282 339
#     4   9  19  38  59  81 113 151 196 248 280 341
#     4  10  20  31  48  78 120 159 192 228 281 349
#     4  11  19  33  53  80 116 154 197 236 283 340
#     4  10  19  36  57  79 112 151 201 247 277 332
#     4  11  23  38  58  86 118 155 194 239 296 351
#
# _framework density 20.594566
#
# number of rings (size 3 to 8) (size 9 to 14) (size 15 to 20)
#    0.000    1.750    3.750    3.000    0.000    2.500 
#    0.000    1.250    0.000    0.000    0.000    4.375 
#    0.000    0.000    0.000    0.000    0.000    0.000 
#
# Total GULP energy -178270.016660 kJ/mol
# GULP energy per Si atom -5570.938021 kJ/mol
# Density = 2.054769 g / cm^3
# Si number density = 20.594566 Si / 1000 Ang^3
#
#
#
# Elastic Constant Matrix: (Units=GPa)
#
#
# Indices 1 2 3 4 5 6 
#
# 1 27.7764 12.0911 10.9245 0.0000 0.0000 0.0000
# 2 12.0911 65.4563 21.0753 0.0000 0.0000 0.0000
# 3 10.9245 21.0753 140.9261 0.0000 0.0000 0.0000
# 4 0.0000 0.0000 0.0000 22.0283 0.0000 0.0000
# 5 0.0000 0.0000 0.0000 0.0000 -43.7106 0.0000
# 6 0.0000 0.0000 0.0000 0.0000 0.0000 3.7263
#
#
#
# Elastic Compliance Matrix: (Units=1/GPa)
#
#
# Indices 1 2 3 4 5 6 
#
# 1 0.039723 -0.006667 -0.002082 0.000000 0.000000 0.000000
# 2 -0.006667 0.017169 -0.002051 0.000000 0.000000 0.000000
# 3 -0.002082 -0.002051 0.007564 0.000000 0.000000 0.000000
# 4 0.000000 0.000000 0.000000 0.045396 0.000000 0.000000
# 5 0.000000 0.000000 0.000000 0.000000 -0.022878 0.000000
# 6 0.000000 0.000000 0.000000 0.000000 0.000000 0.268362
#
#
# Mechanical properties :
#
#
# Convention : Reuss Voigt Hill
#
# Bulk Modulus (GPa) = 23.33408 35.81564 29.57486
# Shear Modulus (GPa) = 12.78046 9.08001 10.93023
#
# Velocity S-wave (km/s) = 2.49384 2.10202 2.30627
# Velocity P-wave (km/s) = 4.43250 4.82907 4.63503
#
# Compressibility (1/GPa) = 0.04285577
#
# Stress axis : x y z
#
# Youngs Moduli (GPa) = 25.17435 58.24372 132.20477
#
# Poissons Ratio (x) = 0.38832 0.27528
# Poissons Ratio (y) = 0.16784 0.27113
# Poissons Ratio (z) = 0.05242 0.11945
#
# Static dielectric constant tensor:
#      x y z
#    x 1.744380 0.000000 0.000000 
#    y 0.000000 1.802200 0.000000 
#    z 0.000000 0.000000 1.835990 
# 
# From -- ./inp_files/11327.got.cif
#   From: 2010.05.17/outbox.cif.g08.bks.cpg/sg46_6_cif.got.tgz:11327.got - 2010.06.03 19:58:25.
