data_PCOD9379190
_publ_section_title
;
Structure prediction by ZEFSAII (Michael W. Deem and Ramdas Pophale) SiO2 
 PCOD9379190
Probable space group: I M A 2
;
_chemical_formula_sum "Si O2"
_cell_formula_units_Z 64
_cell_length_a 9.150752
_cell_length_b 13.350500
_cell_length_c 23.130146
_cell_angle_alpha 90.000000
_cell_angle_beta 90.000000
_cell_angle_gamma 90.000000
_cell_volume 2825.743197
_symmetry_space_group_name_H-M "I M A 2"
_symmetry_group_IT_number 46
_symmetry_cell_setting 'orthorhombic'
loop_
_space_group_symop_operation_xyz
x,y,z
-x,-y,z
1/2-x,y,z
1/2+x,-y,z
1/2+x,1/2+y,1/2+z
1/2-x,1/2-y,1/2+z
-x,1/2+y,1/2+z
x,1/2-y,1/2+z
loop_
_atom_site_type_symbol
_atom_site_label
_atom_site_fract_x
_atom_site_fract_y
_atom_site_fract_z
Si Si1 0.085892 0.347755 0.152660
Si Si2 0.574555 0.672883 0.802267
Si Si3 0.578014 0.600902 0.448733
Si Si4 0.073890 0.687610 0.918561
Si Si5 0.580399 0.149650 0.188737
Si Si6 0.413697 0.095498 0.780469
Si Si7 0.588866 0.375680 0.559332
Si Si8 0.586246 0.365477 0.044609
O O1 0.250000 0.306666 0.143321
O O2 0.093094 0.412491 0.210619
O O3 0.976275 0.259991 0.171403
O O4 0.027923 0.395527 0.093792
O O5 0.750000 0.665237 0.805683
O O6 0.495483 0.640588 0.861001
O O7 0.516575 0.620411 0.743871
O O8 0.534822 0.791955 0.794891
O O9 0.500000 0.500000 0.426793
O O10 0.750000 0.604580 0.437781
O O11 0.499191 0.702105 0.426395
O O12 0.543767 0.598604 0.517577
O O13 0.250000 0.697280 0.914338
O O14 0.042621 0.625753 0.977528
O O15 0.750000 0.150679 0.205857
O O16 0.570565 0.096717 0.126351
O O17 0.250000 0.089702 0.803240
O O18 0.500000 0.000000 0.801607
O O19 0.750000 0.410974 0.538663
O O20 0.596410 0.254956 0.553621
O O21 0.750000 0.406470 0.053931
#
# Coordination Sequence:
#
# PCOD9379190 Si02
#       8
#     8   8   8   8   8   8   8   8
#     4   9  16  26  41  62  84 104 134 176 217 257
#     4  10  20  32  44  62  87 114 149 185 216 253
#     4  11  21  32  46  63  86 117 151 184 219 256
#     4  10  20  33  46  62  86 115 149 183 215 255
#     4   9  16  27  44  63  83 109 138 172 218 262
#     4   9  19  31  42  59  83 112 145 179 210 246
#     4   8  15  28  44  63  85 107 137 176 217 261
#     4   8  15  27  43  62  82 106 136 171 214 262
#
# _framework density 22.648909
#
# number of rings (size 3 to 8) (size 9 to 14) (size 15 to 20)
#    0.000    2.750    0.000    4.875    0.000    9.000 
#    0.000    1.250    0.000    0.000    0.000    0.000 
#    0.000    1.000    0.000    7.000    0.000    5.625 
#
# Total GULP energy -178466.894180 kJ/mol
# GULP energy per Si atom -5577.090443 kJ/mol
# Density = 2.259736 g / cm^3
# Si number density = 22.648909 Si / 1000 Ang^3
#
#
#
# Elastic Constant Matrix: (Units=GPa)
#
#
# Indices 1 2 3 4 5 6 
#
# 1 102.8777 18.9212 69.1356 0.0000 0.0000 0.0000
# 2 18.9212 40.5335 -16.2094 0.0000 0.0000 0.0000
# 3 69.1356 -16.2094 196.4362 0.0000 0.0000 0.0000
# 4 0.0000 0.0000 0.0000 -11.4580 0.0000 0.0000
# 5 0.0000 0.0000 0.0000 0.0000 30.2582 0.0000
# 6 0.0000 0.0000 0.0000 0.0000 0.0000 17.2517
#
#
#
# Elastic Compliance Matrix: (Units=1/GPa)
#
#
# Indices 1 2 3 4 5 6 
#
# 1 0.015855 -0.009961 -0.006402 0.000000 0.000000 0.000000
# 2 -0.009961 0.031771 0.006127 0.000000 0.000000 0.000000
# 3 -0.006402 0.006127 0.007849 0.000000 0.000000 0.000000
# 4 0.000000 0.000000 0.000000 -0.087275 0.000000 0.000000
# 5 0.000000 0.000000 0.000000 0.000000 0.033049 0.000000
# 6 0.000000 0.000000 0.000000 0.000000 0.000000 0.057965
#
#
# Mechanical properties :
#
#
# Convention : Reuss Voigt Hill
#
# Bulk Modulus (GPa) = 28.56812 53.72691 41.14751
# Shear Modulus (GPa) = 54.73243 25.07704 39.90474
#
# Velocity S-wave (km/s) = 4.92118 3.33108 4.20203
# Velocity P-wave (km/s) = 6.70310 6.21031 6.46141
#
# Compressibility (1/GPa) = 0.03500406
#
# Stress axis : x y z
#
# Youngs Moduli (GPa) = 63.07337 31.47505 127.39667
#
# Poissons Ratio (x) = 0.31353 0.81559
# Poissons Ratio (y) = 0.62828 -0.78062
# Poissons Ratio (z) = 0.40379 -0.19286
#
# Static dielectric constant tensor:
#      x y z
#    x 1.785890 0.000000 0.000000 
#    y 0.000000 1.872810 0.000000 
#    z 0.000000 0.000000 1.910460 
# 
# From -- ./inp_files/21452.got.cif
#   From: 2010.05.17/outbox.cif.g08.bks.cpg/sg46_11_cif.got.tgz:21452.got - 2010.06.03 19:58:25.
