data_PCOD9379610
_publ_section_title
;
Structure prediction by ZEFSAII (Michael W. Deem and Ramdas Pophale) SiO2 
 PCOD9379610
Probable space group: I M A 2
;
_chemical_formula_sum "Si O2"
_cell_formula_units_Z 64
_cell_length_a 14.462857
_cell_length_b 16.362221
_cell_length_c 11.229378
_cell_angle_alpha 90.000000
_cell_angle_beta 90.000000
_cell_angle_gamma 90.000000
_cell_volume 2657.370121
_symmetry_space_group_name_H-M "I M A 2"
_symmetry_group_IT_number 46
_symmetry_cell_setting 'orthorhombic'
loop_
_space_group_symop_operation_xyz
x,y,z
-x,-y,z
1/2-x,y,z
1/2+x,-y,z
1/2+x,1/2+y,1/2+z
1/2-x,1/2-y,1/2+z
-x,1/2+y,1/2+z
x,1/2-y,1/2+z
loop_
_atom_site_type_symbol
_atom_site_label
_atom_site_fract_x
_atom_site_fract_y
_atom_site_fract_z
Si Si1 0.137435 0.681369 0.931170
Si Si2 0.862792 0.011944 0.334217
Si Si3 0.648888 0.604660 0.226301
Si Si4 0.137398 0.141717 0.472856
Si Si5 0.136909 0.327903 0.463882
Si Si6 0.637815 0.221051 0.695485
Si Si7 0.909667 0.447026 0.318921
Si Si8 0.361683 0.503142 0.567603
O O1 0.250000 0.686107 0.931622
O O2 0.111848 0.585281 0.923408
O O3 0.107112 0.718969 0.803396
O O4 0.107845 0.724123 0.055873
O O5 0.750000 0.010658 0.334010
O O6 0.894380 0.921300 0.372101
O O7 0.891421 0.028756 0.198769
O O8 0.750000 0.645045 0.210270
O O9 0.600672 0.654350 0.330585
O O10 0.661955 0.515499 0.278465
O O11 0.608199 0.601359 0.096809
O O12 0.250000 0.143475 0.460183
O O13 0.107780 0.235518 0.486738
O O14 0.250000 0.328746 0.463798
O O15 0.112389 0.407810 0.541356
O O16 0.750000 0.226596 0.693009
O O17 0.607795 0.133302 0.745976
O O18 0.900212 0.440778 0.461374
O O19 0.000000 0.500000 0.291527
O O20 0.250000 0.508322 0.562165
#
# Coordination Sequence:
#
# PCOD9379610 Si02
#       8
#     8   8   8   8   8   8   8   8
#     4   9  19  33  56  93 124 147 189 244 305 359
#     4   9  17  28  47  79 116 145 179 233 293 350
#     4   9  17  31  51  75 104 135 178 226 273 330
#     4   9  16  25  46  76 107 139 173 225 283 328
#     4   8  15  25  41  71 103 134 172 216 264 319
#     4  10  20  36  62  92 121 153 194 247 300 357
#     4  11  22  36  57  77 109 148 192 236 288 350
#     4   9  18  32  53  79 109 143 186 237 289 343
#
# _framework density 24.083960999999999
#
# number of rings (size 3 to 8) (size 9 to 14) (size 15 to 20)
#    0.000    2.750    0.000    2.625    3.500    2.000 
#    0.000    0.000    5.500    3.000    0.000    0.000 
#    0.000    0.000    0.000    0.000    0.000    0.000 
#
# Total GULP energy -178425.357542 kJ/mol
# GULP energy per Si atom -5575.792423 kJ/mol
# Density = 2.402914 g / cm^3
# Si number density = 24.083961 Si / 1000 Ang^3
#
#
#
# Elastic Constant Matrix: (Units=GPa)
#
#
# Indices 1 2 3 4 5 6 
#
# 1 69.6007 -3.0057 1.2671 0.0000 0.0000 0.0000
# 2 -3.0057 66.6017 37.9929 0.0000 0.0000 0.0000
# 3 1.2671 37.9929 140.1475 0.0000 0.0000 0.0000
# 4 0.0000 0.0000 0.0000 4.0353 0.0000 0.0000
# 5 0.0000 0.0000 0.0000 0.0000 4.7785 0.0000
# 6 0.0000 0.0000 0.0000 0.0000 0.0000 -41.5510
#
#
#
# Elastic Compliance Matrix: (Units=1/GPa)
#
#
# Indices 1 2 3 4 5 6 
#
# 1 0.014411 0.000857 -0.000363 0.000000 0.000000 0.000000
# 2 0.000857 0.017812 -0.004837 0.000000 0.000000 0.000000
# 3 -0.000363 -0.004837 0.008450 0.000000 0.000000 0.000000
# 4 0.000000 0.000000 0.000000 0.247816 0.000000 0.000000
# 5 0.000000 0.000000 0.000000 0.000000 0.209271 0.000000
# 6 0.000000 0.000000 0.000000 0.000000 0.000000 -0.024067
#
#
# Mechanical properties :
#
#
# Convention : Reuss Voigt Hill
#
# Bulk Modulus (GPa) = 31.26031 38.76206 35.01119
# Shear Modulus (GPa) = 10.14115 9.45892 9.80004
#
# Velocity S-wave (km/s) = 2.05424 1.98394 2.01939
# Velocity P-wave (km/s) = 4.31676 4.62358 4.47280
#
# Compressibility (1/GPa) = 0.03198944
#
# Stress axis : x y z
#
# Youngs Moduli (GPa) = 69.39005 56.14099 118.34658
#
# Poissons Ratio (x) = -0.04813 0.04292
# Poissons Ratio (y) = -0.05949 0.57239
# Poissons Ratio (z) = 0.02517 0.27153
#
# Static dielectric constant tensor:
#      x y z
#    x 2.095870 0.000000 0.000000 
#    y 0.000000 1.924870 0.000000 
#    z 0.000000 0.000000 1.933420 
# 
# From -- ./inp_files/11954.got.cif
#   From: 2010.05.17/outbox.cif.g08.bks.cpg/sg46_6_cif.got.tgz:11954.got - 2010.06.03 19:58:25.
