data_PCOD9379274
_publ_section_title
;
Structure prediction by ZEFSAII (Michael W. Deem and Ramdas Pophale) SiO2 
 PCOD9379274
Probable space group: I M A 2
;
_chemical_formula_sum "Si O2"
_cell_formula_units_Z 56
_cell_length_a 8.706394
_cell_length_b 14.962699
_cell_length_c 22.128679
_cell_angle_alpha 90.000000
_cell_angle_beta 90.000000
_cell_angle_gamma 90.000000
_cell_volume 2882.728523
_symmetry_space_group_name_H-M "I M A 2"
_symmetry_group_IT_number 46
_symmetry_cell_setting 'orthorhombic'
loop_
_space_group_symop_operation_xyz
x,y,z
-x,-y,z
1/2-x,y,z
1/2+x,-y,z
1/2+x,1/2+y,1/2+z
1/2-x,1/2-y,1/2+z
-x,1/2+y,1/2+z
x,1/2-y,1/2+z
loop_
_atom_site_type_symbol
_atom_site_label
_atom_site_fract_x
_atom_site_fract_y
_atom_site_fract_z
Si Si1 0.434138 0.282043 0.732300
Si Si2 0.066183 0.594914 0.834473
Si Si3 0.935012 0.713445 0.501033
Si Si4 0.066078 0.904360 0.755469
Si Si5 0.064831 0.099423 0.116392
Si Si6 0.565922 0.593033 0.969825
Si Si7 0.566760 0.095399 0.897510
O O1 0.250000 0.281685 0.738535
O O2 0.508909 0.325998 0.791644
O O3 0.493938 0.181590 0.723670
O O4 0.477298 0.344503 0.675827
O O5 0.250000 0.591784 0.836007
O O6 0.000000 0.500000 0.811018
O O7 0.001084 0.604514 0.902172
O O8 0.750000 0.708609 0.498257
O O9 0.987855 0.653440 0.557097
O O10 0.976116 0.817732 0.506171
O O11 0.000610 0.672585 0.439453
O O12 0.250000 0.904111 0.750256
O O13 0.025394 0.894384 0.826952
O O14 0.000000 0.000000 0.735432
O O15 0.250000 0.094596 0.114522
O O16 0.000000 0.000000 0.117764
O O17 0.500000 0.500000 0.994266
O O18 0.750000 0.586507 0.965658
O O19 0.750000 0.093815 0.902042
O O20 0.500000 0.000000 0.918321
#
# Coordination Sequence:
#
# PCOD9379274 Si02
#       7
#     8   8   8   8   8   8   8
#     4  11  22  37  57  80 110 147 186 228 275 325
#     4  11  21  34  54  82 115 146 182 226 276 332
#     4  10  21  37  56  79 109 145 183 224 271 321
#     4  10  21  37  57  83 114 146 183 226 273 326
#     4  10  23  41  59  81 109 142 181 225 270 319
#     4  10  20  35  56  81 111 144 180 223 272 326
#     4  10  20  33  53  82 113 144 178 220 269 323
#
# _framework density 19.426041999999999
#
# number of rings (size 3 to 8) (size 9 to 14) (size 15 to 20)
#    0.000    1.714    0.000    5.571    0.000    9.143 
#    0.000    0.714    0.000    1.714    0.000    0.000 
#    0.000    0.000    0.000    0.000    0.000    0.000 
#
# Total GULP energy -156494.869193 kJ/mol
# GULP energy per Si atom -5589.102471 kJ/mol
# Density = 1.938183 g / cm^3
# Si number density = 19.426042 Si / 1000 Ang^3
#
#
#
# Elastic Constant Matrix: (Units=GPa)
#
#
# Indices 1 2 3 4 5 6 
#
# 1 57.0211 49.4756 21.4699 0.0000 0.0000 0.0000
# 2 49.4756 194.2504 49.8754 0.0000 0.0000 0.0000
# 3 21.4699 49.8754 39.9389 0.0000 0.0000 0.0000
# 4 0.0000 0.0000 0.0000 30.7080 0.0000 0.0000
# 5 0.0000 0.0000 0.0000 0.0000 11.6941 0.0000
# 6 0.0000 0.0000 0.0000 0.0000 0.0000 36.6972
#
#
#
# Elastic Compliance Matrix: (Units=1/GPa)
#
#
# Indices 1 2 3 4 5 6 
#
# 1 0.024046 -0.004130 -0.007769 0.000000 0.000000 0.000000
# 2 -0.004130 0.008287 -0.008129 0.000000 0.000000 0.000000
# 3 -0.007769 -0.008129 0.039366 0.000000 0.000000 0.000000
# 4 0.000000 0.000000 0.000000 0.032565 0.000000 0.000000
# 5 0.000000 0.000000 0.000000 0.000000 0.085513 0.000000
# 6 0.000000 0.000000 0.000000 0.000000 0.000000 0.027250
#
#
# Mechanical properties :
#
#
# Convention : Reuss Voigt Hill
#
# Bulk Modulus (GPa) = 31.60208 59.20578 45.40393
# Shear Modulus (GPa) = 18.68257 27.17916 22.93086
#
# Velocity S-wave (km/s) = 3.10454 3.74453 3.43945
# Velocity P-wave (km/s) = 5.39945 7.01705 6.26071
#
# Compressibility (1/GPa) = 0.03164349
#
# Stress axis : x y z
#
# Youngs Moduli (GPa) = 41.58720 120.67199 25.40277
#
# Poissons Ratio (x) = 0.49834 0.19736
# Poissons Ratio (y) = 0.17174 0.20649
# Poissons Ratio (z) = 0.32310 0.98090
#
# Static dielectric constant tensor:
#      x y z
#    x 1.649920 0.000000 0.000000 
#    y 0.000000 1.690410 0.000000 
#    z 0.000000 0.000000 1.664280 
# 
# From -- ./inp_files/21039.got.cif
#   From: 2010.05.17/outbox.cif.g08.bks.cpg/sg46_11_cif.got.tgz:21039.got - 2010.06.03 19:58:25.
