data_PCOD9379371
_publ_section_title
;
Structure prediction by ZEFSAII (Michael W. Deem and Ramdas Pophale) SiO2 
 PCOD9379371
Probable space group: I M A 2
;
_chemical_formula_sum "Si O2"
_cell_formula_units_Z 64
_cell_length_a 8.921487
_cell_length_b 32.850450
_cell_length_c 11.816571
_cell_angle_alpha 90.000000
_cell_angle_beta 90.000000
_cell_angle_gamma 90.000000
_cell_volume 3463.139922
_symmetry_space_group_name_H-M "I M A 2"
_symmetry_group_IT_number 46
_symmetry_cell_setting 'orthorhombic'
loop_
_space_group_symop_operation_xyz
x,y,z
-x,-y,z
1/2-x,y,z
1/2+x,-y,z
1/2+x,1/2+y,1/2+z
1/2-x,1/2-y,1/2+z
-x,1/2+y,1/2+z
x,1/2-y,1/2+z
loop_
_atom_site_type_symbol
_atom_site_label
_atom_site_fract_x
_atom_site_fract_y
_atom_site_fract_z
Si Si1 0.420640 0.898041 0.376820
Si Si2 0.928686 0.121876 0.816375
Si Si3 0.573354 0.725160 0.929844
Si Si4 0.928940 0.955482 0.192871
Si Si5 0.570488 0.646629 0.078467
Si Si6 0.581804 0.184117 0.230478
Si Si7 0.574670 0.818733 0.996794
Si Si8 0.429927 0.045128 0.933938
O O1 0.250000 0.910795 0.403510
O O2 0.500471 0.928975 0.292208
O O3 0.512765 0.887057 0.489120
O O4 0.412926 0.856118 0.306797
O O5 0.750000 0.118529 0.811323
O O6 0.993426 0.138376 0.698033
O O7 0.999933 0.078331 0.850311
O O8 0.978803 0.153495 0.913329
O O9 0.750000 0.718723 0.905678
O O10 0.531814 0.690806 0.023049
O O11 0.552919 0.770902 0.971648
O O12 0.483001 0.717944 0.814694
O O13 0.750000 0.957059 0.204562
O O14 0.961888 0.940896 0.064122
O O15 0.000000 0.000000 0.200070
O O16 0.750000 0.644918 0.090401
O O17 0.750000 0.194024 0.191324
O O18 0.475638 0.175491 0.125316
O O19 0.750000 0.828746 0.981384
O O20 0.250000 0.042981 0.920919
O O21 0.500000 0.000000 0.919878
#
# Coordination Sequence:
#
# PCOD9379371 Si02
#       8
#     8   8   8   8   8   8   8   8
#     4  10  20  36  57  82 114 149 187 233 286 344
#     4  12  25  40  59  88 121 158 201 249 300 358
#     4   9  21  39  59  81 110 151 195 240 292 351
#     4  10  20  34  57  88 119 151 189 235 290 346
#     4  10  21  40  62  83 112 154 200 245 295 355
#     4  10  21  36  56  83 112 144 184 234 289 342
#     4  11  23  38  58  84 115 153 197 244 292 349
#     4  10  21  39  63  91 123 160 199 246 299 357
#
# _framework density 18.480339000000001
#
# number of rings (size 3 to 8) (size 9 to 14) (size 15 to 20)
#    0.000    1.750    0.000    4.125    1.750    6.500 
#    0.000    0.625    0.000    0.000    0.000    0.000 
#    0.000    0.000    0.000    0.000    0.000    0.000 
#
# Total GULP energy -178730.207449 kJ/mol
# GULP energy per Si atom -5585.318983 kJ/mol
# Density = 1.843828 g / cm^3
# Si number density = 18.480339 Si / 1000 Ang^3
#
#
#
# Elastic Constant Matrix: (Units=GPa)
#
#
# Indices 1 2 3 4 5 6 
#
# 1 97.0993 40.6572 44.4847 -0.0005 -0.0002 0.0000
# 2 40.6572 51.1119 27.8027 0.0014 0.0004 0.0000
# 3 44.4847 27.8027 93.0676 0.0025 0.0004 -0.0001
# 4 -0.0005 0.0014 0.0025 18.2748 0.0004 -0.0001
# 5 -0.0002 0.0004 0.0004 0.0004 29.4588 0.0001
# 6 0.0000 0.0000 -0.0001 -0.0001 0.0001 29.0153
#
#
#
# Elastic Compliance Matrix: (Units=1/GPa)
#
#
# Indices 1 2 3 4 5 6 
#
# 1 0.017141 -0.010959 -0.004919 0.000002 0.000000 0.000000
# 2 -0.010959 0.030368 -0.003834 -0.000002 0.000000 0.000000
# 3 -0.004919 -0.003834 0.014241 -0.000002 0.000000 0.000000
# 4 0.000002 -0.000002 -0.000002 0.054720 -0.000001 0.000000
# 5 0.000000 0.000000 0.000000 -0.000001 0.033946 0.000000
# 6 0.000000 0.000000 0.000000 0.000000 0.000000 0.034465
#
#
# Mechanical properties :
#
#
# Convention : Reuss Voigt Hill
#
# Bulk Modulus (GPa) = 44.79044 51.90755 48.34899
# Shear Modulus (GPa) = 21.57521 23.90539 22.74030
#
# Velocity S-wave (km/s) = 3.42053 3.60051 3.51167
# Velocity P-wave (km/s) = 6.31581 6.74046 6.53159
#
# Compressibility (1/GPa) = 0.02232619
#
# Stress axis : x y z
#
# Youngs Moduli (GPa) = 58.33866 32.92959 70.21738
#
# Poissons Ratio (x) = 0.36088 0.34542
# Poissons Ratio (y) = 0.63935 0.26919
# Poissons Ratio (z) = 0.28699 0.12624
#
# Static dielectric constant tensor:
#      x y z
#    x 1.632340 0.000000 0.000000 
#    y 0.000000 1.608630 0.000000 
#    z 0.000000 0.000000 1.615380 
# 
# From -- ./inp_files/9738.got.cif
#   From: 2010.05.17/outbox.cif.g08.bks.cpg/sg46_5_cif.got.tgz:9738.got - 2010.06.03 19:58:25.
