data_PCOD9379347
_publ_section_title
;
Structure prediction by ZEFSAII (Michael W. Deem and Ramdas Pophale) SiO2 
 PCOD9379347
Probable space group: I M A 2
;
_chemical_formula_sum "Si O2"
_cell_formula_units_Z 56
_cell_length_a 8.820790
_cell_length_b 24.417160
_cell_length_c 13.774467
_cell_angle_alpha 90.000000
_cell_angle_beta 90.000000
_cell_angle_gamma 90.000000
_cell_volume 2966.725980
_symmetry_space_group_name_H-M "I M A 2"
_symmetry_group_IT_number 46
_symmetry_cell_setting 'orthorhombic'
loop_
_space_group_symop_operation_xyz
x,y,z
-x,-y,z
1/2-x,y,z
1/2+x,-y,z
1/2+x,1/2+y,1/2+z
1/2-x,1/2-y,1/2+z
-x,1/2+y,1/2+z
x,1/2-y,1/2+z
loop_
_atom_site_type_symbol
_atom_site_label
_atom_site_fract_x
_atom_site_fract_y
_atom_site_fract_z
Si Si1 0.569416 0.829918 0.288780
Si Si2 0.930465 0.939957 0.604481
Si Si3 0.568706 0.337312 0.997302
Si Si4 0.568669 0.058664 0.971828
Si Si5 0.568699 0.942655 0.185264
Si Si6 0.430433 0.373554 0.301492
Si Si7 0.568643 0.227651 0.690708
O O1 0.750000 0.822714 0.289847
O O2 0.502303 0.820773 0.395318
O O3 0.536060 0.891730 0.254680
O O4 0.496566 0.786863 0.214775
O O5 0.750000 0.941581 0.589225
O O6 0.958593 0.916063 0.712774
O O7 0.003974 0.895865 0.531956
O O8 0.000000 0.000000 0.594294
O O9 0.750000 0.340375 0.989540
O O10 0.530521 0.294585 0.083287
O O11 0.750000 0.055746 0.973539
O O12 0.511221 0.104062 0.897065
O O13 0.500000 0.000000 0.940068
O O14 0.504585 0.068169 0.079820
O O15 0.750000 0.948118 0.174027
O O16 0.500000 0.000000 0.221175
O O17 0.250000 0.369717 0.316158
O O18 0.496500 0.315960 0.265237
O O19 0.750000 0.227264 0.700788
#
# Coordination Sequence:
#
# PCOD9379347 Si02
#       7
#     8   8   8   8   8   8   8
#     4  11  24  41  63  88 115 150 189 232 285 342
#     4  10  20  34  55  83 116 154 195 238 287 341
#     4  10  22  40  61  85 116 150 189 239 286 336
#     4  11  21  34  55  83 117 155 195 240 289 342
#     4  10  22  40  60  84 114 149 191 238 287 339
#     4  10  20  35  56  83 117 155 194 239 289 340
#     4  10  22  40  61  86 115 149 191 236 284 338
#
# _framework density 18.876028000000002
#
# number of rings (size 3 to 8) (size 9 to 14) (size 15 to 20)
#    0.000    1.714    0.000    5.143    0.000    8.571 
#    0.000    4.286    0.000    0.000    0.000    0.000 
#    0.000    0.000    0.000    0.000    0.000    0.000 
#
# Total GULP energy -156517.377487 kJ/mol
# GULP energy per Si atom -5589.906339 kJ/mol
# Density = 1.883307 g / cm^3
# Si number density = 18.876028 Si / 1000 Ang^3
#
#
#
# Elastic Constant Matrix: (Units=GPa)
#
#
# Indices 1 2 3 4 5 6 
#
# 1 91.0402 59.9068 47.3238 0.0000 0.0000 0.0000
# 2 59.9068 116.5042 54.1588 0.0000 0.0000 0.0000
# 3 47.3238 54.1588 66.9538 -0.0001 0.0000 0.0000
# 4 0.0000 0.0000 -0.0001 18.2041 0.0000 0.0000
# 5 0.0000 0.0000 0.0000 0.0000 30.7947 0.0000
# 6 0.0000 0.0000 0.0000 0.0000 0.0000 36.1557
#
#
#
# Elastic Compliance Matrix: (Units=1/GPa)
#
#
# Indices 1 2 3 4 5 6 
#
# 1 0.019548 -0.005815 -0.009112 0.000000 0.000000 0.000000
# 2 -0.005815 0.015486 -0.008416 0.000000 0.000000 0.000000
# 3 -0.009112 -0.008416 0.028184 0.000000 0.000000 0.000000
# 4 0.000000 0.000000 0.000000 0.054933 0.000000 0.000000
# 5 0.000000 0.000000 0.000000 0.000000 0.032473 0.000000
# 6 0.000000 0.000000 0.000000 0.000000 0.000000 0.027658
#
#
# Mechanical properties :
#
#
# Convention : Reuss Voigt Hill
#
# Bulk Modulus (GPa) = 60.49664 66.36414 63.43039
# Shear Modulus (GPa) = 21.69383 24.57148 23.13265
#
# Velocity S-wave (km/s) = 3.39378 3.61186 3.50452
# Velocity P-wave (km/s) = 6.89028 7.25454 7.07475
#
# Compressibility (1/GPa) = 0.01652984
#
# Stress axis : x y z
#
# Youngs Moduli (GPa) = 51.15723 64.57392 35.48061
#
# Poissons Ratio (x) = 0.37552 0.32332
# Poissons Ratio (y) = 0.29750 0.29862
# Poissons Ratio (z) = 0.46617 0.54348
#
# Static dielectric constant tensor:
#      x y z
#    x 1.624710 0.000000 0.000000 
#    y 0.000000 1.639540 0.000000 
#    z 0.000000 0.000000 1.636070 
# 
# From -- ./inp_files/14208.got.cif
#   From: 2010.05.17/outbox.cif.g08.bks.cpg/sg46_8_cif.got.tgz:14208.got - 2010.06.03 19:58:25.
