data_PCOD9379899
_publ_section_title
;
Structure prediction by ZEFSAII (Michael W. Deem and Ramdas Pophale) SiO2 
 PCOD9379899
Probable space group: I M A 2
;
_chemical_formula_sum "Si O2"
_cell_formula_units_Z 52
_cell_length_a 21.663123
_cell_length_b 9.125866
_cell_length_c 11.643865
_cell_angle_alpha 90.000000
_cell_angle_beta 90.000000
_cell_angle_gamma 90.000000
_cell_volume 2301.931069
_symmetry_space_group_name_H-M "I M A 2"
_symmetry_group_IT_number 46
_symmetry_cell_setting 'orthorhombic'
loop_
_space_group_symop_operation_xyz
x,y,z
-x,-y,z
1/2-x,y,z
1/2+x,-y,z
1/2+x,1/2+y,1/2+z
1/2-x,1/2-y,1/2+z
-x,1/2+y,1/2+z
x,1/2-y,1/2+z
loop_
_atom_site_type_symbol
_atom_site_label
_atom_site_fract_x
_atom_site_fract_y
_atom_site_fract_z
Si Si1 0.553321 0.592376 0.293400
Si Si2 0.250000 0.814543 0.752446
Si Si3 0.750000 0.946818 0.543612
Si Si4 0.868385 0.157361 0.915568
Si Si5 0.466881 0.634635 0.848016
Si Si6 0.250000 0.026594 0.271105
Si Si7 0.569701 0.480934 0.595346
Si Si8 0.848971 0.761148 0.150645
O O1 0.500000 0.500000 0.228145
O O2 0.584955 0.471915 0.375143
O O3 0.516640 0.734570 0.339108
O O4 0.611673 0.652178 0.226962
O O5 0.191397 0.846153 0.836666
O O6 0.250000 0.640459 0.724681
O O7 0.250000 0.920759 0.639179
O O8 0.750000 0.990577 0.409951
O O9 0.692674 0.838514 0.569141
O O10 0.904430 0.308629 0.903216
O O11 0.874349 0.122624 0.049691
O O12 0.500000 0.500000 0.908800
O O13 0.445717 0.579481 0.722429
O O14 0.192653 0.125652 0.225435
O O15 0.500000 0.500000 0.546183
O O16 0.599994 0.639906 0.590473
#
# Coordination Sequence:
#
# PCOD9379899 Si02
#       8
#     8   4   4   8   8   4   8   8
#     4  10  20  40  68  98 137 172 215 285 340 403
#     4  12  26  46  68 100 142 182 230 302 330 408
#     4  11  27  49  76  98 136 193 235 281 356 414
#     4  11  25  42  68 100 137 184 231 281 347 409
#     4  10  20  40  68  96 141 174 220 287 342 406
#     4  11  29  47  72 102 140 181 237 291 344 412
#     4  11  22  41  70 100 136 183 229 278 354 412
#     4  11  23  46  72 103 140 179 232 291 334 417
#
# _framework density 22.589728999999998
#
# number of rings (size 3 to 8) (size 9 to 14) (size 15 to 20)
#    0.000    1.231    4.615    2.308    2.154    3.692 
#    0.000    2.308    0.000    0.000    0.000    0.000 
#    0.000    0.000    0.000    0.000    0.000    0.000 
#
# Total GULP energy -144941.299114 kJ/mol
# GULP energy per Si atom -5574.665351 kJ/mol
# Density = 2.253831 g / cm^3
# Si number density = 22.589729 Si / 1000 Ang^3
#
#
#
# Elastic Constant Matrix: (Units=GPa)
#
#
# Indices 1 2 3 4 5 6 
#
# 1 116.7962 48.4470 19.5926 0.0000 0.0000 0.0000
# 2 48.4470 133.4666 27.0770 0.0000 0.0000 0.0000
# 3 19.5926 27.0770 52.3774 0.0000 0.0000 0.0000
# 4 0.0000 0.0000 0.0000 -71.0639 0.0000 0.0000
# 5 0.0000 0.0000 0.0000 0.0000 -24.4083 0.0000
# 6 0.0000 0.0000 0.0000 0.0000 0.0000 75.1377
#
#
#
# Elastic Compliance Matrix: (Units=1/GPa)
#
#
# Indices 1 2 3 4 5 6 
#
# 1 0.010290 -0.003301 -0.002143 0.000000 0.000000 0.000000
# 2 -0.003301 0.009429 -0.003640 0.000000 0.000000 0.000000
# 3 -0.002143 -0.003640 0.021775 0.000000 0.000000 0.000000
# 4 0.000000 0.000000 0.000000 -0.014072 0.000000 0.000000
# 5 0.000000 0.000000 0.000000 0.000000 -0.040970 0.000000
# 6 0.000000 0.000000 0.000000 0.000000 0.000000 0.013309
#
#
# Mechanical properties :
#
#
# Convention : Reuss Voigt Hill
#
# Bulk Modulus (GPa) = 42.86667 54.76372 48.81519
# Shear Modulus (GPa) = 194.51264 9.76800 102.14032
#
# Velocity S-wave (km/s) = 9.28943 2.08170 6.73153
# Velocity P-wave (km/s) = 11.57910 5.48392 9.05949
#
# Compressibility (1/GPa) = 0.02332815
#
# Stress axis : x y z
#
# Youngs Moduli (GPa) = 97.17702 106.05578 45.92318
#
# Poissons Ratio (x) = 0.35004 0.09842
# Poissons Ratio (y) = 0.32074 0.16715
# Poissons Ratio (z) = 0.20826 0.38602
#
# Static dielectric constant tensor:
#      x y z
#    x 2.009330 0.000000 0.000000 
#    y 0.000000 1.904970 0.000000 
#    z 0.000000 0.000000 1.993350 
# 
# From -- ./inp_files/17079.got.cif
#   From: 2010.05.17/outbox.cif.g08.bks.cpg/sg46_9_cif.got.tgz:17079.got - 2010.06.03 19:58:25.
