data_PCOD9379438
_publ_section_title
;
Structure prediction by ZEFSAII (Michael W. Deem and Ramdas Pophale) SiO2 
 PCOD9379438
Probable space group: I M A 2
;
_chemical_formula_sum "Si O2"
_cell_formula_units_Z 40
_cell_length_a 8.877696
_cell_length_b 13.795819
_cell_length_c 18.871683
_cell_angle_alpha 90.000000
_cell_angle_beta 90.000000
_cell_angle_gamma 90.000000
_cell_volume 2311.311020
_symmetry_space_group_name_H-M "I M A 2"
_symmetry_group_IT_number 46
_symmetry_cell_setting 'orthorhombic'
loop_
_space_group_symop_operation_xyz
x,y,z
-x,-y,z
1/2-x,y,z
1/2+x,-y,z
1/2+x,1/2+y,1/2+z
1/2-x,1/2-y,1/2+z
-x,1/2+y,1/2+z
x,1/2-y,1/2+z
loop_
_atom_site_type_symbol
_atom_site_label
_atom_site_fract_x
_atom_site_fract_y
_atom_site_fract_z
Si Si1 0.069382 0.897447 0.584550
Si Si2 0.568985 0.795364 0.720438
Si Si3 0.929580 0.200029 0.007507
Si Si4 0.430682 0.604522 0.658166
Si Si5 0.429684 0.106702 0.869450
O O1 0.250000 0.903713 0.591221
O O2 0.034533 0.810326 0.530072
O O3 0.999885 0.864253 0.659630
O O4 0.000000 0.000000 0.563501
O O5 0.750000 0.792938 0.713333
O O6 0.501206 0.689159 0.706110
O O7 0.529418 0.836558 0.797531
O O8 0.750000 0.193314 0.995974
O O9 0.013687 0.163050 0.938606
O O10 0.965675 0.135186 0.076776
O O11 0.500000 0.500000 0.673410
O O12 0.250000 0.603991 0.665686
O O13 0.250000 0.097964 0.871785
O O14 0.500000 0.000000 0.868465
#
# Coordination Sequence:
#
# PCOD9379438 Si02
#       5
#     8   8   8   8   8
#     4  10  20  35  56  81 106 138 177 218 264 313
#     4  10  21  36  54  79 108 140 178 218 260 312
#     4   9  20  36  54  78 107 138 175 215 259 310
#     4  10  20  35  56  81 107 139 177 218 263 312
#     4  11  23  36  54  79 107 139 174 213 262 313
#
# _framework density 17.306196
#
# number of rings (size 3 to 8) (size 9 to 14) (size 15 to 20)
#    0.000    2.000    0.000    4.800    0.000   11.200 
#    0.000    1.000    0.000    2.400    0.000    0.000 
#    0.000    0.000    0.000    0.000    0.000    0.000 
#
# Total GULP energy -111702.056617 kJ/mol
# GULP energy per Si atom -5585.102831 kJ/mol
# Density = 1.726681 g / cm^3
# Si number density = 17.306196 Si / 1000 Ang^3
#
#
#
# Elastic Constant Matrix: (Units=GPa)
#
#
# Indices 1 2 3 4 5 6 
#
# 1 67.7769 64.3644 68.4222 0.0000 0.0000 0.0000
# 2 64.3644 154.8332 83.7818 0.0000 0.0000 0.0000
# 3 68.4222 83.7818 140.3041 0.0000 0.0000 0.0000
# 4 0.0000 0.0000 0.0000 10.8669 0.0000 0.0000
# 5 0.0000 0.0000 0.0000 0.0000 27.3736 0.0000
# 6 0.0000 0.0000 0.0000 0.0000 0.0000 36.2834
#
#
#
# Elastic Compliance Matrix: (Units=1/GPa)
#
#
# Indices 1 2 3 4 5 6 
#
# 1 0.034321 -0.007698 -0.012140 0.000000 0.000000 0.000000
# 2 -0.007698 0.011268 -0.002975 0.000000 0.000000 0.000000
# 3 -0.012140 -0.002975 0.014824 0.000000 0.000000 0.000000
# 4 0.000000 0.000000 0.000000 0.092023 0.000000 0.000000
# 5 0.000000 0.000000 0.000000 0.000000 0.036532 0.000000
# 6 0.000000 0.000000 0.000000 0.000000 0.000000 0.027561
#
#
# Mechanical properties :
#
#
# Convention : Reuss Voigt Hill
#
# Bulk Modulus (GPa) = 67.62672 88.45011 78.03841
# Shear Modulus (GPa) = 18.72078 24.66116 21.69097
#
# Velocity S-wave (km/s) = 3.29255 3.77900 3.54413
# Velocity P-wave (km/s) = 7.32229 8.38218 7.87010
#
# Compressibility (1/GPa) = 0.01478705
#
# Stress axis : x y z
#
# Youngs Moduli (GPa) = 29.13710 88.74518 67.45696
#
# Poissons Ratio (x) = 0.68314 0.81896
# Poissons Ratio (y) = 0.22429 0.20067
# Poissons Ratio (z) = 0.35374 0.26400
#
# Static dielectric constant tensor:
#      x y z
#    x 1.576520 0.000000 0.000000 
#    y 0.000000 1.572850 0.000000 
#    z 0.000000 0.000000 1.561720 
# 
# From -- ./inp_files/13644.got.cif
#   From: 2010.05.17/outbox.cif.g08.bks.cpg/sg46_7_cif.got.tgz:13644.got - 2010.06.03 19:58:25.
