data_PCOD9379357
_publ_section_title
;
Structure prediction by ZEFSAII (Michael W. Deem and Ramdas Pophale) SiO2 
 PCOD9379357
Probable space group: I M A 2
;
_chemical_formula_sum "Si O2"
_cell_formula_units_Z 64
_cell_length_a 18.447998
_cell_length_b 10.363951
_cell_length_c 17.578103
_cell_angle_alpha 90.000000
_cell_angle_beta 90.000000
_cell_angle_gamma 90.000000
_cell_volume 3360.830415
_symmetry_space_group_name_H-M "I M A 2"
_symmetry_group_IT_number 46
_symmetry_cell_setting 'orthorhombic'
loop_
_space_group_symop_operation_xyz
x,y,z
-x,-y,z
1/2-x,y,z
1/2+x,-y,z
1/2+x,1/2+y,1/2+z
1/2-x,1/2-y,1/2+z
-x,1/2+y,1/2+z
x,1/2-y,1/2+z
loop_
_atom_site_type_symbol
_atom_site_label
_atom_site_fract_x
_atom_site_fract_y
_atom_site_fract_z
Si Si1 0.833769 0.150215 0.478120
Si Si2 0.664536 0.914878 0.951956
Si Si3 0.565677 0.903859 0.813560
Si Si4 0.959951 0.636326 0.155426
Si Si5 0.450039 0.883777 0.207443
Si Si6 0.334338 0.608864 0.584810
Si Si7 0.475857 0.665406 0.879673
Si Si8 0.893152 0.865488 0.492552
O O1 0.750000 0.166470 0.450364
O O2 0.841349 0.247515 0.549313
O O3 0.900932 0.190128 0.423924
O O4 0.847858 0.998596 0.494525
O O5 0.750000 0.936261 0.944288
O O6 0.623806 0.951353 0.874081
O O7 0.648988 0.762892 0.965771
O O8 0.638064 0.005296 0.021736
O O9 0.593267 0.873412 0.728678
O O10 0.522810 0.786113 0.850974
O O11 0.500000 0.000000 0.800277
O O12 0.000000 0.500000 0.142576
O O13 0.015470 0.748488 0.180279
O O14 0.921752 0.666683 0.076553
O O15 0.374795 0.898882 0.164457
O O16 0.449999 0.894719 0.299011
O O17 0.500000 0.000000 0.178830
O O18 0.250000 0.581263 0.595371
O O19 0.537860 0.609497 0.936777
#
# Coordination Sequence:
#
# PCOD9379357 Si02
#       8
#     8   8   8   8   8   8   8   8
#     4  11  22  36  54  79 108 141 179 219 266 323
#     4  10  21  38  57  80 110 145 183 225 271 323
#     4   9  19  35  57  83 109 139 181 225 271 323
#     4  10  20  34  56  83 108 137 178 228 271 317
#     4  11  21  35  55  82 109 138 180 226 269 317
#     4  10  22  37  54  78 110 145 182 222 269 323
#     4  10  21  35  56  82 109 141 180 223 270 324
#     4  11  20  36  59  81 106 142 182 222 269 324
#
# _framework density 19.042912000000001
#
# number of rings (size 3 to 8) (size 9 to 14) (size 15 to 20)
#    0.000    1.750    0.000    5.250    0.000    3.000 
#    0.000    1.250    0.000   13.500    0.000    0.000 
#    0.000    0.000    0.000    0.000    0.000    0.000 
#
# Total GULP energy -178245.537592 kJ/mol
# GULP energy per Si atom -5570.173050 kJ/mol
# Density = 1.899957 g / cm^3
# Si number density = 19.042912 Si / 1000 Ang^3
#
#
#
# Elastic Constant Matrix: (Units=GPa)
#
#
# Indices 1 2 3 4 5 6 
#
# 1 87.1606 3.1352 54.1189 0.0000 0.0000 0.0000
# 2 3.1352 58.7715 2.9571 0.0000 0.0000 0.0000
# 3 54.1189 2.9571 97.6962 0.0000 0.0000 0.0000
# 4 0.0000 0.0000 0.0000 33.0341 0.0000 0.0000
# 5 0.0000 0.0000 0.0000 0.0000 24.9030 0.0000
# 6 0.0000 0.0000 0.0000 0.0000 0.0000 23.6585
#
#
#
# Elastic Compliance Matrix: (Units=1/GPa)
#
#
# Indices 1 2 3 4 5 6 
#
# 1 0.017500 -0.000446 -0.009681 0.000000 0.000000 0.000000
# 2 -0.000446 0.017052 -0.000269 0.000000 0.000000 0.000000
# 3 -0.009681 -0.000269 0.015607 0.000000 0.000000 0.000000
# 4 0.000000 0.000000 0.000000 0.030272 0.000000 0.000000
# 5 0.000000 0.000000 0.000000 0.000000 0.040156 0.000000
# 6 0.000000 0.000000 0.000000 0.000000 0.000000 0.042268
#
#
# Mechanical properties :
#
#
# Convention : Reuss Voigt Hill
#
# Bulk Modulus (GPa) = 34.05172 40.45007 37.25089
# Shear Modulus (GPa) = 25.84845 28.54693 27.19769
#
# Velocity S-wave (km/s) = 3.68826 3.87600 3.78330
# Velocity P-wave (km/s) = 6.00484 6.42797 6.22000
#
# Compressibility (1/GPa) = 0.02936709
#
# Stress axis : x y z
#
# Youngs Moduli (GPa) = 57.14314 58.64277 64.07583
#
# Poissons Ratio (x) = 0.02618 0.62029
# Poissons Ratio (y) = 0.02551 0.01723
# Poissons Ratio (z) = 0.55318 0.01576
#
# Static dielectric constant tensor:
#      x y z
#    x 1.598940 0.000000 0.000000 
#    y 0.000000 1.737840 0.000000 
#    z 0.000000 0.000000 1.696780 
# 
# From -- ./inp_files/20056.got.cif
#   From: 2010.05.17/outbox.cif.g08.bks.cpg/sg46_11_cif.got.tgz:20056.got - 2010.06.03 19:58:25.
