data_PCOD9379895
_publ_section_title
;
Structure prediction by ZEFSAII (Michael W. Deem and Ramdas Pophale) SiO2 
 PCOD9379895
Probable space group: I M A 2
;
_chemical_formula_sum "Si O2"
_cell_formula_units_Z 40
_cell_length_a 10.213268
_cell_length_b 8.599802
_cell_length_c 23.787309
_cell_angle_alpha 90.000000
_cell_angle_beta 90.000000
_cell_angle_gamma 90.000000
_cell_volume 2089.288888
_symmetry_space_group_name_H-M "I M A 2"
_symmetry_group_IT_number 46
_symmetry_cell_setting 'orthorhombic'
loop_
_space_group_symop_operation_xyz
x,y,z
-x,-y,z
1/2-x,y,z
1/2+x,-y,z
1/2+x,1/2+y,1/2+z
1/2-x,1/2-y,1/2+z
-x,1/2+y,1/2+z
x,1/2-y,1/2+z
loop_
_atom_site_type_symbol
_atom_site_label
_atom_site_fract_x
_atom_site_fract_y
_atom_site_fract_z
Si Si1 0.250000 0.306958 0.528491
Si Si2 0.006243 0.685103 0.964449
Si Si3 0.250000 0.822140 0.158193
Si Si4 0.250000 0.300640 0.661065
Si Si5 0.588465 0.155360 0.848859
Si Si6 0.004939 0.688212 0.732021
Si Si7 0.750000 0.181706 0.031129
O O1 0.375071 0.250228 0.493252
O O2 0.250000 0.252741 0.594735
O O3 0.250000 0.494584 0.528812
O O4 0.041077 0.743209 0.901938
O O5 0.000000 0.500000 0.964966
O O6 0.123473 0.751305 0.001534
O O7 0.377180 0.770835 0.190855
O O8 0.250000 0.766746 0.095185
O O9 0.250000 0.010674 0.157741
O O10 0.375051 0.257769 0.699168
O O11 0.750000 0.135256 0.849682
O O12 0.541016 0.238156 0.791658
O O13 0.500000 0.000000 0.852882
O O14 0.000000 0.500000 0.738296
#
# Coordination Sequence:
#
# PCOD9379895 Si02
#       7
#     4   8   4   4   8   8   4
#     4  11  23  42  71 100 133 174 222 271 324 393
#     4  12  26  44  66  97 134 173 220 275 336 396
#     4   9  18  36  65  94 129 174 216 265 318 391
#     4   9  20  36  65 102 129 166 222 261 320 399
#     4  12  27  46  67  95 131 175 226 278 337 399
#     4  10  20  40  67  96 130 170 218 271 325 389
#     4  11  21  42  69  98 131 176 222 269 324 393
#
# _framework density 19.145271000000001
#
# number of rings (size 3 to 8) (size 9 to 14) (size 15 to 20)
#    0.000    1.200    2.000    4.200    2.800    3.200 
#    0.000    6.000    0.000    0.000    0.000    0.000 
#    0.000    0.000    0.000    0.000    0.000    0.000 
#
# Total GULP energy -111645.808891 kJ/mol
# GULP energy per Si atom -5582.290445 kJ/mol
# Density = 1.910170 g / cm^3
# Si number density = 19.145271 Si / 1000 Ang^3
#
#
#
# Elastic Constant Matrix: (Units=GPa)
#
#
# Indices 1 2 3 4 5 6 
#
# 1 226.1443 61.3889 111.0316 0.0000 0.0000 0.0000
# 2 61.3889 99.8917 65.4116 0.0000 0.0000 0.0000
# 3 111.0316 65.4116 215.0109 0.0000 0.0000 0.0000
# 4 0.0000 0.0000 0.0000 32.3490 0.0000 0.0000
# 5 0.0000 0.0000 0.0000 0.0000 43.2176 0.0000
# 6 0.0000 0.0000 0.0000 0.0000 0.0000 19.5494
#
#
#
# Elastic Compliance Matrix: (Units=1/GPa)
#
#
# Indices 1 2 3 4 5 6 
#
# 1 0.006278 -0.002167 -0.002583 0.000000 0.000000 0.000000
# 2 -0.002167 0.013249 -0.002912 0.000000 0.000000 0.000000
# 3 -0.002583 -0.002912 0.006871 0.000000 0.000000 0.000000
# 4 0.000000 0.000000 0.000000 0.030913 0.000000 0.000000
# 5 0.000000 0.000000 0.000000 0.000000 0.023139 0.000000
# 6 0.000000 0.000000 0.000000 0.000000 0.000000 0.051152
#
#
# Mechanical properties :
#
#
# Convention : Reuss Voigt Hill
#
# Bulk Modulus (GPa) = 90.29411 112.96788 101.63100
# Shear Modulus (GPa) = 33.19679 39.23753 36.21716
#
# Velocity S-wave (km/s) = 4.16858 4.53201 4.35409
# Velocity P-wave (km/s) = 8.39252 9.30157 8.85871
#
# Compressibility (1/GPa) = 0.01107492
#
# Stress axis : x y z
#
# Youngs Moduli (GPa) = 159.27751 75.47587 145.54934
#
# Poissons Ratio (x) = 0.16356 0.37593
# Poissons Ratio (y) = 0.34516 0.42379
# Poissons Ratio (z) = 0.41139 0.21976
#
# Static dielectric constant tensor:
#      x y z
#    x 1.573860 0.000000 0.000000 
#    y 0.000000 1.663460 0.000000 
#    z 0.000000 0.000000 1.652520 
# 
# From -- ./inp_files/22789.got.cif
#   From: 2010.05.17/outbox.cif.g08.bks.cpg/sg46_12_cif.got.tgz:22789.got - 2010.06.03 19:58:25.
