data_PCOD9379601
_publ_section_title
;
Structure prediction by ZEFSAII (Michael W. Deem and Ramdas Pophale) SiO2 
 PCOD9379601
Probable space group: I M A 2
;
_chemical_formula_sum "Si O2"
_cell_formula_units_Z 64
_cell_length_a 14.916053
_cell_length_b 8.661180
_cell_length_c 19.781349
_cell_angle_alpha 90.000000
_cell_angle_beta 90.000000
_cell_angle_gamma 90.000000
_cell_volume 2555.564740
_symmetry_space_group_name_H-M "I M A 2"
_symmetry_group_IT_number 46
_symmetry_cell_setting 'orthorhombic'
loop_
_space_group_symop_operation_xyz
x,y,z
-x,-y,z
1/2-x,y,z
1/2+x,-y,z
1/2+x,1/2+y,1/2+z
1/2-x,1/2-y,1/2+z
-x,1/2+y,1/2+z
x,1/2-y,1/2+z
loop_
_atom_site_type_symbol
_atom_site_label
_atom_site_fract_x
_atom_site_fract_y
_atom_site_fract_z
Si Si1 0.098071 0.569931 0.897910
Si Si2 0.598321 0.629588 0.333650
Si Si3 0.351761 0.254499 0.967355
Si Si4 0.895281 0.306623 0.288102
Si Si5 0.353324 0.195409 0.215404
Si Si6 0.858934 0.377352 0.659610
Si Si7 0.859402 0.596557 0.100203
Si Si8 0.641000 0.221471 0.530037
O O1 0.148042 0.425468 0.932536
O O2 0.136029 0.660933 0.833399
O O3 0.000000 0.500000 0.882259
O O4 0.095484 0.698322 0.957689
O O5 0.601811 0.644274 0.413734
O O6 0.644375 0.472455 0.307987
O O7 0.497405 0.660154 0.309445
O O8 0.645105 0.770252 0.294329
O O9 0.250000 0.199807 0.974173
O O10 0.388525 0.282665 0.042098
O O11 0.886903 0.258840 0.210670
O O12 0.250000 0.184320 0.194921
O O13 0.390437 0.339714 0.172207
O O14 0.394521 0.035570 0.191746
O O15 0.750000 0.372127 0.661344
O O16 0.883152 0.358237 0.581105
O O17 0.750000 0.588988 0.099162
O O18 0.886494 0.429358 0.074075
O O19 0.750000 0.221551 0.519671
#
# Coordination Sequence:
#
# PCOD9379601 Si02
#       8
#     8   8   8   8   8   8   8   8
#     4  11  21  39  63  89 126 165 202 255 312 373
#     4  11  23  40  56  81 119 158 203 251 297 366
#     4  10  20  37  62  89 116 156 202 245 296 366
#     4  11  25  40  57  85 119 161 201 252 311 364
#     4  10  20  36  61  88 115 154 197 245 301 360
#     4  10  22  39  61  89 122 154 200 255 307 367
#     4   8  16  32  55  82 112 146 189 237 289 345
#     4   9  19  38  61  88 122 159 203 254 301 366
#
# _framework density 25.043388
#
# number of rings (size 3 to 8) (size 9 to 14) (size 15 to 20)
#    0.000    2.000    1.250    3.000    0.000    5.000 
#    6.750    1.250    0.000    0.000    0.000    0.000 
#    0.000    0.000    0.000    0.000    0.000    0.000 
#
# Total GULP energy -178791.108470 kJ/mol
# GULP energy per Si atom -5587.222140 kJ/mol
# Density = 2.498639 g / cm^3
# Si number density = 25.043388 Si / 1000 Ang^3
#
#
#
# Elastic Constant Matrix: (Units=GPa)
#
#
# Indices 1 2 3 4 5 6 
#
# 1 52.3663 -5.7341 -9.3398 0.0000 0.0000 0.0000
# 2 -5.7341 61.6181 1.3767 0.0000 0.0000 0.0000
# 3 -9.3398 1.3767 105.0927 0.0000 0.0000 0.0000
# 4 0.0000 0.0000 0.0000 40.2996 0.0000 0.0000
# 5 0.0000 0.0000 0.0000 0.0000 23.9731 0.0000
# 6 0.0000 0.0000 0.0000 0.0000 0.0000 11.4280
#
#
#
# Elastic Compliance Matrix: (Units=1/GPa)
#
#
# Indices 1 2 3 4 5 6 
#
# 1 0.019598 0.001785 0.001718 0.000000 0.000000 0.000000
# 2 0.001785 0.016396 -0.000056 0.000000 0.000000 0.000000
# 3 0.001718 -0.000056 0.009669 0.000000 0.000000 0.000000
# 4 0.000000 0.000000 0.000000 0.024814 0.000000 0.000000
# 5 0.000000 0.000000 0.000000 0.000000 0.041713 0.000000
# 6 0.000000 0.000000 0.000000 0.000000 0.000000 0.087504
#
#
# Mechanical properties :
#
#
# Convention : Reuss Voigt Hill
#
# Bulk Modulus (GPa) = 19.02635 21.29810 20.16222
# Shear Modulus (GPa) = 23.77332 30.65844 27.21588
#
# Velocity S-wave (km/s) = 3.08439 3.50267 3.30016
# Velocity P-wave (km/s) = 4.50538 4.98811 4.75288
#
# Compressibility (1/GPa) = 0.05255868
#
# Stress axis : x y z
#
# Youngs Moduli (GPa) = 51.02499 60.98905 103.42489
#
# Poissons Ratio (x) = -0.10889 -0.17772
# Poissons Ratio (y) = -0.09110 0.00580
# Poissons Ratio (z) = -0.08768 0.00342
#
# Static dielectric constant tensor:
#      x y z
#    x 2.012960 0.000000 0.000000 
#    y 0.000000 2.088280 0.000000 
#    z 0.000000 0.000000 1.927120 
# 
# From -- ./inp_files/22224.got.cif
#   From: 2010.05.17/outbox.cif.g08.bks.cpg/sg46_12_cif.got.tgz:22224.got - 2010.06.03 19:58:25.
