data_PCOD9379002
_publ_section_title
;
Structure prediction by ZEFSAII (Michael W. Deem and Ramdas Pophale) SiO2 
 PCOD9379002
Probable space group: I M A 2
;
_chemical_formula_sum "Si O2"
_cell_formula_units_Z 56
_cell_length_a 21.403165
_cell_length_b 11.574853
_cell_length_c 12.440150
_cell_angle_alpha 90.000000
_cell_angle_beta 90.000000
_cell_angle_gamma 90.000000
_cell_volume 3081.903959
_symmetry_space_group_name_H-M "I M A 2"
_symmetry_group_IT_number 46
_symmetry_cell_setting 'orthorhombic'
loop_
_space_group_symop_operation_xyz
x,y,z
-x,-y,z
1/2-x,y,z
1/2+x,-y,z
1/2+x,1/2+y,1/2+z
1/2-x,1/2-y,1/2+z
-x,1/2+y,1/2+z
x,1/2-y,1/2+z
loop_
_atom_site_type_symbol
_atom_site_label
_atom_site_fract_x
_atom_site_fract_y
_atom_site_fract_z
Si Si1 0.996757 0.333506 0.008700
Si Si2 0.821640 0.537103 0.775188
Si Si3 0.177898 0.045549 0.017833
Si Si4 0.055278 0.914339 0.055552
Si Si5 0.000881 0.868302 0.758159
Si Si6 0.425713 0.641479 0.801032
Si Si7 0.888106 0.751656 0.887746
O O1 0.996157 0.377866 0.129377
O O2 0.961454 0.211673 0.016657
O O3 0.067330 0.305506 0.976745
O O4 0.962381 0.395557 0.909050
O O5 0.750000 0.525271 0.806398
O O6 0.824065 0.564296 0.647094
O O7 0.857731 0.418184 0.805200
O O8 0.851798 0.647575 0.832100
O O9 0.250000 0.013762 0.991506
O O10 0.121920 0.952666 0.008409
O O11 0.155716 0.153939 0.945705
O O12 0.053095 0.909543 0.185787
O O13 0.000000 0.000000 0.024269
O O14 0.937529 0.808831 0.803645
O O15 0.057099 0.778374 0.788444
O O16 0.000000 0.000000 0.798410
#
# Coordination Sequence:
#
# PCOD9379002 Si02
#       7
#     8   8   8   8   8   8   8
#     4  10  21  33  55  88 115 152 189 245 300 356
#     4  10  22  40  59  84 118 157 209 252 289 360
#     4  10  21  36  58  84 114 157 200 246 303 354
#     4  10  19  35  56  83 116 151 201 250 287 348
#     4  10  23  35  54  91 123 146 186 244 310 363
#     4   9  22  35  59  83 115 153 197 242 300 352
#     4  11  21  33  60  86 118 152 195 248 301 357
#
# _framework density 18.170586
#
# number of rings (size 3 to 8) (size 9 to 14) (size 15 to 20)
#    0.000    2.000    1.429    1.286   16.000    0.000 
#    0.000    0.714    0.000    0.857    0.000    0.000 
#    0.000    0.000    0.000    0.000    0.000    0.000 
#
# Total GULP energy -155875.009662 kJ/mol
# GULP energy per Si atom -5566.964631 kJ/mol
# Density = 1.812923 g / cm^3
# Si number density = 18.170586 Si / 1000 Ang^3
#
#
#
# Elastic Constant Matrix: (Units=GPa)
#
#
# Indices 1 2 3 4 5 6 
#
# 1 136.4629 86.6367 29.8976 0.0000 0.0000 0.0000
# 2 86.6367 127.9326 25.7031 0.0000 0.0000 0.0000
# 3 29.8976 25.7031 95.8867 0.0000 0.0000 0.0000
# 4 0.0000 0.0000 0.0000 17.8183 0.0000 0.0000
# 5 0.0000 0.0000 0.0000 0.0000 35.9519 0.0000
# 6 0.0000 0.0000 0.0000 0.0000 0.0000 31.8788
#
#
#
# Elastic Compliance Matrix: (Units=1/GPa)
#
#
# Indices 1 2 3 4 5 6 
#
# 1 0.013145 -0.008539 -0.001810 0.000000 0.000000 0.000000
# 2 -0.008539 0.013808 -0.001039 0.000000 0.000000 0.000000
# 3 -0.001810 -0.001039 0.011272 0.000000 0.000000 0.000000
# 4 0.000000 0.000000 0.000000 0.056122 0.000000 0.000000
# 5 0.000000 0.000000 0.000000 0.000000 0.027815 0.000000
# 6 0.000000 0.000000 0.000000 0.000000 0.000000 0.031369
#
#
# Mechanical properties :
#
#
# Convention : Reuss Voigt Hill
#
# Bulk Modulus (GPa) = 64.72436 71.63966 68.18201
# Shear Modulus (GPa) = 27.55496 31.66613 29.61054
#
# Velocity S-wave (km/s) = 3.89840 4.17911 4.04119
# Velocity P-wave (km/s) = 7.48071 7.92454 7.70582
#
# Compressibility (1/GPa) = 0.01545013
#
# Stress axis : x y z
#
# Youngs Moduli (GPa) = 76.07220 72.42355 88.71687
#
# Poissons Ratio (x) = 0.61839 0.16057
# Poissons Ratio (y) = 0.64954 0.09217
# Poissons Ratio (z) = 0.13769 0.07524
#
# Static dielectric constant tensor:
#      x y z
#    x 1.607220 0.000000 0.000000 
#    y 0.000000 1.640750 0.000000 
#    z 0.000000 0.000000 1.658610 
# 
# From -- ./inp_files/12407.got.cif
#   From: 2010.05.17/outbox.cif.g08.bks.cpg/sg46_7_cif.got.tgz:12407.got - 2010.06.03 19:58:25.
