data_PCOD9379948
_publ_section_title
;
Structure prediction by ZEFSAII (Michael W. Deem and Ramdas Pophale) SiO2 
 PCOD9379948
Probable space group: I M A 2
;
_chemical_formula_sum "Si O2"
_cell_formula_units_Z 64
_cell_length_a 17.439115
_cell_length_b 7.477728
_cell_length_c 25.276458
_cell_angle_alpha 90.000000
_cell_angle_beta 90.000000
_cell_angle_gamma 90.000000
_cell_volume 3296.175457
_symmetry_space_group_name_H-M "I M A 2"
_symmetry_group_IT_number 46
_symmetry_cell_setting 'orthorhombic'
loop_
_space_group_symop_operation_xyz
x,y,z
-x,-y,z
1/2-x,y,z
1/2+x,-y,z
1/2+x,1/2+y,1/2+z
1/2-x,1/2-y,1/2+z
-x,1/2+y,1/2+z
x,1/2-y,1/2+z
loop_
_atom_site_type_symbol
_atom_site_label
_atom_site_fract_x
_atom_site_fract_y
_atom_site_fract_z
Si Si1 0.843507 0.707046 0.625000
Si Si2 0.341198 0.603013 0.816785
Si Si3 0.910215 0.461139 0.443947
Si Si4 0.658126 0.101575 0.052200
Si Si5 0.657164 0.510868 0.035237
Si Si6 0.089584 0.537122 0.925149
Si Si7 0.908043 0.498019 0.327891
Si Si8 0.342548 0.279477 0.745087
O O1 0.750000 0.707054 0.626200
O O2 0.868661 0.515505 0.601760
O O3 0.869152 0.741851 0.684691
O O4 0.865972 0.855753 0.581974
O O5 0.250000 0.628677 0.817879
O O6 0.366946 0.502472 0.870501
O O7 0.380178 0.796893 0.815661
O O8 0.361873 0.475340 0.767991
O O9 0.866508 0.497517 0.498192
O O10 0.900101 0.249063 0.434660
O O11 0.883928 0.546780 0.388427
O O12 0.000000 0.500000 0.451388
O O13 0.750000 0.105696 0.053402
O O14 0.632768 0.307895 0.050223
O O15 0.750000 0.514222 0.030315
O O16 0.621414 0.555278 0.978020
O O17 0.000000 0.500000 0.918548
O O18 0.876355 0.633151 0.284638
O O19 0.000000 0.500000 0.328139
O O20 0.250000 0.263552 0.746289
#
# Coordination Sequence:
#
# PCOD9379948 Si02
#       8
#     8   8   8   8   8   8   8   8
#     4   9  19  35  56  82 108 145 191 238 282 331
#     4  10  22  38  60  87 118 153 196 243 292 350
#     4   9  20  34  52  80 109 143 181 223 285 347
#     4   9  18  33  55  80 108 142 180 228 281 335
#     4   9  18  34  55  80 111 143 184 233 283 341
#     4  10  21  33  55  84 114 150 182 231 291 355
#     4  10  22  38  60  85 117 154 189 241 297 352
#     4  10  22  38  59  85 114 153 203 246 286 343
#
# _framework density 19.416443999999998
#
# number of rings (size 3 to 8) (size 9 to 14) (size 15 to 20)
#    0.000    2.500    0.000    0.750    7.000    4.500 
#    0.000    6.875    2.750    0.000    0.000    0.000 
#    0.000    0.000    0.000    0.000    0.000    0.000 
#
# Total GULP energy -178553.388296 kJ/mol
# GULP energy per Si atom -5579.793384 kJ/mol
# Density = 1.937225 g / cm^3
# Si number density = 19.416444 Si / 1000 Ang^3
#
#
#
# Elastic Constant Matrix: (Units=GPa)
#
#
# Indices 1 2 3 4 5 6 
#
# 1 21.5936 21.3624 23.8978 0.0000 0.0000 0.0000
# 2 21.3624 66.1175 32.0232 0.0000 0.0000 0.0000
# 3 23.8978 32.0232 104.5337 0.0000 0.0000 0.0000
# 4 0.0000 0.0000 0.0000 31.9440 0.0000 0.0000
# 5 0.0000 0.0000 0.0000 0.0000 -11.1216 0.0000
# 6 0.0000 0.0000 0.0000 0.0000 0.0000 24.0195
#
#
#
# Elastic Compliance Matrix: (Units=1/GPa)
#
#
# Indices 1 2 3 4 5 6 
#
# 1 0.079185 -0.019746 -0.012054 0.000000 0.000000 0.000000
# 2 -0.019746 0.022684 -0.002435 0.000000 0.000000 0.000000
# 3 -0.012054 -0.002435 0.013068 0.000000 0.000000 0.000000
# 4 0.000000 0.000000 0.000000 0.031305 0.000000 0.000000
# 5 0.000000 0.000000 0.000000 0.000000 -0.089915 0.000000
# 6 0.000000 0.000000 0.000000 0.000000 0.000000 0.041633
#
#
# Mechanical properties :
#
#
# Convention : Reuss Voigt Hill
#
# Bulk Modulus (GPa) = 21.52063 38.53459 30.02761
# Shear Modulus (GPa) = 27.48498 16.63245 22.05872
#
# Velocity S-wave (km/s) = 3.76646 2.92998 3.37424
# Velocity P-wave (km/s) = 5.47930 5.59784 5.53889
#
# Compressibility (1/GPa) = 0.04646705
#
# Stress axis : x y z
#
# Youngs Moduli (GPa) = 12.62869 44.08428 76.52424
#
# Poissons Ratio (x) = 0.87051 0.92239
# Poissons Ratio (y) = 0.24937 0.18632
# Poissons Ratio (z) = 0.15222 0.10733
#
# Static dielectric constant tensor:
#      x y z
#    x 1.637210 0.000000 0.000000 
#    y 0.000000 1.701500 0.000000 
#    z 0.000000 0.000000 1.681850 
# 
# From -- ./inp_files/22209.got.cif
#   From: 2010.05.17/outbox.cif.g08.bks.cpg/sg46_12_cif.got.tgz:22209.got - 2010.06.03 19:58:25.
