data_PCOD9379423
_publ_section_title
;
Structure prediction by ZEFSAII (Michael W. Deem and Ramdas Pophale) SiO2 
 PCOD9379423
Probable space group: I M A 2
;
_chemical_formula_sum "Si O2"
_cell_formula_units_Z 64
_cell_length_a 8.786343
_cell_length_b 14.454527
_cell_length_c 28.939775
_cell_angle_alpha 90.000000
_cell_angle_beta 90.000000
_cell_angle_gamma 90.000000
_cell_volume 3675.421810
_symmetry_space_group_name_H-M "I M A 2"
_symmetry_group_IT_number 46
_symmetry_cell_setting 'orthorhombic'
loop_
_space_group_symop_operation_xyz
x,y,z
-x,-y,z
1/2-x,y,z
1/2+x,-y,z
1/2+x,1/2+y,1/2+z
1/2-x,1/2-y,1/2+z
-x,1/2+y,1/2+z
x,1/2-y,1/2+z
loop_
_atom_site_type_symbol
_atom_site_label
_atom_site_fract_x
_atom_site_fract_y
_atom_site_fract_z
Si Si1 0.432065 0.897592 0.601130
Si Si2 0.932834 0.743207 0.421656
Si Si3 0.932711 0.244079 0.275795
Si Si4 0.065831 0.242271 0.528458
Si Si5 0.433179 0.255641 0.173774
Si Si6 0.068398 0.601739 0.351034
Si Si7 0.432074 0.101573 0.100389
Si Si8 0.432479 0.101971 0.347163
O O1 0.250000 0.900082 0.602575
O O2 0.489089 0.841338 0.556170
O O3 0.496476 0.840149 0.644755
O O4 0.500000 0.000000 0.600951
O O5 0.750000 0.731961 0.420040
O O6 0.977937 0.752869 0.474945
O O7 0.971047 0.834284 0.391611
O O8 0.007237 0.656546 0.395707
O O9 0.750000 0.237591 0.273163
O O10 0.972461 0.333599 0.307151
O O11 0.003563 0.251950 0.225275
O O12 0.998530 0.156140 0.303354
O O13 0.250000 0.231745 0.531582
O O14 0.024543 0.335998 0.556074
O O15 0.250000 0.263544 0.173651
O O16 0.474995 0.162873 0.145105
O O17 0.250000 0.595991 0.353301
O O18 0.000000 0.500000 0.347440
O O19 0.250000 0.093819 0.100238
O O20 0.500000 0.000000 0.100207
O O21 0.250000 0.097966 0.343104
O O22 0.500000 0.000000 0.351235
#
# Coordination Sequence:
#
# PCOD9379423 Si02
#       8
#     8   8   8   8   8   8   8   8
#     4  11  22  37  57  81 109 143 181 223 269 321
#     4   9  19  36  57  79 108 143 179 222 272 320
#     4  10  21  37  56  80 108 140 179 224 270 322
#     4   9  19  37  56  79 110 142 178 223 271 320
#     4  10  21  38  57  79 108 142 179 223 271 321
#     4  10  21  36  55  79 109 142 179 221 267 319
#     4   9  19  34  53  76 105 138 173 214 261 311
#     4  10  20  35  55  79 107 142 180 222 271 322
#
# _framework density 17.412967999999999
#
# number of rings (size 3 to 8) (size 9 to 14) (size 15 to 20)
#    0.000    2.250    0.000    3.375    0.000    7.000 
#    0.000    5.000    0.000    0.000    0.000    0.000 
#    0.000    0.000    0.000    0.000    0.000    0.000 
#
# Total GULP energy -178638.114569 kJ/mol
# GULP energy per Si atom -5582.441080 kJ/mol
# Density = 1.737333 g / cm^3
# Si number density = 17.412968 Si / 1000 Ang^3
#
#
#
# Elastic Constant Matrix: (Units=GPa)
#
#
# Indices 1 2 3 4 5 6 
#
# 1 63.6283 61.7430 59.7228 0.0000 0.0000 0.0000
# 2 61.7430 181.4523 89.6027 0.0000 0.0000 0.0000
# 3 59.7228 89.6027 179.4981 0.0000 0.0000 0.0000
# 4 0.0000 0.0000 0.0000 5.6789 0.0000 0.0000
# 5 0.0000 0.0000 0.0000 0.0000 20.0310 0.0000
# 6 0.0000 0.0000 0.0000 0.0000 0.0000 25.5640
#
#
#
# Elastic Compliance Matrix: (Units=1/GPa)
#
#
# Indices 1 2 3 4 5 6 
#
# 1 0.027548 -0.006434 -0.005954 0.000000 0.000000 0.000000
# 2 -0.006434 0.008816 -0.002260 0.000000 0.000000 0.000000
# 3 -0.005954 -0.002260 0.008681 0.000000 0.000000 0.000000
# 4 0.000000 0.000000 0.000000 0.176091 0.000000 0.000000
# 5 0.000000 0.000000 0.000000 0.000000 0.049923 0.000000
# 6 0.000000 0.000000 0.000000 0.000000 0.000000 0.039118
#
#
# Mechanical properties :
#
#
# Convention : Reuss Voigt Hill
#
# Bulk Modulus (GPa) = 63.49812 94.07953 78.78882
# Shear Modulus (GPa) = 14.50441 24.48878 19.49659
#
# Velocity S-wave (km/s) = 2.88925 3.75421 3.34976
# Velocity P-wave (km/s) = 6.90474 8.54036 7.76573
#
# Compressibility (1/GPa) = 0.01574850
#
# Stress axis : x y z
#
# Youngs Moduli (GPa) = 36.30034 113.42397 115.19943
#
# Poissons Ratio (x) = 0.72971 0.68593
# Poissons Ratio (y) = 0.23354 0.26041
# Poissons Ratio (z) = 0.21614 0.25639
#
# Static dielectric constant tensor:
#      x y z
#    x 1.585260 0.000000 0.000000 
#    y 0.000000 1.563700 0.000000 
#    z 0.000000 0.000000 1.574840 
# 
# From -- ./inp_files/25218.got.cif
#   From: 2010.05.17/outbox.cif.g08.bks.cpg/sg46_13_cif.got.tgz:25218.got - 2010.06.03 19:58:25.
