data_PCOD9379992
_publ_section_title
;
Structure prediction by ZEFSAII (Michael W. Deem and Ramdas Pophale) SiO2 
 PCOD9379992
Probable space group: I M A 2
;
_chemical_formula_sum "Si O2"
_cell_formula_units_Z 56
_cell_length_a 9.180809
_cell_length_b 20.416955
_cell_length_c 14.530311
_cell_angle_alpha 90.000000
_cell_angle_beta 90.000000
_cell_angle_gamma 90.000000
_cell_volume 2723.622001
_symmetry_space_group_name_H-M "I M A 2"
_symmetry_group_IT_number 46
_symmetry_cell_setting 'orthorhombic'
loop_
_space_group_symop_operation_xyz
x,y,z
-x,-y,z
1/2-x,y,z
1/2+x,-y,z
1/2+x,1/2+y,1/2+z
1/2-x,1/2-y,1/2+z
-x,1/2+y,1/2+z
x,1/2-y,1/2+z
loop_
_atom_site_type_symbol
_atom_site_label
_atom_site_fract_x
_atom_site_fract_y
_atom_site_fract_z
Si Si1 0.574880 0.818624 0.304530
Si Si2 0.588564 0.441382 0.862769
Si Si3 0.924340 0.428577 0.446623
Si Si4 0.575385 0.177191 0.105794
Si Si5 0.910020 0.441493 0.075781
Si Si6 0.082634 0.324943 0.323244
Si Si7 0.417552 0.189743 0.601019
O O1 0.750000 0.819506 0.295779
O O2 0.511380 0.877887 0.361938
O O3 0.500817 0.829879 0.205036
O O4 0.533199 0.748716 0.348771
O O5 0.500000 0.500000 0.815417
O O6 0.750000 0.430274 0.822581
O O7 0.610190 0.459949 0.969050
O O8 0.750000 0.436447 0.438419
O O9 0.953803 0.383663 0.537587
O O10 0.000000 0.500000 0.449790
O O11 0.986045 0.383101 0.363733
O O12 0.750000 0.184271 0.114759
O O13 0.503993 0.245311 0.071809
O O14 0.750000 0.432620 0.117704
O O15 0.000000 0.500000 0.122095
O O16 0.999981 0.375369 0.073177
O O17 0.250000 0.335293 0.353599
O O18 0.083604 0.317651 0.212503
O O19 0.250000 0.192630 0.569341
#
# Coordination Sequence:
#
# PCOD9379992 Si02
#       7
#     8   8   8   8   8   8   8
#     4  10  21  38  61  89 118 155 197 240 295 354
#     4  10  21  36  55  82 117 154 193 238 287 344
#     4  11  25  42  63  89 119 157 201 247 302 358
#     4  10  22  40  60  87 118 152 197 246 295 351
#     4  10  21  36  55  83 117 154 194 237 288 346
#     4   9  21  40  60  86 117 151 195 241 291 350
#     4  10  21  38  61  88 117 155 198 243 296 353
#
# _framework density 20.560856999999999
#
# number of rings (size 3 to 8) (size 9 to 14) (size 15 to 20)
#    0.000    2.000    0.000    3.429    2.000    8.571 
#    0.000    1.429    0.000    0.000    0.000    0.000 
#    0.000    0.000    0.000    0.000    0.000    0.000 
#
# Total GULP energy -156175.698466 kJ/mol
# GULP energy per Si atom -5577.703517 kJ/mol
# Density = 2.051406 g / cm^3
# Si number density = 20.560857 Si / 1000 Ang^3
#
#
#
# Elastic Constant Matrix: (Units=GPa)
#
#
# Indices 1 2 3 4 5 6 
#
# 1 151.2117 99.7884 26.3554 0.0000 0.0000 0.0000
# 2 99.7884 180.0777 20.7938 0.0000 0.0000 0.0000
# 3 26.3554 20.7938 36.1434 0.0001 0.0000 0.0000
# 4 0.0000 0.0000 0.0001 24.5565 0.0000 0.0000
# 5 0.0000 0.0000 0.0000 0.0000 23.8360 0.0000
# 6 0.0000 0.0000 0.0000 0.0000 0.0000 32.1002
#
#
#
# Elastic Compliance Matrix: (Units=1/GPa)
#
#
# Indices 1 2 3 4 5 6 
#
# 1 0.011186 -0.005631 -0.004917 0.000000 0.000000 0.000000
# 2 -0.005631 0.008783 -0.000947 0.000000 0.000000 0.000000
# 3 -0.004917 -0.000947 0.031798 0.000000 0.000000 0.000000
# 4 0.000000 0.000000 0.000000 0.040722 0.000000 0.000000
# 5 0.000000 0.000000 0.000000 0.000000 0.041953 0.000000
# 6 0.000000 0.000000 0.000000 0.000000 0.000000 0.031152
#
#
# Mechanical properties :
#
#
# Convention : Reuss Voigt Hill
#
# Bulk Modulus (GPa) = 34.75025 73.47866 54.11445
# Shear Modulus (GPa) = 25.22981 30.79821 28.01401
#
# Velocity S-wave (km/s) = 3.50677 3.87448 3.69520
# Velocity P-wave (km/s) = 5.77360 7.47196 6.67700
#
# Compressibility (1/GPa) = 0.02877678
#
# Stress axis : x y z
#
# Youngs Moduli (GPa) = 89.39454 113.85813 31.44852
#
# Poissons Ratio (x) = 0.64114 0.15464
# Poissons Ratio (y) = 0.50338 0.02978
# Poissons Ratio (z) = 0.43959 0.10780
#
# Static dielectric constant tensor:
#      x y z
#    x 1.766960 0.000000 0.000000 
#    y 0.000000 1.733820 0.000000 
#    z 0.000000 0.000000 1.807690 
# 
# From -- ./inp_files/14197.got.cif
#   From: 2010.05.17/outbox.cif.g08.bks.cpg/sg46_8_cif.got.tgz:14197.got - 2010.06.03 19:58:25.
