data_PCOD9379766
_publ_section_title
;
Structure prediction by ZEFSAII (Michael W. Deem and Ramdas Pophale) SiO2 
 PCOD9379766
Probable space group: I M A 2
;
_chemical_formula_sum "Si O2"
_cell_formula_units_Z 64
_cell_length_a 17.182957
_cell_length_b 16.215698
_cell_length_c 11.838288
_cell_angle_alpha 90.000000
_cell_angle_beta 90.000000
_cell_angle_gamma 90.000000
_cell_volume 3298.545294
_symmetry_space_group_name_H-M "I M A 2"
_symmetry_group_IT_number 46
_symmetry_cell_setting 'orthorhombic'
loop_
_space_group_symop_operation_xyz
x,y,z
-x,-y,z
1/2-x,y,z
1/2+x,-y,z
1/2+x,1/2+y,1/2+z
1/2-x,1/2-y,1/2+z
-x,1/2+y,1/2+z
x,1/2-y,1/2+z
loop_
_atom_site_type_symbol
_atom_site_label
_atom_site_fract_x
_atom_site_fract_y
_atom_site_fract_z
Si Si1 0.006635 0.599166 0.375000
Si Si2 0.660588 0.556789 0.733742
Si Si3 0.886046 0.356632 0.957653
Si Si4 0.074369 0.173150 0.084725
Si Si5 0.536386 0.640051 0.118097
Si Si6 0.584072 0.387018 0.699580
Si Si7 0.337234 0.040788 0.491444
Si Si8 0.663727 0.327542 0.484047
O O1 0.092244 0.631066 0.414735
O O2 0.000000 0.500000 0.388303
O O3 0.944013 0.643444 0.457649
O O4 0.989709 0.624294 0.246309
O O5 0.750000 0.527265 0.727964
O O6 0.646146 0.630119 0.646689
O O7 0.601624 0.484014 0.701158
O O8 0.646234 0.576951 0.865690
O O9 0.909589 0.356729 0.826749
O O10 0.841050 0.441882 0.978509
O O11 0.842494 0.271076 0.976706
O O12 0.961204 0.359594 0.037614
O O13 0.075361 0.270794 0.099698
O O14 0.998643 0.139483 0.151549
O O15 0.597077 0.571536 0.076198
O O16 0.647285 0.349656 0.614361
O O17 0.250000 0.065152 0.525310
O O18 0.750000 0.355052 0.448836
#
# Coordination Sequence:
#
# PCOD9379766 Si02
#       8
#     8   8   8   8   8   8   8   8
#     4  11  24  43  61  91 131 171 214 256 307 383
#     4  10  21  38  64  93 121 158 204 267 322 363
#     4  11  21  40  63  95 122 163 205 256 313 380
#     4  11  22  37  65  88 122 163 212 259 305 371
#     4  12  24  41  65  91 127 171 217 253 310 383
#     4  10  20  38  61  90 122 154 208 251 313 368
#     4  10  23  41  64  92 125 160 207 265 321 370
#     4  11  23  38  63  94 129 162 202 261 318 370
#
# _framework density 19.402491999999999
#
# number of rings (size 3 to 8) (size 9 to 14) (size 15 to 20)
#    0.000    1.250    2.500    5.250    1.750    4.000 
#    0.000    3.125    0.000    0.000    0.000    0.000 
#    0.000    0.000    0.000    0.000    0.000    0.000 
#
# Total GULP energy -178756.584650 kJ/mol
# GULP energy per Si atom -5586.143270 kJ/mol
# Density = 1.935833 g / cm^3
# Si number density = 19.402492 Si / 1000 Ang^3
#
#
#
# Elastic Constant Matrix: (Units=GPa)
#
#
# Indices 1 2 3 4 5 6 
#
# 1 58.8767 16.9620 31.3722 0.0000 0.0000 0.0000
# 2 16.9620 75.0385 47.9843 0.0000 0.0000 0.0000
# 3 31.3722 47.9843 135.1326 0.0000 0.0000 0.0000
# 4 0.0000 0.0000 0.0000 -17.3686 0.0000 0.0000
# 5 0.0000 0.0000 0.0000 0.0000 14.8773 0.0000
# 6 0.0000 0.0000 0.0000 0.0000 0.0000 1.3407
#
#
#
# Elastic Compliance Matrix: (Units=1/GPa)
#
#
# Indices 1 2 3 4 5 6 
#
# 1 0.019604 -0.001968 -0.003853 0.000000 0.000000 0.000000
# 2 -0.001968 0.017439 -0.005736 0.000000 0.000000 0.000000
# 3 -0.003853 -0.005736 0.010331 0.000000 0.000000 0.000000
# 4 0.000000 0.000000 0.000000 -0.057575 0.000000 0.000000
# 5 0.000000 0.000000 0.000000 0.000000 0.067216 0.000000
# 6 0.000000 0.000000 0.000000 0.000000 0.000000 0.745860
#
#
# Mechanical properties :
#
#
# Convention : Reuss Voigt Hill
#
# Bulk Modulus (GPa) = 41.21574 51.29833 46.25703
# Shear Modulus (GPa) = 5.99466 11.28518 8.63992
#
# Velocity S-wave (km/s) = 1.75964 2.41433 2.11250
# Velocity P-wave (km/s) = 5.04153 5.85392 5.46285
#
# Compressibility (1/GPa) = 0.02426258
#
# Stress axis : x y z
#
# Youngs Moduli (GPa) = 51.00897 57.34278 96.79427
#
# Poissons Ratio (x) = 0.11284 0.37291
# Poissons Ratio (y) = 0.10038 0.55517
# Poissons Ratio (z) = 0.19652 0.32889
#
# Static dielectric constant tensor:
#      x y z
#    x 1.668670 0.000000 0.000000 
#    y 0.000000 1.785880 0.000000 
#    z 0.000000 0.000000 1.673960 
# 
# From -- ./inp_files/11947.got.cif
#   From: 2010.05.17/outbox.cif.g08.bks.cpg/sg46_6_cif.got.tgz:11947.got - 2010.06.03 19:58:25.
