data_PCOD9379051
_publ_section_title
;
Structure prediction by ZEFSAII (Michael W. Deem and Ramdas Pophale) SiO2 
 PCOD9379051
Probable space group: I M A 2
;
_chemical_formula_sum "Si O2"
_cell_formula_units_Z 40
_cell_length_a 13.199935
_cell_length_b 16.139234
_cell_length_c 8.135702
_cell_angle_alpha 90.000000
_cell_angle_beta 90.000000
_cell_angle_gamma 90.000000
_cell_volume 1733.204243
_symmetry_space_group_name_H-M "I M A 2"
_symmetry_group_IT_number 46
_symmetry_cell_setting 'orthorhombic'
loop_
_space_group_symop_operation_xyz
x,y,z
-x,-y,z
1/2-x,y,z
1/2+x,-y,z
1/2+x,1/2+y,1/2+z
1/2-x,1/2-y,1/2+z
-x,1/2+y,1/2+z
x,1/2-y,1/2+z
loop_
_atom_site_type_symbol
_atom_site_label
_atom_site_fract_x
_atom_site_fract_y
_atom_site_fract_z
Si Si1 0.631946 0.309211 0.131180
Si Si2 0.967266 0.161792 0.967414
Si Si3 0.962776 0.585599 0.009457
Si Si4 0.864984 0.593026 0.661810
Si Si5 0.859505 0.784931 0.747751
O O1 0.750000 0.310653 0.098561
O O2 0.607947 0.347660 0.311788
O O3 0.566588 0.361944 0.001172
O O4 0.589549 0.215415 0.106236
O O5 0.052936 0.217427 0.880086
O O6 0.038679 0.088362 0.037543
O O7 0.890049 0.642934 0.120884
O O8 0.000000 0.500000 0.089285
O O9 0.905792 0.565050 0.840130
O O10 0.750000 0.560715 0.625677
O O11 0.854339 0.692609 0.679969
O O12 0.750000 0.805603 0.819310
#
# Coordination Sequence:
#
# PCOD9379051 Si02
#       5
#     8   8   8   8   8
#     4  11  22  37  58  85 123 168 211 252 311 378
#     4  11  19  36  59  90 119 155 209 266 308 364
#     4  11  23  40  62  93 134 170 211 261 320 391
#     4  11  20  36  63  94 124 160 209 265 320 375
#     4  10  19  35  62  94 124 161 210 263 316 377
#
# _framework density 23.07864
#
# number of rings (size 3 to 8) (size 9 to 14) (size 15 to 20)
#    0.000    1.200    6.000    1.800    0.000    4.800 
#    0.000    5.000    0.000    4.800    0.000    0.000 
#    0.000    0.000    0.000    0.000    0.000    0.000 
#
# Total GULP energy -111433.703346 kJ/mol
# GULP energy per Si atom -5571.685167 kJ/mol
# Density = 2.302611 g / cm^3
# Si number density = 23.078640 Si / 1000 Ang^3
#
#
#
# Elastic Constant Matrix: (Units=GPa)
#
#
# Indices 1 2 3 4 5 6 
#
# 1 172.3962 17.8490 5.6395 0.0000 0.0000 0.0000
# 2 17.8490 62.7590 1.7863 0.0000 0.0000 0.0000
# 3 5.6395 1.7863 64.7702 0.0000 0.0000 0.0000
# 4 0.0000 0.0000 0.0000 10.6425 0.0000 0.0000
# 5 0.0000 0.0000 0.0000 0.0000 27.2602 0.0000
# 6 0.0000 0.0000 0.0000 0.0000 0.0000 8.1807
#
#
#
# Elastic Compliance Matrix: (Units=1/GPa)
#
#
# Indices 1 2 3 4 5 6 
#
# 1 0.005991 -0.001690 -0.000475 0.000000 0.000000 0.000000
# 2 -0.001690 0.016423 -0.000306 0.000000 0.000000 0.000000
# 3 -0.000475 -0.000306 0.015489 0.000000 0.000000 0.000000
# 4 0.000000 0.000000 0.000000 0.093963 0.000000 0.000000
# 5 0.000000 0.000000 0.000000 0.000000 0.036683 0.000000
# 6 0.000000 0.000000 0.000000 0.000000 0.000000 0.122239
#
#
# Mechanical properties :
#
#
# Convention : Reuss Voigt Hill
#
# Bulk Modulus (GPa) = 30.33871 38.94167 34.64019
# Shear Modulus (GPa) = 16.30162 27.52673 21.91418
#
# Velocity S-wave (km/s) = 2.66061 3.45735 3.08481
# Velocity P-wave (km/s) = 4.75529 5.73130 5.26596
#
# Compressibility (1/GPa) = 0.03296120
#
# Stress axis : x y z
#
# Youngs Moduli (GPa) = 166.91303 60.88867 64.56197
#
# Poissons Ratio (x) = 0.10293 0.03067
# Poissons Ratio (y) = 0.28215 0.01974
# Poissons Ratio (z) = 0.07929 0.01862
#
# Static dielectric constant tensor:
#      x y z
#    x 1.891740 0.000000 0.000000 
#    y 0.000000 1.923590 0.000000 
#    z 0.000000 0.000000 1.992110 
# 
# From -- ./inp_files/5564.got.cif
#   From: 2010.05.17/outbox.cif.g08.bks.cpg/sg46_3_cif.got.tgz:5564.got - 2010.06.03 19:58:25.
