data_PCOD9379585
_publ_section_title
;
Structure prediction by ZEFSAII (Michael W. Deem and Ramdas Pophale) SiO2 
 PCOD9379585
Probable space group: I M A 2
;
_chemical_formula_sum "Si O2"
_cell_formula_units_Z 64
_cell_length_a 8.800658
_cell_length_b 33.572040
_cell_length_c 11.956106
_cell_angle_alpha 90.000000
_cell_angle_beta 90.000000
_cell_angle_gamma 90.000000
_cell_volume 3532.503761
_symmetry_space_group_name_H-M "I M A 2"
_symmetry_group_IT_number 46
_symmetry_cell_setting 'orthorhombic'
loop_
_space_group_symop_operation_xyz
x,y,z
-x,-y,z
1/2-x,y,z
1/2+x,-y,z
1/2+x,1/2+y,1/2+z
1/2-x,1/2-y,1/2+z
-x,1/2+y,1/2+z
x,1/2-y,1/2+z
loop_
_atom_site_type_symbol
_atom_site_label
_atom_site_fract_x
_atom_site_fract_y
_atom_site_fract_z
Si Si1 0.566202 0.120741 0.162000
Si Si2 0.567362 0.955537 0.046445
Si Si3 0.931190 0.349982 0.909050
Si Si4 0.423198 0.182903 0.753389
Si Si5 0.067826 0.225675 0.535250
Si Si6 0.933583 0.543744 0.292124
Si Si7 0.424290 0.103485 0.604561
Si Si8 0.429917 0.688606 0.485810
O O1 0.750000 0.117124 0.159281
O O2 0.495879 0.078201 0.128932
O O3 0.522185 0.136968 0.284483
O O4 0.519836 0.153919 0.070557
O O5 0.750000 0.957697 0.053812
O O6 0.500000 0.000000 0.064421
O O7 0.525821 0.942718 0.918358
O O8 0.750000 0.345380 0.910955
O O9 0.003114 0.308611 0.953470
O O10 0.981579 0.384169 0.996269
O O11 0.250000 0.192332 0.789955
O O12 0.477270 0.215359 0.663284
O O13 0.417717 0.142722 0.681663
O O14 0.528225 0.177528 0.859442
O O15 0.250000 0.223314 0.530480
O O16 0.009910 0.269285 0.507139
O O17 0.750000 0.543525 0.287810
O O18 0.987239 0.570157 0.188114
O O19 0.000000 0.500000 0.280524
O O20 0.250000 0.093763 0.571983
O O21 0.250000 0.693603 0.499340
#
# Coordination Sequence:
#
# PCOD9379585 Si02
#       8
#     8   8   8   8   8   8   8   8
#     4  10  23  40  56  82 116 150 191 237 282 338
#     4  10  20  36  60  87 116 151 187 231 285 339
#     4  10  21  38  58  80 109 147 189 233 283 334
#     4   9  19  36  55  77 104 137 179 226 273 327
#     4  10  22  39  57  79 108 144 186 230 279 336
#     4   9  18  32  53  83 115 143 177 224 277 332
#     4   9  18  35  56  78 107 142 181 224 271 328
#     4  11  23  36  55  82 112 144 182 233 284 332
#
# _framework density 18.117462
#
# number of rings (size 3 to 8) (size 9 to 14) (size 15 to 20)
#    0.000    2.250    0.000    3.000    1.750    6.500 
#    0.000    0.625    0.000    1.500    0.000    0.000 
#    0.000    0.000    0.000    0.000    0.000    0.000 
#
# Total GULP energy -178514.614118 kJ/mol
# GULP energy per Si atom -5578.581691 kJ/mol
# Density = 1.807623 g / cm^3
# Si number density = 18.117462 Si / 1000 Ang^3
#
#
#
# Elastic Constant Matrix: (Units=GPa)
#
#
# Indices 1 2 3 4 5 6 
#
# 1 38.9439 28.7578 42.6835 0.0000 0.0001 0.0000
# 2 28.7578 83.3168 62.1724 0.0002 0.0000 0.0000
# 3 42.6835 62.1724 130.9890 0.0002 0.0001 0.0000
# 4 0.0000 0.0002 0.0002 11.9788 0.0001 0.0000
# 5 0.0001 0.0000 0.0001 0.0001 21.9954 0.0000
# 6 0.0000 0.0000 0.0000 0.0000 0.0000 30.1742
#
#
#
# Elastic Compliance Matrix: (Units=1/GPa)
#
#
# Indices 1 2 3 4 5 6 
#
# 1 0.042207 -0.006666 -0.010589 0.000000 0.000000 0.000000
# 2 -0.006666 0.019638 -0.007149 0.000000 0.000000 0.000000
# 3 -0.010589 -0.007149 0.014478 0.000000 0.000000 0.000000
# 4 0.000000 0.000000 0.000000 0.083481 0.000000 0.000000
# 5 0.000000 0.000000 0.000000 0.000000 0.045464 0.000000
# 6 0.000000 0.000000 0.000000 0.000000 0.000000 0.033141
#
#
# Mechanical properties :
#
#
# Convention : Reuss Voigt Hill
#
# Bulk Modulus (GPa) = 36.34512 57.83080 47.08796
# Shear Modulus (GPa) = 16.86982 20.80543 18.83762
#
# Velocity S-wave (km/s) = 3.05476 3.39243 3.22801
# Velocity P-wave (km/s) = 5.70495 6.87997 6.31983
#
# Compressibility (1/GPa) = 0.02751401
#
# Stress axis : x y z
#
# Youngs Moduli (GPa) = 23.69293 50.92239 69.07151
#
# Poissons Ratio (x) = 0.33947 0.73141
# Poissons Ratio (y) = 0.15795 0.49376
# Poissons Ratio (z) = 0.25089 0.36402
#
# Static dielectric constant tensor:
#      x y z
#    x 1.619660 0.000000 0.000000 
#    y 0.000000 1.617710 0.000000 
#    z 0.000000 0.000000 1.629120 
# 
# From -- ./inp_files/9754.got.cif
#   From: 2010.05.17/outbox.cif.g08.bks.cpg/sg46_5_cif.got.tgz:9754.got - 2010.06.03 19:58:25.
