data_PCOD9379416
_publ_section_title
;
Structure prediction by ZEFSAII (Michael W. Deem and Ramdas Pophale) SiO2 
 PCOD9379416
Probable space group: I M A 2
;
_chemical_formula_sum "Si O2"
_cell_formula_units_Z 60
_cell_length_a 9.277920
_cell_length_b 19.444461
_cell_length_c 18.325367
_cell_angle_alpha 90.000000
_cell_angle_beta 90.000000
_cell_angle_gamma 90.000000
_cell_volume 3305.972323
_symmetry_space_group_name_H-M "I M A 2"
_symmetry_group_IT_number 46
_symmetry_cell_setting 'orthorhombic'
loop_
_space_group_symop_operation_xyz
x,y,z
-x,-y,z
1/2-x,y,z
1/2+x,-y,z
1/2+x,1/2+y,1/2+z
1/2-x,1/2-y,1/2+z
-x,1/2+y,1/2+z
x,1/2-y,1/2+z
loop_
_atom_site_type_symbol
_atom_site_label
_atom_site_fract_x
_atom_site_fract_y
_atom_site_fract_z
Si Si1 0.588181 0.879440 0.182020
Si Si2 0.914162 0.321178 0.810945
Si Si3 0.582468 0.751100 0.939151
Si Si4 0.580811 0.936471 0.807551
Si Si5 0.412221 0.266996 0.106361
Si Si6 0.589654 0.175941 0.726994
Si Si7 0.000000 0.500000 0.577471
Si Si8 0.582432 0.396367 0.450139
O O1 0.750000 0.872099 0.211125
O O2 0.482012 0.873390 0.251345
O O3 0.563726 0.813319 0.128743
O O4 0.579927 0.947878 0.132876
O O5 0.750000 0.340299 0.831218
O O6 0.906999 0.249282 0.766868
O O7 0.011895 0.300581 0.880527
O O8 0.750000 0.768563 0.918839
O O9 0.485246 0.819701 0.950842
O O10 0.586225 0.721328 0.020549
O O11 0.750000 0.945714 0.809503
O O12 0.529520 0.868638 0.767057
O O13 0.515560 0.930197 0.888209
O O14 0.500000 0.000000 0.770534
O O15 0.250000 0.283587 0.133677
O O16 0.534652 0.310018 0.146042
O O17 0.750000 0.145578 0.731368
O O18 0.073867 0.555464 0.522257
O O19 0.750000 0.391998 0.428150
#
# Coordination Sequence:
#
# PCOD9379416 Si02
#       8
#     8   8   8   8   8   8   4   8
#     4  10  21  38  56  80 114 157 200 237 286 350
#     4  10  21  36  56  82 112 148 195 246 293 341
#     4  11  21  36  58  83 113 147 188 238 288 341
#     4  12  24  37  55  78 111 150 190 229 276 338
#     4   9  19  35  55  81 110 144 189 234 287 345
#     4  10  20  35  54  79 111 146 185 234 287 339
#     4  12  24  38  58  84 124 162 202 240 290 354
#     4  12  24  35  52  80 117 156 192 230 278 335
#
# _framework density 18.148973000000002
#
# number of rings (size 3 to 8) (size 9 to 14) (size 15 to 20)
#    0.000    1.333    3.333    3.200    0.000    4.267 
#    0.000    0.000    0.000    0.000    1.733    0.000 
#    0.000    0.000    0.000    0.000    0.000    0.000 
#
# Total GULP energy -167150.082573 kJ/mol
# GULP energy per Si atom -5571.669419 kJ/mol
# Density = 1.810766 g / cm^3
# Si number density = 18.148973 Si / 1000 Ang^3
#
#
#
# Elastic Constant Matrix: (Units=GPa)
#
#
# Indices 1 2 3 4 5 6 
#
# 1 148.6517 27.1799 46.3529 0.0000 0.0000 0.0000
# 2 27.1799 38.7386 20.5685 0.0000 0.0000 0.0000
# 3 46.3529 20.5685 85.2612 0.0000 0.0000 0.0000
# 4 0.0000 0.0000 0.0000 28.5010 0.0000 0.0000
# 5 0.0000 0.0000 0.0000 0.0000 11.6660 -0.0002
# 6 0.0000 0.0000 0.0000 0.0000 -0.0002 -336.1488
#
#
#
# Elastic Compliance Matrix: (Units=1/GPa)
#
#
# Indices 1 2 3 4 5 6 
#
# 1 0.008630 -0.004087 -0.003706 0.000000 0.000000 0.000000
# 2 -0.004087 0.031542 -0.005387 0.000000 0.000000 0.000000
# 3 -0.003706 -0.005387 0.015043 0.000000 0.000000 0.000000
# 4 0.000000 0.000000 0.000000 0.035086 0.000000 0.000000
# 5 0.000000 0.000000 0.000000 0.000000 0.085719 0.000000
# 6 0.000000 0.000000 0.000000 0.000000 0.000000 -0.002975
#
#
# Mechanical properties :
#
#
# Convention : Reuss Voigt Hill
#
# Bulk Modulus (GPa) = 34.65651 51.20602 42.93126
# Shear Modulus (GPa) = 23.92060 -47.29302 -11.68621
#
# Velocity S-wave (km/s) = 3.63438 -5.11026 -2.54028
# Velocity P-wave (km/s) = 6.06207 2.55817 3.88616
#
# Compressibility (1/GPa) = 0.02885461
#
# Stress axis : x y z
#
# Youngs Moduli (GPa) = 115.87453 31.70351 66.47655
#
# Poissons Ratio (x) = 0.12959 0.24634
# Poissons Ratio (y) = 0.47363 0.35812
# Poissons Ratio (z) = 0.42940 0.17079
#
# Static dielectric constant tensor:
#      x y z
#    x 1.721790 0.000000 0.000000 
#    y 0.000000 1.669360 0.000000 
#    z 0.000000 0.000000 1.638320 
# 
# From -- ./inp_files/18372.got.cif
#   From: 2010.05.17/outbox.cif.g08.bks.cpg/sg46_10_cif.got.tgz:18372.got - 2010.06.03 19:58:25.
