data_PCOD9379326
_publ_section_title
;
Structure prediction by ZEFSAII (Michael W. Deem and Ramdas Pophale) SiO2 
 PCOD9379326
Probable space group: I M A 2
;
_chemical_formula_sum "Si O2"
_cell_formula_units_Z 64
_cell_length_a 11.128651
_cell_length_b 16.901884
_cell_length_c 16.055604
_cell_angle_alpha 90.000000
_cell_angle_beta 90.000000
_cell_angle_gamma 90.000000
_cell_volume 3019.981536
_symmetry_space_group_name_H-M "I M A 2"
_symmetry_group_IT_number 46
_symmetry_cell_setting 'orthorhombic'
loop_
_space_group_symop_operation_xyz
x,y,z
-x,-y,z
1/2-x,y,z
1/2+x,-y,z
1/2+x,1/2+y,1/2+z
1/2-x,1/2-y,1/2+z
-x,1/2+y,1/2+z
x,1/2-y,1/2+z
loop_
_atom_site_type_symbol
_atom_site_label
_atom_site_fract_x
_atom_site_fract_y
_atom_site_fract_z
Si Si1 0.877602 0.982274 0.868270
Si Si2 0.382731 0.779403 0.415644
Si Si3 0.116549 0.952329 0.684234
Si Si4 0.118688 0.296578 0.350327
Si Si5 0.117269 0.779403 0.610686
Si Si6 0.118688 0.203422 0.176002
Si Si7 0.116549 0.952329 0.342096
Si Si8 0.877602 0.982275 0.158059
O O1 0.750000 0.996632 0.910900
O O2 0.881113 0.033697 0.783577
O O3 0.879983 0.890861 0.839769
O O4 0.000000 0.000000 0.915695
O O5 0.250000 0.744777 0.395040
O O6 0.498076 0.726032 0.398407
O O7 0.381650 0.799752 0.513165
O O8 0.396143 0.860565 0.364382
O O9 0.250000 0.978334 0.653366
O O10 0.103857 0.860565 0.661947
O O11 0.000000 0.000000 0.652102
O O12 0.250000 0.275838 0.389112
O O13 0.113580 0.250000 0.263165
O O14 0.250000 0.744777 0.631289
O O15 0.001924 0.726032 0.627922
O O16 0.250000 0.224162 0.137217
O O17 0.120017 0.109139 0.186560
O O18 0.250000 0.978334 0.372963
O O19 0.118886 0.966303 0.242752
O O20 0.000000 0.000000 0.374227
O O21 0.750000 0.996632 0.115429
O O22 0.000000 0.000000 0.110634
#
# Coordination Sequence:
#
# PCOD9379326 Si02
#       8
#     8   8   8   8   8   8   8   8
#     4   9  17  29  48  75 104 134 172 219 269 319
#     4  10  22  38  55  80 114 150 188 227 271 330
#     4   9  17  31  50  73 105 141 176 217 265 318
#     4  10  20  34  54  81 111 144 186 232 275 326
#     4  10  22  38  55  80 114 150 188 227 271 330
#     4  10  20  34  54  81 111 144 186 232 275 326
#     4   9  17  31  50  73 105 141 176 217 265 318
#     4   9  17  29  48  75 104 134 172 219 269 319
#
# _framework density 21.192183
#
# number of rings (size 3 to 8) (size 9 to 14) (size 15 to 20)
#    0.000    2.500    0.000    3.000    0.000    5.500 
#    0.000    0.000    0.000    0.750    0.000    0.000 
#    0.000    0.000    0.000    0.000    0.000    0.000 
#
# Total GULP energy -178365.218459 kJ/mol
# GULP energy per Si atom -5573.913077 kJ/mol
# Density = 2.114395 g / cm^3
# Si number density = 21.192183 Si / 1000 Ang^3
#
#
#
# Elastic Constant Matrix: (Units=GPa)
#
#
# Indices 1 2 3 4 5 6 
#
# 1 250.3708 44.9086 24.5907 0.0000 0.0000 0.0000
# 2 44.9086 32.1558 29.6077 0.0000 0.0000 0.0000
# 3 24.5907 29.6077 52.6858 0.0000 0.0000 0.0000
# 4 0.0000 0.0000 0.0000 55.9628 0.0000 0.0000
# 5 0.0000 0.0000 0.0000 0.0000 -27.0115 0.0000
# 6 0.0000 0.0000 0.0000 0.0000 0.0000 35.1751
#
#
#
# Elastic Compliance Matrix: (Units=1/GPa)
#
#
# Indices 1 2 3 4 5 6 
#
# 1 0.005662 -0.011345 0.003733 0.000000 0.000000 0.000000
# 2 -0.011345 0.087174 -0.043694 0.000000 0.000000 0.000000
# 3 0.003733 -0.043694 0.041793 0.000000 0.000000 0.000000
# 4 0.000000 0.000000 0.000000 0.017869 0.000000 0.000000
# 5 0.000000 0.000000 0.000000 0.000000 -0.037021 0.000000
# 6 0.000000 0.000000 0.000000 0.000000 0.000000 0.028429
#
#
# Mechanical properties :
#
#
# Convention : Reuss Voigt Hill
#
# Bulk Modulus (GPa) = 31.23333 59.26961 45.25147
# Shear Modulus (GPa) = 19.44075 28.56564 24.00319
#
# Velocity S-wave (km/s) = 3.03207 3.67540 3.36913
# Velocity P-wave (km/s) = 5.19885 6.78527 6.04433
#
# Compressibility (1/GPa) = 0.03201707
#
# Stress axis : x y z
#
# Youngs Moduli (GPa) = 176.60417 11.47125 23.92749
#
# Poissons Ratio (x) = 0.13014 -0.08931
# Poissons Ratio (y) = 2.00355 1.04549
# Poissons Ratio (z) = -0.65918 0.50123
#
# Static dielectric constant tensor:
#      x y z
#    x 1.898450 0.000000 0.000000 
#    y 0.000000 1.738630 0.000000 
#    z 0.000000 0.000000 1.712790 
# 
# From -- ./inp_files/19028.got.cif
#   From: 2010.05.17/outbox.cif.g08.bks.cpg/sg46_10_cif.got.tgz:19028.got - 2010.06.03 19:58:25.
