data_PCOD9379910
_publ_section_title
;
Structure prediction by ZEFSAII (Michael W. Deem and Ramdas Pophale) SiO2 
 PCOD9379910
Probable space group: I M A 2
;
_chemical_formula_sum "Si O2"
_cell_formula_units_Z 40
_cell_length_a 10.160829
_cell_length_b 16.213902
_cell_length_c 12.802135
_cell_angle_alpha 90.000000
_cell_angle_beta 90.000000
_cell_angle_gamma 90.000000
_cell_volume 2109.109310
_symmetry_space_group_name_H-M "I M A 2"
_symmetry_group_IT_number 46
_symmetry_cell_setting 'orthorhombic'
loop_
_space_group_symop_operation_xyz
x,y,z
-x,-y,z
1/2-x,y,z
1/2+x,-y,z
1/2+x,1/2+y,1/2+z
1/2-x,1/2-y,1/2+z
-x,1/2+y,1/2+z
x,1/2-y,1/2+z
loop_
_atom_site_type_symbol
_atom_site_label
_atom_site_fract_x
_atom_site_fract_y
_atom_site_fract_z
Si Si1 0.905519 0.920082 0.973120
Si Si2 0.250000 0.088889 0.650702
Si Si3 0.250000 0.964738 0.476295
Si Si4 0.480096 0.325130 0.265717
Si Si5 0.250000 0.905814 0.700650
Si Si6 0.500000 0.000000 0.342348
Si Si7 0.405180 0.149234 0.201613
O O1 0.750000 0.943409 0.976988
O O2 0.928172 0.857575 0.877023
O O3 0.937666 0.873978 0.082042
O O4 0.000000 0.000000 0.961412
O O5 0.121044 0.138934 0.679817
O O6 0.250000 0.054483 0.533604
O O7 0.250000 0.004509 0.719310
O O8 0.250000 0.902303 0.574077
O O9 0.383400 0.960589 0.411153
O O10 0.621097 0.364930 0.246286
O O11 0.480655 0.227564 0.248511
O O12 0.435586 0.069552 0.270527
O O13 0.250000 0.168620 0.206752
#
# Coordination Sequence:
#
# PCOD9379910 Si02
#       7
#     8   4   4   8   4   4   8
#     4  11  24  43  71  99 133 183 222 270 343 405
#     4  10  20  41  66  97 134 167 218 266 336 405
#     4  10  24  38  68  96 128 180 214 274 328 402
#     4  12  23  43  69 102 135 173 223 285 323 396
#     4  10  24  41  62 107 134 169 216 276 342 393
#     4  12  22  46  66  90 136 182 226 268 338 402
#     4  11  25  46  68  98 133 179 231 272 330 408
#
# _framework density 18.965350999999998
#
# number of rings (size 3 to 8) (size 9 to 14) (size 15 to 20)
#    0.600    0.400    4.000    3.000    1.400    4.000 
#    1.800    0.000    0.000    0.000    0.000    0.000 
#    0.000    0.000    0.000    0.000    0.000    0.000 
#
# Total GULP energy -111697.808795 kJ/mol
# GULP energy per Si atom -5584.890440 kJ/mol
# Density = 1.892218 g / cm^3
# Si number density = 18.965351 Si / 1000 Ang^3
#
#
#
# Elastic Constant Matrix: (Units=GPa)
#
#
# Indices 1 2 3 4 5 6 
#
# 1 90.7502 4.9133 9.3058 0.0000 -0.0001 0.0000
# 2 4.9133 88.8728 6.5298 0.0000 -0.0001 0.0000
# 3 9.3058 6.5298 92.5797 0.0001 -0.0003 0.0000
# 4 0.0000 0.0000 0.0001 23.9194 -0.0002 0.0000
# 5 -0.0001 -0.0001 -0.0003 -0.0002 56.3530 0.0000
# 6 0.0000 0.0000 0.0000 0.0000 0.0000 29.3764
#
#
#
# Elastic Compliance Matrix: (Units=1/GPa)
#
#
# Indices 1 2 3 4 5 6 
#
# 1 0.011159 -0.000537 -0.001084 0.000000 0.000000 0.000000
# 2 -0.000537 0.011337 -0.000746 0.000000 0.000000 0.000000
# 3 -0.001084 -0.000746 0.010963 0.000000 0.000000 0.000000
# 4 0.000000 0.000000 0.000000 0.041807 0.000000 0.000000
# 5 0.000000 0.000000 0.000000 0.000000 0.017745 0.000000
# 6 0.000000 0.000000 0.000000 0.000000 0.000000 0.034041
#
#
# Mechanical properties :
#
#
# Convention : Reuss Voigt Hill
#
# Bulk Modulus (GPa) = 34.81212 34.85562 34.83387
# Shear Modulus (GPa) = 35.37047 38.69335 37.03191
#
# Velocity S-wave (km/s) = 4.32325 4.52177 4.42363
# Velocity P-wave (km/s) = 6.58150 6.75873 6.67070
#
# Compressibility (1/GPa) = 0.02872562
#
# Stress axis : x y z
#
# Youngs Moduli (GPa) = 89.60980 88.21044 91.21558
#
# Poissons Ratio (x) = 0.04740 0.09886
# Poissons Ratio (y) = 0.04815 0.06801
# Poissons Ratio (z) = 0.09712 0.06577
#
# Static dielectric constant tensor:
#      x y z
#    x 1.618120 0.000000 0.000000 
#    y 0.000000 1.645330 0.000000 
#    z 0.000000 0.000000 1.658710 
# 
# From -- ./inp_files/9078.got.cif
#   From: 2010.05.17/outbox.cif.g08.bks.cpg/sg46_5_cif.got.tgz:9078.got - 2010.06.03 19:58:25.
