data_PCOD9379480
_publ_section_title
;
Structure prediction by ZEFSAII (Michael W. Deem and Ramdas Pophale) SiO2 
 PCOD9379480
Probable space group: I M A 2
;
_chemical_formula_sum "Si O2"
_cell_formula_units_Z 56
_cell_length_a 13.854175
_cell_length_b 11.907482
_cell_length_c 13.134088
_cell_angle_alpha 90.000000
_cell_angle_beta 90.000000
_cell_angle_gamma 90.000000
_cell_volume 2166.708687
_symmetry_space_group_name_H-M "I M A 2"
_symmetry_group_IT_number 46
_symmetry_cell_setting 'orthorhombic'
loop_
_space_group_symop_operation_xyz
x,y,z
-x,-y,z
1/2-x,y,z
1/2+x,-y,z
1/2+x,1/2+y,1/2+z
1/2-x,1/2-y,1/2+z
-x,1/2+y,1/2+z
x,1/2-y,1/2+z
loop_
_atom_site_type_symbol
_atom_site_label
_atom_site_fract_x
_atom_site_fract_y
_atom_site_fract_z
Si Si1 0.137183 0.163103 0.186270
Si Si2 0.556160 0.375079 0.781945
Si Si3 0.861117 0.596026 0.252334
Si Si4 0.141074 0.283739 0.469946
Si Si5 0.632738 0.131719 0.838707
Si Si6 0.864295 0.333729 0.568357
Si Si7 0.032349 0.615848 0.003377
O O1 0.250000 0.151367 0.217313
O O2 0.108125 0.296424 0.187146
O O3 0.127765 0.135483 0.067507
O O4 0.057613 0.107668 0.257691
O O5 0.583627 0.244359 0.800270
O O6 0.604127 0.395566 0.671571
O O7 0.582110 0.418740 0.895076
O O8 0.750000 0.579423 0.220235
O O9 0.863302 0.647625 0.366284
O O10 0.898937 0.471499 0.269023
O O11 0.250000 0.237404 0.479541
O O12 0.061388 0.188022 0.471755
O O13 0.750000 0.142234 0.834775
O O14 0.605436 0.117022 0.958018
O O15 0.750000 0.331885 0.569388
O O16 0.902674 0.204932 0.563569
O O17 0.000000 0.500000 0.054675
#
# Coordination Sequence:
#
# PCOD9379480 Si02
#       7
#     8   8   8   8   8   8   8
#     4  10  20  35  58  86 119 153 192 241 298 354
#     4  11  21  39  61  88 121 161 199 248 305 360
#     4   9  18  36  60  88 118 149 190 242 297 351
#     4  10  20  38  61  86 118 154 194 246 302 358
#     4   9  20  38  62  90 118 151 197 247 299 359
#     4  10  22  43  64  87 121 162 206 254 302 360
#     4  11  24  41  60  90 123 163 209 252 307 370
#
# _framework density 25.845652000000001
#
# number of rings (size 3 to 8) (size 9 to 14) (size 15 to 20)
#    0.000    2.000    2.857    0.429    0.000    2.857 
#    2.571    1.429    0.000    0.000    0.000    0.000 
#    0.000    0.000    0.000    0.000    0.000    0.000 
#
# Total GULP energy -156549.190258 kJ/mol
# GULP energy per Si atom -5591.042509 kJ/mol
# Density = 2.578683 g / cm^3
# Si number density = 25.845652 Si / 1000 Ang^3
#
#
#
# Elastic Constant Matrix: (Units=GPa)
#
#
# Indices 1 2 3 4 5 6 
#
# 1 91.0685 -8.0584 19.4069 0.0000 0.0000 0.0000
# 2 -8.0584 71.4303 5.0992 0.0000 0.0000 0.0000
# 3 19.4069 5.0992 150.2810 0.0000 0.0000 0.0000
# 4 0.0000 0.0000 0.0000 34.6417 0.0000 0.0000
# 5 0.0000 0.0000 0.0000 0.0000 30.8795 0.0000
# 6 0.0000 0.0000 0.0000 0.0000 0.0000 21.0381
#
#
#
# Elastic Compliance Matrix: (Units=1/GPa)
#
#
# Indices 1 2 3 4 5 6 
#
# 1 0.011429 0.001398 -0.001523 0.000000 0.000000 0.000000
# 2 0.001398 0.014205 -0.000663 0.000000 0.000000 0.000000
# 3 -0.001523 -0.000663 0.006873 0.000000 0.000000 0.000000
# 4 0.000000 0.000000 0.000000 0.028867 0.000000 0.000000
# 5 0.000000 0.000000 0.000000 0.000000 0.032384 0.000000
# 6 0.000000 0.000000 0.000000 0.000000 0.000000 0.047533
#
#
# Mechanical properties :
#
#
# Convention : Reuss Voigt Hill
#
# Bulk Modulus (GPa) = 32.32938 38.40837 35.36887
# Shear Modulus (GPa) = 32.64198 37.06733 34.85465
#
# Velocity S-wave (km/s) = 3.55767 3.79117 3.67627
# Velocity P-wave (km/s) = 5.42326 5.83582 5.63332
#
# Compressibility (1/GPa) = 0.03093162
#
# Stress axis : x y z
#
# Youngs Moduli (GPa) = 87.49602 70.39935 145.48834
#
# Poissons Ratio (x) = -0.09843 0.22163
# Poissons Ratio (y) = -0.12233 0.09639
# Poissons Ratio (z) = 0.13329 0.04664
#
# Static dielectric constant tensor:
#      x y z
#    x 2.012790 0.000000 0.000000 
#    y 0.000000 2.092340 0.000000 
#    z 0.000000 0.000000 2.073430 
# 
# From -- ./inp_files/15940.got.cif
#   From: 2010.05.17/outbox.cif.g08.bks.cpg/sg46_8_cif.got.tgz:15940.got - 2010.06.03 19:58:25.
