data_PCOD9379815
_publ_section_title
;
Structure prediction by ZEFSAII (Michael W. Deem and Ramdas Pophale) SiO2 
 PCOD9379815
Probable space group: I M A 2
;
_chemical_formula_sum "Si O2"
_cell_formula_units_Z 36
_cell_length_a 9.660956
_cell_length_b 11.293512
_cell_length_c 17.481707
_cell_angle_alpha 90.000000
_cell_angle_beta 90.000000
_cell_angle_gamma 90.000000
_cell_volume 1907.361266
_symmetry_space_group_name_H-M "I M A 2"
_symmetry_group_IT_number 46
_symmetry_cell_setting 'orthorhombic'
loop_
_space_group_symop_operation_xyz
x,y,z
-x,-y,z
1/2-x,y,z
1/2+x,-y,z
1/2+x,1/2+y,1/2+z
1/2-x,1/2-y,1/2+z
-x,1/2+y,1/2+z
x,1/2-y,1/2+z
loop_
_atom_site_type_symbol
_atom_site_label
_atom_site_fract_x
_atom_site_fract_y
_atom_site_fract_z
Si Si1 0.901375 0.158401 0.395410
Si Si2 0.500000 0.500000 0.031766
Si Si3 0.091104 0.264891 0.110552
Si Si4 0.913402 0.888328 0.252004
Si Si5 0.089816 0.884877 0.994386
O O1 0.750000 0.140099 0.359542
O O2 0.912465 0.292478 0.424460
O O3 0.022160 0.131885 0.335725
O O4 0.910156 0.076618 0.471265
O O5 0.429763 0.400914 0.085231
O O6 0.250000 0.232485 0.091160
O O7 0.068818 0.226834 0.198341
O O8 0.984656 0.185692 0.062678
O O9 0.750000 0.913486 0.255079
O O10 0.000000 0.000000 0.219337
O O11 0.250000 0.912606 0.012102
O O12 0.000000 0.000000 0.978175
#
# Coordination Sequence:
#
# PCOD9379815 Si02
#       5
#     8   4   8   8   8
#     4  10  21  37  60  88 116 154 203 249 300 355
#     4  10  20  38  66  90 120 154 206 248 296 356
#     4  10  22  39  60  89 121 158 199 245 301 356
#     4  11  23  38  59  86 121 158 199 248 302 358
#     4  10  21  37  59  87 117 154 198 246 299 355
#
# _framework density 18.874244000000001
#
# number of rings (size 3 to 8) (size 9 to 14) (size 15 to 20)
#    0.000    1.778    1.111    2.667    0.000    8.889 
#    2.000    0.000    0.000    0.000    0.000    0.000 
#    0.000    0.000    0.000    0.000    0.000    0.000 
#
# Total GULP energy -100364.611679 kJ/mol
# GULP energy per Si atom -5575.811760 kJ/mol
# Density = 1.883128 g / cm^3
# Si number density = 18.874244 Si / 1000 Ang^3
#
#
#
# Elastic Constant Matrix: (Units=GPa)
#
#
# Indices 1 2 3 4 5 6 
#
# 1 150.1565 57.6419 44.1739 0.0000 0.0000 0.0000
# 2 57.6419 132.4354 45.0724 0.0000 0.0000 0.0000
# 3 44.1739 45.0724 84.4148 0.0000 0.0000 0.0000
# 4 0.0000 0.0000 0.0000 35.0166 0.0000 0.0000
# 5 0.0000 0.0000 0.0000 0.0000 22.1970 0.0000
# 6 0.0000 0.0000 0.0000 0.0000 0.0000 20.6471
#
#
#
# Elastic Compliance Matrix: (Units=1/GPa)
#
#
# Indices 1 2 3 4 5 6 
#
# 1 0.008596 -0.002701 -0.003056 0.000000 0.000000 0.000000
# 2 -0.002701 0.010077 -0.003967 0.000000 0.000000 0.000000
# 3 -0.003056 -0.003967 0.015563 0.000000 0.000000 0.000000
# 4 0.000000 0.000000 0.000000 0.028558 0.000000 0.000000
# 5 0.000000 0.000000 0.000000 0.000000 0.045051 0.000000
# 6 0.000000 0.000000 0.000000 0.000000 0.000000 0.048433
#
#
# Mechanical properties :
#
#
# Convention : Reuss Voigt Hill
#
# Bulk Modulus (GPa) = 67.62209 73.42035 70.52122
# Shear Modulus (GPa) = 27.67720 30.24673 28.96196
#
# Velocity S-wave (km/s) = 3.83351 4.00752 3.92148
# Velocity P-wave (km/s) = 7.44983 7.77160 7.61241
#
# Compressibility (1/GPa) = 0.01478807
#
# Stress axis : x y z
#
# Youngs Moduli (GPa) = 116.33832 99.24013 64.25361
#
# Poissons Ratio (x) = 0.26807 0.19634
# Poissons Ratio (y) = 0.31426 0.25488
# Poissons Ratio (z) = 0.35550 0.39366
#
# Static dielectric constant tensor:
#      x y z
#    x 1.653740 0.000000 0.000000 
#    y 0.000000 1.671720 0.000000 
#    z 0.000000 0.000000 1.647900 
# 
# From -- ./inp_files/17968.got.cif
#   From: 2010.05.17/outbox.cif.g08.bks.cpg/sg46_9_cif.got.tgz:17968.got - 2010.06.03 19:58:25.
