data_PCOD9379754
_publ_section_title
;
Structure prediction by ZEFSAII (Michael W. Deem and Ramdas Pophale) SiO2 
 PCOD9379754
Probable space group: I M A 2
;
_chemical_formula_sum "Si O2"
_cell_formula_units_Z 48
_cell_length_a 10.189575
_cell_length_b 8.779164
_cell_length_c 29.359708
_cell_angle_alpha 90.000000
_cell_angle_beta 90.000000
_cell_angle_gamma 90.000000
_cell_volume 2626.400571
_symmetry_space_group_name_H-M "I M A 2"
_symmetry_group_IT_number 46
_symmetry_cell_setting 'orthorhombic'
loop_
_space_group_symop_operation_xyz
x,y,z
-x,-y,z
1/2-x,y,z
1/2+x,-y,z
1/2+x,1/2+y,1/2+z
1/2-x,1/2-y,1/2+z
-x,1/2+y,1/2+z
x,1/2-y,1/2+z
loop_
_atom_site_type_symbol
_atom_site_label
_atom_site_fract_x
_atom_site_fract_y
_atom_site_fract_z
Si Si1 0.093645 0.851612 0.759020
Si Si2 0.004746 0.684637 0.355402
Si Si3 0.503481 0.317984 0.568009
Si Si4 0.906752 0.351677 0.157447
Si Si5 0.750000 0.178194 0.006735
Si Si6 0.250000 0.189888 0.008684
Si Si7 0.750000 0.180084 0.408310
Si Si8 0.250000 0.316067 0.905346
O O1 0.250000 0.886124 0.767052
O O2 0.035877 0.767191 0.803182
O O3 0.085084 0.781107 0.708476
O O4 0.000000 0.000000 0.756461
O O5 0.124098 0.746796 0.384760
O O6 0.000000 0.500000 0.356508
O O7 0.874684 0.750275 0.378254
O O8 0.500000 0.500000 0.572728
O O9 0.534058 0.249329 0.617179
O O10 0.623901 0.278324 0.535611
O O11 0.374327 0.270057 0.540289
O O12 0.750000 0.383494 0.149830
O O13 0.000000 0.500000 0.157533
O O14 0.750000 0.265989 0.959956
O O15 0.750000 0.994041 0.000628
O O16 0.250000 0.263834 0.958489
O O17 0.750000 0.998559 0.404083
#
# Coordination Sequence:
#
# PCOD9379754 Si02
#       8
#     8   8   8   8   4   4   4   4
#     4   9  19  36  62  91 119 155 207 256 292 352
#     4  11  22  40  65  89 117 164 212 245 295 369
#     4  10  21  38  60  87 117 158 201 247 295 356
#     4  10  21  38  61  91 124 157 198 251 305 355
#     4  10  20  38  61  82 113 163 208 247 293 364
#     4  10  22  38  59  86 119 157 212 245 289 370
#     4  12  24  40  61  90 127 153 198 261 317 362
#     4  12  26  40  59  94 127 159 194 261 317 358
#
# _framework density 18.275962
#
# number of rings (size 3 to 8) (size 9 to 14) (size 15 to 20)
#    0.000    1.667    1.667    3.000    4.667    2.667 
#    0.000    1.667    0.000    0.000    0.000    0.000 
#    0.000    0.000    0.000    0.000    0.000    0.000 
#
# Total GULP energy -133808.902732 kJ/mol
# GULP energy per Si atom -5575.370947 kJ/mol
# Density = 1.823437 g / cm^3
# Si number density = 18.275962 Si / 1000 Ang^3
#
#
#
# Elastic Constant Matrix: (Units=GPa)
#
#
# Indices 1 2 3 4 5 6 
#
# 1 185.0101 42.0955 99.9484 0.0000 0.0000 0.0000
# 2 42.0955 54.5528 60.0343 0.0000 0.0000 0.0000
# 3 99.9484 60.0343 211.6658 0.0000 0.0000 0.0000
# 4 0.0000 0.0000 0.0000 26.7226 0.0000 0.0000
# 5 0.0000 0.0000 0.0000 0.0000 31.6487 0.0000
# 6 0.0000 0.0000 0.0000 0.0000 0.0000 17.0159
#
#
#
# Elastic Compliance Matrix: (Units=1/GPa)
#
#
# Indices 1 2 3 4 5 6 
#
# 1 0.007531 -0.002759 -0.002774 0.000000 0.000000 0.000000
# 2 -0.002759 0.027659 -0.006542 0.000000 0.000000 0.000000
# 3 -0.002774 -0.006542 0.007890 0.000000 0.000000 0.000000
# 4 0.000000 0.000000 0.000000 0.037421 0.000000 0.000000
# 5 0.000000 0.000000 0.000000 0.000000 0.031597 0.000000
# 6 0.000000 0.000000 0.000000 0.000000 0.000000 0.058769
#
#
# Mechanical properties :
#
#
# Convention : Reuss Voigt Hill
#
# Bulk Modulus (GPa) = 52.82469 95.04278 73.93374
# Shear Modulus (GPa) = 24.83514 31.68747 28.26131
#
# Velocity S-wave (km/s) = 3.69032 4.16845 3.93665
# Velocity P-wave (km/s) = 6.86474 8.67670 7.82335
#
# Compressibility (1/GPa) = 0.01893054
#
# Stress axis : x y z
#
# Youngs Moduli (GPa) = 132.77824 36.15403 126.74720
#
# Poissons Ratio (x) = 0.09975 0.35156
# Poissons Ratio (y) = 0.36635 0.82920
# Poissons Ratio (z) = 0.36829 0.23652
#
# Static dielectric constant tensor:
#      x y z
#    x 1.612060 0.000000 0.000000 
#    y 0.000000 1.617690 0.000000 
#    z 0.000000 0.000000 1.645330 
# 
# From -- ./inp_files/25083.got.cif
#   From: 2010.05.17/outbox.cif.g08.bks.cpg/sg46_13_cif.got.tgz:25083.got - 2010.06.03 19:58:25.
