data_PCOD9379620
_publ_section_title
;
Structure prediction by ZEFSAII (Michael W. Deem and Ramdas Pophale) SiO2 
 PCOD9379620
Probable space group: I M A 2
;
_chemical_formula_sum "Si O2"
_cell_formula_units_Z 64
_cell_length_a 14.266038
_cell_length_b 18.080398
_cell_length_c 11.899314
_cell_angle_alpha 90.000000
_cell_angle_beta 90.000000
_cell_angle_gamma 90.000000
_cell_volume 3069.257231
_symmetry_space_group_name_H-M "I M A 2"
_symmetry_group_IT_number 46
_symmetry_cell_setting 'orthorhombic'
loop_
_space_group_symop_operation_xyz
x,y,z
-x,-y,z
1/2-x,y,z
1/2+x,-y,z
1/2+x,1/2+y,1/2+z
1/2-x,1/2-y,1/2+z
-x,1/2+y,1/2+z
x,1/2-y,1/2+z
loop_
_atom_site_type_symbol
_atom_site_label
_atom_site_fract_x
_atom_site_fract_y
_atom_site_fract_z
Si Si1 0.521395 0.280489 0.496340
Si Si2 0.137342 0.294599 0.646362
Si Si3 0.352842 0.610799 0.156457
Si Si4 0.136624 0.885815 0.157232
Si Si5 0.534294 0.673600 0.265361
Si Si6 0.141353 0.644126 0.913442
Si Si7 0.642697 0.542085 0.571472
Si Si8 0.893843 0.526793 0.311049
O O1 0.420497 0.256569 0.544926
O O2 0.584057 0.321096 0.590034
O O3 0.499908 0.334577 0.393146
O O4 0.578047 0.213693 0.442904
O O5 0.250000 0.287978 0.644025
O O6 0.089521 0.250288 0.748705
O O7 0.109809 0.380779 0.626456
O O8 0.250000 0.647613 0.167942
O O9 0.439903 0.662162 0.192918
O O10 0.352034 0.539084 0.236272
O O11 0.365760 0.592368 0.024204
O O12 0.250000 0.878435 0.139915
O O13 0.117524 0.885178 0.290356
O O14 0.100957 0.964053 0.108827
O O15 0.602867 0.604345 0.244644
O O16 0.250000 0.667551 0.906979
O O17 0.750000 0.538137 0.611130
O O18 0.644122 0.541466 0.435797
O O19 0.000000 0.500000 0.326220
#
# Coordination Sequence:
#
# PCOD9379620 Si02
#       8
#     8   8   8   8   8   8   8   8
#     4  12  22  41  65  92 128 171 216 269 322 387
#     4  11  25  42  62  91 127 168 219 276 327 384
#     4  10  21  38  63  97 133 167 208 264 329 393
#     4  10  22  40  67 100 133 169 211 265 332 396
#     4  11  23  41  65  92 132 167 219 268 334 388
#     4  10  22  39  63  97 137 170 205 260 326 404
#     4  10  21  40  64  93 125 165 220 272 325 386
#     4  10  20  36  64  95 127 163 213 273 323 391
#
# _framework density 20.851951
#
# number of rings (size 3 to 8) (size 9 to 14) (size 15 to 20)
#    0.000    1.500    2.500    3.000    0.000    3.500 
#    0.000    1.250    5.500    1.500    0.000    0.000 
#    0.000    0.000    0.000    0.000    0.000    0.000 
#
# Total GULP energy -178424.162476 kJ/mol
# GULP energy per Si atom -5575.755077 kJ/mol
# Density = 2.080449 g / cm^3
# Si number density = 20.851951 Si / 1000 Ang^3
#
#
#
# Elastic Constant Matrix: (Units=GPa)
#
#
# Indices 1 2 3 4 5 6 
#
# 1 95.0933 39.1288 47.9018 0.0000 0.0000 0.0000
# 2 39.1288 114.0891 35.9631 0.0000 0.0000 0.0000
# 3 47.9018 35.9631 107.5645 0.0000 0.0000 0.0000
# 4 0.0000 0.0000 0.0000 33.5193 0.0000 0.0000
# 5 0.0000 0.0000 0.0000 0.0000 19.1877 0.0000
# 6 0.0000 0.0000 0.0000 0.0000 0.0000 23.9190
#
#
#
# Elastic Compliance Matrix: (Units=1/GPa)
#
#
# Indices 1 2 3 4 5 6 
#
# 1 0.014593 -0.003305 -0.005394 0.000000 0.000000 0.000000
# 2 -0.003305 0.010546 -0.002054 0.000000 0.000000 0.000000
# 3 -0.005394 -0.002054 0.012386 0.000000 0.000000 0.000000
# 4 0.000000 0.000000 0.000000 0.029834 0.000000 0.000000
# 5 0.000000 0.000000 0.000000 0.000000 0.052117 0.000000
# 6 0.000000 0.000000 0.000000 0.000000 0.000000 0.041808
#
#
# Mechanical properties :
#
#
# Convention : Reuss Voigt Hill
#
# Bulk Modulus (GPa) = 62.42575 62.52602 62.47588
# Shear Modulus (GPa) = 26.57770 28.24207 27.40988
#
# Velocity S-wave (km/s) = 3.57401 3.68422 3.62954
# Velocity P-wave (km/s) = 6.85814 6.93893 6.89865
#
# Compressibility (1/GPa) = 0.01601903
#
# Stress axis : x y z
#
# Youngs Moduli (GPa) = 68.52704 94.82256 80.73904
#
# Poissons Ratio (x) = 0.31335 0.43549
# Poissons Ratio (y) = 0.22646 0.16586
# Poissons Ratio (z) = 0.36962 0.19479
#
# Static dielectric constant tensor:
#      x y z
#    x 1.777240 0.000000 0.000000 
#    y 0.000000 1.798470 0.000000 
#    z 0.000000 0.000000 1.788430 
# 
# From -- ./inp_files/11303.got.cif
#   From: 2010.05.17/outbox.cif.g08.bks.cpg/sg46_6_cif.got.tgz:11303.got - 2010.06.03 19:58:25.
