data_PCOD9379401
_publ_section_title
;
Structure prediction by ZEFSAII (Michael W. Deem and Ramdas Pophale) SiO2 
 PCOD9379401
Probable space group: I M A 2
;
_chemical_formula_sum "Si O2"
_cell_formula_units_Z 48
_cell_length_a 8.585297
_cell_length_b 10.500392
_cell_length_c 30.060333
_cell_angle_alpha 90.000000
_cell_angle_beta 90.000000
_cell_angle_gamma 90.000000
_cell_volume 2709.908477
_symmetry_space_group_name_H-M "I M A 2"
_symmetry_group_IT_number 46
_symmetry_cell_setting 'orthorhombic'
loop_
_space_group_symop_operation_xyz
x,y,z
-x,-y,z
1/2-x,y,z
1/2+x,-y,z
1/2+x,1/2+y,1/2+z
1/2-x,1/2-y,1/2+z
-x,1/2+y,1/2+z
x,1/2-y,1/2+z
loop_
_atom_site_type_symbol
_atom_site_label
_atom_site_fract_x
_atom_site_fract_y
_atom_site_fract_z
Si Si1 0.562286 0.138221 0.567940
Si Si2 0.938202 0.138724 0.002466
Si Si3 0.562201 0.361368 0.400051
Si Si4 0.063978 0.138839 0.233952
Si Si5 0.562810 0.360409 0.171122
Si Si6 0.062422 0.861711 0.333456
O O1 0.750000 0.134874 0.566553
O O2 0.508089 0.250313 0.535464
O O3 0.516693 0.160371 0.619397
O O4 0.500000 0.000000 0.554364
O O5 0.750000 0.135927 0.003378
O O6 0.987102 0.162121 0.951236
O O7 0.000000 0.000000 0.015695
O O8 0.500000 0.500000 0.386623
O O9 0.750000 0.365273 0.399429
O O10 0.512234 0.249268 0.367100
O O11 0.250000 0.134729 0.234749
O O12 0.005091 0.249719 0.201734
O O13 0.001143 0.161983 0.283870
O O14 0.000000 0.000000 0.220006
O O15 0.500000 0.500000 0.184136
O O16 0.750000 0.360035 0.173926
O O17 0.250000 0.865508 0.331829
O O18 0.000000 0.000000 0.347703
#
# Coordination Sequence:
#
# PCOD9379401 Si02
#       6
#     8   8   8   8   8   8
#     4   9  19  34  53  76 105 136 170 210 253 300
#     4   9  18  34  52  75 104 135 170 210 252 299
#     4   9  19  34  53  75 103 135 170 210 253 300
#     4  11  22  37  56  78 104 137 173 215 261 310
#     4  10  20  36  55  78 106 138 174 215 259 308
#     4  10  20  35  53  76 104 135 170 212 256 305
#
# _framework density 17.712775000000001
#
# number of rings (size 3 to 8) (size 9 to 14) (size 15 to 20)
#    0.000    2.333    0.000    3.500    0.000    4.667 
#    0.000    3.333    0.000    0.000    0.000    0.000 
#    0.000    0.000    0.000    0.000    0.000    0.000 
#
# Total GULP energy -133943.180371 kJ/mol
# GULP energy per Si atom -5580.965849 kJ/mol
# Density = 1.767246 g / cm^3
# Si number density = 17.712775 Si / 1000 Ang^3
#
#
#
# Elastic Constant Matrix: (Units=GPa)
#
#
# Indices 1 2 3 4 5 6 
#
# 1 53.4694 47.2730 33.4146 0.0000 0.0000 0.0000
# 2 47.2730 209.5211 127.3218 0.0000 0.0000 0.0000
# 3 33.4146 127.3218 94.2519 0.0000 0.0000 0.0000
# 4 0.0000 0.0000 0.0000 44.8247 0.0000 0.0000
# 5 0.0000 0.0000 0.0000 0.0000 -78.5915 0.0000
# 6 0.0000 0.0000 0.0000 0.0000 0.0000 35.2296
#
#
#
# Elastic Compliance Matrix: (Units=1/GPa)
#
#
# Indices 1 2 3 4 5 6 
#
# 1 0.024095 -0.001370 -0.006691 0.000000 0.000000 0.000000
# 2 -0.001370 0.026726 -0.035617 0.000000 0.000000 0.000000
# 3 -0.006691 -0.035617 0.061096 0.000000 0.000000 0.000000
# 4 0.000000 0.000000 0.000000 0.022309 0.000000 0.000000
# 5 0.000000 0.000000 0.000000 0.000000 -0.012724 0.000000
# 6 0.000000 0.000000 0.000000 0.000000 0.000000 0.028385
#
#
# Mechanical properties :
#
#
# Convention : Reuss Voigt Hill
#
# Bulk Modulus (GPa) = 40.71693 85.91792 63.31743
# Shear Modulus (GPa) = 20.37229 10.24144 15.30687
#
# Velocity S-wave (km/s) = 3.39506 2.40718 2.94287
# Velocity P-wave (km/s) = 6.19724 7.50583 6.88271
#
# Compressibility (1/GPa) = 0.02455981
#
# Stress axis : x y z
#
# Youngs Moduli (GPa) = 41.50170 37.41704 16.36769
#
# Poissons Ratio (x) = 0.05128 0.10952
# Poissons Ratio (y) = 0.05688 0.58297
# Poissons Ratio (z) = 0.27769 1.33269
#
# Static dielectric constant tensor:
#      x y z
#    x 1.597550 0.000000 0.000000 
#    y 0.000000 1.574930 0.000000 
#    z 0.000000 0.000000 1.597540 
# 
# From -- ./inp_files/24987.got.cif
#   From: 2010.05.17/outbox.cif.g08.bks.cpg/sg46_13_cif.got.tgz:24987.got - 2010.06.03 19:58:25.
