data_PCOD9379501
_publ_section_title
;
Structure prediction by ZEFSAII (Michael W. Deem and Ramdas Pophale) SiO2 
 PCOD9379501
Probable space group: I M A 2
;
_chemical_formula_sum "Si O2"
_cell_formula_units_Z 64
_cell_length_a 20.691198
_cell_length_b 10.448305
_cell_length_c 14.530980
_cell_angle_alpha 90.000000
_cell_angle_beta 90.000000
_cell_angle_gamma 90.000000
_cell_volume 3141.422742
_symmetry_space_group_name_H-M "I M A 2"
_symmetry_group_IT_number 46
_symmetry_cell_setting 'orthorhombic'
loop_
_space_group_symop_operation_xyz
x,y,z
-x,-y,z
1/2-x,y,z
1/2+x,-y,z
1/2+x,1/2+y,1/2+z
1/2-x,1/2-y,1/2+z
-x,1/2+y,1/2+z
x,1/2-y,1/2+z
loop_
_atom_site_type_symbol
_atom_site_label
_atom_site_fract_x
_atom_site_fract_y
_atom_site_fract_z
Si Si1 0.174124 0.365865 0.268030
Si Si2 0.457245 0.377008 0.565781
Si Si3 0.590989 0.619639 0.758502
Si Si4 0.175937 0.738406 0.990129
Si Si5 0.827300 0.965113 0.976594
Si Si6 0.670651 0.373865 0.178374
Si Si7 0.878241 0.343821 0.814135
Si Si8 0.994030 0.644333 0.936491
O O1 0.250000 0.352953 0.252601
O O2 0.141125 0.232974 0.245689
O O3 0.164968 0.407303 0.374406
O O4 0.150227 0.483688 0.206019
O O5 0.500000 0.500000 0.537523
O O6 0.460640 0.366173 0.676377
O O7 0.381434 0.400630 0.540951
O O8 0.481494 0.252437 0.511644
O O9 0.618438 0.475682 0.758280
O O10 0.562257 0.637471 0.860321
O O11 0.250000 0.754679 0.016111
O O12 0.172077 0.656252 0.897984
O O13 0.154134 0.884023 0.973790
O O14 0.146664 0.666339 0.077274
O O15 0.750000 0.952133 0.000982
O O16 0.750000 0.370066 0.186629
O O17 0.640899 0.271962 0.248559
O O18 0.943842 0.325106 0.872751
O O19 0.000000 0.500000 0.974949
#
# Coordination Sequence:
#
# PCOD9379501 Si02
#       8
#     8   8   8   8   8   8   8   8
#     4  10  21  40  63  89 129 172 211 262 325 395
#     4  12  24  42  70  97 128 171 225 278 330 399
#     4  11  25  43  61  91 130 166 211 266 330 394
#     4  10  20  35  61  95 127 164 214 268 322 383
#     4  10  20  39  66  95 130 173 220 273 330 394
#     4  10  21  38  62  95 129 166 216 270 322 388
#     4  11  21  38  65  88 124 166 210 265 327 386
#     4  10  24  43  61  88 126 166 210 268 330 395
#
# _framework density 20.372934999999998
#
# number of rings (size 3 to 8) (size 9 to 14) (size 15 to 20)
#    0.000    1.500    2.500    3.000    0.000    4.500 
#    0.000    0.625    0.000    0.000    0.000    0.000 
#    0.000    0.000    0.000    0.000    0.000    0.000 
#
# Total GULP energy -178612.818118 kJ/mol
# GULP energy per Si atom -5581.650566 kJ/mol
# Density = 2.032657 g / cm^3
# Si number density = 20.372935 Si / 1000 Ang^3
#
#
#
# Elastic Constant Matrix: (Units=GPa)
#
#
# Indices 1 2 3 4 5 6 
#
# 1 39.0053 42.2979 5.2445 0.0000 0.0000 0.0000
# 2 42.2979 155.6667 61.7406 0.0000 0.0000 0.0000
# 3 5.2445 61.7406 92.1798 0.0000 0.0000 0.0000
# 4 0.0000 0.0000 0.0000 21.7423 0.0000 0.0000
# 5 0.0000 0.0000 0.0000 0.0000 -8.1930 0.0000
# 6 0.0000 0.0000 0.0000 0.0000 0.0000 26.1307
#
#
#
# Elastic Compliance Matrix: (Units=1/GPa)
#
#
# Indices 1 2 3 4 5 6 
#
# 1 0.039143 -0.013281 0.006668 0.000000 0.000000 0.000000
# 2 -0.013281 0.013254 -0.008122 0.000000 0.000000 0.000000
# 3 0.006668 -0.008122 0.015909 0.000000 0.000000 0.000000
# 4 0.000000 0.000000 0.000000 0.045993 0.000000 0.000000
# 5 0.000000 0.000000 0.000000 0.000000 -0.122056 0.000000
# 6 0.000000 0.000000 0.000000 0.000000 0.000000 0.038269
#
#
# Mechanical properties :
#
#
# Convention : Reuss Voigt Hill
#
# Bulk Modulus (GPa) = 25.74868 56.15756 40.95312
# Shear Modulus (GPa) = 68.56325 19.77394 44.16860
#
# Velocity S-wave (km/s) = 5.80751 3.11882 4.66123
# Velocity P-wave (km/s) = 7.59181 6.37134 7.00820
#
# Compressibility (1/GPa) = 0.03883695
#
# Stress axis : x y z
#
# Youngs Moduli (GPa) = 25.54765 75.45027 62.85878
#
# Poissons Ratio (x) = 1.00202 -0.41915
# Poissons Ratio (y) = 0.33929 0.51051
# Poissons Ratio (z) = -0.17035 0.61277
#
# Static dielectric constant tensor:
#      x y z
#    x 2.197620 0.000000 0.000000 
#    y 0.000000 1.708420 0.000000 
#    z 0.000000 0.000000 1.742520 
# 
# From -- ./inp_files/17444.got.cif
#   From: 2010.05.17/outbox.cif.g08.bks.cpg/sg46_9_cif.got.tgz:17444.got - 2010.06.03 19:58:25.
