data_PCOD9379468
_publ_section_title
;
Structure prediction by ZEFSAII (Michael W. Deem and Ramdas Pophale) SiO2 
 PCOD9379468
Probable space group: I M A 2
;
_chemical_formula_sum "Si O2"
_cell_formula_units_Z 56
_cell_length_a 11.624295
_cell_length_b 14.960849
_cell_length_c 14.171349
_cell_angle_alpha 90.000000
_cell_angle_beta 90.000000
_cell_angle_gamma 90.000000
_cell_volume 2464.529700
_symmetry_space_group_name_H-M "I M A 2"
_symmetry_group_IT_number 46
_symmetry_cell_setting 'orthorhombic'
loop_
_space_group_symop_operation_xyz
x,y,z
-x,-y,z
1/2-x,y,z
1/2+x,-y,z
1/2+x,1/2+y,1/2+z
1/2-x,1/2-y,1/2+z
-x,1/2+y,1/2+z
x,1/2-y,1/2+z
loop_
_atom_site_type_symbol
_atom_site_label
_atom_site_fract_x
_atom_site_fract_y
_atom_site_fract_z
Si Si1 0.947210 0.599564 0.168640
Si Si2 0.383253 0.765020 0.755478
Si Si3 0.448697 0.400119 0.761295
Si Si4 0.948698 0.900119 0.465594
Si Si5 0.883253 0.265020 0.471412
Si Si6 0.947210 0.900436 0.058249
Si Si7 0.874312 0.549053 0.363445
O O1 0.876157 0.603434 0.265540
O O2 0.000000 0.500000 0.164689
O O3 0.050527 0.668604 0.186351
O O4 0.888654 0.614148 0.067011
O O5 0.250000 0.756531 0.731980
O O6 0.446505 0.670082 0.757488
O O7 0.392133 0.800857 0.863445
O O8 0.500000 0.500000 0.762292
O O9 0.389727 0.386310 0.863445
O O10 0.388654 0.385852 0.659878
O O11 0.053495 0.829918 0.469402
O O12 0.000000 0.000000 0.464597
O O13 0.750000 0.256532 0.494910
O O14 0.949473 0.331396 0.540539
O O15 0.876156 0.896566 0.961349
O O16 0.000000 0.000000 0.062200
O O17 0.750000 0.498181 0.363445
O O18 0.000000 0.500000 0.363445
#
# Coordination Sequence:
#
# PCOD9379468 Si02
#       7
#     8   8   8   8   8   8   8
#     4  10  20  35  57  90 130 172 210 268 332 399
#     4  10  20  35  61  98 133 172 224 283 343 404
#     4   9  19  36  57  84 124 175 217 275 328 394
#     4   9  19  36  57  84 124 175 217 275 328 394
#     4  10  20  35  61  98 133 172 224 283 343 404
#     4  10  20  35  57  90 130 172 210 268 332 399
#     4  10  22  40  64  96 133 174 219 270 331 402
#
# _framework density 22.722387999999999
#
# number of rings (size 3 to 8) (size 9 to 14) (size 15 to 20)
#    0.000    2.286    1.429    0.857    0.000    6.857 
#    0.000    7.143    0.000    7.714    0.000    0.000 
#    0.000    0.000    0.000    0.000    0.000    0.000 
#
# Total GULP energy -156016.890050 kJ/mol
# GULP energy per Si atom -5572.031788 kJ/mol
# Density = 2.267067 g / cm^3
# Si number density = 22.722388 Si / 1000 Ang^3
#
#
#
# Elastic Constant Matrix: (Units=GPa)
#
#
# Indices 1 2 3 4 5 6 
#
# 1 116.5188 42.7819 32.0357 0.0000 0.0000 0.0000
# 2 42.7819 132.0085 9.5521 0.0000 0.0000 0.0000
# 3 32.0357 9.5521 279.6527 0.0000 0.0000 0.0000
# 4 0.0000 0.0000 0.0000 55.4570 0.0000 0.0000
# 5 0.0000 0.0000 0.0000 0.0000 -1.7297 0.0000
# 6 0.0000 0.0000 0.0000 0.0000 0.0000 5.1936
#
#
#
# Elastic Compliance Matrix: (Units=1/GPa)
#
#
# Indices 1 2 3 4 5 6 
#
# 1 0.010035 -0.003177 -0.001041 0.000000 0.000000 0.000000
# 2 -0.003177 0.008600 0.000070 0.000000 0.000000 0.000000
# 3 -0.001041 0.000070 0.003693 0.000000 0.000000 0.000000
# 4 0.000000 0.000000 0.000000 0.018032 0.000000 0.000000
# 5 0.000000 0.000000 0.000000 0.000000 -0.578149 0.000000
# 6 0.000000 0.000000 0.000000 0.000000 0.000000 0.192546
#
#
# Mechanical properties :
#
#
# Convention : Reuss Voigt Hill
#
# Bulk Modulus (GPa) = 71.26555 77.43549 74.35052
# Shear Modulus (GPa) = -15.04793 41.37153 13.16180
#
# Velocity S-wave (km/s) = -2.57622 4.27164 2.40936
# Velocity P-wave (km/s) = 4.75210 7.64736 6.36650
#
# Compressibility (1/GPa) = 0.01403203
#
# Stress axis : x y z
#
# Youngs Moduli (GPa) = 99.65153 116.28229 270.80274
#
# Poissons Ratio (x) = 0.36941 0.28192
# Poissons Ratio (y) = 0.31658 -0.01901
# Poissons Ratio (z) = 0.10374 -0.00816
#
# Static dielectric constant tensor:
#      x y z
#    x 1.747860 0.000000 0.000000 
#    y 0.000000 1.789640 0.000000 
#    z 0.000000 0.000000 1.982860 
# 
# From -- ./inp_files/15213.got.cif
#   From: 2010.05.17/outbox.cif.g08.bks.cpg/sg46_8_cif.got.tgz:15213.got - 2010.06.03 19:58:25.
