data_PCOD9379915
_publ_section_title
;
Structure prediction by ZEFSAII (Michael W. Deem and Ramdas Pophale) SiO2 
 PCOD9379915
Probable space group: I M A 2
;
_chemical_formula_sum "Si O2"
_cell_formula_units_Z 56
_cell_length_a 15.437727
_cell_length_b 17.875533
_cell_length_c 10.121203
_cell_angle_alpha 90.000000
_cell_angle_beta 90.000000
_cell_angle_gamma 90.000000
_cell_volume 2793.022873
_symmetry_space_group_name_H-M "I M A 2"
_symmetry_group_IT_number 46
_symmetry_cell_setting 'orthorhombic'
loop_
_space_group_symop_operation_xyz
x,y,z
-x,-y,z
1/2-x,y,z
1/2+x,-y,z
1/2+x,1/2+y,1/2+z
1/2-x,1/2-y,1/2+z
-x,1/2+y,1/2+z
x,1/2-y,1/2+z
loop_
_atom_site_type_symbol
_atom_site_label
_atom_site_fract_x
_atom_site_fract_y
_atom_site_fract_z
Si Si1 0.415171 0.573082 0.798230
Si Si2 0.600790 0.591876 0.444808
Si Si3 0.651358 0.932287 0.456957
Si Si4 0.400126 0.568637 0.490663
Si Si5 0.148922 0.322729 0.189462
Si Si6 0.591690 0.658382 0.727711
Si Si7 0.750000 0.186660 0.009430
Si Si8 0.250000 0.676181 0.815316
O O1 0.404437 0.501588 0.896089
O O2 0.405708 0.546122 0.646133
O O3 0.499938 0.625815 0.783002
O O4 0.334523 0.625484 0.830677
O O5 0.495474 0.590645 0.441176
O O6 0.629956 0.506874 0.420641
O O7 0.640665 0.644511 0.335767
O O8 0.619795 0.618577 0.592563
O O9 0.750000 0.959002 0.480776
O O10 0.619238 0.887695 0.586947
O O11 0.653466 0.868012 0.344930
O O12 0.333701 0.635846 0.480855
O O13 0.250000 0.306130 0.158256
O O14 0.094618 0.245961 0.192946
O O15 0.750000 0.205392 0.164615
O O16 0.750000 0.258312 0.919369
#
# Coordination Sequence:
#
# PCOD9379915 Si02
#       8
#     8   8   8   8   8   8   4   4
#     4  10  20  41  69  92 123 174 223 265 315 397
#     4  10  21  41  64  89 124 166 212 267 312 384
#     4  11  22  41  65  96 135 172 222 268 327 402
#     4   9  20  39  66  91 120 162 221 257 310 387
#     4  11  26  42  59 100 139 166 209 276 343 386
#     4  11  22  39  69  92 125 173 223 261 321 395
#     4  10  22  40  64  96 123 163 210 268 321 387
#     4  10  22  42  62  94 129 163 218 266 327 383
#
# _framework density 20.049962000000001
#
# number of rings (size 3 to 8) (size 9 to 14) (size 15 to 20)
#    0.000    1.714    2.143    1.714    3.000    2.286 
#   10.286    0.000    0.000    0.000    0.000    0.000 
#    0.000    0.000    0.000    0.000    0.000    0.000 
#
# Total GULP energy -156176.032116 kJ/mol
# GULP energy per Si atom -5577.715433 kJ/mol
# Density = 2.000433 g / cm^3
# Si number density = 20.049962 Si / 1000 Ang^3
#
#
#
# Elastic Constant Matrix: (Units=GPa)
#
#
# Indices 1 2 3 4 5 6 
#
# 1 68.7409 48.6841 34.6175 0.0000 0.0000 0.0000
# 2 48.6841 130.7677 49.6863 0.0000 0.0000 0.0000
# 3 34.6175 49.6863 69.4661 0.0000 0.0000 0.0000
# 4 0.0000 0.0000 0.0000 77.8405 0.0000 0.0000
# 5 0.0000 0.0000 0.0000 0.0000 22.5232 0.0000
# 6 0.0000 0.0000 0.0000 0.0000 0.0000 9.0251
#
#
#
# Elastic Compliance Matrix: (Units=1/GPa)
#
#
# Indices 1 2 3 4 5 6 
#
# 1 0.021988 -0.005524 -0.007006 0.000000 0.000000 0.000000
# 2 -0.005524 0.011889 -0.005751 0.000000 0.000000 0.000000
# 3 -0.007006 -0.005751 0.022000 0.000000 0.000000 0.000000
# 4 0.000000 0.000000 0.000000 0.012847 0.000000 0.000000
# 5 0.000000 0.000000 0.000000 0.000000 0.044399 0.000000
# 6 0.000000 0.000000 0.000000 0.000000 0.000000 0.110802
#
#
# Mechanical properties :
#
#
# Convention : Reuss Voigt Hill
#
# Bulk Modulus (GPa) = 51.77342 59.43895 55.60619
# Shear Modulus (GPa) = 18.73187 30.94353 24.83770
#
# Velocity S-wave (km/s) = 3.05988 3.93277 3.52346
# Velocity P-wave (km/s) = 6.19371 7.09451 6.65936
#
# Compressibility (1/GPa) = 0.01931493
#
# Stress axis : x y z
#
# Youngs Moduli (GPa) = 45.47963 84.11340 45.45380
#
# Poissons Ratio (x) = 0.46463 0.31847
# Poissons Ratio (y) = 0.25122 0.26140
# Poissons Ratio (z) = 0.31865 0.48372
#
# Static dielectric constant tensor:
#      x y z
#    x 1.756290 0.000000 0.000000 
#    y 0.000000 1.603740 0.000000 
#    z 0.000000 0.000000 1.682330 
# 
# From -- ./inp_files/11193.got.cif
#   From: 2010.05.17/outbox.cif.g08.bks.cpg/sg46_6_cif.got.tgz:11193.got - 2010.06.03 19:58:25.
