data_PCOD9379242
_publ_section_title
;
Structure prediction by ZEFSAII (Michael W. Deem and Ramdas Pophale) SiO2 
 PCOD9379242
Probable space group: I M A 2
;
_chemical_formula_sum "Si O2"
_cell_formula_units_Z 64
_cell_length_a 8.783903
_cell_length_b 28.273335
_cell_length_c 14.923745
_cell_angle_alpha 90.000000
_cell_angle_beta 90.000000
_cell_angle_gamma 90.000000
_cell_volume 3706.315535
_symmetry_space_group_name_H-M "I M A 2"
_symmetry_group_IT_number 46
_symmetry_cell_setting 'orthorhombic'
loop_
_space_group_symop_operation_xyz
x,y,z
-x,-y,z
1/2-x,y,z
1/2+x,-y,z
1/2+x,1/2+y,1/2+z
1/2-x,1/2-y,1/2+z
-x,1/2+y,1/2+z
x,1/2-y,1/2+z
loop_
_atom_site_type_symbol
_atom_site_label
_atom_site_fract_x
_atom_site_fract_y
_atom_site_fract_z
Si Si1 0.931741 0.448166 0.146130
Si Si2 0.931764 0.635683 0.821087
Si Si3 0.068814 0.133910 0.766339
Si Si4 0.067022 0.221611 0.639793
Si Si5 0.432943 0.782949 0.444599
Si Si6 0.568118 0.172481 0.940964
Si Si7 0.567159 0.325326 0.647327
Si Si8 0.432906 0.552165 0.939444
O O1 0.750000 0.450457 0.152076
O O2 0.000000 0.500000 0.163073
O O3 0.994805 0.409825 0.214732
O O4 0.971281 0.435010 0.042955
O O5 0.750000 0.635286 0.821119
O O6 0.995676 0.640419 0.720739
O O7 0.992829 0.681520 0.874624
O O8 0.996342 0.590246 0.872745
O O9 0.250000 0.128900 0.763701
O O10 0.027872 0.181776 0.712213
O O11 0.012859 0.140696 0.867484
O O12 0.250000 0.225477 0.633387
O O13 0.996818 0.272489 0.663455
O O14 0.997939 0.207288 0.543662
O O15 0.250000 0.788419 0.444633
O O16 0.468984 0.727968 0.424861
O O17 0.750000 0.175757 0.155410
O O18 0.528238 0.162215 0.044411
O O19 0.250000 0.832397 0.931781
O O20 0.500000 0.500000 0.923251
O O21 0.250000 0.551516 0.931152
#
# Coordination Sequence:
#
# PCOD9379242 Si02
#       8
#     8   8   8   8   8   8   8   8
#     4  10  21  37  58  81 108 138 170 210 258 311
#     4  12  23  34  53  80 108 141 180 222 266 317
#     4  11  22  33  51  78 107 139 176 215 259 312
#     4  10  20  33  50  77 111 144 178 219 264 314
#     4  10  20  34  52  76 107 144 182 221 265 316
#     4   9  20  36  53  73 101 139 181 222 264 308
#     4  10  21  37  54  74 104 143 184 225 266 313
#     4  10  21  38  59  83 110 140 172 212 262 317
#
# _framework density 17.267823
#
# number of rings (size 3 to 8) (size 9 to 14) (size 15 to 20)
#    0.000    1.750    0.000    5.625    0.000   10.500 
#    0.000    0.000    0.000    0.750    0.000    0.000 
#    0.000    0.000    0.000    0.000    0.000    0.000 
#
# Total GULP energy -178817.294142 kJ/mol
# GULP energy per Si atom -5588.040442 kJ/mol
# Density = 1.722852 g / cm^3
# Si number density = 17.267823 Si / 1000 Ang^3
#
#
#
# Elastic Constant Matrix: (Units=GPa)
#
#
# Indices 1 2 3 4 5 6 
#
# 1 79.5318 55.6086 67.1459 0.0000 0.0000 0.0000
# 2 55.6086 90.5460 94.6635 0.0000 0.0000 0.0000
# 3 67.1459 94.6635 137.8979 0.0000 0.0000 0.0000
# 4 0.0000 0.0000 0.0000 30.6829 0.0000 0.0000
# 5 0.0000 0.0000 0.0000 0.0000 29.8534 0.0000
# 6 0.0000 0.0000 0.0000 0.0000 0.0000 31.6153
#
#
#
# Elastic Compliance Matrix: (Units=1/GPa)
#
#
# Indices 1 2 3 4 5 6 
#
# 1 0.023097 -0.008597 -0.005345 0.000000 0.000000 0.000000
# 2 -0.008597 0.042321 -0.024866 0.000000 0.000000 0.000000
# 3 -0.005345 -0.024866 0.026924 0.000000 0.000000 0.000000
# 4 0.000000 0.000000 0.000000 0.032591 0.000000 0.000000
# 5 0.000000 0.000000 0.000000 0.000000 0.033497 0.000000
# 6 0.000000 0.000000 0.000000 0.000000 0.000000 0.031630
#
#
# Mechanical properties :
#
#
# Convention : Reuss Voigt Hill
#
# Bulk Modulus (GPa) = 67.90654 82.53461 75.22058
# Shear Modulus (GPa) = 18.34285 24.46751 21.40518
#
# Velocity S-wave (km/s) = 3.26276 3.76831 3.52461
# Velocity P-wave (km/s) = 7.32154 8.17521 7.76013
#
# Compressibility (1/GPa) = 0.01472612
#
# Stress axis : x y z
#
# Youngs Moduli (GPa) = 43.29524 23.62901 37.14130
#
# Poissons Ratio (x) = 0.20314 0.19851
# Poissons Ratio (y) = 0.37222 0.92356
# Poissons Ratio (z) = 0.23141 0.58756
#
# Static dielectric constant tensor:
#      x y z
#    x 1.572810 0.000000 0.000000 
#    y 0.000000 1.558870 0.000000 
#    z 0.000000 0.000000 1.587210 
# 
# From -- ./inp_files/9764.got.cif
#   From: 2010.05.17/outbox.cif.g08.bks.cpg/sg46_5_cif.got.tgz:9764.got - 2010.06.03 19:58:25.
