data_PCOD9379104
_publ_section_title
;
Structure prediction by ZEFSAII (Michael W. Deem and Ramdas Pophale) SiO2 
 PCOD9379104
Probable space group: I M A 2
;
_chemical_formula_sum "Si O2"
_cell_formula_units_Z 52
_cell_length_a 14.585490
_cell_length_b 17.898896
_cell_length_c 8.557704
_cell_angle_alpha 90.000000
_cell_angle_beta 90.000000
_cell_angle_gamma 90.000000
_cell_volume 2234.109880
_symmetry_space_group_name_H-M "I M A 2"
_symmetry_group_IT_number 46
_symmetry_cell_setting 'orthorhombic'
loop_
_space_group_symop_operation_xyz
x,y,z
-x,-y,z
1/2-x,y,z
1/2+x,-y,z
1/2+x,1/2+y,1/2+z
1/2-x,1/2-y,1/2+z
-x,1/2+y,1/2+z
x,1/2-y,1/2+z
loop_
_atom_site_type_symbol
_atom_site_label
_atom_site_fract_x
_atom_site_fract_y
_atom_site_fract_z
Si Si1 0.111695 0.495274 0.179140
Si Si2 0.102053 0.184562 0.165276
Si Si3 0.387067 0.649927 0.034324
Si Si4 0.605579 0.975139 0.034583
Si Si5 0.882615 0.299231 0.691138
Si Si6 0.890084 0.841569 0.519624
Si Si7 0.250000 0.582687 0.613285
O O1 0.142812 0.568325 0.086818
O O2 0.138317 0.497578 0.360815
O O3 0.141223 0.417510 0.102012
O O4 0.000000 0.500000 0.178920
O O5 0.118209 0.113319 0.055596
O O6 0.135740 0.165353 0.338609
O O7 0.136414 0.264396 0.104433
O O8 0.991463 0.192189 0.174401
O O9 0.359781 0.713809 0.156077
O O10 0.498332 0.652716 0.025867
O O11 0.354172 0.673160 0.862794
O O12 0.500000 0.000000 0.054995
O O13 0.669458 0.020704 0.150355
O O14 0.829898 0.354324 0.576746
#
# Coordination Sequence:
#
# PCOD9379104 Si02
#       7
#     8   8   8   8   8   8   4
#     4   9  19  35  60  95 128 168 218 261 312 379
#     4  10  19  36  64  93 127 169 211 268 327 377
#     4   9  20  36  59  90 134 171 207 260 314 382
#     4  11  23  40  66  89 130 173 216 268 327 380
#     4  10  22  38  60  90 131 170 214 255 322 391
#     4   9  18  32  62  97 124 161 222 262 315 388
#     4  12  26  40  62  98 126 168 226 260 314 406
#
# _framework density 23.275489
#
# number of rings (size 3 to 8) (size 9 to 14) (size 15 to 20)
#    0.000    2.154    1.538    0.923    4.308    4.923 
#    0.000    0.769    0.000    3.692    0.000    0.000 
#    0.000    0.000    0.000    0.000    0.000    0.000 
#
# Total GULP energy -144890.320944 kJ/mol
# GULP energy per Si atom -5572.704652 kJ/mol
# Density = 2.322251 g / cm^3
# Si number density = 23.275489 Si / 1000 Ang^3
#
#
#
# Elastic Constant Matrix: (Units=GPa)
#
#
# Indices 1 2 3 4 5 6 
#
# 1 102.9385 6.7699 -2.3594 0.0000 0.0000 0.0000
# 2 6.7699 208.7591 50.8121 0.0000 0.0000 0.0000
# 3 -2.3594 50.8121 91.7429 0.0000 0.0000 0.0000
# 4 0.0000 0.0000 0.0000 40.6958 0.0000 0.0000
# 5 0.0000 0.0000 0.0000 0.0000 0.2584 0.0000
# 6 0.0000 0.0000 0.0000 0.0000 0.0000 -15.4534
#
#
#
# Elastic Compliance Matrix: (Units=1/GPa)
#
#
# Indices 1 2 3 4 5 6 
#
# 1 0.009755 -0.000436 0.000492 0.000000 0.000000 0.000000
# 2 -0.000436 0.005556 -0.003088 0.000000 0.000000 0.000000
# 3 0.000492 -0.003088 0.012623 0.000000 0.000000 0.000000
# 4 0.000000 0.000000 0.000000 0.024573 0.000000 0.000000
# 5 0.000000 0.000000 0.000000 0.000000 3.870384 0.000000
# 6 0.000000 0.000000 0.000000 0.000000 0.000000 -0.064711
#
#
# Mechanical properties :
#
#
# Convention : Reuss Voigt Hill
#
# Bulk Modulus (GPa) = 45.72593 57.09840 51.41216
# Shear Modulus (GPa) = 1.29148 28.31466 14.80307
#
# Velocity S-wave (km/s) = 0.74570 3.49162 2.52463
# Velocity P-wave (km/s) = 4.51991 6.39062 5.53487
#
# Compressibility (1/GPa) = 0.02186943
#
# Stress axis : x y z
#
# Youngs Moduli (GPa) = 102.51662 179.98249 79.21880
#
# Poissons Ratio (x) = 0.07851 -0.03901
# Poissons Ratio (y) = 0.04472 0.24467
# Poissons Ratio (z) = -0.05048 0.55587
#
# Static dielectric constant tensor:
#      x y z
#    x 1.789950 0.000000 0.000000 
#    y 0.000000 1.864630 0.000000 
#    z 0.000000 0.000000 1.904950 
# 
# From -- ./inp_files/6764.got.cif
#   From: 2010.05.17/outbox.cif.g08.bks.cpg/sg46_4_cif.got.tgz:6764.got - 2010.06.03 19:58:25.
