data_PCOD9379613
_publ_section_title
;
Structure prediction by ZEFSAII (Michael W. Deem and Ramdas Pophale) SiO2 
 PCOD9379613
Probable space group: I M A 2
;
_chemical_formula_sum "Si O2"
_cell_formula_units_Z 64
_cell_length_a 19.452474
_cell_length_b 5.443038
_cell_length_c 25.716615
_cell_angle_alpha 90.000000
_cell_angle_beta 90.000000
_cell_angle_gamma 90.000000
_cell_volume 2722.889473
_symmetry_space_group_name_H-M "I M A 2"
_symmetry_group_IT_number 46
_symmetry_cell_setting 'orthorhombic'
loop_
_space_group_symop_operation_xyz
x,y,z
-x,-y,z
1/2-x,y,z
1/2+x,-y,z
1/2+x,1/2+y,1/2+z
1/2-x,1/2-y,1/2+z
-x,1/2+y,1/2+z
x,1/2-y,1/2+z
loop_
_atom_site_type_symbol
_atom_site_label
_atom_site_fract_x
_atom_site_fract_y
_atom_site_fract_z
Si Si1 0.173664 0.585436 0.759170
Si Si2 0.426822 0.597988 0.311628
Si Si3 0.329070 0.178574 0.969517
Si Si4 0.166802 0.754106 0.109308
Si Si5 0.924825 0.019149 0.525796
Si Si6 0.934981 0.314249 0.423268
Si Si7 0.667579 0.756432 0.667779
Si Si8 0.823902 0.709952 0.859697
O O1 0.250000 0.668103 0.740154
O O2 0.115328 0.787478 0.764218
O O3 0.152026 0.349191 0.725299
O O4 0.180960 0.507561 0.818837
O O5 0.500000 0.500000 0.294326
O O6 0.437246 0.770181 0.363207
O O7 0.384068 0.379125 0.338217
O O8 0.250000 0.142175 0.986318
O O9 0.328810 0.365312 0.919807
O O10 0.364749 0.952213 0.940244
O O11 0.378939 0.277581 0.014388
O O12 0.250000 0.746342 0.102006
O O13 0.125516 0.699221 0.056952
O O14 0.145640 0.523027 0.146768
O O15 0.148311 0.020743 0.132262
O O16 0.941478 0.123413 0.469124
O O17 0.000000 0.000000 0.552162
O O18 0.000000 0.500000 0.427694
O O19 0.750000 0.771676 0.666185
O O20 0.750000 0.847538 0.855574
#
# Coordination Sequence:
#
# PCOD9379613 Si02
#       8
#     8   8   8   8   8   8   8   8
#     4  10  20  36  63  90 118 163 214 263 318 386
#     4  10  21  35  56  88 130 167 207 252 316 384
#     4  10  21  37  58  91 128 161 206 261 310 372
#     4  10  23  43  66  96 125 162 216 278 334 387
#     4  12  24  38  64  88 122 168 214 259 328 397
#     4  10  21  39  58  88 126 173 212 258 319 394
#     4   9  21  41  68  95 124 160 212 276 334 386
#     4   9  19  35  58  88 123 160 204 256 305 365
#
# _framework density 23.504445
#
# number of rings (size 3 to 8) (size 9 to 14) (size 15 to 20)
#    0.000    2.000    1.250    1.500    3.500    2.000 
#    0.000    0.625    2.750    0.000    0.000    0.000 
#    0.000    0.000    0.000    0.000    0.000    0.000 
#
# Total GULP energy -178531.671938 kJ/mol
# GULP energy per Si atom -5579.114748 kJ/mol
# Density = 2.345095 g / cm^3
# Si number density = 23.504445 Si / 1000 Ang^3
#
#
#
# Elastic Constant Matrix: (Units=GPa)
#
#
# Indices 1 2 3 4 5 6 
#
# 1 131.8242 24.9728 23.5345 0.0000 0.0000 0.0000
# 2 24.9728 57.3164 24.4180 0.0000 0.0000 0.0000
# 3 23.5345 24.4180 71.0370 0.0000 0.0000 0.0000
# 4 0.0000 0.0000 0.0000 35.0266 0.0000 0.0000
# 5 0.0000 0.0000 0.0000 0.0000 9.2445 0.0000
# 6 0.0000 0.0000 0.0000 0.0000 0.0000 22.9319
#
#
#
# Elastic Compliance Matrix: (Units=1/GPa)
#
#
# Indices 1 2 3 4 5 6 
#
# 1 0.008460 -0.002920 -0.001799 0.000000 0.000000 0.000000
# 2 -0.002920 0.021448 -0.006405 0.000000 0.000000 0.000000
# 3 -0.001799 -0.006405 0.016875 0.000000 0.000000 0.000000
# 4 0.000000 0.000000 0.000000 0.028550 0.000000 0.000000
# 5 0.000000 0.000000 0.000000 0.000000 0.108173 0.000000
# 6 0.000000 0.000000 0.000000 0.000000 0.000000 0.043607
#
#
# Mechanical properties :
#
#
# Convention : Reuss Voigt Hill
#
# Bulk Modulus (GPa) = 40.75822 45.11425 42.93624
# Shear Modulus (GPa) = 19.41453 25.92409 22.66931
#
# Velocity S-wave (km/s) = 2.87713 3.32466 3.10896
# Velocity P-wave (km/s) = 5.33061 5.82867 5.58520
#
# Compressibility (1/GPa) = 0.02453493
#
# Stress axis : x y z
#
# Youngs Moduli (GPa) = 118.20087 46.62486 59.25947
#
# Poissons Ratio (x) = 0.13612 0.10662
# Poissons Ratio (y) = 0.34510 0.37956
# Poissons Ratio (z) = 0.21268 0.29864
#
# Static dielectric constant tensor:
#      x y z
#    x 1.961190 0.000000 0.000000 
#    y 0.000000 1.971590 0.000000 
#    z 0.000000 0.000000 1.953060 
# 
# From -- ./inp_files/24723.got.cif
#   From: 2010.05.17/outbox.cif.g08.bks.cpg/sg46_13_cif.got.tgz:24723.got - 2010.06.03 19:58:25.
