data_PCOD9379182
_publ_section_title
;
Structure prediction by ZEFSAII (Michael W. Deem and Ramdas Pophale) SiO2 
 PCOD9379182
Probable space group: I M A 2
;
_chemical_formula_sum "Si O2"
_cell_formula_units_Z 48
_cell_length_a 9.617789
_cell_length_b 17.631108
_cell_length_c 13.813546
_cell_angle_alpha 90.000000
_cell_angle_beta 90.000000
_cell_angle_gamma 90.000000
_cell_volume 2342.394443
_symmetry_space_group_name_H-M "I M A 2"
_symmetry_group_IT_number 46
_symmetry_cell_setting 'orthorhombic'
loop_
_space_group_symop_operation_xyz
x,y,z
-x,-y,z
1/2-x,y,z
1/2+x,-y,z
1/2+x,1/2+y,1/2+z
1/2-x,1/2-y,1/2+z
-x,1/2+y,1/2+z
x,1/2-y,1/2+z
loop_
_atom_site_type_symbol
_atom_site_label
_atom_site_fract_x
_atom_site_fract_y
_atom_site_fract_z
Si Si1 0.592728 0.760722 0.684470
Si Si2 0.413038 0.115127 0.407264
Si Si3 0.096271 0.287434 0.459869
Si Si4 0.084553 0.072047 0.627774
Si Si5 0.587307 0.121071 0.228278
Si Si6 0.914621 0.074393 0.004684
O O1 0.750000 0.746940 0.723909
O O2 0.602830 0.737283 0.571980
O O3 0.560344 0.849875 0.685924
O O4 0.471789 0.706599 0.721152
O O5 0.250000 0.097879 0.393878
O O6 0.428347 0.206835 0.409773
O O7 0.454195 0.086762 0.514424
O O8 0.501870 0.086062 0.317233
O O9 0.250000 0.317221 0.433194
O O10 0.980827 0.352001 0.452929
O O11 0.250000 0.058463 0.629865
O O12 0.000000 0.000000 0.663832
O O13 0.750000 0.118986 0.248981
O O14 0.564799 0.085832 0.121407
O O15 0.750000 0.067758 0.987532
O O16 0.000000 0.000000 0.975938
#
# Coordination Sequence:
#
# PCOD9379182 Si02
#       6
#     8   8   8   8   8   8
#     4   8  15  30  49  66  88 121 158 192 229 276
#     4   9  18  32  49  69  95 127 157 186 229 282
#     4   8  15  30  50  68  87 117 158 196 229 272
#     4   9  18  31  48  71  96 124 157 190 229 276
#     4  10  20  31  46  71  97 122 156 195 232 270
#     4  10  20  32  47  69  96 125 156 191 232 276
#
# _framework density 20.491851
#
# number of rings (size 3 to 8) (size 9 to 14) (size 15 to 20)
#    0.000    3.000    0.000    3.000    0.000    4.667 
#    0.000    6.667    0.000    1.000    0.000    4.667 
#    0.000    0.000    0.000    0.000    0.000    0.000 
#
# Total GULP energy -133841.296115 kJ/mol
# GULP energy per Si atom -5576.720671 kJ/mol
# Density = 2.044521 g / cm^3
# Si number density = 20.491851 Si / 1000 Ang^3
#
#
#
# Elastic Constant Matrix: (Units=GPa)
#
#
# Indices 1 2 3 4 5 6 
#
# 1 72.6723 55.8337 6.5133 0.0000 0.0000 0.0000
# 2 55.8337 116.9902 -18.6305 0.0000 0.0000 0.0000
# 3 6.5133 -18.6305 28.7223 0.0001 0.0000 0.0000
# 4 0.0000 0.0000 0.0001 0.9051 0.0000 0.0000
# 5 0.0000 0.0000 0.0000 0.0000 9.6044 0.0000
# 6 0.0000 0.0000 0.0000 0.0000 0.0000 24.6960
#
#
#
# Elastic Compliance Matrix: (Units=1/GPa)
#
#
# Indices 1 2 3 4 5 6 
#
# 1 0.027165 -0.015552 -0.016248 0.000002 0.000000 0.000000
# 2 -0.015552 0.018436 0.015485 -0.000002 0.000000 0.000000
# 3 -0.016248 0.015485 0.048545 -0.000006 0.000000 0.000000
# 4 0.000002 -0.000002 -0.000006 1.104823 0.000001 0.000000
# 5 0.000000 0.000000 0.000000 0.000001 0.104119 0.000000
# 6 0.000000 0.000000 0.000000 0.000000 0.000000 0.040492
#
#
# Mechanical properties :
#
#
# Convention : Reuss Voigt Hill
#
# Bulk Modulus (GPa) = 16.25590 33.97976 25.11783
# Shear Modulus (GPa) = 3.57983 18.68566 11.13274
#
# Velocity S-wave (km/s) = 1.32316 3.02297 2.33336
# Velocity P-wave (km/s) = 3.20693 5.36680 4.42080
#
# Compressibility (1/GPa) = 0.06151611
#
# Stress axis : x y z
#
# Youngs Moduli (GPa) = 36.81179 54.24187 20.59947
#
# Poissons Ratio (x) = 0.84357 0.33470
# Poissons Ratio (y) = 0.57250 -0.31898
# Poissons Ratio (z) = 0.59812 -0.83994
#
# Static dielectric constant tensor:
#      x y z
#    x 1.685820 0.000000 0.000000 
#    y 0.000000 1.724420 0.000000 
#    z 0.000000 0.000000 1.804200 
# 
# From -- ./inp_files/13890.got.cif
#   From: 2010.05.17/outbox.cif.g08.bks.cpg/sg46_7_cif.got.tgz:13890.got - 2010.06.03 19:58:25.
