data_PCOD9379516
_publ_section_title
;
Structure prediction by ZEFSAII (Michael W. Deem and Ramdas Pophale) SiO2 
 PCOD9379516
Probable space group: I M A 2
;
_chemical_formula_sum "Si O2"
_cell_formula_units_Z 48
_cell_length_a 8.469021
_cell_length_b 31.329206
_cell_length_c 10.205046
_cell_angle_alpha 90.000000
_cell_angle_beta 90.000000
_cell_angle_gamma 90.000000
_cell_volume 2707.681420
_symmetry_space_group_name_H-M "I M A 2"
_symmetry_group_IT_number 46
_symmetry_cell_setting 'orthorhombic'
loop_
_space_group_symop_operation_xyz
x,y,z
-x,-y,z
1/2-x,y,z
1/2+x,-y,z
1/2+x,1/2+y,1/2+z
1/2-x,1/2-y,1/2+z
-x,1/2+y,1/2+z
x,1/2-y,1/2+z
loop_
_atom_site_type_symbol
_atom_site_label
_atom_site_fract_x
_atom_site_fract_y
_atom_site_fract_z
Si Si1 0.941308 0.287505 0.482610
Si Si2 0.440693 0.952922 0.488758
Si Si3 0.439397 0.952791 0.790147
Si Si4 0.941173 0.118248 0.283177
Si Si5 0.557841 0.215007 0.282977
Si Si6 0.937700 0.618014 0.489714
O O1 0.750000 0.288704 0.479590
O O2 0.997185 0.251425 0.381975
O O3 0.988985 0.277210 0.632248
O O4 0.001399 0.334853 0.451394
O O5 0.250000 0.953274 0.486835
O O6 0.490247 0.944495 0.639232
O O7 0.495575 0.916689 0.388048
O O8 0.500000 0.000000 0.451974
O O9 0.250000 0.952656 0.793927
O O10 0.500000 0.000000 0.825617
O O11 0.502775 0.917261 0.888258
O O12 0.750000 0.117865 0.281452
O O13 0.991243 0.166687 0.317791
O O14 0.998456 0.109079 0.136153
O O15 0.750000 0.215598 0.286563
O O16 0.750000 0.618172 0.493040
#
# Coordination Sequence:
#
# PCOD9379516 Si02
#       6
#     8   8   8   8   8   8
#     4   9  17  32  52  74  99 130 168 215 261 306
#     4   9  19  34  55  79 104 132 166 208 257 307
#     4  10  20  36  56  79 105 135 170 213 259 307
#     4   9  18  35  55  77 103 134 172 216 259 305
#     4   8  15  28  50  74  96 125 166 209 252 299
#     4  11  22  35  51  75 106 142 177 211 252 304
#
# _framework density 17.727343999999999
#
# number of rings (size 3 to 8) (size 9 to 14) (size 15 to 20)
#    0.000    2.667    0.000    3.000    0.000    3.333 
#    0.000   10.000    0.000    0.000    0.000    0.000 
#    0.000    0.000    0.000    0.000    0.000    0.000 
#
# Total GULP energy -133854.806162 kJ/mol
# GULP energy per Si atom -5577.283590 kJ/mol
# Density = 1.768700 g / cm^3
# Si number density = 17.727344 Si / 1000 Ang^3
#
#
#
# Elastic Constant Matrix: (Units=GPa)
#
#
# Indices 1 2 3 4 5 6 
#
# 1 26.7671 30.6212 25.2262 0.0000 -0.0001 0.0000
# 2 30.6212 191.0230 144.6987 0.0003 -0.0001 0.0000
# 3 25.2262 144.6987 128.5976 0.0003 -0.0002 0.0000
# 4 0.0000 0.0003 0.0003 45.4360 0.0000 0.0000
# 5 -0.0001 -0.0001 -0.0002 0.0000 2.5521 0.0001
# 6 0.0000 0.0000 0.0000 0.0000 0.0001 25.7979
#
#
#
# Elastic Compliance Matrix: (Units=1/GPa)
#
#
# Indices 1 2 3 4 5 6 
#
# 1 0.046208 -0.003664 -0.004942 0.000000 0.000001 0.000000
# 2 -0.003664 0.035742 -0.039499 0.000000 -0.000003 0.000000
# 3 -0.004942 -0.039499 0.053190 0.000000 0.000003 0.000000
# 4 0.000000 0.000000 0.000000 0.022009 0.000000 0.000000
# 5 0.000001 -0.000003 0.000003 0.000000 0.391841 -0.000001
# 6 0.000000 0.000000 0.000000 0.000000 -0.000001 0.038763
#
#
# Mechanical properties :
#
#
# Convention : Reuss Voigt Hill
#
# Bulk Modulus (GPa) = 25.68620 83.05331 54.36975
# Shear Modulus (GPa) = 7.17423 24.47997 15.82710
#
# Velocity S-wave (km/s) = 2.01389 3.72010 2.99123
# Velocity P-wave (km/s) = 4.46416 8.08729 6.53196
#
# Compressibility (1/GPa) = 0.03893141
#
# Stress axis : x y z
#
# Youngs Moduli (GPa) = 21.64125 27.97808 18.80062
#
# Poissons Ratio (x) = 0.10250 0.09291
# Poissons Ratio (y) = 0.07929 0.74260
# Poissons Ratio (z) = 0.10695 1.10510
#
# Static dielectric constant tensor:
#      x y z
#    x 1.611190 0.000000 0.000000 
#    y 0.000000 1.584020 0.000000 
#    z 0.000000 0.000000 1.593930 
# 
# From -- ./inp_files/3914.got.cif
#   From: 2010.05.17/outbox.cif.g08.bks.cpg/sg46_2_cif.got.tgz:3914.got - 2010.06.03 19:58:25.
