data_PCOD9379059
_publ_section_title
;
Structure prediction by ZEFSAII (Michael W. Deem and Ramdas Pophale) SiO2 
 PCOD9379059
Probable space group: I M A 2
;
_chemical_formula_sum "Si O2"
_cell_formula_units_Z 36
_cell_length_a 13.606954
_cell_length_b 16.450618
_cell_length_c 9.042226
_cell_angle_alpha 90.000000
_cell_angle_beta 90.000000
_cell_angle_gamma 90.000000
_cell_volume 2024.037208
_symmetry_space_group_name_H-M "I M A 2"
_symmetry_group_IT_number 46
_symmetry_cell_setting 'orthorhombic'
loop_
_space_group_symop_operation_xyz
x,y,z
-x,-y,z
1/2-x,y,z
1/2+x,-y,z
1/2+x,1/2+y,1/2+z
1/2-x,1/2-y,1/2+z
-x,1/2+y,1/2+z
x,1/2-y,1/2+z
loop_
_atom_site_type_symbol
_atom_site_label
_atom_site_fract_x
_atom_site_fract_y
_atom_site_fract_z
Si Si1 0.988839 0.362442 0.020800
Si Si2 0.500000 0.000000 0.142323
Si Si3 0.437174 0.256187 0.284887
Si Si4 0.859847 0.635603 0.541423
Si Si5 0.135555 0.996829 0.418135
O O1 0.007820 0.315721 0.172084
O O2 0.991471 0.296812 0.888948
O O3 0.078431 0.424834 0.983031
O O4 0.893704 0.419390 0.017050
O O5 0.551260 0.929209 0.048709
O O6 0.413176 0.977067 0.258282
O O7 0.372067 0.308933 0.396790
O O8 0.375801 0.193718 0.183577
O O9 0.750000 0.599949 0.545879
O O10 0.250000 0.011558 0.408275
#
# Coordination Sequence:
#
# PCOD9379059 Si02
#       5
#     8   4   8   8   8
#     4   9  20  36  57  80 107 143 173 229 265 314
#     4  10  20  34  52  82 110 144 176 222 266 316
#     4  10  20  36  55  81 113 134 175 224 275 310
#     4  11  21  35  57  83 109 141 178 220 272 319
#     4  10  19  36  57  78 106 147 185 212 265 327
#
# _framework density 17.786235000000001
#
# number of rings (size 3 to 8) (size 9 to 14) (size 15 to 20)
#    0.000    2.222    4.444    1.333    0.000    6.222 
#    0.000    1.111    0.000    1.333    0.000    0.000 
#    0.000    0.000    0.000    0.000    0.000    0.000 
#
# Total GULP energy -100306.831122 kJ/mol
# GULP energy per Si atom -5572.601729 kJ/mol
# Density = 1.774575 g / cm^3
# Si number density = 17.786235 Si / 1000 Ang^3
#
#
#
# Elastic Constant Matrix: (Units=GPa)
#
#
# Indices 1 2 3 4 5 6 
#
# 1 71.5145 35.3649 10.6685 0.0000 0.0000 0.0000
# 2 35.3649 96.7521 39.9388 0.0000 0.0000 0.0000
# 3 10.6685 39.9388 90.6020 0.0000 0.0000 0.0000
# 4 0.0000 0.0000 0.0000 19.4665 0.0000 0.0000
# 5 0.0000 0.0000 0.0000 0.0000 8.3152 0.0000
# 6 0.0000 0.0000 0.0000 0.0000 0.0000 14.2668
#
#
#
# Elastic Compliance Matrix: (Units=1/GPa)
#
#
# Indices 1 2 3 4 5 6 
#
# 1 0.017129 -0.006636 0.000908 0.000000 0.000000 0.000000
# 2 -0.006636 0.015206 -0.005922 0.000000 0.000000 0.000000
# 3 0.000908 -0.005922 0.013541 0.000000 0.000000 0.000000
# 4 0.000000 0.000000 0.000000 0.051370 0.000000 0.000000
# 5 0.000000 0.000000 0.000000 0.000000 0.120262 0.000000
# 6 0.000000 0.000000 0.000000 0.000000 0.000000 0.070093
#
#
# Mechanical properties :
#
#
# Convention : Reuss Voigt Hill
#
# Bulk Modulus (GPa) = 44.29274 47.86811 46.08042
# Shear Modulus (GPa) = 15.70229 19.93612 17.81920
#
# Velocity S-wave (km/s) = 2.97448 3.35158 3.16864
# Velocity P-wave (km/s) = 6.06247 6.47679 6.27305
#
# Compressibility (1/GPa) = 0.02257706
#
# Stress axis : x y z
#
# Youngs Moduli (GPa) = 58.37951 65.76487 73.85182
#
# Poissons Ratio (x) = 0.43642 -0.06708
# Poissons Ratio (y) = 0.38741 0.43731
# Poissons Ratio (z) = -0.05303 0.38943
#
# Static dielectric constant tensor:
#      x y z
#    x 1.599750 0.000000 0.000000 
#    y 0.000000 1.640770 0.000000 
#    z 0.000000 0.000000 1.621510 
# 
# From -- ./inp_files/5510.got.cif
#   From: 2010.05.17/outbox.cif.g08.bks.cpg/sg46_3_cif.got.tgz:5510.got - 2010.06.03 19:58:25.
