data_PCOD9379469
_publ_section_title
;
Structure prediction by ZEFSAII (Michael W. Deem and Ramdas Pophale) SiO2 
 PCOD9379469
Probable space group: I M A 2
;
_chemical_formula_sum "Si O2"
_cell_formula_units_Z 48
_cell_length_a 11.809075
_cell_length_b 25.118079
_cell_length_c 7.771377
_cell_angle_alpha 90.000000
_cell_angle_beta 90.000000
_cell_angle_gamma 90.000000
_cell_volume 2305.155784
_symmetry_space_group_name_H-M "I M A 2"
_symmetry_group_IT_number 46
_symmetry_cell_setting 'orthorhombic'
loop_
_space_group_symop_operation_xyz
x,y,z
-x,-y,z
1/2-x,y,z
1/2+x,-y,z
1/2+x,1/2+y,1/2+z
1/2-x,1/2-y,1/2+z
-x,1/2+y,1/2+z
x,1/2-y,1/2+z
loop_
_atom_site_type_symbol
_atom_site_label
_atom_site_fract_x
_atom_site_fract_y
_atom_site_fract_z
Si Si1 0.385356 0.534789 0.770220
Si Si2 0.560754 0.380318 0.476595
Si Si3 0.059387 0.897905 0.596514
Si Si4 0.380634 0.184660 0.504465
Si Si5 0.880746 0.801840 0.095600
Si Si6 0.750000 0.181878 0.478145
Si Si7 0.250000 0.696938 0.569566
O O1 0.500000 0.500000 0.733063
O O2 0.250000 0.516782 0.758236
O O3 0.400437 0.582965 0.634501
O O4 0.407434 0.556128 0.963648
O O5 0.569629 0.411107 0.297045
O O6 0.441381 0.351043 0.503315
O O7 0.643931 0.330035 0.478438
O O8 0.143475 0.850198 0.547103
O O9 0.939650 0.869297 0.565301
O O10 0.250000 0.183676 0.559279
O O11 0.387493 0.186667 0.298148
O O12 0.428910 0.242041 0.566464
O O13 0.750000 0.799587 0.039866
O O14 0.750000 0.240844 0.547489
O O15 0.750000 0.183135 0.271501
#
# Coordination Sequence:
#
# PCOD9379469 Si02
#       7
#     8   8   8   8   8   4   4
#     4  12  28  52  76 102 136 182 244 312 372 424
#     4  12  23  42  68  97 136 177 226 292 351 430
#     4  12  23  42  68  97 136 177 226 292 351 430
#     4  10  20  35  57  92 140 188 231 280 341 423
#     4  10  20  35  57  92 140 188 231 280 341 423
#     4  12  22  38  64 103 145 184 221 271 346 432
#     4  12  22  38  64 103 145 184 221 271 346 432
#
# _framework density 20.822887000000001
#
# number of rings (size 3 to 8) (size 9 to 14) (size 15 to 20)
#    0.000    0.667    5.000    3.500    0.000    4.000 
#    0.000    0.000    0.000    0.000    0.000    0.000 
#    0.000    0.000    0.000    0.000    0.000    0.000 
#
# Total GULP energy -133978.381816 kJ/mol
# GULP energy per Si atom -5582.432576 kJ/mol
# Density = 2.077549 g / cm^3
# Si number density = 20.822887 Si / 1000 Ang^3
#
#
#
# Elastic Constant Matrix: (Units=GPa)
#
#
# Indices 1 2 3 4 5 6 
#
# 1 97.9006 24.7465 -1.0464 -0.0004 0.0000 -0.0001
# 2 24.7465 34.5556 -19.8844 -0.0030 0.0002 -0.0002
# 3 -1.0464 -19.8844 61.8510 -0.0033 0.0008 -0.0007
# 4 -0.0004 -0.0030 -0.0033 24.3376 0.0007 0.0003
# 5 0.0000 0.0002 0.0008 0.0007 31.2723 0.0002
# 6 -0.0001 -0.0002 -0.0007 0.0003 0.0002 37.1010
#
#
#
# Elastic Compliance Matrix: (Units=1/GPa)
#
#
# Indices 1 2 3 4 5 6 
#
# 1 0.013033 -0.011297 -0.003411 -0.000002 0.000000 0.000000
# 2 -0.011297 0.045299 0.014372 0.000007 -0.000001 0.000000
# 3 -0.003411 0.014372 0.020731 0.000005 -0.000001 0.000000
# 4 -0.000002 0.000007 0.000005 0.041089 -0.000001 0.000000
# 5 0.000000 -0.000001 -0.000001 -0.000001 0.031977 0.000000
# 6 0.000000 0.000000 0.000000 0.000000 0.000000 0.026953
#
#
# Mechanical properties :
#
#
# Convention : Reuss Voigt Hill
#
# Bulk Modulus (GPa) = 12.75658 22.43763 17.59710
# Shear Modulus (GPa) = 24.28546 31.24161 27.76353
#
# Velocity S-wave (km/s) = 3.41880 3.87764 3.65542
# Velocity P-wave (km/s) = 4.66088 5.55400 5.12693
#
# Compressibility (1/GPa) = 0.07839094
#
# Stress axis : x y z
#
# Youngs Moduli (GPa) = 76.72557 22.07559 48.23797
#
# Poissons Ratio (x) = 0.24938 0.16455
# Poissons Ratio (y) = 0.86674 -0.69327
# Poissons Ratio (z) = 0.26173 -0.31727
#
# Static dielectric constant tensor:
#      x y z
#    x 1.804040 0.000000 0.000000 
#    y 0.000000 1.723070 0.000000 
#    z 0.000000 0.000000 1.748370 
# 
# From -- ./inp_files/4748.got.cif
#   From: 2010.05.17/outbox.cif.g08.bks.cpg/sg46_3_cif.got.tgz:4748.got - 2010.06.03 19:58:25.
