data_PCOD9379310
_publ_section_title
;
Structure prediction by ZEFSAII (Michael W. Deem and Ramdas Pophale) SiO2 
 PCOD9379310
Probable space group: I M A 2
;
_chemical_formula_sum "Si O2"
_cell_formula_units_Z 40
_cell_length_a 8.934284
_cell_length_b 26.204153
_cell_length_c 9.838315
_cell_angle_alpha 90.000000
_cell_angle_beta 90.000000
_cell_angle_gamma 90.000000
_cell_volume 2303.300509
_symmetry_space_group_name_H-M "I M A 2"
_symmetry_group_IT_number 46
_symmetry_cell_setting 'orthorhombic'
loop_
_space_group_symop_operation_xyz
x,y,z
-x,-y,z
1/2-x,y,z
1/2+x,-y,z
1/2+x,1/2+y,1/2+z
1/2-x,1/2-y,1/2+z
-x,1/2+y,1/2+z
x,1/2-y,1/2+z
loop_
_atom_site_type_symbol
_atom_site_label
_atom_site_fract_x
_atom_site_fract_y
_atom_site_fract_z
Si Si1 0.429359 0.444327 0.377940
Si Si2 0.427955 0.830090 0.375576
Si Si3 0.427849 0.137506 0.647791
Si Si4 0.928798 0.718583 0.379623
Si Si5 0.071028 0.863639 0.075579
O O1 0.500000 0.500000 0.370669
O O2 0.250000 0.446949 0.390400
O O3 0.463685 0.410708 0.243502
O O4 0.496204 0.412043 0.503031
O O5 0.250000 0.821989 0.381553
O O6 0.483119 0.859718 0.508490
O O7 0.508886 0.775347 0.374029
O O8 0.462434 0.858925 0.235040
O O9 0.250000 0.137174 0.620201
O O10 0.459657 0.187460 0.740423
O O11 0.750000 0.718652 0.400317
O O12 0.005774 0.686026 0.498945
O O13 0.250000 0.865368 0.057050
#
# Coordination Sequence:
#
# PCOD9379310 Si02
#       5
#     8   8   8   8   8
#     4  10  21  39  62  83 102 132 174 218 267 319
#     4  11  22  33  50  79 112 144 177 216 262 309
#     4   9  20  36  54  78 106 139 178 216 259 313
#     4  10  20  34  53  77 107 146 185 217 257 311
#     4  10  21  36  54  79 109 141 179 219 260 310
#
# _framework density 17.366382999999999
#
# number of rings (size 3 to 8) (size 9 to 14) (size 15 to 20)
#    0.000    2.000    0.000    4.800    0.000   11.200 
#    0.000    1.000    0.000    2.400    0.000    0.000 
#    0.000    0.000    0.000    0.000    0.000    0.000 
#
# Total GULP energy -111712.356842 kJ/mol
# GULP energy per Si atom -5585.617842 kJ/mol
# Density = 1.732686 g / cm^3
# Si number density = 17.366383 Si / 1000 Ang^3
#
#
#
# Elastic Constant Matrix: (Units=GPa)
#
#
# Indices 1 2 3 4 5 6 
#
# 1 81.0542 62.1433 84.9636 0.0002 -0.0004 0.0007
# 2 62.1433 133.5981 71.9801 0.0000 0.0001 -0.0001
# 3 84.9636 71.9801 154.9664 0.0023 0.0036 0.0046
# 4 0.0002 0.0000 0.0023 2.4837 0.0005 0.0009
# 5 -0.0004 0.0001 0.0036 0.0005 31.9314 0.0012
# 6 0.0007 -0.0001 0.0046 0.0009 0.0012 24.6039
#
#
#
# Elastic Compliance Matrix: (Units=1/GPa)
#
#
# Indices 1 2 3 4 5 6 
#
# 1 0.034088 -0.007718 -0.015104 0.000011 0.000002 0.000002
# 2 -0.007718 0.011731 -0.001217 0.000002 0.000000 0.000001
# 3 -0.015104 -0.001217 0.015300 -0.000013 -0.000002 -0.000002
# 4 0.000011 0.000002 -0.000013 0.402625 -0.000006 -0.000015
# 5 0.000002 0.000000 -0.000002 -0.000006 0.031317 -0.000002
# 6 0.000002 0.000001 -0.000002 -0.000015 -0.000002 0.040644
#
#
# Mechanical properties :
#
#
# Convention : Reuss Voigt Hill
#
# Bulk Modulus (GPa) = 76.69305 89.75476 83.22391
# Shear Modulus (GPa) = 8.50152 21.83922 15.17037
#
# Velocity S-wave (km/s) = 2.21495 3.55005 2.95879
# Velocity P-wave (km/s) = 7.12734 8.28246 7.72652
#
# Compressibility (1/GPa) = 0.01303899
#
# Stress axis : x y z
#
# Youngs Moduli (GPa) = 29.33622 85.24370 65.36044
#
# Poissons Ratio (x) = 0.65791 0.98723
# Poissons Ratio (y) = 0.22642 0.07957
# Poissons Ratio (z) = 0.44310 0.10378
#
# Static dielectric constant tensor:
#      x y z
#    x 1.578040 0.000000 0.000000 
#    y 0.000000 1.557340 0.000000 
#    z 0.000000 0.000000 1.585620 
# 
# From -- ./inp_files/3509.got.cif
#   From: 2010.05.17/outbox.cif.g08.bks.cpg/sg46_2_cif.got.tgz:3509.got - 2010.06.03 19:58:25.
