data_PCOD9379460
_publ_section_title
;
Structure prediction by ZEFSAII (Michael W. Deem and Ramdas Pophale) SiO2 
 PCOD9379460
Probable space group: I M A 2
;
_chemical_formula_sum "Si O2"
_cell_formula_units_Z 64
_cell_length_a 8.611844
_cell_length_b 29.715619
_cell_length_c 12.426793
_cell_angle_alpha 90.000000
_cell_angle_beta 90.000000
_cell_angle_gamma 90.000000
_cell_volume 3180.094309
_symmetry_space_group_name_H-M "I M A 2"
_symmetry_group_IT_number 46
_symmetry_cell_setting 'orthorhombic'
loop_
_space_group_symop_operation_xyz
x,y,z
-x,-y,z
1/2-x,y,z
1/2+x,-y,z
1/2+x,1/2+y,1/2+z
1/2-x,1/2-y,1/2+z
-x,1/2+y,1/2+z
x,1/2-y,1/2+z
loop_
_atom_site_type_symbol
_atom_site_label
_atom_site_fract_x
_atom_site_fract_y
_atom_site_fract_z
Si Si1 0.928181 0.838871 0.868130
Si Si2 0.560937 0.648977 0.746967
Si Si3 0.566983 0.813225 0.477489
Si Si4 0.931953 0.048645 0.197085
Si Si5 0.927624 0.136383 0.658159
Si Si6 0.571948 0.954820 0.730289
Si Si7 0.428690 0.432328 0.474449
Si Si8 0.429477 0.277692 0.569963
O O1 0.750000 0.847992 0.832553
O O2 0.975263 0.881903 0.939455
O O3 0.029050 0.833613 0.762208
O O4 0.927970 0.798367 0.950387
O O5 0.750000 0.646434 0.743231
O O6 0.510953 0.672291 0.859450
O O7 0.501833 0.597226 0.735595
O O8 0.510017 0.683964 0.652030
O O9 0.750000 0.803688 0.464603
O O10 0.537673 0.853862 0.558304
O O11 0.497086 0.770970 0.545160
O O12 0.750000 0.048873 0.219911
O O13 0.000000 0.000000 0.235545
O O14 0.963793 0.049757 0.068280
O O15 0.750000 0.142051 0.627322
O O16 0.964866 0.086541 0.698666
O O17 0.750000 0.947771 0.697115
O O18 0.572341 0.957133 0.860456
O O19 0.500000 0.000000 0.685052
O O20 0.250000 0.431099 0.515557
O O21 0.250000 0.270346 0.606381
#
# Coordination Sequence:
#
# PCOD9379460 Si02
#       8
#     8   8   8   8   8   8   8   8
#     4   9  17  33  59  86 117 154 196 245 291 349
#     4  10  21  41  64  91 126 159 203 260 309 364
#     4  10  22  39  65  92 117 158 207 255 305 361
#     4  12  24  37  58  86 121 165 208 254 308 371
#     4  11  23  38  56  82 122 162 198 245 296 355
#     4  10  20  35  57  85 117 155 201 251 303 361
#     4   9  17  32  54  83 120 156 191 242 297 353
#     4   9  18  35  64  95 119 151 197 248 301 358
#
# _framework density 20.125188999999999
#
# number of rings (size 3 to 8) (size 9 to 14) (size 15 to 20)
#    0.000    2.000    1.250    3.750    1.750    4.000 
#    0.000    1.875    0.000    3.000    0.000    0.000 
#    0.000    0.000    0.000    0.000    0.000    0.000 
#
# Total GULP energy -178286.224072 kJ/mol
# GULP energy per Si atom -5571.444502 kJ/mol
# Density = 2.007938 g / cm^3
# Si number density = 20.125189 Si / 1000 Ang^3
#
#
#
# Elastic Constant Matrix: (Units=GPa)
#
#
# Indices 1 2 3 4 5 6 
#
# 1 32.4609 25.6737 13.1666 0.0000 0.0000 0.0000
# 2 25.6737 100.5314 43.9067 -0.0002 -0.0001 0.0000
# 3 13.1666 43.9067 74.8684 0.0010 0.0005 -0.0002
# 4 0.0000 -0.0002 0.0010 -0.3182 0.0002 -0.0002
# 5 0.0000 -0.0001 0.0005 0.0002 13.4496 0.0000
# 6 0.0000 0.0000 -0.0002 -0.0002 0.0000 16.3539
#
#
#
# Elastic Compliance Matrix: (Units=1/GPa)
#
#
# Indices 1 2 3 4 5 6 
#
# 1 0.038706 -0.009292 -0.001358 0.000003 0.000000 0.000000
# 2 -0.009292 0.015603 -0.007516 -0.000033 0.000000 0.000000
# 3 -0.001358 -0.007516 0.018003 0.000059 -0.000001 0.000000
# 4 0.000003 -0.000033 0.000059 -3.142706 0.000046 -0.000038
# 5 0.000000 0.000000 -0.000001 0.000046 0.074352 0.000000
# 6 0.000000 0.000000 0.000000 -0.000038 0.000000 0.061147
#
#
# Mechanical properties :
#
#
# Convention : Reuss Voigt Hill
#
# Bulk Modulus (GPa) = 27.79266 41.48386 34.63826
# Shear Modulus (GPa) = -1.73216 14.23797 6.25291
#
# Velocity S-wave (km/s) = -0.92874 2.66272 1.76458
# Velocity P-wave (km/s) = 3.56227 5.48736 4.62606
#
# Compressibility (1/GPa) = 0.03598072
#
# Stress axis : x y z
#
# Youngs Moduli (GPa) = 25.83577 64.09142 55.54502
#
# Poissons Ratio (x) = 0.59552 0.07542
# Poissons Ratio (y) = 0.24006 0.41748
# Poissons Ratio (z) = 0.03508 0.48172
#
# Static dielectric constant tensor:
#      x y z
#    x 1.718220 0.000000 0.000000 
#    y 0.000000 1.779690 0.000000 
#    z 0.000000 0.000000 1.702370 
# 
# From -- ./inp_files/9777.got.cif
#   From: 2010.05.17/outbox.cif.g08.bks.cpg/sg46_5_cif.got.tgz:9777.got - 2010.06.03 19:58:25.
