data_PCOD9379036
_publ_section_title
;
Structure prediction by ZEFSAII (Michael W. Deem and Ramdas Pophale) SiO2 
 PCOD9379036
Probable space group: I M A 2
;
_chemical_formula_sum "Si O2"
_cell_formula_units_Z 28
_cell_length_a 7.386764
_cell_length_b 25.046369
_cell_length_c 9.135875
_cell_angle_alpha 90.000000
_cell_angle_beta 90.000000
_cell_angle_gamma 90.000000
_cell_volume 1690.243005
_symmetry_space_group_name_H-M "I M A 2"
_symmetry_group_IT_number 46
_symmetry_cell_setting 'orthorhombic'
loop_
_space_group_symop_operation_xyz
x,y,z
-x,-y,z
1/2-x,y,z
1/2+x,-y,z
1/2+x,1/2+y,1/2+z
1/2-x,1/2-y,1/2+z
-x,1/2+y,1/2+z
x,1/2-y,1/2+z
loop_
_atom_site_type_symbol
_atom_site_label
_atom_site_fract_x
_atom_site_fract_y
_atom_site_fract_z
Si Si1 0.250000 0.786597 0.821060
Si Si2 0.534653 0.651035 0.132760
Si Si3 0.750000 0.378383 0.557601
Si Si4 0.250000 0.661141 0.883997
Si Si5 0.540960 0.562136 0.372876
O O1 0.426102 0.804266 0.726741
O O2 0.250000 0.724634 0.856145
O O3 0.250000 0.822526 0.967802
O O4 0.750000 0.660984 0.119273
O O5 0.506960 0.596840 0.226550
O O6 0.426896 0.647536 0.980872
O O7 0.750000 0.367903 0.728754
O O8 0.580121 0.412136 0.499197
O O9 0.500000 0.500000 0.350979
O O10 0.750000 0.568505 0.410410
#
# Coordination Sequence:
#
# PCOD9379036 Si02
#       5
#     4   8   4   4   8
#     4   9  19  37  57  77 107 151 185 213 259 323
#     4   9  20  36  55  82 107 141 188 220 262 326
#     4  10  20  34  54  84 112 138 176 225 271 326
#     4  11  21  35  55  81 121 143 169 228 280 313
#     4  10  19  35  60  76  99 142 190 224 263 319
#
# _framework density 16.565664000000002
#
# number of rings (size 3 to 8) (size 9 to 14) (size 15 to 20)
#    0.000    2.286    1.429    2.571    0.000    2.286 
#    0.000    7.143    0.000    0.000    0.000    0.000 
#    0.000    0.000    0.000    0.000    0.000    0.000 
#
# Total GULP energy -78073.557678 kJ/mol
# GULP energy per Si atom -5576.682691 kJ/mol
# Density = 1.652796 g / cm^3
# Si number density = 16.565664 Si / 1000 Ang^3
#
#
#
# Elastic Constant Matrix: (Units=GPa)
#
#
# Indices 1 2 3 4 5 6 
#
# 1 153.3020 68.0257 92.2130 0.0000 0.0000 0.0000
# 2 68.0257 125.4969 63.7078 0.0000 0.0000 0.0000
# 3 92.2130 63.7078 152.9862 0.0000 0.0000 0.0000
# 4 0.0000 0.0000 0.0000 8.4203 0.0000 -0.0001
# 5 0.0000 0.0000 0.0000 0.0000 3.5327 0.0000
# 6 0.0000 0.0000 0.0000 -0.0001 0.0000 38.0421
#
#
#
# Elastic Compliance Matrix: (Units=1/GPa)
#
#
# Indices 1 2 3 4 5 6 
#
# 1 0.011255 -0.003369 -0.005381 0.000000 0.000000 0.000000
# 2 -0.003369 0.011113 -0.002597 0.000000 0.000000 0.000000
# 3 -0.005381 -0.002597 0.010861 0.000000 0.000000 0.000000
# 4 0.000000 0.000000 0.000000 0.118760 0.000000 0.000000
# 5 0.000000 0.000000 0.000000 0.000000 0.283069 0.000000
# 6 0.000000 0.000000 0.000000 0.000000 0.000000 0.026287
#
#
# Mechanical properties :
#
#
# Convention : Reuss Voigt Hill
#
# Bulk Modulus (GPa) = 94.92089 97.74203 96.33146
# Shear Modulus (GPa) = 10.25536 23.85493 17.05514
#
# Velocity S-wave (km/s) = 2.49082 3.79888 3.21214
# Velocity P-wave (km/s) = 8.10533 8.85284 8.48732
#
# Compressibility (1/GPa) = 0.01053509
#
# Stress axis : x y z
#
# Youngs Moduli (GPa) = 88.85189 89.98566 92.06988
#
# Poissons Ratio (x) = 0.30317 0.49541
# Poissons Ratio (y) = 0.29935 0.23911
# Poissons Ratio (z) = 0.47810 0.23369
#
# Static dielectric constant tensor:
#      x y z
#    x 1.561420 0.000000 0.000000 
#    y 0.000000 1.543810 0.000000 
#    z 0.000000 0.000000 1.542720 
# 
# From -- ./inp_files/3290.got.cif
#   From: 2010.05.17/outbox.cif.g08.bks.cpg/sg46_2_cif.got.tgz:3290.got - 2010.06.03 19:58:25.
