data_PCOD9379048
_publ_section_title
;
Structure prediction by ZEFSAII (Michael W. Deem and Ramdas Pophale) SiO2 
 PCOD9379048
Probable space group: I M A 2
;
_chemical_formula_sum "Si O2"
_cell_formula_units_Z 56
_cell_length_a 18.799040
_cell_length_b 11.770254
_cell_length_c 13.770743
_cell_angle_alpha 90.000000
_cell_angle_beta 90.000000
_cell_angle_gamma 90.000000
_cell_volume 3047.045084
_symmetry_space_group_name_H-M "I M A 2"
_symmetry_group_IT_number 46
_symmetry_cell_setting 'orthorhombic'
loop_
_space_group_symop_operation_xyz
x,y,z
-x,-y,z
1/2-x,y,z
1/2+x,-y,z
1/2+x,1/2+y,1/2+z
1/2-x,1/2-y,1/2+z
-x,1/2+y,1/2+z
x,1/2-y,1/2+z
loop_
_atom_site_type_symbol
_atom_site_label
_atom_site_fract_x
_atom_site_fract_y
_atom_site_fract_z
Si Si1 0.951347 0.146907 0.894890
Si Si2 0.669281 0.347545 0.675598
Si Si3 0.077474 0.022902 0.067160
Si Si4 0.058889 0.274885 0.030306
Si Si5 0.834356 0.971703 0.555982
Si Si6 0.671359 0.329134 0.899899
Si Si7 0.933838 0.367768 0.168846
O O1 0.885270 0.230860 0.910653
O O2 0.958378 0.122893 0.780690
O O3 0.016956 0.220918 0.937949
O O4 0.932787 0.036372 0.960666
O O5 0.750000 0.318149 0.649129
O O6 0.639125 0.453285 0.617636
O O7 0.666765 0.373333 0.789991
O O8 0.617805 0.241111 0.659209
O O9 0.087781 0.156992 0.074708
O O10 0.000000 0.000000 0.115261
O O11 0.124324 0.360502 0.017921
O O12 0.999497 0.339503 0.096601
O O13 0.750000 0.955006 0.579442
O O14 0.838429 0.068353 0.473599
O O15 0.884128 0.025387 0.640539
O O16 0.750000 0.280476 0.914046
#
# Coordination Sequence:
#
# PCOD9379048 Si02
#       7
#     8   8   8   8   8   8   8
#     4  10  21  37  61  89 119 154 197 253 302 351
#     4  10  19  35  61  89 115 150 194 247 301 348
#     4  10  20  38  54  82 120 155 195 242 293 356
#     4  11  23  38  58  87 119 159 204 240 302 361
#     4  11  23  40  59  85 125 162 199 246 300 367
#     4   9  19  35  58  89 117 145 193 247 298 350
#     4  11  21  38  63  92 117 154 200 259 301 352
#
# _framework density 18.378461999999999
#
# number of rings (size 3 to 8) (size 9 to 14) (size 15 to 20)
#    0.000    1.714    4.286    0.857    0.000    7.429 
#    0.000    0.000    0.000    4.286    0.000    0.000 
#    0.000    0.000    0.000    0.000    0.000    0.000 
#
# Total GULP energy -156071.230459 kJ/mol
# GULP energy per Si atom -5573.972516 kJ/mol
# Density = 1.833663 g / cm^3
# Si number density = 18.378462 Si / 1000 Ang^3
#
#
#
# Elastic Constant Matrix: (Units=GPa)
#
#
# Indices 1 2 3 4 5 6 
#
# 1 94.7091 45.2793 36.8310 0.0000 0.0000 0.0000
# 2 45.2793 77.5603 13.2974 0.0000 0.0000 0.0000
# 3 36.8310 13.2974 69.0828 0.0000 0.0000 0.0000
# 4 0.0000 0.0000 0.0000 0.6613 0.0000 0.0000
# 5 0.0000 0.0000 0.0000 0.0000 24.5897 0.0000
# 6 0.0000 0.0000 0.0000 0.0000 0.0000 29.4369
#
#
#
# Elastic Compliance Matrix: (Units=1/GPa)
#
#
# Indices 1 2 3 4 5 6 
#
# 1 0.017977 -0.009154 -0.007822 0.000000 0.000000 0.000000
# 2 -0.009154 0.017994 0.001417 0.000000 0.000000 0.000000
# 3 -0.007822 0.001417 0.018373 0.000000 0.000000 0.000000
# 4 0.000000 0.000000 0.000000 1.512136 0.000000 0.000000
# 5 0.000000 0.000000 0.000000 0.000000 0.040667 0.000000
# 6 0.000000 0.000000 0.000000 0.000000 0.000000 0.033971
#
#
# Mechanical properties :
#
#
# Convention : Reuss Voigt Hill
#
# Bulk Modulus (GPa) = 43.05624 48.01861 45.53743
# Shear Modulus (GPa) = 2.97623 20.66721 11.82172
#
# Velocity S-wave (km/s) = 1.27394 3.35705 2.53896
# Velocity P-wave (km/s) = 5.06382 6.41956 5.78157
#
# Compressibility (1/GPa) = 0.02322544
#
# Stress axis : x y z
#
# Youngs Moduli (GPa) = 55.62687 55.57333 54.42739
#
# Poissons Ratio (x) = 0.50870 0.42575
# Poissons Ratio (y) = 0.50919 -0.07710
# Poissons Ratio (z) = 0.43513 -0.07873
#
# Static dielectric constant tensor:
#      x y z
#    x 1.627730 0.000000 0.000000 
#    y 0.000000 1.628240 0.000000 
#    z 0.000000 0.000000 1.679340 
# 
# From -- ./inp_files/15973.got.cif
#   From: 2010.05.17/outbox.cif.g08.bks.cpg/sg46_8_cif.got.tgz:15973.got - 2010.06.03 19:58:25.
