data_PCOD9379078
_publ_section_title
;
Structure prediction by ZEFSAII (Michael W. Deem and Ramdas Pophale) SiO2 
 PCOD9379078
Probable space group: I M A 2
;
_chemical_formula_sum "Si O2"
_cell_formula_units_Z 64
_cell_length_a 8.673132
_cell_length_b 25.696906
_cell_length_c 15.215492
_cell_angle_alpha 90.000000
_cell_angle_beta 90.000000
_cell_angle_gamma 90.000000
_cell_volume 3391.117141
_symmetry_space_group_name_H-M "I M A 2"
_symmetry_group_IT_number 46
_symmetry_cell_setting 'orthorhombic'
loop_
_space_group_symop_operation_xyz
x,y,z
-x,-y,z
1/2-x,y,z
1/2+x,-y,z
1/2+x,1/2+y,1/2+z
1/2-x,1/2-y,1/2+z
-x,1/2+y,1/2+z
x,1/2-y,1/2+z
loop_
_atom_site_type_symbol
_atom_site_label
_atom_site_fract_x
_atom_site_fract_y
_atom_site_fract_z
Si Si1 0.064894 0.442044 0.953270
Si Si2 0.567732 0.764870 0.405096
Si Si3 0.935231 0.346392 0.438151
Si Si4 0.565795 0.055502 0.818729
Si Si5 0.563283 0.603765 0.144294
Si Si6 0.064175 0.166386 0.131708
Si Si7 0.566576 0.782103 0.613298
Si Si8 0.432776 0.863501 0.309304
O O1 0.250000 0.442371 0.948184
O O2 0.000000 0.500000 0.946309
O O3 0.999691 0.405786 0.876460
O O4 0.021854 0.418188 0.048364
O O5 0.750000 0.766297 0.385128
O O6 0.505343 0.706374 0.397063
O O7 0.547578 0.780834 0.507633
O O8 0.481395 0.807246 0.347389
O O9 0.750000 0.342030 0.439865
O O10 0.979809 0.397030 0.382445
O O11 0.998803 0.350000 0.537315
O O12 0.750000 0.052796 0.816748
O O13 0.504188 0.069472 0.722038
O O14 0.500000 0.000000 0.847259
O O15 0.750000 0.603554 0.150156
O O16 0.505574 0.663627 0.150553
O O17 0.250000 0.166557 0.127740
O O18 0.008781 0.226403 0.146519
O O19 0.005572 0.132580 0.212587
O O20 0.750000 0.782522 0.630250
O O21 0.250000 0.867924 0.304630
#
# Coordination Sequence:
#
# PCOD9379078 Si02
#       8
#     8   8   8   8   8   8   8   8
#     4  11  23  41  63  88 122 162 206 254 305 365
#     4  10  19  36  60  87 120 160 203 243 296 365
#     4  10  22  41  61  89 123 155 199 257 313 364
#     4  11  25  42  61  87 120 157 204 253 302 360
#     4  10  20  37  61  89 122 159 200 246 297 357
#     4  10  21  38  62  90 122 162 205 248 304 368
#     4   8  16  33  56  86 118 154 196 238 287 352
#     4  12  24  38  59  90 126 163 205 255 308 358
#
# _framework density 18.872836
#
# number of rings (size 3 to 8) (size 9 to 14) (size 15 to 20)
#    0.000    1.750    1.250    4.125    1.750    4.000 
#    0.000    1.250    0.000    1.500    0.000    0.000 
#    0.000    0.000    0.000    0.000    0.000    0.000 
#
# Total GULP energy -178809.605631 kJ/mol
# GULP energy per Si atom -5587.800176 kJ/mol
# Density = 1.882988 g / cm^3
# Si number density = 18.872836 Si / 1000 Ang^3
#
#
#
# Elastic Constant Matrix: (Units=GPa)
#
#
# Indices 1 2 3 4 5 6 
#
# 1 53.8359 30.7629 23.7361 0.0000 0.0000 0.0000
# 2 30.7629 122.7517 53.5954 0.0001 0.0000 0.0000
# 3 23.7361 53.5954 78.4494 0.0000 0.0000 0.0000
# 4 0.0000 0.0001 0.0000 28.3806 0.0000 0.0000
# 5 0.0000 0.0000 0.0000 0.0000 28.4731 0.0000
# 6 0.0000 0.0000 0.0000 0.0000 0.0000 30.1801
#
#
#
# Elastic Compliance Matrix: (Units=1/GPa)
#
#
# Indices 1 2 3 4 5 6 
#
# 1 0.022626 -0.003821 -0.004235 0.000000 0.000000 0.000000
# 2 -0.003821 0.012255 -0.007216 0.000000 0.000000 0.000000
# 3 -0.004235 -0.007216 0.018959 0.000000 0.000000 0.000000
# 4 0.000000 0.000000 0.000000 0.035235 0.000000 0.000000
# 5 0.000000 0.000000 0.000000 0.000000 0.035121 0.000000
# 6 0.000000 0.000000 0.000000 0.000000 0.000000 0.033134
#
#
# Mechanical properties :
#
#
# Convention : Reuss Voigt Hill
#
# Bulk Modulus (GPa) = 42.92951 52.35843 47.64397
# Shear Modulus (GPa) = 25.55722 27.20292 26.38007
#
# Velocity S-wave (km/s) = 3.68391 3.80067 3.74275
# Velocity P-wave (km/s) = 6.39461 6.86025 6.63152
#
# Compressibility (1/GPa) = 0.02329400
#
# Stress axis : x y z
#
# Youngs Moduli (GPa) = 44.19750 81.60053 52.74679
#
# Poissons Ratio (x) = 0.31180 0.22340
# Poissons Ratio (y) = 0.16888 0.38063
# Poissons Ratio (z) = 0.18719 0.58884
#
# Static dielectric constant tensor:
#      x y z
#    x 1.615740 0.000000 0.000000 
#    y 0.000000 1.644200 0.000000 
#    z 0.000000 0.000000 1.649020 
# 
# From -- ./inp_files/14529.got.cif
#   From: 2010.05.17/outbox.cif.g08.bks.cpg/sg46_8_cif.got.tgz:14529.got - 2010.06.03 19:58:25.
