data_PCOD9379973
_publ_section_title
;
Structure prediction by ZEFSAII (Michael W. Deem and Ramdas Pophale) SiO2 
 PCOD9379973
Probable space group: I M A 2
;
_chemical_formula_sum "Si O2"
_cell_formula_units_Z 48
_cell_length_a 9.684505
_cell_length_b 7.298689
_cell_length_c 32.922499
_cell_angle_alpha 90.000000
_cell_angle_beta 90.000000
_cell_angle_gamma 90.000000
_cell_volume 2327.100178
_symmetry_space_group_name_H-M "I M A 2"
_symmetry_group_IT_number 46
_symmetry_cell_setting 'orthorhombic'
loop_
_space_group_symop_operation_xyz
x,y,z
-x,-y,z
1/2-x,y,z
1/2+x,-y,z
1/2+x,1/2+y,1/2+z
1/2-x,1/2-y,1/2+z
-x,1/2+y,1/2+z
x,1/2-y,1/2+z
loop_
_atom_site_type_symbol
_atom_site_label
_atom_site_fract_x
_atom_site_fract_y
_atom_site_fract_z
Si Si1 0.092036 0.323090 0.140990
Si Si2 0.250000 0.363126 0.790994
Si Si3 0.500000 0.000000 0.911377
Si Si4 0.250000 0.079825 0.852374
Si Si5 0.750000 0.196250 0.774832
Si Si6 0.418076 0.304121 0.053616
Si Si7 0.581870 0.305839 0.976086
Si Si8 0.982335 0.783449 0.231413
O O1 0.250000 0.379608 0.138052
O O2 0.065514 0.216135 0.098608
O O3 0.000000 0.500000 0.139968
O O4 0.067823 0.246903 0.185765
O O5 0.250000 0.286817 0.835762
O O6 0.250000 0.584504 0.787367
O O7 0.375658 0.265813 0.767824
O O8 0.620833 0.945056 0.881205
O O9 0.448695 0.833103 0.939592
O O10 0.250000 0.933012 0.814559
O O11 0.618048 0.175516 0.745224
O O12 0.500000 0.500000 0.056820
O O13 0.250000 0.319481 0.045820
O O14 0.503650 0.222995 0.015980
O O15 0.500000 0.500000 0.969208
O O16 0.750000 0.328409 0.981340
O O17 0.000000 0.000000 0.231935
#
# Coordination Sequence:
#
# PCOD9379973 Si02
#       8
#     8   4   4   4   4   8   8   8
#     4  10  21  35  57  92 128 166 214 266 310 377
#     4  10  22  42  66  85 127 173 213 272 324 390
#     4  12  28  46  68 104 138 166 222 288 334 414
#     4  12  26  44  68  96 130 168 220 278 336 400
#     4  10  24  40  62  95 123 169 223 266 326 396
#     4   9  18  35  61  92 129 170 216 261 320 388
#     4  11  24  44  73 100 133 180 218 271 343 404
#     4  10  21  38  58  86 126 170 215 264 320 380
#
# _framework density 20.626528
#
# number of rings (size 3 to 8) (size 9 to 14) (size 15 to 20)
#    0.000    1.667    1.667    3.000    5.833    2.000 
#    1.500    0.000    0.000    0.000    0.000    0.000 
#    0.000    0.000    0.000    0.000    0.000    0.000 
#
# Total GULP energy -133614.526017 kJ/mol
# GULP energy per Si atom -5567.271917 kJ/mol
# Density = 2.057958 g / cm^3
# Si number density = 20.626528 Si / 1000 Ang^3
#
#
#
# Elastic Constant Matrix: (Units=GPa)
#
#
# Indices 1 2 3 4 5 6 
#
# 1 151.1245 23.5236 45.1683 0.0000 0.0000 0.0000
# 2 23.5236 61.0735 28.3955 0.0000 0.0000 0.0000
# 3 45.1683 28.3955 126.2613 0.0000 0.0000 0.0000
# 4 0.0000 0.0000 0.0000 40.3347 0.0000 0.0000
# 5 0.0000 0.0000 0.0000 0.0000 41.9176 0.0000
# 6 0.0000 0.0000 0.0000 0.0000 0.0000 -0.3839
#
#
#
# Elastic Compliance Matrix: (Units=1/GPa)
#
#
# Indices 1 2 3 4 5 6 
#
# 1 0.007593 -0.001856 -0.002299 0.000000 0.000000 0.000000
# 2 -0.001856 0.018739 -0.003551 0.000000 0.000000 0.000000
# 3 -0.002299 -0.003551 0.009541 0.000000 0.000000 0.000000
# 4 0.000000 0.000000 0.000000 0.024793 0.000000 0.000000
# 5 0.000000 0.000000 0.000000 0.000000 0.023856 0.000000
# 6 0.000000 0.000000 0.000000 0.000000 0.000000 -2.604763
#
#
# Mechanical properties :
#
#
# Convention : Reuss Voigt Hill
#
# Bulk Modulus (GPa) = 48.86893 59.18159 54.02526
# Shear Modulus (GPa) = -2.00159 32.46514 15.23177
#
# Velocity S-wave (km/s) = -0.98616 3.97161 2.72040
# Velocity P-wave (km/s) = 4.73783 7.05591 6.00969
#
# Compressibility (1/GPa) = 0.02046290
#
# Stress axis : x y z
#
# Youngs Moduli (GPa) = 131.69965 53.36396 104.81083
#
# Poissons Ratio (x) = 0.09903 0.24096
# Poissons Ratio (y) = 0.24440 0.37213
# Poissons Ratio (z) = 0.30277 0.18947
#
# Static dielectric constant tensor:
#      x y z
#    x 1.735570 0.000000 0.000000 
#    y 0.000000 1.767790 0.000000 
#    z 0.000000 0.000000 1.822940 
# 
# From -- ./inp_files/25104.got.cif
#   From: 2010.05.17/outbox.cif.g08.bks.cpg/sg46_13_cif.got.tgz:25104.got - 2010.06.03 19:58:25.
