data_PCOD9379264
_publ_section_title
;
Structure prediction by ZEFSAII (Michael W. Deem and Ramdas Pophale) SiO2 
 PCOD9379264
Probable space group: I M A 2
;
_chemical_formula_sum "Si O2"
_cell_formula_units_Z 64
_cell_length_a 8.872847
_cell_length_b 16.398747
_cell_length_c 22.673219
_cell_angle_alpha 90.000000
_cell_angle_beta 90.000000
_cell_angle_gamma 90.000000
_cell_volume 3299.034379
_symmetry_space_group_name_H-M "I M A 2"
_symmetry_group_IT_number 46
_symmetry_cell_setting 'orthorhombic'
loop_
_space_group_symop_operation_xyz
x,y,z
-x,-y,z
1/2-x,y,z
1/2+x,-y,z
1/2+x,1/2+y,1/2+z
1/2-x,1/2-y,1/2+z
-x,1/2+y,1/2+z
x,1/2-y,1/2+z
loop_
_atom_site_type_symbol
_atom_site_label
_atom_site_fract_x
_atom_site_fract_y
_atom_site_fract_z
Si Si1 0.578006 0.887835 0.658550
Si Si2 0.566939 0.087678 0.978857
Si Si3 0.070211 0.234304 0.453312
Si Si4 0.918140 0.700305 0.694414
Si Si5 0.075730 0.578902 0.615226
Si Si6 0.927842 0.079791 0.784131
Si Si7 0.568408 0.086936 0.530840
Si Si8 0.572658 0.755867 0.822399
O O1 0.750000 0.920575 0.655453
O O2 0.588736 0.791268 0.669018
O O3 0.494111 0.915448 0.717815
O O4 0.489737 0.905177 0.598467
O O5 0.750000 0.087504 0.972009
O O6 0.498948 0.173936 0.956842
O O7 0.500000 0.000000 0.957237
O O8 0.522312 0.090729 0.048309
O O9 0.250000 0.237752 0.466346
O O10 0.049815 0.211632 0.384310
O O11 0.993367 0.166003 0.494850
O O12 0.750000 0.664130 0.687965
O O13 0.958088 0.704802 0.763349
O O14 0.037449 0.653914 0.655737
O O15 0.250000 0.563927 0.610841
O O16 0.000000 0.500000 0.642182
O O17 0.750000 0.072631 0.782405
O O18 0.977407 0.161710 0.816947
O O19 0.000000 0.000000 0.812787
O O20 0.750000 0.085245 0.528703
O O21 0.500000 0.000000 0.508921
O O22 0.750000 0.779421 0.818564
#
# Coordination Sequence:
#
# PCOD9379264 Si02
#       8
#     8   8   8   8   8   8   8   8
#     4  10  20  36  58  85 117 150 184 226 283 345
#     4  10  21  37  58  87 121 155 192 235 285 346
#     4  11  23  41  63  85 114 154 198 245 296 347
#     4   9  18  34  56  80 108 141 177 221 274 331
#     4  10  20  33  52  79 110 141 176 220 271 330
#     4  11  21  34  55  83 116 150 185 227 278 336
#     4  12  25  41  61  87 118 152 196 245 295 352
#     4   9  21  40  58  78 107 145 189 233 278 335
#
# _framework density 19.399616000000002
#
# number of rings (size 3 to 8) (size 9 to 14) (size 15 to 20)
#    0.000    1.750    0.000    5.625    0.000    7.500 
#    0.000    0.625    0.000    0.000    0.000    0.000 
#    0.000    0.000    0.000    0.000    0.000    0.000 
#
# Total GULP energy -178580.318371 kJ/mol
# GULP energy per Si atom -5580.634949 kJ/mol
# Density = 1.935546 g / cm^3
# Si number density = 19.399616 Si / 1000 Ang^3
#
#
#
# Elastic Constant Matrix: (Units=GPa)
#
#
# Indices 1 2 3 4 5 6 
#
# 1 94.4009 33.3591 45.9913 0.0000 0.0000 0.0000
# 2 33.3591 75.6346 38.5422 0.0000 0.0000 0.0000
# 3 45.9913 38.5422 83.9245 0.0000 0.0000 0.0000
# 4 0.0000 0.0000 0.0000 -0.9805 0.0000 0.0000
# 5 0.0000 0.0000 0.0000 0.0000 19.5463 0.0000
# 6 0.0000 0.0000 0.0000 0.0000 0.0000 36.2281
#
#
#
# Elastic Compliance Matrix: (Units=1/GPa)
#
#
# Indices 1 2 3 4 5 6 
#
# 1 0.015012 -0.003171 -0.006771 0.000000 0.000000 0.000000
# 2 -0.003171 0.017931 -0.006497 0.000000 0.000000 0.000000
# 3 -0.006771 -0.006497 0.018609 0.000000 0.000000 0.000000
# 4 0.000000 0.000000 0.000000 -1.019875 0.000000 0.000000
# 5 0.000000 0.000000 0.000000 0.000000 0.051161 0.000000
# 6 0.000000 0.000000 0.000000 0.000000 0.000000 0.027603
#
#
# Mechanical properties :
#
#
# Convention : Reuss Voigt Hill
#
# Bulk Modulus (GPa) = 53.54613 54.41614 53.98113
# Shear Modulus (GPa) = -5.87919 20.02993 7.07537
#
# Velocity S-wave (km/s) = -1.74274 3.21673 1.91183
# Velocity P-wave (km/s) = 4.85922 6.47360 5.72361
#
# Compressibility (1/GPa) = 0.01867549
#
# Stress axis : x y z
#
# Youngs Moduli (GPa) = 66.61220 55.76990 53.73612
#
# Poissons Ratio (x) = 0.17685 0.36382
# Poissons Ratio (y) = 0.21123 0.34912
# Poissons Ratio (z) = 0.45100 0.36233
#
# Static dielectric constant tensor:
#      x y z
#    x 1.678790 0.000000 0.000000 
#    y 0.000000 1.730300 0.000000 
#    z 0.000000 0.000000 1.680150 
# 
# From -- ./inp_files/23152.got.cif
#   From: 2010.05.17/outbox.cif.g08.bks.cpg/sg46_12_cif.got.tgz:23152.got - 2010.06.03 19:58:25.
