data_PCOD9379094
_publ_section_title
;
Structure prediction by ZEFSAII (Michael W. Deem and Ramdas Pophale) SiO2 
 PCOD9379094
Probable space group: I M A 2
;
_chemical_formula_sum "Si O2"
_cell_formula_units_Z 32
_cell_length_a 10.622906
_cell_length_b 16.425865
_cell_length_c 8.972829
_cell_angle_alpha 90.000000
_cell_angle_beta 90.000000
_cell_angle_gamma 90.000000
_cell_volume 1565.672700
_symmetry_space_group_name_H-M "I M A 2"
_symmetry_group_IT_number 46
_symmetry_cell_setting 'orthorhombic'
loop_
_space_group_symop_operation_xyz
x,y,z
-x,-y,z
1/2-x,y,z
1/2+x,-y,z
1/2+x,1/2+y,1/2+z
1/2-x,1/2-y,1/2+z
-x,1/2+y,1/2+z
x,1/2-y,1/2+z
loop_
_atom_site_type_symbol
_atom_site_label
_atom_site_fract_x
_atom_site_fract_y
_atom_site_fract_z
Si Si1 0.392830 0.345831 0.773200
Si Si2 0.994692 0.286611 0.466930
Si Si3 0.889948 0.058860 0.809167
Si Si4 0.610465 0.114069 0.474735
O O1 0.250000 0.375387 0.781300
O O2 0.438735 0.328302 0.606738
O O3 0.405771 0.258693 0.858936
O O4 0.495479 0.400178 0.861206
O O5 0.915623 0.353010 0.378422
O O6 0.907710 0.210252 0.514431
O O7 0.750000 0.029898 0.848202
O O8 0.897968 0.067075 0.630036
O O9 0.000000 0.000000 0.862175
O O10 0.750000 0.101706 0.409879
#
# Coordination Sequence:
#
# PCOD9379094 Si02
#       4
#     8   8   8   8
#     4  10  20  33  59  92 120 149 198 256 301 343
#     4  10  19  36  62  88 122 154 206 245 302 353
#     4  11  24  41  62  91 125 164 199 250 309 365
#     4   9  19  38  61  85 116 157 205 247 295 358
#
# _framework density 20.438499
#
# number of rings (size 3 to 8) (size 9 to 14) (size 15 to 20)
#    1.500    0.500    2.500    1.500    0.000    5.000 
#    0.000    1.250    0.000    0.000    0.000    0.000 
#    0.000    0.000    0.000    0.000    0.000    0.000 
#
# Total GULP energy -89156.318763 kJ/mol
# GULP energy per Si atom -5572.269923 kJ/mol
# Density = 2.039198 g / cm^3
# Si number density = 20.438499 Si / 1000 Ang^3
#
#
#
# Elastic Constant Matrix: (Units=GPa)
#
#
# Indices 1 2 3 4 5 6 
#
# 1 177.6044 17.0669 38.8361 0.0000 0.0000 0.0000
# 2 17.0669 42.2099 -15.2467 0.0000 0.0000 0.0000
# 3 38.8361 -15.2467 76.2629 0.0000 0.0000 0.0000
# 4 0.0000 0.0000 0.0000 12.3904 0.0000 0.0000
# 5 0.0000 0.0000 0.0000 0.0000 15.5882 0.0000
# 6 0.0000 0.0000 0.0000 0.0000 0.0000 10.5963
#
#
#
# Elastic Compliance Matrix: (Units=1/GPa)
#
#
# Indices 1 2 3 4 5 6 
#
# 1 0.007038 -0.004463 -0.004476 0.000000 0.000000 0.000000
# 2 -0.004463 0.028365 0.007943 0.000000 0.000000 0.000000
# 3 -0.004476 0.007943 0.016980 0.000000 0.000000 0.000000
# 4 0.000000 0.000000 0.000000 0.080708 0.000000 0.000000
# 5 0.000000 0.000000 0.000000 0.000000 0.064151 0.000000
# 6 0.000000 0.000000 0.000000 0.000000 0.000000 0.094373
#
#
# Mechanical properties :
#
#
# Convention : Reuss Voigt Hill
#
# Bulk Modulus (GPa) = 19.84450 41.93218 30.88834
# Shear Modulus (GPa) = 16.10809 24.74304 20.42557
#
# Velocity S-wave (km/s) = 2.81040 3.48316 3.16471
# Velocity P-wave (km/s) = 4.50129 6.06113 5.33849
#
# Compressibility (1/GPa) = 0.05039180
#
# Stress axis : x y z
#
# Youngs Moduli (GPa) = 142.08295 35.25502 58.89247
#
# Poissons Ratio (x) = 0.15733 0.26362
# Poissons Ratio (y) = 0.63407 -0.46780
# Poissons Ratio (z) = 0.63600 -0.28004
#
# Static dielectric constant tensor:
#      x y z
#    x 1.722760 0.000000 0.000000 
#    y 0.000000 1.710430 0.000000 
#    z 0.000000 0.000000 1.692340 
# 
# From -- ./inp_files/3486.got.cif
#   From: 2010.05.17/outbox.cif.g08.bks.cpg/sg46_2_cif.got.tgz:3486.got - 2010.06.03 19:58:25.
