data_PCOD9379362
_publ_section_title
;
Structure prediction by ZEFSAII (Michael W. Deem and Ramdas Pophale) SiO2 
 PCOD9379362
Probable space group: I M A 2
;
_chemical_formula_sum "Si O2"
_cell_formula_units_Z 52
_cell_length_a 26.437108
_cell_length_b 5.655774
_cell_length_c 13.332474
_cell_angle_alpha 90.000000
_cell_angle_beta 90.000000
_cell_angle_gamma 90.000000
_cell_volume 1993.502285
_symmetry_space_group_name_H-M "I M A 2"
_symmetry_group_IT_number 46
_symmetry_cell_setting 'orthorhombic'
loop_
_space_group_symop_operation_xyz
x,y,z
-x,-y,z
1/2-x,y,z
1/2+x,-y,z
1/2+x,1/2+y,1/2+z
1/2-x,1/2-y,1/2+z
-x,1/2+y,1/2+z
x,1/2-y,1/2+z
loop_
_atom_site_type_symbol
_atom_site_label
_atom_site_fract_x
_atom_site_fract_y
_atom_site_fract_z
Si Si1 0.809378 0.837996 0.175690
Si Si2 0.445121 0.108339 0.399129
Si Si3 0.841569 0.093185 0.441958
Si Si4 0.048477 0.620790 0.697319
Si Si5 0.654318 0.335106 0.162233
Si Si6 0.808785 0.590788 0.437516
Si Si7 0.000000 0.500000 0.346844
O O1 0.750000 0.787334 0.187563
O O2 0.839355 0.599086 0.206601
O O3 0.821035 0.871231 0.055778
O O4 0.820870 0.104801 0.213445
O O5 0.455588 0.384138 0.411885
O O6 0.500000 0.000000 0.425789
O O7 0.399535 0.988442 0.454052
O O8 0.433047 0.069633 0.280580
O O9 0.819443 0.131085 0.553469
O O10 0.838323 0.358665 0.399373
O O11 0.817396 0.855594 0.395067
O O12 0.096393 0.744037 0.648239
O O13 0.025097 0.813744 0.772650
O O14 0.000000 0.500000 0.642985
O O15 0.750000 0.532017 0.426115
#
# Coordination Sequence:
#
# PCOD9379362 Si02
#       7
#     8   8   8   8   8   8   4
#     4   9  18  33  54  80 111 144 181 224 275 332
#     4   9  20  36  56  80 106 151 188 223 269 342
#     4  10  20  34  56  85 111 138 185 231 278 319
#     4   9  20  36  57  79 107 150 191 220 271 340
#     4  10  20  34  56  85 110 140 183 232 277 320
#     4   9  18  33  54  80 111 145 180 224 275 333
#     4   8  18  36  58  72 102 148 194 218 264 340
#
# _framework density 26.084748000000001
#
# number of rings (size 3 to 8) (size 9 to 14) (size 15 to 20)
#    0.000    3.077    0.000    0.923    8.615    3.692 
#    1.385    0.000    0.000    5.538    0.000    0.000 
#    0.000    0.000    0.000    0.000    0.000    0.000 
#
# Total GULP energy -144969.041828 kJ/mol
# GULP energy per Si atom -5575.732378 kJ/mol
# Density = 2.602538 g / cm^3
# Si number density = 26.084748 Si / 1000 Ang^3
#
#
#
# Elastic Constant Matrix: (Units=GPa)
#
#
# Indices 1 2 3 4 5 6 
#
# 1 140.8132 81.6990 -5.1919 0.0000 0.0000 0.0000
# 2 81.6990 250.5333 40.1577 0.0000 0.0000 0.0000
# 3 -5.1919 40.1577 57.1588 0.0000 0.0000 0.0000
# 4 0.0000 0.0000 0.0000 46.2830 0.0000 0.0000
# 5 0.0000 0.0000 0.0000 0.0000 43.4519 0.0000
# 6 0.0000 0.0000 0.0000 0.0000 0.0000 50.2295
#
#
#
# Elastic Compliance Matrix: (Units=1/GPa)
#
#
# Indices 1 2 3 4 5 6 
#
# 1 0.009296 -0.003568 0.003351 0.000000 0.000000 0.000000
# 2 -0.003568 0.005868 -0.004447 0.000000 0.000000 0.000000
# 3 0.003351 -0.004447 0.020924 0.000000 0.000000 0.000000
# 4 0.000000 0.000000 0.000000 0.021606 0.000000 0.000000
# 5 0.000000 0.000000 0.000000 0.000000 0.023014 0.000000
# 6 0.000000 0.000000 0.000000 0.000000 0.000000 0.019909
#
#
# Mechanical properties :
#
#
# Convention : Reuss Voigt Hill
#
# Bulk Modulus (GPa) = 37.36975 75.75944 56.56460
# Shear Modulus (GPa) = 42.06509 50.11558 46.09034
#
# Velocity S-wave (km/s) = 4.02012 4.38797 4.20807
# Velocity P-wave (km/s) = 5.99215 7.40129 6.73368
#
# Compressibility (1/GPa) = 0.02675961
#
# Stress axis : x y z
#
# Youngs Moduli (GPa) = 107.57776 170.41770 47.79280
#
# Poissons Ratio (x) = 0.60814 -0.16017
# Poissons Ratio (y) = 0.38389 0.21252
# Poissons Ratio (z) = -0.36054 0.75780
#
# Static dielectric constant tensor:
#      x y z
#    x 2.012820 0.000000 0.000000 
#    y 0.000000 2.226100 0.000000 
#    z 0.000000 0.000000 2.115370 
# 
# From -- ./inp_files/20444.got.cif
#   From: 2010.05.17/outbox.cif.g08.bks.cpg/sg46_11_cif.got.tgz:20444.got - 2010.06.03 19:58:25.
