data_PCOD9379119
_publ_section_title
;
Structure prediction by ZEFSAII (Michael W. Deem and Ramdas Pophale) SiO2 
 PCOD9379119
Probable space group: I M A 2
;
_chemical_formula_sum "Si O2"
_cell_formula_units_Z 64
_cell_length_a 24.685478
_cell_length_b 8.029701
_cell_length_c 14.981677
_cell_angle_alpha 90.000000
_cell_angle_beta 90.000000
_cell_angle_gamma 90.000000
_cell_volume 2969.623181
_symmetry_space_group_name_H-M "I M A 2"
_symmetry_group_IT_number 46
_symmetry_cell_setting 'orthorhombic'
loop_
_space_group_symop_operation_xyz
x,y,z
-x,-y,z
1/2-x,y,z
1/2+x,-y,z
1/2+x,1/2+y,1/2+z
1/2-x,1/2-y,1/2+z
-x,1/2+y,1/2+z
x,1/2-y,1/2+z
loop_
_atom_site_type_symbol
_atom_site_label
_atom_site_fract_x
_atom_site_fract_y
_atom_site_fract_z
Si Si1 0.921559 0.497966 0.040940
Si Si2 0.401260 0.261749 0.694042
Si Si3 0.465554 0.843284 0.012063
Si Si4 0.188760 0.008379 0.769055
Si Si5 0.951119 0.792926 0.376945
Si Si6 0.363128 0.465236 0.444457
Si Si7 0.189974 0.042583 0.107786
Si Si8 0.308835 0.845824 0.585428
O O1 0.924930 0.654717 0.110022
O O2 0.859203 0.439595 0.042692
O O3 0.956093 0.330920 0.064394
O O4 0.939884 0.550609 0.941636
O O5 0.354951 0.140700 0.734454
O O6 0.444961 0.309983 0.770224
O O7 0.363251 0.416377 0.665201
O O8 0.496043 0.794991 0.919303
O O9 0.500000 0.000000 0.051611
O O10 0.406486 0.913775 0.990499
O O11 0.250000 0.074547 0.774011
O O12 0.170340 0.948967 0.865975
O O13 0.187680 0.871099 0.692272
O O14 0.901900 0.672038 0.402112
O O15 0.323880 0.371395 0.513591
O O16 0.250000 0.085796 0.142648
O O17 0.191033 0.851670 0.076258
O O18 0.250000 0.911801 0.556127
#
# Coordination Sequence:
#
# PCOD9379119 Si02
#       8
#     8   8   8   8   8   8   8   8
#     4  11  20  41  68  92 129 169 213 272 324 393
#     4  10  22  38  64  95 129 166 211 263 329 394
#     4  10  22  40  67  87 125 169 214 280 325 377
#     4   9  18  35  57  87 124 164 207 256 317 388
#     4  10  22  41  63  90 126 166 218 271 323 382
#     4  10  19  37  61  85 121 166 212 260 320 385
#     4  11  20  36  61  92 131 169 209 261 326 403
#     4   9  20  36  57  90 129 167 208 259 325 396
#
# _framework density 21.551553999999999
#
# number of rings (size 3 to 8) (size 9 to 14) (size 15 to 20)
#    0.000    2.000    2.500    1.125    0.000    1.500 
#    0.000   10.000    5.500    0.000    0.000    0.000 
#    0.000    0.000    0.000    0.000    0.000    0.000 
#
# Total GULP energy -178183.133190 kJ/mol
# GULP energy per Si atom -5568.222912 kJ/mol
# Density = 2.150250 g / cm^3
# Si number density = 21.551554 Si / 1000 Ang^3
#
#
#
# Elastic Constant Matrix: (Units=GPa)
#
#
# Indices 1 2 3 4 5 6 
#
# 1 108.5228 26.7466 19.4266 0.0000 0.0000 0.0000
# 2 26.7466 63.9146 13.6744 0.0000 0.0000 0.0000
# 3 19.4266 13.6744 52.7700 0.0000 0.0000 0.0000
# 4 0.0000 0.0000 0.0000 5.7394 0.0000 0.0000
# 5 0.0000 0.0000 0.0000 0.0000 7.6141 0.0000
# 6 0.0000 0.0000 0.0000 0.0000 0.0000 22.6757
#
#
#
# Elastic Compliance Matrix: (Units=1/GPa)
#
#
# Indices 1 2 3 4 5 6 
#
# 1 0.010688 -0.003844 -0.002939 0.000000 0.000000 0.000000
# 2 -0.003844 0.017947 -0.003235 0.000000 0.000000 0.000000
# 3 -0.002939 -0.003235 0.020870 0.000000 0.000000 0.000000
# 4 0.000000 0.000000 0.000000 0.174234 0.000000 0.000000
# 5 0.000000 0.000000 0.000000 0.000000 0.131336 0.000000
# 6 0.000000 0.000000 0.000000 0.000000 0.000000 0.044100
#
#
# Mechanical properties :
#
#
# Convention : Reuss Voigt Hill
#
# Bulk Modulus (GPa) = 33.93385 38.32252 36.12818
# Shear Modulus (GPa) = 11.65410 18.22983 14.94196
#
# Velocity S-wave (km/s) = 2.32794 2.91154 2.63594
# Velocity P-wave (km/s) = 4.79639 5.39659 5.10531
#
# Compressibility (1/GPa) = 0.02946910
#
# Stress axis : x y z
#
# Youngs Moduli (GPa) = 93.56222 55.72056 47.91485
#
# Poissons Ratio (x) = 0.21419 0.14080
# Poissons Ratio (y) = 0.35965 0.15503
# Poissons Ratio (z) = 0.27494 0.18028
#
# Static dielectric constant tensor:
#      x y z
#    x 1.830480 0.000000 0.000000 
#    y 0.000000 1.911390 0.000000 
#    z 0.000000 0.000000 1.860240 
# 
# From -- ./inp_files/17415.got.cif
#   From: 2010.05.17/outbox.cif.g08.bks.cpg/sg46_9_cif.got.tgz:17415.got - 2010.06.03 19:58:25.
