data_PCOD9379376
_publ_section_title
;
Structure prediction by ZEFSAII (Michael W. Deem and Ramdas Pophale) SiO2 
 PCOD9379376
Probable space group: I M A 2
;
_chemical_formula_sum "Si O2"
_cell_formula_units_Z 40
_cell_length_a 15.854825
_cell_length_b 13.530487
_cell_length_c 9.161472
_cell_angle_alpha 90.000000
_cell_angle_beta 90.000000
_cell_angle_gamma 90.000000
_cell_volume 1965.351071
_symmetry_space_group_name_H-M "I M A 2"
_symmetry_group_IT_number 46
_symmetry_cell_setting 'orthorhombic'
loop_
_space_group_symop_operation_xyz
x,y,z
-x,-y,z
1/2-x,y,z
1/2+x,-y,z
1/2+x,1/2+y,1/2+z
1/2-x,1/2-y,1/2+z
-x,1/2+y,1/2+z
x,1/2-y,1/2+z
loop_
_atom_site_type_symbol
_atom_site_label
_atom_site_fract_x
_atom_site_fract_y
_atom_site_fract_z
Si Si1 0.082403 0.445889 0.565810
Si Si2 0.438325 0.215411 0.479392
Si Si3 0.350234 0.633352 0.459712
Si Si4 0.750000 0.617068 0.657186
Si Si5 0.445746 0.753753 0.217265
Si Si6 0.750000 0.723974 0.939046
O O1 0.064370 0.336092 0.504736
O O2 0.162906 0.439963 0.673024
O O3 0.000000 0.500000 0.627506
O O4 0.885828 0.477397 0.443713
O O5 0.484592 0.196347 0.325544
O O6 0.498519 0.183481 0.611530
O O7 0.341170 0.181903 0.487507
O O8 0.250000 0.632788 0.469348
O O9 0.383664 0.697785 0.325954
O O10 0.390885 0.678739 0.608075
O O11 0.750000 0.709510 0.765865
O O12 0.750000 0.664005 0.495858
#
# Coordination Sequence:
#
# PCOD9379376 Si02
#       6
#     8   8   8   4   8   4
#     4  11  19  36  59  84 114 148 193 234 277 352
#     4  10  20  35  58  89 111 150 188 235 288 339
#     4  11  22  38  60  85 112 148 197 242 283 337
#     4  10  22  36  62  90 110 156 188 244 280 348
#     4  10  20  34  58  85 111 149 193 239 280 335
#     4  10  20  34  58  90 120 142 194 232 290 338
#
# _framework density 20.352596999999999
#
# number of rings (size 3 to 8) (size 9 to 14) (size 15 to 20)
#    0.000    1.600    5.000    3.000    0.000    0.000 
#    0.000    0.000    0.000   38.400    0.000    0.000 
#    0.000    0.000    0.000    0.000    0.000    0.000 
#
# Total GULP energy -111363.069371 kJ/mol
# GULP energy per Si atom -5568.153469 kJ/mol
# Density = 2.030627 g / cm^3
# Si number density = 20.352597 Si / 1000 Ang^3
#
#
#
# Elastic Constant Matrix: (Units=GPa)
#
#
# Indices 1 2 3 4 5 6 
#
# 1 182.8113 23.3985 39.0831 0.0000 0.0000 0.0000
# 2 23.3985 58.2041 20.1653 0.0000 0.0000 0.0000
# 3 39.0831 20.1653 93.8189 0.0000 0.0000 0.0000
# 4 0.0000 0.0000 0.0000 12.8761 0.0000 0.0000
# 5 0.0000 0.0000 0.0000 0.0000 28.6214 0.0000
# 6 0.0000 0.0000 0.0000 0.0000 0.0000 26.2733
#
#
#
# Elastic Compliance Matrix: (Units=1/GPa)
#
#
# Indices 1 2 3 4 5 6 
#
# 1 0.006159 -0.001715 -0.002197 0.000000 0.000000 0.000000
# 2 -0.001715 0.019041 -0.003378 0.000000 0.000000 0.000000
# 3 -0.002197 -0.003378 0.012300 0.000000 0.000000 0.000000
# 4 0.000000 0.000000 0.000000 0.077663 0.000000 0.000000
# 5 0.000000 0.000000 0.000000 0.000000 0.034939 0.000000
# 6 0.000000 0.000000 0.000000 0.000000 0.000000 0.038061
#
#
# Mechanical properties :
#
#
# Convention : Reuss Voigt Hill
#
# Bulk Modulus (GPa) = 43.63064 55.56979 49.60022
# Shear Modulus (GPa) = 23.76598 30.36663 27.06631
#
# Velocity S-wave (km/s) = 3.42089 3.86687 3.65069
# Velocity P-wave (km/s) = 6.08993 6.87748 6.49565
#
# Compressibility (1/GPa) = 0.02291967
#
# Stress axis : x y z
#
# Youngs Moduli (GPa) = 162.35442 52.51903 81.29887
#
# Poissons Ratio (x) = 0.09006 0.17864
# Poissons Ratio (y) = 0.27841 0.27465
# Poissons Ratio (z) = 0.35674 0.17742
#
# Static dielectric constant tensor:
#      x y z
#    x 1.806780 0.000000 0.000000 
#    y 0.000000 1.742730 0.000000 
#    z 0.000000 0.000000 1.738710 
# 
# From -- ./inp_files/5598.got.cif
#   From: 2010.05.17/outbox.cif.g08.bks.cpg/sg46_3_cif.got.tgz:5598.got - 2010.06.03 19:58:25.
