data_PCOD9379670
_publ_section_title
;
Structure prediction by ZEFSAII (Michael W. Deem and Ramdas Pophale) SiO2 
 PCOD9379670
Probable space group: I M A 2
;
_chemical_formula_sum "Si O2"
_cell_formula_units_Z 48
_cell_length_a 24.824676
_cell_length_b 10.100335
_cell_length_c 9.003300
_cell_angle_alpha 90.000000
_cell_angle_beta 90.000000
_cell_angle_gamma 90.000000
_cell_volume 2257.465329
_symmetry_space_group_name_H-M "I M A 2"
_symmetry_group_IT_number 46
_symmetry_cell_setting 'orthorhombic'
loop_
_space_group_symop_operation_xyz
x,y,z
-x,-y,z
1/2-x,y,z
1/2+x,-y,z
1/2+x,1/2+y,1/2+z
1/2-x,1/2-y,1/2+z
-x,1/2+y,1/2+z
x,1/2-y,1/2+z
loop_
_atom_site_type_symbol
_atom_site_label
_atom_site_fract_x
_atom_site_fract_y
_atom_site_fract_z
Si Si1 0.189294 0.506414 0.658720
Si Si2 0.091969 0.659482 0.781812
Si Si3 0.655084 0.570644 0.175504
Si Si4 0.811308 0.736485 0.433516
Si Si5 0.806659 0.166716 0.866017
Si Si6 0.050209 0.595339 0.094452
O O1 0.250000 0.498428 0.730346
O O2 0.130334 0.536943 0.728889
O O3 0.184986 0.374352 0.560734
O O4 0.192956 0.621775 0.535779
O O5 0.140261 0.750591 0.843388
O O6 0.059211 0.758341 0.670195
O O7 0.054219 0.617470 0.917509
O O8 0.651811 0.688499 0.297537
O O9 0.676276 0.628519 0.020095
O O10 0.690990 0.460733 0.258806
O O11 0.600604 0.493614 0.144206
O O12 0.750000 0.735351 0.376941
O O13 0.750000 0.236719 0.837237
O O14 0.000000 0.500000 0.132593
#
# Coordination Sequence:
#
# PCOD9379670 Si02
#       6
#     8   8   8   8   8   8
#     4   9  18  33  58  93 131 172 205 246 316 387
#     4  11  21  43  66  92 127 159 213 271 322 382
#     4  10  22  38  61  91 132 172 215 264 308 375
#     4  10  20  37  60  94 139 177 209 250 314 392
#     4   9  17  34  59  93 130 166 203 253 318 383
#     4  11  27  47  68  93 121 167 224 278 322 368
#
# _framework density 21.262784
#
# number of rings (size 3 to 8) (size 9 to 14) (size 15 to 20)
#    0.000    2.000    1.667    3.000    2.333    1.333 
#    0.000    4.167    0.000    0.000    0.000    0.000 
#    0.000    0.000    0.000    0.000    0.000    0.000 
#
# Total GULP energy -133660.988341 kJ/mol
# GULP energy per Si atom -5569.207848 kJ/mol
# Density = 2.121439 g / cm^3
# Si number density = 21.262784 Si / 1000 Ang^3
#
#
#
# Elastic Constant Matrix: (Units=GPa)
#
#
# Indices 1 2 3 4 5 6 
#
# 1 68.1797 12.9420 16.5273 0.0000 0.0000 0.0000
# 2 12.9420 53.6211 32.6777 0.0000 0.0000 0.0000
# 3 16.5273 32.6777 68.3547 0.0000 0.0000 0.0000
# 4 0.0000 0.0000 0.0000 47.4499 0.0000 0.0000
# 5 0.0000 0.0000 0.0000 0.0000 1294.4999 0.0000
# 6 0.0000 0.0000 0.0000 0.0000 0.0000 -0.9433
#
#
#
# Elastic Compliance Matrix: (Units=1/GPa)
#
#
# Indices 1 2 3 4 5 6 
#
# 1 0.015744 -0.002089 -0.002808 0.000000 0.000000 0.000000
# 2 -0.002089 0.026593 -0.012208 0.000000 0.000000 0.000000
# 3 -0.002808 -0.012208 0.021145 0.000000 0.000000 0.000000
# 4 0.000000 0.000000 0.000000 0.021075 0.000000 0.000000
# 5 0.000000 0.000000 0.000000 0.000000 0.000772 0.000000
# 6 0.000000 0.000000 0.000000 0.000000 0.000000 -1.060111
#
#
# Mechanical properties :
#
#
# Convention : Reuss Voigt Hill
#
# Bulk Modulus (GPa) = 34.16204 34.93884 34.55044
# Shear Modulus (GPa) = -5.37165 276.73520 135.68178
#
# Velocity S-wave (km/s) = -1.59116 11.42071 7.99690
# Velocity P-wave (km/s) = 3.56731 13.79774 10.07729
#
# Compressibility (1/GPa) = 0.02927226
#
# Stress axis : x y z
#
# Youngs Moduli (GPa) = 63.51488 37.60328 47.29275
#
# Poissons Ratio (x) = 0.07854 0.13281
# Poissons Ratio (y) = 0.13266 0.57736
# Poissons Ratio (z) = 0.17837 0.45907
#
# Static dielectric constant tensor:
#      x y z
#    x -0.987350 0.000000 0.000000 
#    y 0.000000 1.830170 0.000000 
#    z 0.000000 0.000000 1.818430 
# 
# From -- ./inp_files/7829.got.cif
#   From: 2010.05.17/outbox.cif.g08.bks.cpg/sg46_4_cif.got.tgz:7829.got - 2010.06.03 19:58:25.
