data_PCOD9379665
_publ_section_title
;
Structure prediction by ZEFSAII (Michael W. Deem and Ramdas Pophale) SiO2 
 PCOD9379665
Probable space group: I M A 2
;
_chemical_formula_sum "Si O2"
_cell_formula_units_Z 64
_cell_length_a 13.804760
_cell_length_b 12.037026
_cell_length_c 17.925914
_cell_angle_alpha 90.000000
_cell_angle_beta 90.000000
_cell_angle_gamma 90.000000
_cell_volume 2978.717849
_symmetry_space_group_name_H-M "I M A 2"
_symmetry_group_IT_number 46
_symmetry_cell_setting 'orthorhombic'
loop_
_space_group_symop_operation_xyz
x,y,z
-x,-y,z
1/2-x,y,z
1/2+x,-y,z
1/2+x,1/2+y,1/2+z
1/2-x,1/2-y,1/2+z
-x,1/2+y,1/2+z
x,1/2-y,1/2+z
loop_
_atom_site_type_symbol
_atom_site_label
_atom_site_fract_x
_atom_site_fract_y
_atom_site_fract_z
Si Si1 0.943461 0.143160 0.565880
Si Si2 0.135029 0.080575 0.207051
Si Si3 0.364629 0.505955 0.924348
Si Si4 0.007448 0.154288 0.346888
Si Si5 0.362204 0.997408 0.701889
Si Si6 0.358620 0.205009 0.614979
Si Si7 0.862172 0.334121 0.659752
Si Si8 0.137045 0.818116 0.809689
O O1 0.896386 0.079514 0.496064
O O2 0.918014 0.066970 0.637173
O O3 0.906750 0.264665 0.591420
O O4 0.058264 0.159877 0.562274
O O5 0.250000 0.075842 0.230515
O O6 0.067340 0.133257 0.271303
O O7 0.130371 0.168579 0.139360
O O8 0.104456 0.958193 0.179817
O O9 0.250000 0.498200 0.921340
O O10 0.412538 0.574881 0.855764
O O11 0.418189 0.389003 0.909903
O O12 0.953730 0.271958 0.356377
O O13 0.250000 0.968972 0.687852
O O14 0.383190 0.942790 0.781133
O O15 0.370965 0.128352 0.689473
O O16 0.250000 0.184283 0.586522
O O17 0.750000 0.345632 0.641553
O O18 0.869145 0.257902 0.734289
O O19 0.250000 0.808731 0.836993
#
# Coordination Sequence:
#
# PCOD9379665 Si02
#       8
#     8   8   8   8   8   8   8   8
#     4  11  21  35  54  80 114 157 199 242 297 354
#     4  10  20  37  60  91 124 151 191 248 312 377
#     4  11  24  38  52  78 115 157 204 246 288 346
#     4  11  22  34  53  82 115 158 191 240 299 354
#     4   9  18  33  57  84 113 147 187 241 298 352
#     4  10  22  36  55  88 123 154 189 241 309 378
#     4   9  17  31  55  82 109 145 189 247 307 356
#     4   9  17  32  54  83 112 142 188 241 294 351
#
# _framework density 21.485754
#
# number of rings (size 3 to 8) (size 9 to 14) (size 15 to 20)
#    0.000    2.000    0.000    6.000    3.500    2.500 
#    0.000    1.250    0.000    0.000    6.500    0.000 
#    0.000    0.000    0.000    0.000    0.000    0.000 
#
# Total GULP energy -178414.121067 kJ/mol
# GULP energy per Si atom -5575.441283 kJ/mol
# Density = 2.143685 g / cm^3
# Si number density = 21.485754 Si / 1000 Ang^3
#
#
#
# Elastic Constant Matrix: (Units=GPa)
#
#
# Indices 1 2 3 4 5 6 
#
# 1 164.4473 37.5122 49.2488 0.0000 0.0000 0.0000
# 2 37.5122 94.4437 18.9240 0.0000 0.0000 0.0000
# 3 49.2488 18.9240 56.6050 0.0000 0.0000 0.0000
# 4 0.0000 0.0000 0.0000 24.6332 0.0000 0.0000
# 5 0.0000 0.0000 0.0000 0.0000 26.0221 0.0000
# 6 0.0000 0.0000 0.0000 0.0000 0.0000 27.3741
#
#
#
# Elastic Compliance Matrix: (Units=1/GPa)
#
#
# Indices 1 2 3 4 5 6 
#
# 1 0.008578 -0.002049 -0.006779 0.000000 0.000000 0.000000
# 2 -0.002049 0.011838 -0.002175 0.000000 0.000000 0.000000
# 3 -0.006779 -0.002175 0.024291 0.000000 0.000000 0.000000
# 4 0.000000 0.000000 0.000000 0.040596 0.000000 0.000000
# 5 0.000000 0.000000 0.000000 0.000000 0.038429 0.000000
# 6 0.000000 0.000000 0.000000 0.000000 0.000000 0.036531
#
#
# Mechanical properties :
#
#
# Convention : Reuss Voigt Hill
#
# Bulk Modulus (GPa) = 44.04813 58.54068 51.29441
# Shear Modulus (GPa) = 26.33862 29.59328 27.96595
#
# Velocity S-wave (km/s) = 3.50503 3.71529 3.61169
# Velocity P-wave (km/s) = 6.07667 6.76091 6.42790
#
# Compressibility (1/GPa) = 0.02270244
#
# Stress axis : x y z
#
# Youngs Moduli (GPa) = 116.57137 84.47399 41.16747
#
# Poissons Ratio (x) = 0.17309 0.27906
# Poissons Ratio (y) = 0.23886 0.08953
# Poissons Ratio (z) = 0.79019 0.18372
#
# Static dielectric constant tensor:
#      x y z
#    x 1.854580 0.000000 0.000000 
#    y 0.000000 1.869510 0.000000 
#    z 0.000000 0.000000 1.819770 
# 
# From -- ./inp_files/19672.got.cif
#   From: 2010.05.17/outbox.cif.g08.bks.cpg/sg46_10_cif.got.tgz:19672.got - 2010.06.03 19:58:25.
