data_PCOD9379704
_publ_section_title
;
Structure prediction by ZEFSAII (Michael W. Deem and Ramdas Pophale) SiO2 
 PCOD9379704
Probable space group: I M A 2
;
_chemical_formula_sum "Si O2"
_cell_formula_units_Z 48
_cell_length_a 29.038922
_cell_length_b 8.568362
_cell_length_c 8.801716
_cell_angle_alpha 90.000000
_cell_angle_beta 90.000000
_cell_angle_gamma 90.000000
_cell_volume 2190.007731
_symmetry_space_group_name_H-M "I M A 2"
_symmetry_group_IT_number 46
_symmetry_cell_setting 'orthorhombic'
loop_
_space_group_symop_operation_xyz
x,y,z
-x,-y,z
1/2-x,y,z
1/2+x,-y,z
1/2+x,1/2+y,1/2+z
1/2-x,1/2-y,1/2+z
-x,1/2+y,1/2+z
x,1/2-y,1/2+z
loop_
_atom_site_type_symbol
_atom_site_label
_atom_site_fract_x
_atom_site_fract_y
_atom_site_fract_z
Si Si1 0.146394 0.016450 0.175440
Si Si2 0.149642 0.332168 0.008476
Si Si3 0.565538 0.941068 0.670864
Si Si4 0.250000 0.020235 0.146726
Si Si5 0.750000 0.699375 0.957451
Si Si6 0.489822 0.246538 0.416151
Si Si7 0.944541 0.186888 0.165436
O O1 0.140096 0.105600 0.338012
O O2 0.198790 0.946979 0.165729
O O3 0.104769 0.894736 0.162695
O O4 0.142495 0.148289 0.044017
O O5 0.203536 0.363981 0.030378
O O6 0.118719 0.415469 0.133500
O O7 0.539837 0.858660 0.529333
O O8 0.544290 0.849854 0.813649
O O9 0.558195 0.125041 0.674578
O O10 0.250000 0.149828 0.282099
O O11 0.250000 0.115911 0.989420
O O12 0.524093 0.148185 0.309491
O O13 0.525015 0.346618 0.518129
#
# Coordination Sequence:
#
# PCOD9379704 Si02
#       7
#     8   8   8   4   4   8   8
#     4  10  21  38  65  93 128 164 206 255 308 367
#     4  10  20  37  62  93 125 166 207 250 303 369
#     4  11  23  40  62  92 124 159 207 254 306 365
#     4   8  16  34  59  92 122 160 203 250 304 364
#     4   8  16  32  57  88 124 160 205 248 292 360
#     4  10  22  40  63  87 120 163 206 248 303 373
#     4  11  24  42  63  91 122 159 202 261 313 359
#
# _framework density 21.917732000000001
#
# number of rings (size 3 to 8) (size 9 to 14) (size 15 to 20)
#    0.000    2.000    0.000    4.000    0.000    5.333 
#    0.000    9.167    0.000    3.000    0.000    0.000 
#    0.000    0.000    0.000    0.000    0.000    0.000 
#
# Total GULP energy -134031.109902 kJ/mol
# GULP energy per Si atom -5584.629579 kJ/mol
# Density = 2.186785 g / cm^3
# Si number density = 21.917732 Si / 1000 Ang^3
#
#
#
# Elastic Constant Matrix: (Units=GPa)
#
#
# Indices 1 2 3 4 5 6 
#
# 1 162.1115 76.8927 69.8560 0.0000 0.0000 0.0000
# 2 76.8927 110.8470 43.2168 0.0000 0.0000 0.0000
# 3 69.8560 43.2168 110.1398 0.0000 0.0000 0.0000
# 4 0.0000 0.0000 0.0000 19.4689 0.0000 0.0000
# 5 0.0000 0.0000 0.0000 0.0000 33.0448 0.0000
# 6 0.0000 0.0000 0.0000 0.0000 0.0000 41.5264
#
#
#
# Elastic Compliance Matrix: (Units=1/GPa)
#
#
# Indices 1 2 3 4 5 6 
#
# 1 0.010902 -0.005746 -0.004660 0.000000 0.000000 0.000000
# 2 -0.005746 0.013679 -0.001723 0.000000 0.000000 0.000000
# 3 -0.004660 -0.001723 0.012711 0.000000 0.000000 0.000000
# 4 0.000000 0.000000 0.000000 0.051364 0.000000 0.000000
# 5 0.000000 0.000000 0.000000 0.000000 0.030262 0.000000
# 6 0.000000 0.000000 0.000000 0.000000 0.000000 0.024081
#
#
# Mechanical properties :
#
#
# Convention : Reuss Voigt Hill
#
# Bulk Modulus (GPa) = 76.72096 84.78101 80.75099
# Shear Modulus (GPa) = 29.13728 31.68355 30.41042
#
# Velocity S-wave (km/s) = 3.65004 3.80619 3.72893
# Velocity P-wave (km/s) = 7.26937 7.62112 7.44732
#
# Compressibility (1/GPa) = 0.01303425
#
# Stress axis : x y z
#
# Youngs Moduli (GPa) = 91.72673 73.10512 78.67111
#
# Poissons Ratio (x) = 0.42004 0.36661
# Poissons Ratio (y) = 0.52703 0.13557
# Poissons Ratio (z) = 0.42745 0.12597
#
# Static dielectric constant tensor:
#      x y z
#    x 1.854790 0.000000 0.000000 
#    y 0.000000 1.821090 0.000000 
#    z 0.000000 0.000000 1.854390 
# 
# From -- ./inp_files/8427.got.cif
#   From: 2010.05.17/outbox.cif.g08.bks.cpg/sg46_5_cif.got.tgz:8427.got - 2010.06.03 19:58:25.
