data_PCOD9379252
_publ_section_title
;
Structure prediction by ZEFSAII (Michael W. Deem and Ramdas Pophale) SiO2 
 PCOD9379252
Probable space group: I M A 2
;
_chemical_formula_sum "Si O2"
_cell_formula_units_Z 64
_cell_length_a 9.337112
_cell_length_b 16.395040
_cell_length_c 22.347699
_cell_angle_alpha 90.000000
_cell_angle_beta 90.000000
_cell_angle_gamma 90.000000
_cell_volume 3421.037715
_symmetry_space_group_name_H-M "I M A 2"
_symmetry_group_IT_number 46
_symmetry_cell_setting 'orthorhombic'
loop_
_space_group_symop_operation_xyz
x,y,z
-x,-y,z
1/2-x,y,z
1/2+x,-y,z
1/2+x,1/2+y,1/2+z
1/2-x,1/2-y,1/2+z
-x,1/2+y,1/2+z
x,1/2-y,1/2+z
loop_
_atom_site_type_symbol
_atom_site_label
_atom_site_fract_x
_atom_site_fract_y
_atom_site_fract_z
Si Si1 0.919133 0.253877 0.990250
Si Si2 0.088166 0.608232 0.779431
Si Si3 0.911556 0.577894 0.323741
Si Si4 0.080332 0.421319 0.661306
Si Si5 0.917609 0.260765 0.625592
Si Si6 0.578602 0.417572 0.919439
Si Si7 0.583290 0.583312 0.467988
Si Si8 0.590309 0.299040 0.252041
O O1 0.750000 0.238384 0.976856
O O2 0.965872 0.331598 0.950297
O O3 0.004324 0.168569 0.983363
O O4 0.931296 0.276996 0.060226
O O5 0.250000 0.576901 0.764970
O O6 0.053982 0.588561 0.847893
O O7 0.095645 0.705418 0.772157
O O8 0.970943 0.582910 0.730706
O O9 0.750000 0.569225 0.304300
O O10 0.915881 0.582152 0.395560
O O11 0.000000 0.500000 0.304011
O O12 0.981172 0.655780 0.294005
O O13 0.250000 0.426361 0.655776
O O14 0.000000 0.500000 0.635273
O O15 0.016883 0.339946 0.631601
O O16 0.750000 0.286280 0.633384
O O17 0.949070 0.202733 0.681887
O O18 0.500000 0.500000 0.940985
O O19 0.750000 0.425128 0.928774
O O20 0.500000 0.500000 0.486806
O O21 0.750000 0.582244 0.488487
O O22 0.750000 0.334107 0.259052
#
# Coordination Sequence:
#
# PCOD9379252 Si02
#       8
#     8   8   8   8   8   8   8   8
#     4  10  21  39  60  79 106 146 188 228 271 319
#     4   9  18  33  53  79 110 140 171 210 262 321
#     4  10  20  33  51  77 107 137 171 213 263 319
#     4  11  21  33  52  78 108 139 172 211 259 315
#     4   9  20  38  56  74 100 137 179 219 261 313
#     4  10  21  36  56  82 110 144 184 226 273 323
#     4  10  21  36  56  84 115 145 179 220 269 326
#     4   9  17  32  54  77 103 134 169 215 268 318
#
# _framework density 18.707774000000001
#
# number of rings (size 3 to 8) (size 9 to 14) (size 15 to 20)
#    0.000    2.250    0.000    3.750    0.000    7.500 
#    0.000    0.625    0.000    1.500    0.000    0.000 
#    0.000    0.000    0.000    0.000    0.000    0.000 
#
# Total GULP energy -178492.260027 kJ/mol
# GULP energy per Si atom -5577.883126 kJ/mol
# Density = 1.866519 g / cm^3
# Si number density = 18.707774 Si / 1000 Ang^3
#
#
#
# Elastic Constant Matrix: (Units=GPa)
#
#
# Indices 1 2 3 4 5 6 
#
# 1 82.6815 34.5099 30.7981 0.0000 0.0000 0.0000
# 2 34.5099 79.0921 26.3324 0.0000 0.0000 0.0000
# 3 30.7981 26.3324 54.8051 0.0000 0.0000 0.0000
# 4 0.0000 0.0000 0.0000 4.2178 0.0000 0.0000
# 5 0.0000 0.0000 0.0000 0.0000 0.3194 0.0000
# 6 0.0000 0.0000 0.0000 0.0000 0.0000 34.1798
#
#
#
# Elastic Compliance Matrix: (Units=1/GPa)
#
#
# Indices 1 2 3 4 5 6 
#
# 1 0.016799 -0.004984 -0.007046 0.000000 0.000000 0.000000
# 2 -0.004984 0.016530 -0.005141 0.000000 0.000000 0.000000
# 3 -0.007046 -0.005141 0.024676 0.000000 0.000000 0.000000
# 4 0.000000 0.000000 0.000000 0.237088 0.000000 0.000000
# 5 0.000000 0.000000 0.000000 0.000000 3.130392 0.000000
# 6 0.000000 0.000000 0.000000 0.000000 0.000000 0.029257
#
#
# Mechanical properties :
#
#
# Convention : Reuss Voigt Hill
#
# Bulk Modulus (GPa) = 42.26012 44.42882 43.34447
# Shear Modulus (GPa) = 1.42981 16.07265 8.75123
#
# Velocity S-wave (km/s) = 0.87518 2.93429 2.16518
# Velocity P-wave (km/s) = 4.86414 5.93974 5.42865
#
# Compressibility (1/GPa) = 0.02366297
#
# Stress axis : x y z
#
# Youngs Moduli (GPa) = 59.52581 60.49633 40.52498
#
# Poissons Ratio (x) = 0.30153 0.28553
# Poissons Ratio (y) = 0.29669 0.20835
# Poissons Ratio (z) = 0.41940 0.31103
#
# Static dielectric constant tensor:
#      x y z
#    x 1.724270 0.000000 0.000000 
#    y 0.000000 1.652730 0.000000 
#    z 0.000000 0.000000 1.661590 
# 
# From -- ./inp_files/23167.got.cif
#   From: 2010.05.17/outbox.cif.g08.bks.cpg/sg46_12_cif.got.tgz:23167.got - 2010.06.03 19:58:25.
