data_PCOD9379857
_publ_section_title
;
Structure prediction by ZEFSAII (Michael W. Deem and Ramdas Pophale) SiO2 
 PCOD9379857
Probable space group: I M A 2
;
_chemical_formula_sum "Si O2"
_cell_formula_units_Z 64
_cell_length_a 14.023733
_cell_length_b 18.607463
_cell_length_c 11.967277
_cell_angle_alpha 90.000000
_cell_angle_beta 90.000000
_cell_angle_gamma 90.000000
_cell_volume 3122.814176
_symmetry_space_group_name_H-M "I M A 2"
_symmetry_group_IT_number 46
_symmetry_cell_setting 'orthorhombic'
loop_
_space_group_symop_operation_xyz
x,y,z
-x,-y,z
1/2-x,y,z
1/2+x,-y,z
1/2+x,1/2+y,1/2+z
1/2-x,1/2-y,1/2+z
-x,1/2+y,1/2+z
x,1/2-y,1/2+z
loop_
_atom_site_type_symbol
_atom_site_label
_atom_site_fract_x
_atom_site_fract_y
_atom_site_fract_z
Si Si1 0.107705 0.472172 0.275910
Si Si2 0.552203 0.666408 0.867900
Si Si3 0.136080 0.540171 0.631646
Si Si4 0.560855 0.828799 0.900956
Si Si5 0.633822 0.879962 0.129422
Si Si6 0.643793 0.115878 0.907869
Si Si7 0.641900 0.955922 0.515683
Si Si8 0.364017 0.904300 0.377808
O O1 0.112975 0.396590 0.341654
O O2 0.150982 0.539205 0.343967
O O3 0.141006 0.460340 0.149357
O O4 0.000000 0.500000 0.266751
O O5 0.586871 0.748158 0.868649
O O6 0.591423 0.636099 0.750822
O O7 0.437354 0.661549 0.883958
O O8 0.589589 0.612906 0.964544
O O9 0.250000 0.533055 0.631353
O O10 0.100680 0.461324 0.602177
O O11 0.116812 0.597109 0.535756
O O12 0.112519 0.562440 0.756499
O O13 0.449029 0.840742 0.869475
O O14 0.588017 0.833339 0.031485
O O15 0.750000 0.874318 0.129665
O O16 0.750000 0.149149 0.901596
O O17 0.750000 0.949162 0.474021
O O18 0.609989 0.033155 0.466380
O O19 0.250000 0.888495 0.385560
#
# Coordination Sequence:
#
# PCOD9379857 Si02
#       8
#     8   8   8   8   8   8   8   8
#     4  10  21  39  62  88 118 157 203 249 293 352
#     4  12  25  40  60  90 124 163 199 242 299 364
#     4   9  17  34  64  94 112 141 197 250 298 344
#     4  11  26  40  59  91 125 161 200 240 300 363
#     4  11  23  41  64  90 120 156 201 250 300 354
#     4  10  20  39  66  92 119 154 199 252 300 351
#     4  11  23  40  62  89 118 159 206 251 298 350
#     4  10  21  39  65  92 119 153 200 253 302 351
#
# _framework density 20.494336000000001
#
# number of rings (size 3 to 8) (size 9 to 14) (size 15 to 20)
#    0.000    1.500    2.500    2.625    1.750    3.000 
#    0.000    0.000    0.000    0.000    0.000    0.000 
#    0.000    0.000    0.000    0.000    0.000    0.000 
#
# Total GULP energy -178489.234754 kJ/mol
# GULP energy per Si atom -5577.788586 kJ/mol
# Density = 2.044769 g / cm^3
# Si number density = 20.494336 Si / 1000 Ang^3
#
#
#
# Elastic Constant Matrix: (Units=GPa)
#
#
# Indices 1 2 3 4 5 6 
#
# 1 95.0076 8.3018 -0.6481 0.0000 0.0000 0.0000
# 2 8.3018 58.9672 4.3003 0.0000 0.0000 0.0000
# 3 -0.6481 4.3003 88.6938 0.0000 0.0000 0.0000
# 4 0.0000 0.0000 0.0000 3.3674 0.0000 0.0000
# 5 0.0000 0.0000 0.0000 0.0000 26.0775 0.0000
# 6 0.0000 0.0000 0.0000 0.0000 0.0000 6.5159
#
#
#
# Elastic Compliance Matrix: (Units=1/GPa)
#
#
# Indices 1 2 3 4 5 6 
#
# 1 0.010659 -0.001512 0.000151 0.000000 0.000000 0.000000
# 2 -0.001512 0.017233 -0.000847 0.000000 0.000000 0.000000
# 3 0.000151 -0.000847 0.011317 0.000000 0.000000 0.000000
# 4 0.000000 0.000000 0.000000 0.296962 0.000000 0.000000
# 5 0.000000 0.000000 0.000000 0.000000 0.038347 0.000000
# 6 0.000000 0.000000 0.000000 0.000000 0.000000 0.153472
#
#
# Mechanical properties :
#
#
# Convention : Reuss Voigt Hill
#
# Bulk Modulus (GPa) = 28.74012 29.61962 29.17987
# Shear Modulus (GPa) = 9.19114 22.57313 15.88213
#
# Velocity S-wave (km/s) = 2.12001 3.32238 2.78682
# Velocity P-wave (km/s) = 4.47733 5.40385 4.96226
#
# Compressibility (1/GPa) = 0.03479457
#
# Stress axis : x y z
#
# Youngs Moduli (GPa) = 93.82108 58.02773 88.36348
#
# Poissons Ratio (x) = 0.08772 -0.01336
# Poissons Ratio (y) = 0.14182 0.07481
# Poissons Ratio (z) = -0.01418 0.04913
#
# Static dielectric constant tensor:
#      x y z
#    x 1.788490 0.000000 0.000000 
#    y 0.000000 1.706810 0.000000 
#    z 0.000000 0.000000 1.722960 
# 
# From -- ./inp_files/11307.got.cif
#   From: 2010.05.17/outbox.cif.g08.bks.cpg/sg46_6_cif.got.tgz:11307.got - 2010.06.03 19:58:25.
