data_PCOD9379576
_publ_section_title
;
Structure prediction by ZEFSAII (Michael W. Deem and Ramdas Pophale) SiO2 
 PCOD9379576
Probable space group: I M A 2
;
_chemical_formula_sum "Si O2"
_cell_formula_units_Z 60
_cell_length_a 11.700313
_cell_length_b 28.029909
_cell_length_c 9.138622
_cell_angle_alpha 90.000000
_cell_angle_beta 90.000000
_cell_angle_gamma 90.000000
_cell_volume 2997.090670
_symmetry_space_group_name_H-M "I M A 2"
_symmetry_group_IT_number 46
_symmetry_cell_setting 'orthorhombic'
loop_
_space_group_symop_operation_xyz
x,y,z
-x,-y,z
1/2-x,y,z
1/2+x,-y,z
1/2+x,1/2+y,1/2+z
1/2-x,1/2-y,1/2+z
-x,1/2+y,1/2+z
x,1/2-y,1/2+z
loop_
_atom_site_type_symbol
_atom_site_label
_atom_site_fract_x
_atom_site_fract_y
_atom_site_fract_z
Si Si1 0.036825 0.402590 0.604320
Si Si2 0.115822 0.932217 0.844623
Si Si3 0.506755 0.253192 0.787507
Si Si4 0.879485 0.524029 0.820762
Si Si5 0.384134 0.839276 0.654691
Si Si6 0.879253 0.800276 0.039538
Si Si7 0.381392 0.649315 0.837707
Si Si8 0.000000 0.000000 0.606517
O O1 0.120218 0.430800 0.713175
O O2 0.097063 0.356698 0.531970
O O3 0.970028 0.433375 0.482307
O O4 0.943740 0.379681 0.712824
O O5 0.250000 0.941783 0.879996
O O6 0.107919 0.878396 0.781305
O O7 0.072353 0.966016 0.713527
O O8 0.553413 0.209240 0.693825
O O9 0.407094 0.281125 0.701708
O O10 0.600278 0.294193 0.813542
O O11 0.462464 0.229000 0.934437
O O12 0.750000 0.502552 0.812804
O O13 0.000000 0.500000 0.767363
O O14 0.913861 0.527480 0.993504
O O15 0.250000 0.828600 0.633411
O O16 0.427398 0.860576 0.500800
O O17 0.750000 0.790307 0.998390
O O18 0.250000 0.636227 0.832855
#
# Coordination Sequence:
#
# PCOD9379576 Si02
#       8
#     8   8   8   8   8   8   8   4
#     4  11  23  41  65  94 132 165 216 264 322 388
#     4  11  23  41  66  99 131 166 210 271 335 397
#     4  11  20  38  57  83 124 157 212 255 317 370
#     4  10  24  46  72  98 131 174 221 268 329 401
#     4  10  20  36  59  87 124 162 203 255 314 378
#     4  11  23  39  60  83 121 168 216 265 313 373
#     4  10  21  36  60  91 124 169 209 254 313 380
#     4  10  24  44  70  96 132 168 214 266 332 404
#
# _framework density 20.019414999999999
#
# number of rings (size 3 to 8) (size 9 to 14) (size 15 to 20)
#    0.400    1.067    2.667    2.800    0.933    1.067 
#    0.000    2.000    0.000    0.000    0.000    0.000 
#    0.000    0.000    0.000    0.000    0.000    0.000 
#
# Total GULP energy -167174.051951 kJ/mol
# GULP energy per Si atom -5572.468398 kJ/mol
# Density = 1.997385 g / cm^3
# Si number density = 20.019415 Si / 1000 Ang^3
#
#
#
# Elastic Constant Matrix: (Units=GPa)
#
#
# Indices 1 2 3 4 5 6 
#
# 1 72.8421 25.5761 16.7098 -0.0002 -0.0001 0.0000
# 2 25.5761 53.9471 22.4376 -0.0001 -0.0011 0.0000
# 3 16.7098 22.4376 95.1139 -0.0002 -0.0056 -0.0002
# 4 -0.0002 -0.0001 -0.0002 37.4329 -0.0008 0.0001
# 5 -0.0001 -0.0011 -0.0056 -0.0008 -9.4951 0.0004
# 6 0.0000 0.0000 -0.0002 0.0001 0.0004 14.4214
#
#
#
# Elastic Compliance Matrix: (Units=1/GPa)
#
#
# Indices 1 2 3 4 5 6 
#
# 1 0.016587 -0.007376 -0.001174 0.000000 0.000001 0.000000
# 2 -0.007376 0.023833 -0.004326 0.000000 0.000000 0.000000
# 3 -0.001174 -0.004326 0.011741 0.000000 -0.000006 0.000000
# 4 0.000000 0.000000 0.000000 0.026714 -0.000002 0.000000
# 5 0.000001 0.000000 -0.000006 -0.000002 -0.105317 0.000003
# 6 0.000000 0.000000 0.000000 0.000000 0.000003 0.069342
#
#
# Mechanical properties :
#
#
# Convention : Reuss Voigt Hill
#
# Bulk Modulus (GPa) = 37.86683 39.03888 38.45285
# Shear Modulus (GPa) = 64.55352 18.95047 41.75200
#
# Velocity S-wave (km/s) = 5.68467 3.08003 4.57176
# Velocity P-wave (km/s) = 7.87676 5.67377 6.86422
#
# Compressibility (1/GPa) = 0.02640833
#
# Stress axis : x y z
#
# Youngs Moduli (GPa) = 60.28674 41.95881 85.17441
#
# Poissons Ratio (x) = 0.30947 0.10001
# Poissons Ratio (y) = 0.44465 0.36850
# Poissons Ratio (z) = 0.07079 0.18153
#
# Static dielectric constant tensor:
#      x y z
#    x 1.698190 0.000000 0.000000 
#    y 0.000000 1.733600 0.000000 
#    z 0.000000 0.000000 1.745600 
# 
# From -- ./inp_files/4997.got.cif
#   From: 2010.05.17/outbox.cif.g08.bks.cpg/sg46_3_cif.got.tgz:4997.got - 2010.06.03 19:58:25.
