data_PCOD9379607
_publ_section_title
;
Structure prediction by ZEFSAII (Michael W. Deem and Ramdas Pophale) SiO2 
 PCOD9379607
Probable space group: I M A 2
;
_chemical_formula_sum "Si O2"
_cell_formula_units_Z 40
_cell_length_a 20.556931
_cell_length_b 8.494625
_cell_length_c 10.788934
_cell_angle_alpha 90.000000
_cell_angle_beta 90.000000
_cell_angle_gamma 90.000000
_cell_volume 1884.000553
_symmetry_space_group_name_H-M "I M A 2"
_symmetry_group_IT_number 46
_symmetry_cell_setting 'orthorhombic'
loop_
_space_group_symop_operation_xyz
x,y,z
-x,-y,z
1/2-x,y,z
1/2+x,-y,z
1/2+x,1/2+y,1/2+z
1/2-x,1/2-y,1/2+z
-x,1/2+y,1/2+z
x,1/2-y,1/2+z
loop_
_atom_site_type_symbol
_atom_site_label
_atom_site_fract_x
_atom_site_fract_y
_atom_site_fract_z
Si Si1 0.141109 0.716773 0.363790
Si Si2 0.645715 0.355734 0.620945
Si Si3 0.827377 0.787344 0.045280
Si Si4 0.980302 0.319219 0.756735
Si Si5 0.614787 0.855611 0.786720
O O1 0.175855 0.804644 0.251100
O O2 0.172710 0.722406 0.497396
O O3 0.069241 0.791926 0.369572
O O4 0.126874 0.536702 0.323873
O O5 0.650293 0.541084 0.596364
O O6 0.570425 0.303254 0.642406
O O7 0.651935 0.825600 0.657623
O O8 0.750000 0.788509 0.029280
O O9 0.859318 0.762683 0.909452
O O10 0.959062 0.797846 0.762976
O O11 0.000000 0.500000 0.755772
#
# Coordination Sequence:
#
# PCOD9379607 Si02
#       5
#     8   8   8   8   8
#     4   9  21  36  59  90 124 153 196 248 316 364
#     4   9  21  39  58  86 124 158 199 252 306 376
#     4  11  24  43  62  86 123 171 212 253 304 369
#     4  10  20  36  61  92 125 157 194 253 320 367
#     4  11  22  38  65  91 123 161 207 263 305 370
#
# _framework density 21.231415999999999
#
# number of rings (size 3 to 8) (size 9 to 14) (size 15 to 20)
#    1.200    0.800    2.000    1.200    2.800    3.200 
#    0.000    5.000    0.000    0.000    0.000    0.000 
#    0.000    0.000    0.000    0.000    0.000    0.000 
#
# Total GULP energy -111335.106009 kJ/mol
# GULP energy per Si atom -5566.755300 kJ/mol
# Density = 2.118309 g / cm^3
# Si number density = 21.231416 Si / 1000 Ang^3
#
#
#
# Elastic Constant Matrix: (Units=GPa)
#
#
# Indices 1 2 3 4 5 6 
#
# 1 119.6935 -3.1832 28.8437 0.0000 0.0000 0.0000
# 2 -3.1832 10.2902 18.3044 0.0000 0.0000 0.0000
# 3 28.8437 18.3044 104.0258 0.0000 0.0000 0.0000
# 4 0.0000 0.0000 0.0000 17.3996 0.0000 0.0000
# 5 0.0000 0.0000 0.0000 0.0000 -4.1634 0.0000
# 6 0.0000 0.0000 0.0000 0.0000 0.0000 353.9125
#
#
#
# Elastic Compliance Matrix: (Units=1/GPa)
#
#
# Indices 1 2 3 4 5 6 
#
# 1 0.009799 0.011448 -0.004731 0.000000 0.000000 0.000000
# 2 0.011448 0.154828 -0.030418 0.000000 0.000000 0.000000
# 3 -0.004731 -0.030418 0.016277 0.000000 0.000000 0.000000
# 4 0.000000 0.000000 0.000000 0.057472 0.000000 0.000000
# 5 0.000000 0.000000 0.000000 0.000000 -0.240186 0.000000
# 6 0.000000 0.000000 0.000000 0.000000 0.000000 0.002826
#
#
# Mechanical properties :
#
#
# Convention : Reuss Voigt Hill
#
# Bulk Modulus (GPa) = 7.49053 35.77102 21.63078
# Shear Modulus (GPa) = 53.80968 86.09938 69.95453
#
# Velocity S-wave (km/s) = 5.03978 6.37502 5.74631
# Velocity P-wave (km/s) = 6.11568 8.43045 7.36458
#
# Compressibility (1/GPa) = 0.13350186
#
# Stress axis : x y z
#
# Youngs Moduli (GPa) = 102.04802 6.45877 61.43558
#
# Poissons Ratio (x) = -0.07394 0.29068
# Poissons Ratio (y) = -1.16822 1.86873
# Poissons Ratio (z) = 0.48283 0.19646
#
# Static dielectric constant tensor:
#      x y z
#    x 1.790930 0.000000 0.000000 
#    y 0.000000 1.773330 0.000000 
#    z 0.000000 0.000000 1.812260 
# 
# From -- ./inp_files/12275.got.cif
#   From: 2010.05.17/outbox.cif.g08.bks.cpg/sg46_7_cif.got.tgz:12275.got - 2010.06.03 19:58:25.
