data_PCOD9379935
_publ_section_title
;
Structure prediction by ZEFSAII (Michael W. Deem and Ramdas Pophale) SiO2 
 PCOD9379935
Probable space group: I M A 2
;
_chemical_formula_sum "Si O2"
_cell_formula_units_Z 48
_cell_length_a 25.351528
_cell_length_b 7.687569
_cell_length_c 12.355914
_cell_angle_alpha 90.000000
_cell_angle_beta 90.000000
_cell_angle_gamma 90.000000
_cell_volume 2408.064105
_symmetry_space_group_name_H-M "I M A 2"
_symmetry_group_IT_number 46
_symmetry_cell_setting 'orthorhombic'
loop_
_space_group_symop_operation_xyz
x,y,z
-x,-y,z
1/2-x,y,z
1/2+x,-y,z
1/2+x,1/2+y,1/2+z
1/2-x,1/2-y,1/2+z
-x,1/2+y,1/2+z
x,1/2-y,1/2+z
loop_
_atom_site_type_symbol
_atom_site_label
_atom_site_fract_x
_atom_site_fract_y
_atom_site_fract_z
Si Si1 0.750000 0.586355 0.972190
Si Si2 0.085137 0.956432 0.349952
Si Si3 0.539820 0.353636 0.625109
Si Si4 0.750000 0.558352 0.222192
Si Si5 0.250000 0.702835 0.420468
Si Si6 0.341127 0.226249 0.849959
Si Si7 0.134792 0.624675 0.461107
Si Si8 0.000000 0.000000 0.531543
O O1 0.750000 0.409007 0.903901
O O2 0.698561 0.697596 0.941440
O O3 0.750000 0.525353 0.095777
O O4 0.050335 0.889857 0.250562
O O5 0.119330 0.791571 0.388680
O O6 0.120498 0.119576 0.315950
O O7 0.049688 0.018878 0.450888
O O8 0.500000 0.500000 0.581976
O O9 0.595369 0.367720 0.562079
O O10 0.513108 0.168361 0.602377
O O11 0.750000 0.395893 0.304948
O O12 0.802160 0.665520 0.254761
O O13 0.197076 0.645914 0.482791
O O14 0.370535 0.056881 0.896794
#
# Coordination Sequence:
#
# PCOD9379935 Si02
#       8
#     4   8   8   4   4   8   8   4
#     4  11  21  41  65  90 138 179 211 278 330 396
#     4  11  22  43  66  94 133 173 218 283 333 395
#     4  11  24  43  70 100 128 183 224 267 353 397
#     4   9  23  39  63  96 128 181 215 256 338 386
#     4  10  20  44  60  96 138 168 226 278 318 412
#     4  10  22  41  62  95 135 165 222 274 322 397
#     4  10  23  41  65  99 134 175 224 274 336 399
#     4  10  24  46  62  96 136 162 226 280 326 408
#
# _framework density 19.933024
#
# number of rings (size 3 to 8) (size 9 to 14) (size 15 to 20)
#    0.000    1.667    2.500    1.500    2.333    4.000 
#    6.000    0.000    0.000    0.000    0.000    0.000 
#    0.000    0.000    0.000    0.000    0.000    0.000 
#
# Total GULP energy -134037.916667 kJ/mol
# GULP energy per Si atom -5584.913194 kJ/mol
# Density = 1.988766 g / cm^3
# Si number density = 19.933024 Si / 1000 Ang^3
#
#
#
# Elastic Constant Matrix: (Units=GPa)
#
#
# Indices 1 2 3 4 5 6 
#
# 1 100.1462 57.6373 38.9065 0.0000 0.0000 0.0000
# 2 57.6373 142.1237 33.6593 0.0000 0.0000 0.0000
# 3 38.9065 33.6593 60.2020 0.0000 0.0000 0.0000
# 4 0.0000 0.0000 0.0000 19.9042 0.0000 0.0000
# 5 0.0000 0.0000 0.0000 0.0000 0.7447 0.0000
# 6 0.0000 0.0000 0.0000 0.0000 0.0000 38.3347
#
#
#
# Elastic Compliance Matrix: (Units=1/GPa)
#
#
# Indices 1 2 3 4 5 6 
#
# 1 0.015490 -0.004508 -0.007490 0.000000 0.000000 0.000000
# 2 -0.004508 0.009422 -0.002355 0.000000 0.000000 0.000000
# 3 -0.007490 -0.002355 0.022768 0.000000 0.000000 0.000000
# 4 0.000000 0.000000 0.000000 0.050241 0.000000 0.000000
# 5 0.000000 0.000000 0.000000 0.000000 1.342909 0.000000
# 6 0.000000 0.000000 0.000000 0.000000 0.000000 0.026086
#
#
# Mechanical properties :
#
#
# Convention : Reuss Voigt Hill
#
# Bulk Modulus (GPa) = 52.70272 62.54200 57.62236
# Shear Modulus (GPa) = 3.32902 23.28129 13.30515
#
# Velocity S-wave (km/s) = 1.29373 3.42127 2.58639
# Velocity P-wave (km/s) = 5.35994 6.85937 6.15548
#
# Compressibility (1/GPa) = 0.01897435
#
# Stress axis : x y z
#
# Youngs Moduli (GPa) = 64.55905 106.13584 43.92172
#
# Poissons Ratio (x) = 0.47845 0.32898
# Poissons Ratio (y) = 0.29102 0.10342
# Poissons Ratio (z) = 0.48355 0.24990
#
# Static dielectric constant tensor:
#      x y z
#    x 1.722180 0.000000 0.000000 
#    y 0.000000 1.703090 0.000000 
#    z 0.000000 0.000000 1.661500 
# 
# From -- ./inp_files/12762.got.cif
#   From: 2010.05.17/outbox.cif.g08.bks.cpg/sg46_7_cif.got.tgz:12762.got - 2010.06.03 19:58:25.
