data_PCOD9379589
_publ_section_title
;
Structure prediction by ZEFSAII (Michael W. Deem and Ramdas Pophale) SiO2 
 PCOD9379589
Probable space group: I M A 2
;
_chemical_formula_sum "Si O2"
_cell_formula_units_Z 64
_cell_length_a 30.531883
_cell_length_b 6.756110
_cell_length_c 16.888888
_cell_angle_alpha 90.000000
_cell_angle_beta 90.000000
_cell_angle_gamma 90.000000
_cell_volume 3483.785098
_symmetry_space_group_name_H-M "I M A 2"
_symmetry_group_IT_number 46
_symmetry_cell_setting 'orthorhombic'
loop_
_space_group_symop_operation_xyz
x,y,z
-x,-y,z
1/2-x,y,z
1/2+x,-y,z
1/2+x,1/2+y,1/2+z
1/2-x,1/2-y,1/2+z
-x,1/2+y,1/2+z
x,1/2-y,1/2+z
loop_
_atom_site_type_symbol
_atom_site_label
_atom_site_fract_x
_atom_site_fract_y
_atom_site_fract_z
Si Si1 0.671710 0.404699 0.927620
Si Si2 0.797926 0.755400 0.032481
Si Si3 0.382615 0.355080 0.636988
Si Si4 0.598178 0.305117 0.524928
Si Si5 0.956023 0.585597 0.059491
Si Si6 0.375314 0.268943 0.820056
Si Si7 0.956035 0.886986 0.917847
Si Si8 0.701663 0.007680 0.873183
O O1 0.642146 0.552333 0.875153
O O2 0.697687 0.244805 0.875902
O O3 0.698606 0.548295 0.985242
O O4 0.641276 0.267606 0.981343
O O5 0.750000 0.771638 0.071240
O O6 0.839420 0.779352 0.089898
O O7 0.800361 0.919040 0.962617
O O8 0.391432 0.575568 0.604745
O O9 0.424419 0.223605 0.611121
O O10 0.377067 0.338250 0.730097
O O11 0.572225 0.456166 0.468627
O O12 0.570893 0.108406 0.537891
O O13 0.000000 0.500000 0.098318
O O14 0.967546 0.712327 0.980506
O O15 0.422552 0.196873 0.852335
O O16 0.339125 0.094681 0.829439
O O17 0.000000 0.000000 0.890327
O O18 0.750000 0.950604 0.841926
#
# Coordination Sequence:
#
# PCOD9379589 Si02
#       8
#     8   8   8   8   8   8   8   8
#     4  11  18  38  64  86 110 157 211 247 292 347
#     4  10  20  36  60  88 114 151 205 253 290 348
#     4  11  24  38  57  89 127 161 191 243 314 362
#     4  11  19  38  64  87 113 154 207 246 288 355
#     4  11  21  38  67  89 113 155 204 253 292 351
#     4  11  24  38  57  89 130 159 190 248 310 362
#     4  11  21  36  64  92 114 154 206 248 292 355
#     4  10  20  37  63  88 114 154 207 255 293 347
#
# _framework density 18.370822
#
# number of rings (size 3 to 8) (size 9 to 14) (size 15 to 20)
#    0.000    1.250    6.250    1.875    0.000    2.500 
#    0.000    0.000    5.500    0.000    0.000    0.000 
#    0.000    0.000    0.000    0.000    0.000    0.000 
#
# Total GULP energy -178508.540697 kJ/mol
# GULP energy per Si atom -5578.391897 kJ/mol
# Density = 1.832901 g / cm^3
# Si number density = 18.370822 Si / 1000 Ang^3
#
#
#
# Elastic Constant Matrix: (Units=GPa)
#
#
# Indices 1 2 3 4 5 6 
#
# 1 122.2923 28.2409 27.4393 0.0000 0.0000 0.0000
# 2 28.2409 107.4501 15.0361 0.0000 0.0000 0.0000
# 3 27.4393 15.0361 65.3819 0.0000 0.0000 0.0000
# 4 0.0000 0.0000 0.0000 13.6421 0.0000 0.0000
# 5 0.0000 0.0000 0.0000 0.0000 0.4179 0.0000
# 6 0.0000 0.0000 0.0000 0.0000 0.0000 16.1722
#
#
#
# Elastic Compliance Matrix: (Units=1/GPa)
#
#
# Indices 1 2 3 4 5 6 
#
# 1 0.009420 -0.001987 -0.003497 0.000000 0.000000 0.000000
# 2 -0.001987 0.010035 -0.001474 0.000000 0.000000 0.000000
# 3 -0.003497 -0.001474 0.017101 0.000000 0.000000 0.000000
# 4 0.000000 0.000000 0.000000 0.073302 0.000000 0.000000
# 5 0.000000 0.000000 0.000000 0.000000 2.392997 0.000000
# 6 0.000000 0.000000 0.000000 0.000000 0.000000 0.061834
#
#
# Mechanical properties :
#
#
# Convention : Reuss Voigt Hill
#
# Bulk Modulus (GPa) = 44.16571 48.50633 46.33602
# Shear Modulus (GPa) = 1.93337 21.00698 11.47018
#
# Velocity S-wave (km/s) = 1.02699 3.38523 2.50145
# Velocity P-wave (km/s) = 5.04972 6.46073 5.79831
#
# Compressibility (1/GPa) = 0.02264200
#
# Stress axis : x y z
#
# Youngs Moduli (GPa) = 106.15175 99.65055 58.47536
#
# Poissons Ratio (x) = 0.19797 0.20447
# Poissons Ratio (y) = 0.21089 0.08620
# Poissons Ratio (z) = 0.37118 0.14689
#
# Static dielectric constant tensor:
#      x y z
#    x 1.711380 0.000000 0.000000 
#    y 0.000000 1.664580 0.000000 
#    z 0.000000 0.000000 1.598160 
# 
# From -- ./inp_files/20569.got.cif
#   From: 2010.05.17/outbox.cif.g08.bks.cpg/sg46_11_cif.got.tgz:20569.got - 2010.06.03 19:58:25.
