data_PCOD9379283
_publ_section_title
;
Structure prediction by ZEFSAII (Michael W. Deem and Ramdas Pophale) SiO2 
 PCOD9379283
Probable space group: I M A 2
;
_chemical_formula_sum "Si O2"
_cell_formula_units_Z 64
_cell_length_a 9.056744
_cell_length_b 32.616524
_cell_length_c 11.965462
_cell_angle_alpha 90.000000
_cell_angle_beta 90.000000
_cell_angle_gamma 90.000000
_cell_volume 3534.591588
_symmetry_space_group_name_H-M "I M A 2"
_symmetry_group_IT_number 46
_symmetry_cell_setting 'orthorhombic'
loop_
_space_group_symop_operation_xyz
x,y,z
-x,-y,z
1/2-x,y,z
1/2+x,-y,z
1/2+x,1/2+y,1/2+z
1/2-x,1/2-y,1/2+z
-x,1/2+y,1/2+z
x,1/2-y,1/2+z
loop_
_atom_site_type_symbol
_atom_site_label
_atom_site_fract_x
_atom_site_fract_y
_atom_site_fract_z
Si Si1 0.427644 0.454930 0.459020
Si Si2 0.922440 0.722605 0.956973
Si Si3 0.075033 0.455982 0.204009
Si Si4 0.427958 0.849537 0.320625
Si Si5 0.922319 0.817808 0.892890
Si Si6 0.416952 0.686019 0.160227
Si Si7 0.572743 0.377778 0.569658
Si Si8 0.916715 0.100412 0.528207
O O1 0.500000 0.500000 0.473124
O O2 0.250000 0.457476 0.471511
O O3 0.460148 0.440902 0.330414
O O4 0.497528 0.421252 0.540707
O O5 0.750000 0.711729 0.969181
O O6 0.933497 0.769681 0.921491
O O7 0.995183 0.691523 0.867390
O O8 0.003985 0.716831 0.075192
O O9 0.250000 0.459989 0.197505
O O10 0.000000 0.500000 0.193835
O O11 0.016633 0.427950 0.104511
O O12 0.250000 0.844253 0.330743
O O13 0.463204 0.861373 0.193878
O O14 0.468796 0.886817 0.404663
O O15 0.750000 0.829870 0.895038
O O16 0.990001 0.822072 0.770362
O O17 0.011475 0.845196 0.980438
O O18 0.250000 0.699325 0.187575
O O19 0.409073 0.643778 0.091877
O O20 0.750000 0.381527 0.560714
O O21 0.750000 0.083319 0.521885
#
# Coordination Sequence:
#
# PCOD9379283 Si02
#       8
#     8   8   8   8   8   8   8   8
#     4  10  21  38  60  87 120 155 191 241 296 354
#     4  10  22  38  57  81 113 150 188 237 294 346
#     4  10  20  33  54  84 114 144 180 225 280 338
#     4   9  21  40  59  81 112 152 197 240 285 344
#     4  11  24  38  55  83 117 150 189 239 292 347
#     4  10  21  37  58  81 107 143 186 231 281 337
#     4  11  23  39  60  87 116 154 200 246 294 352
#     4   9  18  35  56  78 107 140 178 227 277 328
#
# _framework density 18.106760000000001
#
# number of rings (size 3 to 8) (size 9 to 14) (size 15 to 20)
#    0.000    2.000    0.000    3.750    1.750    9.000 
#    0.000    0.625    0.000    0.000    0.000    0.000 
#    0.000    0.000    0.000    0.000    0.000    0.000 
#
# Total GULP energy -178637.293331 kJ/mol
# GULP energy per Si atom -5582.415417 kJ/mol
# Density = 1.806555 g / cm^3
# Si number density = 18.106760 Si / 1000 Ang^3
#
#
#
# Elastic Constant Matrix: (Units=GPa)
#
#
# Indices 1 2 3 4 5 6 
#
# 1 79.3067 35.3770 47.6982 0.0001 0.0000 0.0000
# 2 35.3770 51.9513 38.3026 0.0003 0.0000 0.0000
# 3 47.6982 38.3026 128.0859 0.0004 -0.0001 0.0000
# 4 0.0001 0.0003 0.0004 8.8637 -0.0001 0.0000
# 5 0.0000 0.0000 -0.0001 -0.0001 28.3579 0.0000
# 6 0.0000 0.0000 0.0000 0.0000 0.0000 34.8972
#
#
#
# Elastic Compliance Matrix: (Units=1/GPa)
#
#
# Indices 1 2 3 4 5 6 
#
# 1 0.019788 -0.010316 -0.004284 0.000000 0.000000 0.000000
# 2 -0.010316 0.030071 -0.005151 -0.000001 0.000000 0.000000
# 3 -0.004284 -0.005151 0.010943 0.000000 0.000000 0.000000
# 4 0.000000 -0.000001 0.000000 0.112819 0.000000 0.000000
# 5 0.000000 0.000000 0.000000 0.000000 0.035264 0.000000
# 6 0.000000 0.000000 0.000000 0.000000 0.000000 0.028656
#
#
# Mechanical properties :
#
#
# Convention : Reuss Voigt Hill
#
# Bulk Modulus (GPa) = 46.94829 55.78883 51.36856
# Shear Modulus (GPa) = 17.59684 23.62151 20.60918
#
# Velocity S-wave (km/s) = 3.12081 3.61580 3.37739
# Velocity P-wave (km/s) = 6.24266 6.95054 6.60609
#
# Compressibility (1/GPa) = 0.02130003
#
# Stress axis : x y z
#
# Youngs Moduli (GPa) = 50.53671 33.25424 91.38437
#
# Poissons Ratio (x) = 0.34306 0.39147
# Poissons Ratio (y) = 0.52135 0.47070
# Poissons Ratio (z) = 0.21649 0.17128
#
# Static dielectric constant tensor:
#      x y z
#    x 1.621090 0.000000 0.000000 
#    y 0.000000 1.609510 0.000000 
#    z 0.000000 0.000000 1.618680 
# 
# From -- ./inp_files/9724.got.cif
#   From: 2010.05.17/outbox.cif.g08.bks.cpg/sg46_5_cif.got.tgz:9724.got - 2010.06.03 19:58:25.
