data_PCOD9379020
_publ_section_title
;
Structure prediction by ZEFSAII (Michael W. Deem and Ramdas Pophale) SiO2 
 PCOD9379020
Probable space group: I M A 2
;
_chemical_formula_sum "Si O2"
_cell_formula_units_Z 64
_cell_length_a 8.545713
_cell_length_b 25.513284
_cell_length_c 15.475033
_cell_angle_alpha 90.000000
_cell_angle_beta 90.000000
_cell_angle_gamma 90.000000
_cell_volume 3374.009108
_symmetry_space_group_name_H-M "I M A 2"
_symmetry_group_IT_number 46
_symmetry_cell_setting 'orthorhombic'
loop_
_space_group_symop_operation_xyz
x,y,z
-x,-y,z
1/2-x,y,z
1/2+x,-y,z
1/2+x,1/2+y,1/2+z
1/2-x,1/2-y,1/2+z
-x,1/2+y,1/2+z
x,1/2-y,1/2+z
loop_
_atom_site_type_symbol
_atom_site_label
_atom_site_fract_x
_atom_site_fract_y
_atom_site_fract_z
Si Si1 0.064359 0.232793 0.375000
Si Si2 0.062364 0.108355 0.608364
Si Si3 0.436452 0.634286 0.778602
Si Si4 0.437500 0.556625 0.278903
Si Si5 0.563098 0.558756 0.925797
Si Si6 0.560359 0.164970 0.096955
Si Si7 0.062299 0.782606 0.567179
Si Si8 0.560488 0.346757 0.400359
O O1 0.250000 0.227988 0.364633
O O2 0.977921 0.192196 0.312933
O O3 0.016204 0.216691 0.472628
O O4 0.010089 0.292725 0.364381
O O5 0.250000 0.110892 0.609057
O O6 0.009347 0.085981 0.515299
O O7 0.003913 0.071637 0.685124
O O8 0.993645 0.166666 0.618518
O O9 0.250000 0.627241 0.780380
O O10 0.510410 0.593067 0.844299
O O11 0.494064 0.632125 0.679415
O O12 0.500000 0.500000 0.305749
O O13 0.250000 0.555332 0.274770
O O14 0.484179 0.602929 0.344554
O O15 0.500000 0.500000 0.920830
O O16 0.750000 0.557431 0.928154
O O17 0.750000 0.162599 0.097372
O O18 0.518711 0.226400 0.107337
O O19 0.510363 0.148411 0.000858
O O20 0.250000 0.783917 0.556943
O O21 0.750000 0.341656 0.398913
#
# Coordination Sequence:
#
# PCOD9379020 Si02
#       8
#     8   8   8   8   8   8   8   8
#     4  11  21  34  54  86 122 155 193 242 294 349
#     4  11  23  38  58  87 123 157 195 243 295 355
#     4  11  21  36  60  87 118 157 198 243 293 352
#     4  11  24  41  63  87 116 154 202 252 303 359
#     4  11  24  41  60  84 117 156 199 244 293 351
#     4   8  18  36  59  86 116 152 196 242 289 349
#     4  10  19  35  58  85 119 159 198 235 287 354
#     4   9  20  41  63  84 114 156 201 247 299 359
#
# _framework density 18.968533000000001
#
# number of rings (size 3 to 8) (size 9 to 14) (size 15 to 20)
#    0.000    1.750    1.250    4.125    1.750    3.500 
#    0.000    6.250    0.000    1.500    0.000    0.000 
#    0.000    0.000    0.000    0.000    0.000    0.000 
#
# Total GULP energy -178778.193656 kJ/mol
# GULP energy per Si atom -5586.818552 kJ/mol
# Density = 1.892536 g / cm^3
# Si number density = 18.968533 Si / 1000 Ang^3
#
#
#
# Elastic Constant Matrix: (Units=GPa)
#
#
# Indices 1 2 3 4 5 6 
#
# 1 33.4224 17.0723 11.6684 0.0000 0.0000 0.0000
# 2 17.0723 108.9150 48.2812 0.0001 0.0000 0.0000
# 3 11.6684 48.2812 85.4986 0.0002 -0.0001 0.0000
# 4 0.0000 0.0001 0.0002 23.6215 0.0000 0.0000
# 5 0.0000 0.0000 -0.0001 0.0000 10.2209 0.0000
# 6 0.0000 0.0000 0.0000 0.0000 0.0000 31.6693
#
#
#
# Elastic Compliance Matrix: (Units=1/GPa)
#
#
# Indices 1 2 3 4 5 6 
#
# 1 0.032804 -0.004212 -0.002099 0.000000 0.000000 0.000000
# 2 -0.004212 0.012788 -0.006647 0.000000 0.000000 0.000000
# 3 -0.002099 -0.006647 0.015736 0.000000 0.000000 0.000000
# 4 0.000000 0.000000 0.000000 0.042334 0.000000 0.000000
# 5 0.000000 0.000000 0.000000 0.000000 0.097839 0.000000
# 6 0.000000 0.000000 0.000000 0.000000 0.000000 0.031576
#
#
# Mechanical properties :
#
#
# Convention : Reuss Voigt Hill
#
# Bulk Modulus (GPa) = 28.23733 42.43111 35.33422
# Shear Modulus (GPa) = 18.46407 23.15660 20.81034
#
# Velocity S-wave (km/s) = 3.12333 3.49777 3.31584
# Velocity P-wave (km/s) = 5.28447 6.22337 5.77304
#
# Compressibility (1/GPa) = 0.03541412
#
# Stress axis : x y z
#
# Youngs Moduli (GPa) = 30.48404 78.19789 63.54909
#
# Poissons Ratio (x) = 0.32935 0.13336
# Poissons Ratio (y) = 0.12839 0.42239
# Poissons Ratio (z) = 0.06397 0.51975
#
# Static dielectric constant tensor:
#      x y z
#    x 1.643820 0.000000 0.000000 
#    y 0.000000 1.634700 0.000000 
#    z 0.000000 0.000000 1.679030 
# 
# From -- ./inp_files/14546.got.cif
#   From: 2010.05.17/outbox.cif.g08.bks.cpg/sg46_8_cif.got.tgz:14546.got - 2010.06.03 19:58:25.
