data_PCOD9379673
_publ_section_title
;
Structure prediction by ZEFSAII (Michael W. Deem and Ramdas Pophale) SiO2 
 PCOD9379673
Probable space group: I M A 2
;
_chemical_formula_sum "Si O2"
_cell_formula_units_Z 48
_cell_length_a 15.287753
_cell_length_b 17.630637
_cell_length_c 9.078612
_cell_angle_alpha 90.000000
_cell_angle_beta 90.000000
_cell_angle_gamma 90.000000
_cell_volume 2446.983928
_symmetry_space_group_name_H-M "I M A 2"
_symmetry_group_IT_number 46
_symmetry_cell_setting 'orthorhombic'
loop_
_space_group_symop_operation_xyz
x,y,z
-x,-y,z
1/2-x,y,z
1/2+x,-y,z
1/2+x,1/2+y,1/2+z
1/2-x,1/2-y,1/2+z
-x,1/2+y,1/2+z
x,1/2-y,1/2+z
loop_
_atom_site_type_symbol
_atom_site_label
_atom_site_fract_x
_atom_site_fract_y
_atom_site_fract_z
Si Si1 0.973692 0.173123 0.477950
Si Si2 0.094999 0.963905 0.657758
Si Si3 0.475554 0.826247 0.128887
Si Si4 0.653008 0.871421 0.626996
Si Si5 0.849385 0.056332 0.979580
Si Si6 0.650135 0.625621 0.476459
O O1 0.921020 0.100044 0.536633
O O2 0.972102 0.179290 0.303578
O O3 0.940368 0.249693 0.553892
O O4 0.073444 0.161279 0.534015
O O5 0.133746 0.929033 0.806413
O O6 0.149793 0.037057 0.609182
O O7 0.000000 0.000000 0.696041
O O8 0.419286 0.897295 0.072395
O O9 0.574815 0.836809 0.072004
O O10 0.750000 0.843784 0.587947
O O11 0.637605 0.857578 0.801960
O O12 0.750000 0.076904 0.018817
O O13 0.858414 0.965434 0.995033
O O14 0.750000 0.646451 0.515219
#
# Coordination Sequence:
#
# PCOD9379673 Si02
#       6
#     8   8   8   8   8   8
#     4  11  24  37  56  80 111 153 189 227 282 330
#     4   9  17  35  60  85 112 145 182 222 275 333
#     4  12  23  39  56  79 116 152 187 233 278 329
#     4   9  18  36  60  87 114 143 181 226 275 335
#     4  10  20  37  61  86 110 145 187 229 277 332
#     4   9  19  36  62  89 114 146 183 223 276 335
#
# _framework density 19.615984999999998
#
# number of rings (size 3 to 8) (size 9 to 14) (size 15 to 20)
#    0.000    2.000    0.000    7.000    0.000    5.333 
#    0.000    7.500    0.000    0.000    0.000    0.000 
#    0.000    0.000    0.000    0.000    0.000    0.000 
#
# Total GULP energy -134082.823755 kJ/mol
# GULP energy per Si atom -5586.784323 kJ/mol
# Density = 1.957134 g / cm^3
# Si number density = 19.615985 Si / 1000 Ang^3
#
#
#
# Elastic Constant Matrix: (Units=GPa)
#
#
# Indices 1 2 3 4 5 6 
#
# 1 49.3038 13.5234 21.8613 0.0000 0.0000 0.0000
# 2 13.5234 49.3492 45.6253 0.0000 0.0000 0.0000
# 3 21.8613 45.6253 104.0735 0.0000 0.0000 0.0000
# 4 0.0000 0.0000 0.0000 30.5711 0.0000 0.0000
# 5 0.0000 0.0000 0.0000 0.0000 -2.4990 0.0000
# 6 0.0000 0.0000 0.0000 0.0000 0.0000 10.1590
#
#
#
# Elastic Compliance Matrix: (Units=1/GPa)
#
#
# Indices 1 2 3 4 5 6 
#
# 1 0.022633 -0.003038 -0.003422 0.000000 0.000000 0.000000
# 2 -0.003038 0.034483 -0.014479 0.000000 0.000000 0.000000
# 3 -0.003422 -0.014479 0.016675 0.000000 0.000000 0.000000
# 4 0.000000 0.000000 0.000000 0.032711 0.000000 0.000000
# 5 0.000000 0.000000 0.000000 0.000000 -0.400161 0.000000
# 6 0.000000 0.000000 0.000000 0.000000 0.000000 0.098435
#
#
# Mechanical properties :
#
#
# Convention : Reuss Voigt Hill
#
# Bulk Modulus (GPa) = 31.33616 40.52739 35.93178
# Shear Modulus (GPa) = -35.03639 15.76065 -9.63787
#
# Velocity S-wave (km/s) = -4.23083 2.83761 -2.21900
# Velocity P-wave (km/s) = 2.80305 5.60725 3.43396
#
# Compressibility (1/GPa) = 0.03191201
#
# Stress axis : x y z
#
# Youngs Moduli (GPa) = 44.18284 29.00020 59.97046
#
# Poissons Ratio (x) = 0.08811 0.20524
# Poissons Ratio (y) = 0.13424 0.86830
# Poissons Ratio (z) = 0.15121 0.41989
#
# Static dielectric constant tensor:
#      x y z
#    x 1.697150 0.000000 0.000000 
#    y 0.000000 1.709990 0.000000 
#    z 0.000000 0.000000 1.643170 
# 
# From -- ./inp_files/5695.got.cif
#   From: 2010.05.17/outbox.cif.g08.bks.cpg/sg46_3_cif.got.tgz:5695.got - 2010.06.03 19:58:25.
