data_PCOD9379508
_publ_section_title
;
Structure prediction by ZEFSAII (Michael W. Deem and Ramdas Pophale) SiO2 
 PCOD9379508
Probable space group: I M A 2
;
_chemical_formula_sum "Si O2"
_cell_formula_units_Z 64
_cell_length_a 11.801635
_cell_length_b 13.966342
_cell_length_c 18.391638
_cell_angle_alpha 90.000000
_cell_angle_beta 90.000000
_cell_angle_gamma 90.000000
_cell_volume 3031.414066
_symmetry_space_group_name_H-M "I M A 2"
_symmetry_group_IT_number 46
_symmetry_cell_setting 'orthorhombic'
loop_
_space_group_symop_operation_xyz
x,y,z
-x,-y,z
1/2-x,y,z
1/2+x,-y,z
1/2+x,1/2+y,1/2+z
1/2-x,1/2-y,1/2+z
-x,1/2+y,1/2+z
x,1/2-y,1/2+z
loop_
_atom_site_type_symbol
_atom_site_label
_atom_site_fract_x
_atom_site_fract_y
_atom_site_fract_z
Si Si1 0.370925 0.721610 0.193850
Si Si2 0.443712 0.905429 0.121809
Si Si3 0.875845 0.951042 0.772150
Si Si4 0.124155 0.951042 0.963547
Si Si5 0.629075 0.721610 0.541847
Si Si6 0.624202 0.238002 0.862941
Si Si7 0.375798 0.238002 0.872756
Si Si8 0.943712 0.594572 0.113888
O O1 0.250000 0.691956 0.164062
O O2 0.385682 0.834470 0.178321
O O3 0.374613 0.703786 0.279407
O O4 0.461541 0.660418 0.151624
O O5 0.538459 0.839582 0.084073
O O6 0.500000 0.000000 0.154558
O O7 0.373870 0.936010 0.050549
O O8 0.750000 0.994878 0.789572
O O9 0.879596 0.851445 0.816960
O O10 0.873870 0.936010 0.685148
O O11 0.000000 0.000000 0.786127
O O12 0.250000 0.994878 0.946125
O O13 0.120404 0.851445 0.918737
O O14 0.000000 0.000000 0.949570
O O15 0.750000 0.691956 0.571635
O O16 0.625387 0.703785 0.456290
O O17 0.614317 0.834470 0.557375
O O18 0.750000 0.284509 0.874897
O O19 0.500000 0.288775 0.867849
O O20 0.250000 0.284509 0.860800
O O21 0.000000 0.500000 0.081139
#
# Coordination Sequence:
#
# PCOD9379508 Si02
#       8
#     8   8   8   8   8   8   8   8
#     4  10  21  37  58  85 118 158 199 244 300 357
#     4  10  21  37  59  86 121 152 200 246 301 358
#     4  10  21  35  56  85 120 153 192 242 303 367
#     4  10  21  35  56  85 120 153 192 242 303 367
#     4  10  21  37  58  85 118 158 199 244 300 357
#     4  10  20  36  54  80 116 153 193 238 288 352
#     4  10  20  36  54  80 116 153 193 238 288 352
#     4  10  21  37  59  86 121 152 200 246 301 358
#
# _framework density 21.112259999999999
#
# number of rings (size 3 to 8) (size 9 to 14) (size 15 to 20)
#    0.000    2.000    2.500    0.750    0.000    7.500 
#    0.000    2.500    0.000    0.750    0.000    3.500 
#    0.000    0.000    0.000    0.000    0.000    0.000 
#
# Total GULP energy -178200.264031 kJ/mol
# GULP energy per Si atom -5568.758251 kJ/mol
# Density = 2.106421 g / cm^3
# Si number density = 21.112260 Si / 1000 Ang^3
#
#
#
# Elastic Constant Matrix: (Units=GPa)
#
#
# Indices 1 2 3 4 5 6 
#
# 1 204.1228 14.5711 7.2894 0.0000 0.0000 0.0000
# 2 14.5711 55.7184 11.9972 0.0000 0.0000 0.0000
# 3 7.2894 11.9972 32.4392 0.0000 0.0000 0.0000
# 4 0.0000 0.0000 0.0000 11.8006 0.0000 0.0000
# 5 0.0000 0.0000 0.0000 0.0000 92.1771 0.0000
# 6 0.0000 0.0000 0.0000 0.0000 0.0000 6.8725
#
#
#
# Elastic Compliance Matrix: (Units=1/GPa)
#
#
# Indices 1 2 3 4 5 6 
#
# 1 0.005007 -0.001159 -0.000696 0.000000 0.000000 0.000000
# 2 -0.001159 0.019769 -0.007051 0.000000 0.000000 0.000000
# 3 -0.000696 -0.007051 0.033591 0.000000 0.000000 0.000000
# 4 0.000000 0.000000 0.000000 0.084741 0.000000 0.000000
# 5 0.000000 0.000000 0.000000 0.000000 0.010849 0.000000
# 6 0.000000 0.000000 0.000000 0.000000 0.000000 0.145507
#
#
# Mechanical properties :
#
#
# Convention : Reuss Voigt Hill
#
# Bulk Modulus (GPa) = 24.65867 39.99954 32.32911
# Shear Modulus (GPa) = 15.11517 39.39822 27.25670
#
# Velocity S-wave (km/s) = 2.67861 4.32456 3.59700
# Velocity P-wave (km/s) = 4.61213 6.62744 5.70941
#
# Compressibility (1/GPa) = 0.04055369
#
# Stress axis : x y z
#
# Youngs Moduli (GPa) = 199.73480 50.58500 29.76997
#
# Poissons Ratio (x) = 0.05865 0.02073
# Poissons Ratio (y) = 0.23157 0.20990
# Poissons Ratio (z) = 0.13907 0.35666
#
# Static dielectric constant tensor:
#      x y z
#    x 1.902440 0.000000 0.000000 
#    y 0.000000 1.794920 0.000000 
#    z 0.000000 0.000000 1.736220 
# 
# From -- ./inp_files/19021.got.cif
#   From: 2010.05.17/outbox.cif.g08.bks.cpg/sg46_10_cif.got.tgz:19021.got - 2010.06.03 19:58:25.
