data_PCOD9379150
_publ_section_title
;
Structure prediction by ZEFSAII (Michael W. Deem and Ramdas Pophale) SiO2 
 PCOD9379150
Probable space group: I M A 2
;
_chemical_formula_sum "Si O2"
_cell_formula_units_Z 60
_cell_length_a 26.123235
_cell_length_b 10.824068
_cell_length_c 8.732103
_cell_angle_alpha 90.000000
_cell_angle_beta 90.000000
_cell_angle_gamma 90.000000
_cell_volume 2469.086580
_symmetry_space_group_name_H-M "I M A 2"
_symmetry_group_IT_number 46
_symmetry_cell_setting 'orthorhombic'
loop_
_space_group_symop_operation_xyz
x,y,z
-x,-y,z
1/2-x,y,z
1/2+x,-y,z
1/2+x,1/2+y,1/2+z
1/2-x,1/2-y,1/2+z
-x,1/2+y,1/2+z
x,1/2-y,1/2+z
loop_
_atom_site_type_symbol
_atom_site_label
_atom_site_fract_x
_atom_site_fract_y
_atom_site_fract_z
Si Si1 0.750000 0.126681 0.895340
Si Si2 0.663408 0.332121 0.872282
Si Si3 0.158280 0.429033 0.022458
Si Si4 0.189159 0.238579 0.242134
Si Si5 0.954990 0.909147 0.418986
Si Si6 0.071554 0.651273 0.466732
Si Si7 0.999630 0.771034 0.705629
Si Si8 0.842895 0.500023 0.566790
O O1 0.705539 0.227899 0.848464
O O2 0.705145 0.035349 0.963999
O O3 0.682642 0.436055 0.994677
O O4 0.612655 0.260838 0.931055
O O5 0.656766 0.405350 0.712605
O O6 0.164537 0.368820 0.189360
O O7 0.180933 0.325167 0.907537
O O8 0.100814 0.454813 0.962249
O O9 0.250000 0.249941 0.218435
O O10 0.164345 0.135076 0.132859
O O11 0.976601 0.852992 0.574283
O O12 0.955144 0.804151 0.290438
O O13 0.000000 0.000000 0.367220
O O14 0.040473 0.682925 0.619966
O O15 0.031174 0.652584 0.330188
O O16 0.103732 0.526912 0.483769
#
# Coordination Sequence:
#
# PCOD9379150 Si02
#       8
#     4   8   8   8   8   8   8   8
#     4  10  20  34  60 100 120 162 210 270 318 396
#     4  10  21  37  67  89 130 167 214 262 337 390
#     4  11  24  44  66  93 128 177 228 267 334 391
#     4  11  24  43  67  91 133 179 226 274 323 401
#     4  11  24  44  69  97 134 175 222 287 338 403
#     4  10  19  38  63  99 126 166 203 273 330 408
#     4  10  21  40  65  96 127 162 221 262 342 396
#     4  10  20  38  61  93 134 165 215 259 337 386
#
# _framework density 24.300483
#
# number of rings (size 3 to 8) (size 9 to 14) (size 15 to 20)
#    0.000    1.600    2.000    3.200    5.600    0.000 
#    7.200    1.333    0.000    0.000    0.000    0.000 
#    0.000    0.000    0.000    0.000    0.000    0.000 
#
# Total GULP energy -167406.450299 kJ/mol
# GULP energy per Si atom -5580.215010 kJ/mol
# Density = 2.424517 g / cm^3
# Si number density = 24.300483 Si / 1000 Ang^3
#
#
#
# Elastic Constant Matrix: (Units=GPa)
#
#
# Indices 1 2 3 4 5 6 
#
# 1 93.8660 -0.2276 9.2024 0.0000 0.0000 0.0000
# 2 -0.2276 48.8676 39.3280 0.0000 0.0000 0.0000
# 3 9.2024 39.3280 57.6957 0.0000 0.0000 0.0000
# 4 0.0000 0.0000 0.0000 61.4018 0.0000 0.0000
# 5 0.0000 0.0000 0.0000 0.0000 3.6124 0.0000
# 6 0.0000 0.0000 0.0000 0.0000 0.0000 7.8222
#
#
#
# Elastic Compliance Matrix: (Units=1/GPa)
#
#
# Indices 1 2 3 4 5 6 
#
# 1 0.011052 0.003257 -0.003983 0.000000 0.000000 0.000000
# 2 0.003257 0.046291 -0.032073 0.000000 0.000000 0.000000
# 3 -0.003983 -0.032073 0.039830 0.000000 0.000000 0.000000
# 4 0.000000 0.000000 0.000000 0.016286 0.000000 0.000000
# 5 0.000000 0.000000 0.000000 0.000000 0.276822 0.000000
# 6 0.000000 0.000000 0.000000 0.000000 0.000000 0.127842
#
#
# Mechanical properties :
#
#
# Convention : Reuss Voigt Hill
#
# Bulk Modulus (GPa) = 31.67148 33.00389 32.33768
# Shear Modulus (GPa) = 8.41403 24.70905 16.56154
#
# Velocity S-wave (km/s) = 1.86280 3.19221 2.61345
# Velocity P-wave (km/s) = 4.20574 5.21517 4.73742
#
# Compressibility (1/GPa) = 0.03157415
#
# Stress axis : x y z
#
# Youngs Moduli (GPa) = 90.48275 21.60257 25.10661
#
# Poissons Ratio (x) = -0.07035 0.09999
# Poissons Ratio (y) = -0.29467 0.80525
# Poissons Ratio (z) = 0.36036 0.69287
#
# Static dielectric constant tensor:
#      x y z
#    x 1.972470 0.000000 0.000000 
#    y 0.000000 1.849450 0.000000 
#    z 0.000000 0.000000 1.988690 
# 
# From -- ./inp_files/8203.got.cif
#   From: 2010.05.17/outbox.cif.g08.bks.cpg/sg46_5_cif.got.tgz:8203.got - 2010.06.03 19:58:25.
