data_PCOD9379152
_publ_section_title
;
Structure prediction by ZEFSAII (Michael W. Deem and Ramdas Pophale) SiO2 
 PCOD9379152
Probable space group: I M A 2
;
_chemical_formula_sum "Si O2"
_cell_formula_units_Z 32
_cell_length_a 12.139459
_cell_length_b 8.743666
_cell_length_c 13.049116
_cell_angle_alpha 90.000000
_cell_angle_beta 90.000000
_cell_angle_gamma 90.000000
_cell_volume 1385.077212
_symmetry_space_group_name_H-M "I M A 2"
_symmetry_group_IT_number 46
_symmetry_cell_setting 'orthorhombic'
loop_
_space_group_symop_operation_xyz
x,y,z
-x,-y,z
1/2-x,y,z
1/2+x,-y,z
1/2+x,1/2+y,1/2+z
1/2-x,1/2-y,1/2+z
-x,1/2+y,1/2+z
x,1/2-y,1/2+z
loop_
_atom_site_type_symbol
_atom_site_label
_atom_site_fract_x
_atom_site_fract_y
_atom_site_fract_z
Si Si1 0.124806 0.704790 0.311970
Si Si2 0.129006 0.169204 0.123399
Si Si3 0.876819 0.482741 0.105180
Si Si4 0.500000 0.000000 0.958870
Si Si5 0.500000 0.500000 0.791331
O O1 0.250000 0.750336 0.325372
O O2 0.111591 0.644044 0.194876
O O3 0.093567 0.566247 0.385941
O O4 0.048358 0.847790 0.340591
O O5 0.250000 0.127070 0.085584
O O6 0.130854 0.346754 0.152666
O O7 0.096473 0.064026 0.218170
O O8 0.044237 0.131780 0.033362
O O9 0.750000 0.459784 0.058930
O O10 0.000000 0.500000 0.052588
#
# Coordination Sequence:
#
# PCOD9379152 Si02
#       5
#     8   8   8   4   4
#     4  11  22  39  63  89 121 161 204 254 306 362
#     4  10  21  37  60  88 119 157 200 252 306 361
#     4  10  19  38  64  90 117 155 207 253 302 361
#     4  11  22  40  58  87 132 156 198 243 314 364
#     4  11  20  38  62  85 118 154 214 249 296 354
#
# _framework density 23.103404999999999
#
# number of rings (size 3 to 8) (size 9 to 14) (size 15 to 20)
#    0.000    1.500    3.750    1.500    0.000    0.000 
#    2.250    5.000    0.000    0.000    0.000    0.000 
#    0.000    0.000    0.000    0.000    0.000    0.000 
#
# Total GULP energy -89164.986747 kJ/mol
# GULP energy per Si atom -5572.811672 kJ/mol
# Density = 2.305082 g / cm^3
# Si number density = 23.103405 Si / 1000 Ang^3
#
#
#
# Elastic Constant Matrix: (Units=GPa)
#
#
# Indices 1 2 3 4 5 6 
#
# 1 147.2450 6.7427 22.4894 0.0000 0.0000 0.0000
# 2 6.7427 103.9777 17.1280 0.0000 0.0000 0.0000
# 3 22.4894 17.1280 37.5227 0.0000 0.0000 0.0000
# 4 0.0000 0.0000 0.0000 20.8626 0.0000 0.0000
# 5 0.0000 0.0000 0.0000 0.0000 6.6659 0.0000
# 6 0.0000 0.0000 0.0000 0.0000 0.0000 35.2963
#
#
#
# Elastic Compliance Matrix: (Units=1/GPa)
#
#
# Indices 1 2 3 4 5 6 
#
# 1 0.007483 0.000274 -0.004610 0.000000 0.000000 0.000000
# 2 0.000274 0.010409 -0.004916 0.000000 0.000000 0.000000
# 3 -0.004610 -0.004916 0.031658 0.000000 0.000000 0.000000
# 4 0.000000 0.000000 0.000000 0.047933 0.000000 0.000000
# 5 0.000000 0.000000 0.000000 0.000000 0.150017 0.000000
# 6 0.000000 0.000000 0.000000 0.000000 0.000000 0.028332
#
#
# Mechanical properties :
#
#
# Convention : Reuss Voigt Hill
#
# Bulk Modulus (GPa) = 32.20999 42.38508 37.29753
# Shear Modulus (GPa) = 16.41049 28.72400 22.56725
#
# Velocity S-wave (km/s) = 2.66805 3.52984 3.12876
# Velocity P-wave (km/s) = 4.84389 5.91597 5.40657
#
# Compressibility (1/GPa) = 0.03104627
#
# Stress axis : x y z
#
# Youngs Moduli (GPa) = 133.63688 96.06648 31.58804
#
# Poissons Ratio (x) = -0.02634 0.14562
# Poissons Ratio (y) = -0.03664 0.15528
# Poissons Ratio (z) = 0.61608 0.47226
#
# Static dielectric constant tensor:
#      x y z
#    x 1.925520 0.000000 0.000000 
#    y 0.000000 1.804550 0.000000 
#    z 0.000000 0.000000 1.814640 
# 
# From -- ./inp_files/14876.got.cif
#   From: 2010.05.17/outbox.cif.g08.bks.cpg/sg46_8_cif.got.tgz:14876.got - 2010.06.03 19:58:25.
