data_PCOD9379534
_publ_section_title
;
Structure prediction by ZEFSAII (Michael W. Deem and Ramdas Pophale) SiO2 
 PCOD9379534
Probable space group: I M A 2
;
_chemical_formula_sum "Si O2"
_cell_formula_units_Z 64
_cell_length_a 14.308273
_cell_length_b 12.052304
_cell_length_c 18.861722
_cell_angle_alpha 90.000000
_cell_angle_beta 90.000000
_cell_angle_gamma 90.000000
_cell_volume 3252.659745
_symmetry_space_group_name_H-M "I M A 2"
_symmetry_group_IT_number 46
_symmetry_cell_setting 'orthorhombic'
loop_
_space_group_symop_operation_xyz
x,y,z
-x,-y,z
1/2-x,y,z
1/2+x,-y,z
1/2+x,1/2+y,1/2+z
1/2-x,1/2-y,1/2+z
-x,1/2+y,1/2+z
x,1/2-y,1/2+z
loop_
_atom_site_type_symbol
_atom_site_label
_atom_site_fract_x
_atom_site_fract_y
_atom_site_fract_z
Si Si1 0.527534 0.846049 0.990950
Si Si2 0.953770 0.720387 0.343641
Si Si3 0.355872 0.437925 0.894951
Si Si4 0.356651 0.825302 0.339311
Si Si5 0.028352 0.372554 0.192988
Si Si6 0.143545 0.703214 0.675325
Si Si7 0.066436 0.392582 0.041509
Si Si8 0.859591 0.033051 0.047434
O O1 0.574438 0.848387 0.913265
O O2 0.516387 0.719112 0.014266
O O3 0.426860 0.903702 0.992367
O O4 0.594395 0.911060 0.046067
O O5 0.913225 0.843364 0.354878
O O6 0.931123 0.674050 0.266432
O O7 0.066117 0.731749 0.350284
O O8 0.250000 0.431197 0.869484
O O9 0.387120 0.562960 0.879215
O O10 0.360604 0.415845 0.979090
O O11 0.250000 0.797191 0.359903
O O12 0.357949 0.845387 0.254773
O O13 0.093399 0.371395 0.123078
O O14 0.000000 0.500000 0.205523
O O15 0.936521 0.297678 0.173378
O O16 0.250000 0.746694 0.662873
O O17 0.127561 0.604757 0.619138
O O18 0.000000 0.500000 0.042780
O O19 0.750000 0.029824 0.031210
#
# Coordination Sequence:
#
# PCOD9379534 Si02
#       8
#     8   8   8   8   8   8   8   8
#     4  10  21  36  58  87 117 152 198 240 293 354
#     4  10  21  36  58  83 121 154 192 237 292 353
#     4  10  20  36  57  85 118 155 195 241 294 344
#     4   9  18  34  60  91 117 146 192 245 293 345
#     4  10  21  37  59  84 112 156 196 239 297 356
#     4   9  18  37  61  89 118 147 192 249 301 350
#     4  10  20  38  59  83 116 153 197 243 289 346
#     4  10  21  37  59  86 116 152 193 245 297 344
#
# _framework density 19.676205
#
# number of rings (size 3 to 8) (size 9 to 14) (size 15 to 20)
#    0.000    2.250    1.250    1.875    1.750    3.500 
#    2.250    4.375    0.000    0.000    0.000    0.000 
#    0.000    0.000    0.000    0.000    0.000    0.000 
#
# Total GULP energy -178256.291339 kJ/mol
# GULP energy per Si atom -5570.509104 kJ/mol
# Density = 1.963142 g / cm^3
# Si number density = 19.676205 Si / 1000 Ang^3
#
#
#
# Elastic Constant Matrix: (Units=GPa)
#
#
# Indices 1 2 3 4 5 6 
#
# 1 50.5793 23.4558 5.0304 0.0000 0.0000 0.0000
# 2 23.4558 83.5225 27.2218 0.0000 0.0000 0.0000
# 3 5.0304 27.2218 104.3667 0.0000 0.0000 0.0000
# 4 0.0000 0.0000 0.0000 29.5671 0.0000 0.0000
# 5 0.0000 0.0000 0.0000 0.0000 19.8253 0.0000
# 6 0.0000 0.0000 0.0000 0.0000 0.0000 11.6048
#
#
#
# Elastic Compliance Matrix: (Units=1/GPa)
#
#
# Indices 1 2 3 4 5 6 
#
# 1 0.022768 -0.006597 0.000623 0.000000 0.000000 0.000000
# 2 -0.006597 0.014997 -0.003594 0.000000 0.000000 0.000000
# 3 0.000623 -0.003594 0.010489 0.000000 0.000000 0.000000
# 4 0.000000 0.000000 0.000000 0.033821 0.000000 0.000000
# 5 0.000000 0.000000 0.000000 0.000000 0.050440 0.000000
# 6 0.000000 0.000000 0.000000 0.000000 0.000000 0.086171
#
#
# Mechanical properties :
#
#
# Convention : Reuss Voigt Hill
#
# Bulk Modulus (GPa) = 34.34186 38.87604 36.60895
# Shear Modulus (GPa) = 20.19972 24.38349 22.29161
#
# Velocity S-wave (km/s) = 3.20755 3.52410 3.36954
# Velocity P-wave (km/s) = 5.58652 6.02991 5.81244
#
# Compressibility (1/GPa) = 0.02911898
#
# Stress axis : x y z
#
# Youngs Moduli (GPa) = 43.92061 66.68104 95.33914
#
# Poissons Ratio (x) = 0.43991 -0.05943
# Poissons Ratio (y) = 0.28975 0.34261
# Poissons Ratio (z) = -0.02738 0.23962
#
# Static dielectric constant tensor:
#      x y z
#    x 1.694250 0.000000 0.000000 
#    y 0.000000 1.702720 0.000000 
#    z 0.000000 0.000000 1.725470 
# 
# From -- ./inp_files/19667.got.cif
#   From: 2010.05.17/outbox.cif.g08.bks.cpg/sg46_10_cif.got.tgz:19667.got - 2010.06.03 19:58:25.
