data_PCOD9379926
_publ_section_title
;
Structure prediction by ZEFSAII (Michael W. Deem and Ramdas Pophale) SiO2 
 PCOD9379926
Probable space group: I M A 2
;
_chemical_formula_sum "Si O2"
_cell_formula_units_Z 40
_cell_length_a 10.891849
_cell_length_b 12.658919
_cell_length_c 14.003475
_cell_angle_alpha 90.000000
_cell_angle_beta 90.000000
_cell_angle_gamma 90.000000
_cell_volume 1930.785609
_symmetry_space_group_name_H-M "I M A 2"
_symmetry_group_IT_number 46
_symmetry_cell_setting 'orthorhombic'
loop_
_space_group_symop_operation_xyz
x,y,z
-x,-y,z
1/2-x,y,z
1/2+x,-y,z
1/2+x,1/2+y,1/2+z
1/2-x,1/2-y,1/2+z
-x,1/2+y,1/2+z
x,1/2-y,1/2+z
loop_
_atom_site_type_symbol
_atom_site_label
_atom_site_fract_x
_atom_site_fract_y
_atom_site_fract_z
Si Si1 0.391628 0.812247 0.694380
Si Si2 0.467364 0.239746 0.524047
Si Si3 0.044920 0.113346 0.178813
Si Si4 0.620531 0.931464 0.387492
Si Si5 0.895799 0.410750 0.402915
O O1 0.250000 0.821563 0.670860
O O2 0.472031 0.840054 0.601433
O O3 0.430542 0.689249 0.707903
O O4 0.413671 0.873245 0.792814
O O5 0.395795 0.321427 0.592700
O O6 0.392617 0.175468 0.447284
O O7 0.569403 0.311685 0.470990
O O8 0.117891 0.095715 0.275415
O O9 0.000000 0.000000 0.144834
O O10 0.750000 0.985033 0.411159
O O11 0.500000 0.000000 0.405835
O O12 0.750000 0.439181 0.415192
O O13 0.000000 0.500000 0.419967
#
# Coordination Sequence:
#
# PCOD9379926 Si02
#       5
#     8   8   8   8   8
#     4   9  20  38  62  91 126 164 206 257 317 377
#     4  10  20  42  63  96 124 164 210 271 313 376
#     4   9  20  39  62  95 125 160 209 262 320 371
#     4  11  25  44  66  95 131 173 213 264 321 384
#     4  11  23  41  64  93 128 167 209 260 317 383
#
# _framework density 20.716956
#
# number of rings (size 3 to 8) (size 9 to 14) (size 15 to 20)
#    1.200    0.800    2.000    1.200    0.000    7.200 
#    0.000    3.000    0.000    0.000    0.000    0.000 
#    0.000    0.000    0.000    0.000    0.000    0.000 
#
# Total GULP energy -111335.410134 kJ/mol
# GULP energy per Si atom -5566.770507 kJ/mol
# Density = 2.066980 g / cm^3
# Si number density = 20.716956 Si / 1000 Ang^3
#
#
#
# Elastic Constant Matrix: (Units=GPa)
#
#
# Indices 1 2 3 4 5 6 
#
# 1 122.7476 36.4532 44.5564 0.0000 0.0000 0.0000
# 2 36.4532 61.7219 36.3325 0.0000 0.0000 0.0000
# 3 44.5564 36.3325 91.6329 0.0000 0.0000 0.0000
# 4 0.0000 0.0000 0.0000 35.7391 0.0000 0.0000
# 5 0.0000 0.0000 0.0000 0.0000 -34.0066 0.0000
# 6 0.0000 0.0000 0.0000 0.0000 0.0000 20.6468
#
#
#
# Elastic Compliance Matrix: (Units=1/GPa)
#
#
# Indices 1 2 3 4 5 6 
#
# 1 0.010681 -0.004241 -0.003512 0.000000 0.000000 0.000000
# 2 -0.004241 0.022818 -0.006985 0.000000 0.000000 0.000000
# 3 -0.003512 -0.006985 0.015391 0.000000 0.000000 0.000000
# 4 0.000000 0.000000 0.000000 0.027981 0.000000 0.000000
# 5 0.000000 0.000000 0.000000 0.000000 -0.029406 0.000000
# 6 0.000000 0.000000 0.000000 0.000000 0.000000 0.048434
#
#
# Mechanical properties :
#
#
# Convention : Reuss Voigt Hill
#
# Bulk Modulus (GPa) = 51.51130 56.75406 54.13268
# Shear Modulus (GPa) = 37.92300 15.05987 26.49144
#
# Velocity S-wave (km/s) = 4.28311 2.69910 3.57982
# Velocity P-wave (km/s) = 7.02697 6.09655 6.57823
#
# Compressibility (1/GPa) = 0.01941322
#
# Stress axis : x y z
#
# Youngs Moduli (GPa) = 93.62300 43.82449 64.97480
#
# Poissons Ratio (x) = 0.18585 0.22820
# Poissons Ratio (y) = 0.39704 0.45387
# Poissons Ratio (z) = 0.32882 0.30613
#
# Static dielectric constant tensor:
#      x y z
#    x 1.817120 0.000000 0.000000 
#    y 0.000000 1.735580 0.000000 
#    z 0.000000 0.000000 1.769090 
# 
# From -- ./inp_files/15029.got.cif
#   From: 2010.05.17/outbox.cif.g08.bks.cpg/sg46_8_cif.got.tgz:15029.got - 2010.06.03 19:58:25.
