data_PCOD9379686
_publ_section_title
;
Structure prediction by ZEFSAII (Michael W. Deem and Ramdas Pophale) SiO2 
 PCOD9379686
Probable space group: I M A 2
;
_chemical_formula_sum "Si O2"
_cell_formula_units_Z 64
_cell_length_a 17.658454
_cell_length_b 19.124232
_cell_length_c 9.699194
_cell_angle_alpha 90.000000
_cell_angle_beta 90.000000
_cell_angle_gamma 90.000000
_cell_volume 3275.460210
_symmetry_space_group_name_H-M "I M A 2"
_symmetry_group_IT_number 46
_symmetry_cell_setting 'orthorhombic'
loop_
_space_group_symop_operation_xyz
x,y,z
-x,-y,z
1/2-x,y,z
1/2+x,-y,z
1/2+x,1/2+y,1/2+z
1/2-x,1/2-y,1/2+z
-x,1/2+y,1/2+z
x,1/2-y,1/2+z
loop_
_atom_site_type_symbol
_atom_site_label
_atom_site_fract_x
_atom_site_fract_y
_atom_site_fract_z
Si Si1 0.340826 0.024862 0.889770
Si Si2 0.660634 0.110020 0.696575
Si Si3 0.932270 0.257801 0.307474
Si Si4 0.338130 0.229969 0.020006
Si Si5 0.659914 0.121271 0.380807
Si Si6 0.161883 0.336660 0.236325
Si Si7 0.011417 0.175776 0.062511
Si Si8 0.427399 0.960696 0.144514
O O1 0.250000 0.034032 0.914721
O O2 0.351275 0.958011 0.790427
O O3 0.370764 0.093321 0.806672
O O4 0.382107 0.006686 0.032995
O O5 0.750000 0.127850 0.704407
O O6 0.613130 0.175654 0.750596
O O7 0.642931 0.096132 0.536104
O O8 0.875273 0.198689 0.364326
O O9 0.979109 0.220733 0.187927
O O10 0.988951 0.283632 0.424629
O O11 0.250000 0.217519 0.057895
O O12 0.364221 0.302027 0.093296
O O13 0.398008 0.172960 0.073433
O O14 0.341110 0.223004 0.854766
O O15 0.750000 0.124339 0.362742
O O16 0.624509 0.071662 0.263829
O O17 0.250000 0.354383 0.212236
O O18 0.966220 0.103731 0.063648
O O19 0.500000 0.000000 0.206588
#
# Coordination Sequence:
#
# PCOD9379686 Si02
#       8
#     8   8   8   8   8   8   8   8
#     4  10  20  38  63  91 123 160 204 253 309 380
#     4  10  20  37  61  89 125 164 203 250 307 378
#     4  11  20  37  57  92 127 159 203 252 320 371
#     4  10  20  38  60  84 114 155 206 257 305 355
#     4  10  22  40  61  89 126 167 212 260 312 378
#     4   9  19  36  60  87 114 148 200 257 305 355
#     4  11  22  35  59  86 123 158 202 261 309 371
#     4  11  23  39  59  86 126 165 209 254 310 374
#
# _framework density 19.539238999999998
#
# number of rings (size 3 to 8) (size 9 to 14) (size 15 to 20)
#    0.000    1.750    2.500    2.250    0.000    0.000 
#    0.000    6.250    0.000    9.000    0.000    0.000 
#    0.000    0.000    0.000    0.000    0.000    0.000 
#
# Total GULP energy -178506.856805 kJ/mol
# GULP energy per Si atom -5578.339275 kJ/mol
# Density = 1.949477 g / cm^3
# Si number density = 19.539239 Si / 1000 Ang^3
#
#
#
# Elastic Constant Matrix: (Units=GPa)
#
#
# Indices 1 2 3 4 5 6 
#
# 1 84.0775 26.0254 33.3843 0.0000 0.0000 0.0000
# 2 26.0254 76.9331 28.1061 0.0000 0.0000 0.0000
# 3 33.3843 28.1061 67.1080 0.0000 0.0000 0.0000
# 4 0.0000 0.0000 0.0000 25.0104 0.0000 0.0000
# 5 0.0000 0.0000 0.0000 0.0000 17.5577 0.0000
# 6 0.0000 0.0000 0.0000 0.0000 0.0000 26.8713
#
#
#
# Elastic Compliance Matrix: (Units=1/GPa)
#
#
# Indices 1 2 3 4 5 6 
#
# 1 0.015327 -0.002833 -0.006438 0.000000 0.000000 0.000000
# 2 -0.002833 0.015870 -0.005237 0.000000 0.000000 0.000000
# 3 -0.006438 -0.005237 0.020298 0.000000 0.000000 0.000000
# 4 0.000000 0.000000 0.000000 0.039983 0.000000 0.000000
# 5 0.000000 0.000000 0.000000 0.000000 0.056955 0.000000
# 6 0.000000 0.000000 0.000000 0.000000 0.000000 0.037214
#
#
# Mechanical properties :
#
#
# Convention : Reuss Voigt Hill
#
# Bulk Modulus (GPa) = 44.48849 44.79446 44.64148
# Shear Modulus (GPa) = 22.50655 23.26139 22.88397
#
# Velocity S-wave (km/s) = 3.39759 3.45410 3.42596
# Velocity P-wave (km/s) = 6.18140 6.23562 6.20857
#
# Compressibility (1/GPa) = 0.02247772
#
# Stress axis : x y z
#
# Youngs Moduli (GPa) = 65.24390 63.01201 49.26654
#
# Poissons Ratio (x) = 0.17850 0.31720
# Poissons Ratio (y) = 0.18482 0.25803
# Poissons Ratio (z) = 0.42006 0.33002
#
# Static dielectric constant tensor:
#      x y z
#    x 1.697570 0.000000 0.000000 
#    y 0.000000 1.694970 0.000000 
#    z 0.000000 0.000000 1.672630 
# 
# From -- ./inp_files/6932.got.cif
#   From: 2010.05.17/outbox.cif.g08.bks.cpg/sg46_4_cif.got.tgz:6932.got - 2010.06.03 19:58:25.
