data_PCOD9379631
_publ_section_title
;
Structure prediction by ZEFSAII (Michael W. Deem and Ramdas Pophale) SiO2 
 PCOD9379631
Probable space group: I M A 2
;
_chemical_formula_sum "Si O2"
_cell_formula_units_Z 48
_cell_length_a 7.767774
_cell_length_b 33.256000
_cell_length_c 9.715109
_cell_angle_alpha 90.000000
_cell_angle_beta 90.000000
_cell_angle_gamma 90.000000
_cell_volume 2509.656428
_symmetry_space_group_name_H-M "I M A 2"
_symmetry_group_IT_number 46
_symmetry_cell_setting 'orthorhombic'
loop_
_space_group_symop_operation_xyz
x,y,z
-x,-y,z
1/2-x,y,z
1/2+x,-y,z
1/2+x,1/2+y,1/2+z
1/2-x,1/2-y,1/2+z
-x,1/2+y,1/2+z
x,1/2-y,1/2+z
loop_
_atom_site_type_symbol
_atom_site_label
_atom_site_fract_x
_atom_site_fract_y
_atom_site_fract_z
Si Si1 0.456487 0.045574 0.331860
Si Si2 0.750000 0.300743 0.320585
Si Si3 0.750000 0.228375 0.516243
Si Si4 0.549004 0.377902 0.655359
Si Si5 0.952431 0.910244 0.592148
Si Si6 0.950469 0.634780 0.347545
Si Si7 0.054103 0.328358 0.915964
O O1 0.250000 0.050720 0.331426
O O2 0.527807 0.078715 0.227121
O O3 0.524682 0.057256 0.485131
O O4 0.500000 0.000000 0.297368
O O5 0.750000 0.272619 0.453878
O O6 0.580346 0.328550 0.321507
O O7 0.750000 0.274601 0.181080
O O8 0.584097 0.204560 0.458553
O O9 0.750000 0.369222 0.636901
O O10 0.462261 0.376640 0.506975
O O11 0.473569 0.345387 0.762229
O O12 0.750000 0.919518 0.604422
O O13 0.012612 0.901216 0.746269
O O14 0.971557 0.867560 0.513005
O O15 0.750000 0.644120 0.313283
O O16 0.250000 0.314334 0.932480
#
# Coordination Sequence:
#
# PCOD9379631 Si02
#       7
#     8   4   4   8   8   8   8
#     4  10  20  37  58  92 127 159 201 252 311 370
#     4  12  28  42  62  92 128 160 210 266 318 376
#     4  12  26  42  62  90 128 162 200 272 318 374
#     4  11  21  36  63  93 121 162 207 256 305 372
#     4   8  17  35  62  84 111 157 207 250 296 358
#     4  11  22  42  64  88 121 164 213 260 306 373
#     4  10  20  39  63  86 115 160 209 250 307 374
#
# _framework density 19.126123
#
# number of rings (size 3 to 8) (size 9 to 14) (size 15 to 20)
#    0.000    1.667    3.333    3.000    2.333    0.667 
#    1.500    0.833    0.000    2.000    0.000    0.000 
#    0.000    0.000    0.000    0.000    0.000    0.000 
#
# Total GULP energy -133959.899068 kJ/mol
# GULP energy per Si atom -5581.662461 kJ/mol
# Density = 1.908259 g / cm^3
# Si number density = 19.126123 Si / 1000 Ang^3
#
#
#
# Elastic Constant Matrix: (Units=GPa)
#
#
# Indices 1 2 3 4 5 6 
#
# 1 95.9919 15.1909 1.5422 -0.0002 0.0000 0.0000
# 2 15.1909 42.3146 9.2556 -0.0001 0.0002 0.0001
# 3 1.5422 9.2556 127.1466 -0.0002 0.0002 0.0001
# 4 -0.0002 -0.0001 -0.0002 19.6370 0.0000 0.0000
# 5 0.0000 0.0002 0.0002 0.0000 19.5577 0.0000
# 6 0.0000 0.0001 0.0001 0.0000 0.0000 19.3695
#
#
#
# Elastic Compliance Matrix: (Units=1/GPa)
#
#
# Indices 1 2 3 4 5 6 
#
# 1 0.011048 -0.004001 0.000157 0.000000 0.000000 0.000000
# 2 -0.004001 0.025464 -0.001805 0.000000 0.000000 0.000000
# 3 0.000157 -0.001805 0.007994 0.000000 0.000000 0.000000
# 4 0.000000 0.000000 0.000000 0.050924 0.000000 0.000000
# 5 0.000000 0.000000 0.000000 0.000000 0.051131 0.000000
# 6 0.000000 0.000000 0.000000 0.000000 0.000000 0.051627
#
#
# Mechanical properties :
#
#
# Convention : Reuss Voigt Hill
#
# Bulk Modulus (GPa) = 30.11226 35.27006 32.69116
# Shear Modulus (GPa) = 22.67004 27.67713 25.17358
#
# Velocity S-wave (km/s) = 3.44654 3.80818 3.63187
# Velocity P-wave (km/s) = 5.62285 6.14957 5.89210
#
# Compressibility (1/GPa) = 0.03320906
#
# Stress axis : x y z
#
# Youngs Moduli (GPa) = 90.51304 39.27184 125.08705
#
# Poissons Ratio (x) = 0.15711 -0.01967
# Poissons Ratio (y) = 0.36211 0.22579
# Poissons Ratio (z) = -0.01423 0.07089
#
# Static dielectric constant tensor:
#      x y z
#    x 1.688000 0.000000 0.000000 
#    y 0.000000 1.628750 0.000000 
#    z 0.000000 0.000000 1.694710 
# 
# From -- ./inp_files/3989.got.cif
#   From: 2010.05.17/outbox.cif.g08.bks.cpg/sg46_2_cif.got.tgz:3989.got - 2010.06.03 19:58:25.
