data_PCOD9379780
_publ_section_title
;
Structure prediction by ZEFSAII (Michael W. Deem and Ramdas Pophale) SiO2 
 PCOD9379780
Probable space group: I M A 2
;
_chemical_formula_sum "Si O2"
_cell_formula_units_Z 64
_cell_length_a 28.173658
_cell_length_b 11.227708
_cell_length_c 9.053211
_cell_angle_alpha 90.000000
_cell_angle_beta 90.000000
_cell_angle_gamma 90.000000
_cell_volume 2863.762450
_symmetry_space_group_name_H-M "I M A 2"
_symmetry_group_IT_number 46
_symmetry_cell_setting 'orthorhombic'
loop_
_space_group_symop_operation_xyz
x,y,z
-x,-y,z
1/2-x,y,z
1/2+x,-y,z
1/2+x,1/2+y,1/2+z
1/2-x,1/2-y,1/2+z
-x,1/2+y,1/2+z
x,1/2-y,1/2+z
loop_
_atom_site_type_symbol
_atom_site_label
_atom_site_fract_x
_atom_site_fract_y
_atom_site_fract_z
Si Si1 0.193712 0.137618 0.619760
Si Si2 0.193974 0.110120 0.278016
Si Si3 0.306871 0.610407 0.197472
Si Si4 0.103118 0.079829 0.150391
Si Si5 0.569524 0.728628 0.390273
Si Si6 0.574086 0.163271 0.183218
Si Si7 0.859636 0.230635 0.437729
Si Si8 0.007879 0.361057 0.137330
O O1 0.250000 0.119995 0.615859
O O2 0.179935 0.127530 0.448854
O O3 0.187518 0.263640 0.695566
O O4 0.175127 0.025764 0.711821
O O5 0.250000 0.075948 0.267993
O O6 0.155362 0.029832 0.194249
O O7 0.250000 0.619579 0.207495
O O8 0.330376 0.691115 0.321897
O O9 0.324646 0.649273 0.034650
O O10 0.091424 0.175644 0.277872
O O11 0.102644 0.149080 0.995516
O O12 0.063666 0.975784 0.154471
O O13 0.539395 0.642756 0.285153
O O14 0.536203 0.800974 0.502881
O O15 0.599182 0.167461 0.342953
O O16 0.612507 0.192462 0.057664
O O17 0.535440 0.268686 0.170245
O O18 0.000000 0.500000 0.102574
#
# Coordination Sequence:
#
# PCOD9379780 Si02
#       8
#     8   8   8   8   8   8   8   8
#     4   9  19  34  58  87 125 176 231 282 331 385
#     4  10  20  38  62  94 134 186 234 280 336 398
#     4  10  20  39  61  90 134 181 231 285 335 399
#     4  11  24  43  66 100 146 175 236 284 348 398
#     4  10  26  43  67 105 133 182 217 295 339 424
#     4  11  25  43  69  96 132 179 224 291 343 422
#     4  10  23  39  61  99 123 178 229 280 348 394
#     4  11  26  46  74 101 134 175 225 273 356 424
#
# _framework density 22.348223000000001
#
# number of rings (size 3 to 8) (size 9 to 14) (size 15 to 20)
#    0.000    1.750    0.000    2.625    7.000    3.000 
#    4.500    4.375    0.000    0.000    0.000    0.000 
#    0.000    0.000    0.000    0.000    0.000    0.000 
#
# Total GULP energy -178682.711211 kJ/mol
# GULP energy per Si atom -5583.834725 kJ/mol
# Density = 2.229736 g / cm^3
# Si number density = 22.348223 Si / 1000 Ang^3
#
#
#
# Elastic Constant Matrix: (Units=GPa)
#
#
# Indices 1 2 3 4 5 6 
#
# 1 63.0600 6.2583 12.2315 0.0000 0.0000 0.0000
# 2 6.2583 57.8457 0.2751 0.0000 0.0000 0.0000
# 3 12.2315 0.2751 90.4476 0.0000 0.0000 0.0000
# 4 0.0000 0.0000 0.0000 18.7905 0.0000 0.0000
# 5 0.0000 0.0000 0.0000 0.0000 26.7167 0.0000
# 6 0.0000 0.0000 0.0000 0.0000 0.0000 23.2288
#
#
#
# Elastic Compliance Matrix: (Units=1/GPa)
#
#
# Indices 1 2 3 4 5 6 
#
# 1 0.016464 -0.001771 -0.002221 0.000000 0.000000 0.000000
# 2 -0.001771 0.017478 0.000186 0.000000 0.000000 0.000000
# 3 -0.002221 0.000186 0.011356 0.000000 0.000000 0.000000
# 4 0.000000 0.000000 0.000000 0.053218 0.000000 0.000000
# 5 0.000000 0.000000 0.000000 0.000000 0.037430 0.000000
# 6 0.000000 0.000000 0.000000 0.000000 0.000000 0.043050
#
#
# Mechanical properties :
#
#
# Convention : Reuss Voigt Hill
#
# Bulk Modulus (GPa) = 26.53411 27.65366 27.09389
# Shear Modulus (GPa) = 25.10417 26.58644 25.84530
#
# Velocity S-wave (km/s) = 3.35523 3.45286 3.40440
# Velocity P-wave (km/s) = 5.18738 5.31951 5.25386
#
# Compressibility (1/GPa) = 0.03768733
#
# Stress axis : x y z
#
# Youngs Moduli (GPa) = 60.73686 57.21456 88.05975
#
# Poissons Ratio (x) = 0.10131 0.19559
# Poissons Ratio (y) = 0.10755 -0.01641
# Poissons Ratio (z) = 0.13491 -0.01066
#
# Static dielectric constant tensor:
#      x y z
#    x 1.884520 0.000000 0.000000 
#    y 0.000000 1.885540 0.000000 
#    z 0.000000 0.000000 1.781850 
# 
# From -- ./inp_files/8497.got.cif
#   From: 2010.05.17/outbox.cif.g08.bks.cpg/sg46_5_cif.got.tgz:8497.got - 2010.06.03 19:58:25.
