data_PCOD9379872
_publ_section_title
;
Structure prediction by ZEFSAII (Michael W. Deem and Ramdas Pophale) SiO2 
 PCOD9379872
Probable space group: I M A 2
;
_chemical_formula_sum "Si O2"
_cell_formula_units_Z 48
_cell_length_a 18.312463
_cell_length_b 9.052034
_cell_length_c 14.995370
_cell_angle_alpha 90.000000
_cell_angle_beta 90.000000
_cell_angle_gamma 90.000000
_cell_volume 2485.708073
_symmetry_space_group_name_H-M "I M A 2"
_symmetry_group_IT_number 46
_symmetry_cell_setting 'orthorhombic'
loop_
_space_group_symop_operation_xyz
x,y,z
-x,-y,z
1/2-x,y,z
1/2+x,-y,z
1/2+x,1/2+y,1/2+z
1/2-x,1/2-y,1/2+z
-x,1/2+y,1/2+z
x,1/2-y,1/2+z
loop_
_atom_site_type_symbol
_atom_site_label
_atom_site_fract_x
_atom_site_fract_y
_atom_site_fract_z
Si Si1 0.250000 0.318805 0.539110
Si Si2 0.482622 0.676680 0.930556
Si Si3 0.862991 0.821984 0.882412
Si Si4 0.120230 0.801658 0.598720
Si Si5 0.750000 0.500122 0.031218
Si Si6 0.573866 0.097328 0.793412
Si Si7 0.750000 0.592349 0.826265
Si Si8 0.750000 0.409280 0.659875
O O1 0.317703 0.339471 0.472963
O O2 0.250000 0.156608 0.579051
O O3 0.250000 0.432222 0.616598
O O4 0.500000 0.500000 0.925774
O O5 0.559621 0.757041 0.913259
O O6 0.433133 0.754119 0.853291
O O7 0.443130 0.717795 0.024462
O O8 0.820372 0.701080 0.821920
O O9 0.868673 0.980090 0.833960
O O10 0.088600 0.860411 0.691683
O O11 0.176386 0.670991 0.626144
O O12 0.176570 0.917219 0.556019
O O13 0.750000 0.533966 0.927057
O O14 0.500000 0.000000 0.797300
O O15 0.750000 0.449651 0.763749
#
# Coordination Sequence:
#
# PCOD9379872 Si02
#       8
#     4   8   8   8   4   8   4   4
#     4  10  20  40  62  91 121 163 213 259 323 375
#     4  11  22  41  66  93 131 169 213 271 326 387
#     4   9  21  41  66  89 126 173 205 266 322 391
#     4  11  24  41  62  94 127 171 210 267 322 387
#     4   9  22  39  63  87 121 176 211 248 332 388
#     4  10  23  40  62  95 125 167 217 255 328 389
#     4  10  22  41  65  95 130 168 220 269 330 388
#     4  11  26  38  62  99 128 163 220 276 311 389
#
# _framework density 19.310393000000001
#
# number of rings (size 3 to 8) (size 9 to 14) (size 15 to 20)
#    0.000    2.000    0.000    3.500    7.000    2.000 
#    3.000    2.500    0.000    0.000    0.000    0.000 
#    0.000    0.000    0.000    0.000    0.000    0.000 
#
# Total GULP energy -133764.113448 kJ/mol
# GULP energy per Si atom -5573.504727 kJ/mol
# Density = 1.926644 g / cm^3
# Si number density = 19.310393 Si / 1000 Ang^3
#
#
#
# Elastic Constant Matrix: (Units=GPa)
#
#
# Indices 1 2 3 4 5 6 
#
# 1 88.4575 36.1070 39.1649 0.0000 0.0000 0.0000
# 2 36.1070 99.7498 47.6667 0.0000 0.0000 0.0000
# 3 39.1649 47.6667 93.6342 0.0000 0.0000 0.0000
# 4 0.0000 0.0000 0.0000 31.9467 0.0000 0.0000
# 5 0.0000 0.0000 0.0000 0.0000 -24.1465 0.0000
# 6 0.0000 0.0000 0.0000 0.0000 0.0000 28.5554
#
#
#
# Elastic Compliance Matrix: (Units=1/GPa)
#
#
# Indices 1 2 3 4 5 6 
#
# 1 0.014575 -0.003122 -0.004507 0.000000 0.000000 0.000000
# 2 -0.003122 0.013917 -0.005779 0.000000 0.000000 0.000000
# 3 -0.004507 -0.005779 0.015507 0.000000 0.000000 0.000000
# 4 0.000000 0.000000 0.000000 0.031302 0.000000 0.000000
# 5 0.000000 0.000000 0.000000 0.000000 -0.041414 0.000000
# 6 0.000000 0.000000 0.000000 0.000000 0.000000 0.035020
#
#
# Mechanical properties :
#
#
# Convention : Reuss Voigt Hill
#
# Bulk Modulus (GPa) = 58.19768 58.63541 58.41655
# Shear Modulus (GPa) = 49.28593 17.86464 33.57529
#
# Velocity S-wave (km/s) = 5.05751 3.04490 4.17431
# Velocity P-wave (km/s) = 8.01923 6.54160 7.31780
#
# Compressibility (1/GPa) = 0.01718281
#
# Stress axis : x y z
#
# Youngs Moduli (GPa) = 68.61226 71.85661 64.48794
#
# Poissons Ratio (x) = 0.22434 0.29064
# Poissons Ratio (y) = 0.21421 0.37266
# Poissons Ratio (z) = 0.30923 0.41524
#
# Static dielectric constant tensor:
#      x y z
#    x 1.696940 0.000000 0.000000 
#    y 0.000000 1.709310 0.000000 
#    z 0.000000 0.000000 1.649680 
# 
# From -- ./inp_files/16594.got.cif
#   From: 2010.05.17/outbox.cif.g08.bks.cpg/sg46_9_cif.got.tgz:16594.got - 2010.06.03 19:58:25.
