data_PCOD9379564
_publ_section_title
;
Structure prediction by ZEFSAII (Michael W. Deem and Ramdas Pophale) SiO2 
 PCOD9379564
Probable space group: I M A 2
;
_chemical_formula_sum "Si O2"
_cell_formula_units_Z 64
_cell_length_a 14.426105
_cell_length_b 26.033653
_cell_length_c 8.449394
_cell_angle_alpha 90.000000
_cell_angle_beta 90.000000
_cell_angle_gamma 90.000000
_cell_volume 3173.289997
_symmetry_space_group_name_H-M "I M A 2"
_symmetry_group_IT_number 46
_symmetry_cell_setting 'orthorhombic'
loop_
_space_group_symop_operation_xyz
x,y,z
-x,-y,z
1/2-x,y,z
1/2+x,-y,z
1/2+x,1/2+y,1/2+z
1/2-x,1/2-y,1/2+z
-x,1/2+y,1/2+z
x,1/2-y,1/2+z
loop_
_atom_site_type_symbol
_atom_site_label
_atom_site_fract_x
_atom_site_fract_y
_atom_site_fract_z
Si Si1 0.860920 0.523226 0.456910
Si Si2 0.969480 0.182219 0.149613
Si Si3 0.852204 0.629427 0.629257
Si Si4 0.466908 0.789767 0.516579
Si Si5 0.855529 0.376873 0.191780
Si Si6 0.144996 0.908894 0.051291
Si Si7 0.029762 0.448024 0.136783
Si Si8 0.855899 0.646337 0.007728
O O1 0.750000 0.519403 0.416985
O O2 0.870866 0.570525 0.579108
O O3 0.887941 0.467271 0.524527
O O4 0.921196 0.535981 0.302169
O O5 0.066822 0.165894 0.070162
O O6 0.969063 0.201176 0.329515
O O7 0.914938 0.128600 0.156876
O O8 0.939069 0.231511 0.051266
O O9 0.750000 0.642052 0.567113
O O10 0.853340 0.639891 0.817231
O O11 0.395198 0.825827 0.610912
O O12 0.571448 0.809481 0.562582
O O13 0.750000 0.387602 0.139855
O O14 0.854540 0.379290 0.382446
O O15 0.932155 0.419271 0.152756
O O16 0.250000 0.912127 0.110588
O O17 0.100959 0.407622 0.063528
O O18 0.000000 0.500000 0.048074
O O19 0.750000 0.654284 0.062456
#
# Coordination Sequence:
#
# PCOD9379564 Si02
#       8
#     8   8   8   8   8   8   8   8
#     4  10  20  36  58  89 122 156 193 234 283 338
#     4  11  22  39  61  85 114 146 197 245 292 349
#     4   9  20  38  59  85 119 154 189 233 290 349
#     4  10  23  40  60  85 110 151 192 244 300 343
#     4  10  21  38  57  81 115 151 192 235 282 337
#     4  10  21  37  58  84 115 155 195 237 285 336
#     4  11  20  33  57  88 117 154 190 232 282 334
#     4   9  20  40  59  84 120 153 189 235 288 353
#
# _framework density 20.168341999999999
#
# number of rings (size 3 to 8) (size 9 to 14) (size 15 to 20)
#    0.000    2.000    1.250    1.875    0.000    3.000 
#    6.750    0.000    0.000    0.000    0.000    0.000 
#    0.000    0.000    0.000    0.000    0.000    0.000 
#
# Total GULP energy -178345.473329 kJ/mol
# GULP energy per Si atom -5573.296042 kJ/mol
# Density = 2.012244 g / cm^3
# Si number density = 20.168342 Si / 1000 Ang^3
#
#
#
# Elastic Constant Matrix: (Units=GPa)
#
#
# Indices 1 2 3 4 5 6 
#
# 1 77.2030 16.4539 1.9569 -0.0001 0.0001 0.0002
# 2 16.4539 92.5023 3.8209 0.0018 -0.0003 0.0003
# 3 1.9569 3.8209 6.2350 0.0093 -0.0019 0.0002
# 4 -0.0001 0.0018 0.0093 18.0181 -0.0011 0.0000
# 5 0.0001 -0.0003 -0.0019 -0.0011 21.7219 0.0002
# 6 0.0002 0.0003 0.0002 0.0000 0.0002 13.8310
#
#
#
# Elastic Compliance Matrix: (Units=1/GPa)
#
#
# Indices 1 2 3 4 5 6 
#
# 1 0.013512 -0.002286 -0.002840 0.000002 0.000000 0.000000
# 2 -0.002286 0.011478 -0.006316 0.000002 0.000000 0.000000
# 3 -0.002840 -0.006316 0.165146 -0.000085 0.000015 -0.000002
# 4 0.000002 0.000002 -0.000085 0.055500 0.000003 0.000000
# 5 0.000000 0.000000 0.000015 0.000003 0.046037 -0.000001
# 6 0.000000 0.000000 -0.000002 0.000000 -0.000001 0.072301
#
#
# Mechanical properties :
#
#
# Convention : Reuss Voigt Hill
#
# Bulk Modulus (GPa) = 5.97901 24.48929 15.23415
# Shear Modulus (GPa) = 11.29665 20.96144 16.12905
#
# Velocity S-wave (km/s) = 2.36925 3.22735 2.83100
# Velocity P-wave (km/s) = 3.23349 5.10456 4.27270
#
# Compressibility (1/GPa) = 0.16725171
#
# Stress axis : x y z
#
# Youngs Moduli (GPa) = 74.00784 87.12239 6.05524
#
# Poissons Ratio (x) = 0.19918 0.01720
# Poissons Ratio (y) = 0.16919 0.03825
# Poissons Ratio (z) = 0.21016 0.55030
#
# Static dielectric constant tensor:
#      x y z
#    x 1.772510 0.000000 0.000000 
#    y 0.000000 1.707070 0.000000 
#    z 0.000000 0.000000 1.722320 
# 
# From -- ./inp_files/6088.got.cif
#   From: 2010.05.17/outbox.cif.g08.bks.cpg/sg46_4_cif.got.tgz:6088.got - 2010.06.03 19:58:25.
