data_PCOD9379049
_publ_section_title
;
Structure prediction by ZEFSAII (Michael W. Deem and Ramdas Pophale) SiO2 
 PCOD9379049
Probable space group: I M A 2
;
_chemical_formula_sum "Si O2"
_cell_formula_units_Z 64
_cell_length_a 14.698370
_cell_length_b 19.684799
_cell_length_c 10.603519
_cell_angle_alpha 90.000000
_cell_angle_beta 90.000000
_cell_angle_gamma 90.000000
_cell_volume 3067.963434
_symmetry_space_group_name_H-M "I M A 2"
_symmetry_group_IT_number 46
_symmetry_cell_setting 'orthorhombic'
loop_
_space_group_symop_operation_xyz
x,y,z
-x,-y,z
1/2-x,y,z
1/2+x,-y,z
1/2+x,1/2+y,1/2+z
1/2-x,1/2-y,1/2+z
-x,1/2+y,1/2+z
x,1/2-y,1/2+z
loop_
_atom_site_type_symbol
_atom_site_label
_atom_site_fract_x
_atom_site_fract_y
_atom_site_fract_z
Si Si1 0.860347 0.455362 0.700540
Si Si2 0.138657 0.404407 0.815477
Si Si3 0.138330 0.697301 0.722131
Si Si4 0.353171 0.707275 0.439842
Si Si5 0.360120 0.163248 0.573835
Si Si6 0.903444 0.911631 0.833129
Si Si7 0.359386 0.318948 0.573941
Si Si8 0.105820 0.945781 0.911175
O O1 0.750000 0.457620 0.684744
O O2 0.887694 0.518285 0.786434
O O3 0.883538 0.380972 0.751976
O O4 0.899963 0.462475 0.560112
O O5 0.250000 0.402505 0.816021
O O6 0.107215 0.358523 0.697871
O O7 0.107287 0.375540 0.948806
O O8 0.250000 0.701383 0.716433
O O9 0.105192 0.711882 0.579601
O O10 0.103742 0.749259 0.827495
O O11 0.250000 0.733599 0.451800
O O12 0.347255 0.627641 0.405855
O O13 0.250000 0.164434 0.569536
O O14 0.385888 0.124842 0.701595
O O15 0.391525 0.241373 0.570855
O O16 0.008728 0.929310 0.851535
O O17 0.856016 0.985614 0.848321
O O18 0.879628 0.861414 0.948143
O O19 0.250000 0.316525 0.584085
#
# Coordination Sequence:
#
# PCOD9379049 Si02
#       8
#     8   8   8   8   8   8   8   8
#     4   9  16  32  58  84 108 141 189 236 272 324
#     4   9  17  31  55  85 111 139 184 235 283 340
#     4   8  15  28  50  76 104 130 165 218 264 304
#     4   9  17  33  54  78 104 136 181 228 269 319
#     4  10  21  36  56  87 119 145 183 243 302 345
#     4  11  22  37  56  78 118 151 187 233 282 343
#     4  10  19  35  62  86 109 147 193 238 289 348
#     4  10  21  36  56  78 112 152 190 229 271 338
#
# _framework density 20.860742999999999
#
# number of rings (size 3 to 8) (size 9 to 14) (size 15 to 20)
#    0.000    2.500    1.250    2.250    0.000    3.500 
#    6.750    0.000    5.500    0.000    0.000    0.000 
#    0.000    0.000    0.000    0.000    0.000    0.000 
#
# Total GULP energy -178614.860688 kJ/mol
# GULP energy per Si atom -5581.714396 kJ/mol
# Density = 2.081326 g / cm^3
# Si number density = 20.860743 Si / 1000 Ang^3
#
#
#
# Elastic Constant Matrix: (Units=GPa)
#
#
# Indices 1 2 3 4 5 6 
#
# 1 42.8667 13.2581 9.3832 0.0000 0.0000 0.0000
# 2 13.2581 204.6571 136.5692 0.0000 0.0000 0.0000
# 3 9.3832 136.5692 187.8122 0.0000 0.0000 0.0000
# 4 0.0000 0.0000 0.0000 34.6804 0.0000 0.0000
# 5 0.0000 0.0000 0.0000 0.0000 35.9649 0.0000
# 6 0.0000 0.0000 0.0000 0.0000 0.0000 -38.4194
#
#
#
# Elastic Compliance Matrix: (Units=1/GPa)
#
#
# Indices 1 2 3 4 5 6 
#
# 1 0.023807 -0.001454 -0.000132 0.000000 0.000000 0.000000
# 2 -0.001454 0.009581 -0.006894 0.000000 0.000000 0.000000
# 3 -0.000132 -0.006894 0.010344 0.000000 0.000000 0.000000
# 4 0.000000 0.000000 0.000000 0.028835 0.000000 0.000000
# 5 0.000000 0.000000 0.000000 0.000000 0.027805 0.000000
# 6 0.000000 0.000000 0.000000 0.000000 0.000000 -0.026029
#
#
# Mechanical properties :
#
#
# Convention : Reuss Voigt Hill
#
# Bulk Modulus (GPa) = 37.35355 83.75080 60.55218
# Shear Modulus (GPa) = 49.88638 24.85355 37.36997
#
# Velocity S-wave (km/s) = 4.89550 3.45542 4.23709
# Velocity P-wave (km/s) = 7.06396 7.49364 7.28197
#
# Compressibility (1/GPa) = 0.02677122
#
# Stress axis : x y z
#
# Youngs Moduli (GPa) = 42.00486 104.37298 96.67172
#
# Poissons Ratio (x) = 0.15178 0.01276
# Poissons Ratio (y) = 0.06108 0.66648
# Poissons Ratio (z) = 0.00554 0.71958
#
# Static dielectric constant tensor:
#      x y z
#    x 1.809500 0.000000 0.000000 
#    y 0.000000 1.751850 0.000000 
#    z 0.000000 0.000000 1.705790 
# 
# From -- ./inp_files/6965.got.cif
#   From: 2010.05.17/outbox.cif.g08.bks.cpg/sg46_4_cif.got.tgz:6965.got - 2010.06.03 19:58:25.
