data_PCOD9379804
_publ_section_title
;
Structure prediction by ZEFSAII (Michael W. Deem and Ramdas Pophale) SiO2 
 PCOD9379804
Probable space group: I M A 2
;
_chemical_formula_sum "Si O2"
_cell_formula_units_Z 56
_cell_length_a 18.324298
_cell_length_b 9.629613
_cell_length_c 15.420093
_cell_angle_alpha 90.000000
_cell_angle_beta 90.000000
_cell_angle_gamma 90.000000
_cell_volume 2720.966361
_symmetry_space_group_name_H-M "I M A 2"
_symmetry_group_IT_number 46
_symmetry_cell_setting 'orthorhombic'
loop_
_space_group_symop_operation_xyz
x,y,z
-x,-y,z
1/2-x,y,z
1/2+x,-y,z
1/2+x,1/2+y,1/2+z
1/2-x,1/2-y,1/2+z
-x,1/2+y,1/2+z
x,1/2-y,1/2+z
loop_
_atom_site_type_symbol
_atom_site_label
_atom_site_fract_x
_atom_site_fract_y
_atom_site_fract_z
Si Si1 0.830733 0.366392 0.378000
Si Si2 0.835161 0.450347 0.176931
Si Si3 0.669608 0.993236 0.050566
Si Si4 0.834110 0.732136 0.681774
Si Si5 0.443360 0.778500 0.115013
Si Si6 0.511480 0.167683 0.934266
Si Si7 0.464565 0.146496 0.284987
O O1 0.750000 0.300073 0.390230
O O2 0.837094 0.406143 0.278087
O O3 0.832283 0.493672 0.446881
O O4 0.905049 0.291739 0.406256
O O5 0.750000 0.439962 0.148466
O O6 0.859506 0.609912 0.175059
O O7 0.889685 0.351981 0.124565
O O8 0.750000 0.046525 0.078038
O O9 0.607991 0.089433 0.092551
O O10 0.663026 0.841258 0.088655
O O11 0.750000 0.734889 0.710930
O O12 0.883696 0.641715 0.745600
O O13 0.486265 0.799853 0.204169
O O14 0.496509 0.777703 0.032048
O O15 0.463877 0.244835 0.863221
O O16 0.500000 0.000000 0.931252
O O17 0.500000 0.000000 0.311285
#
# Coordination Sequence:
#
# PCOD9379804 Si02
#       7
#     8   8   8   8   8   8   8
#     4   9  18  35  61  91 120 162 213 258 311 385
#     4  10  20  38  64  95 130 169 219 270 326 392
#     4   9  18  35  61  90 126 170 217 260 315 388
#     4  10  22  40  63  92 129 175 219 265 328 391
#     4  11  22  39  65  95 124 171 213 268 328 384
#     4  11  24  42  64  93 128 169 217 271 330 400
#     4  12  24  43  64  95 133 167 217 276 330 391
#
# _framework density 20.580922999999999
#
# number of rings (size 3 to 8) (size 9 to 14) (size 15 to 20)
#    0.000    1.714    2.857    1.714    2.000    0.571 
#    2.571    0.714    0.000    0.000    0.000    0.000 
#    0.000    0.000    0.000    0.000    0.000    0.000 
#
# Total GULP energy -156212.714558 kJ/mol
# GULP energy per Si atom -5579.025520 kJ/mol
# Density = 2.053408 g / cm^3
# Si number density = 20.580923 Si / 1000 Ang^3
#
#
#
# Elastic Constant Matrix: (Units=GPa)
#
#
# Indices 1 2 3 4 5 6 
#
# 1 76.4787 10.4333 6.9329 0.0000 0.0000 0.0000
# 2 10.4333 69.5384 24.2833 0.0000 0.0000 0.0000
# 3 6.9329 24.2833 93.5327 0.0000 0.0000 0.0000
# 4 0.0000 0.0000 0.0000 22.8145 0.0000 0.0000
# 5 0.0000 0.0000 0.0000 0.0000 16.9921 0.0000
# 6 0.0000 0.0000 0.0000 0.0000 0.0000 24.6641
#
#
#
# Elastic Compliance Matrix: (Units=1/GPa)
#
#
# Indices 1 2 3 4 5 6 
#
# 1 0.013371 -0.001826 -0.000517 0.000000 0.000000 0.000000
# 2 -0.001826 0.016064 -0.004035 0.000000 0.000000 0.000000
# 3 -0.000517 -0.004035 0.011777 0.000000 0.000000 0.000000
# 4 0.000000 0.000000 0.000000 0.043832 0.000000 0.000000
# 5 0.000000 0.000000 0.000000 0.000000 0.058851 0.000000
# 6 0.000000 0.000000 0.000000 0.000000 0.000000 0.040545
#
#
# Mechanical properties :
#
#
# Convention : Reuss Voigt Hill
#
# Bulk Modulus (GPa) = 35.14128 35.87210 35.50669
# Shear Modulus (GPa) = 24.19187 26.08751 25.13969
#
# Velocity S-wave (km/s) = 3.43221 3.56414 3.49879
# Velocity P-wave (km/s) = 5.72874 5.86558 5.79757
#
# Compressibility (1/GPa) = 0.02845656
#
# Stress axis : x y z
#
# Youngs Moduli (GPa) = 74.78613 62.25274 84.90840
#
# Poissons Ratio (x) = 0.11365 0.04391
# Poissons Ratio (y) = 0.13653 0.34262
# Poissons Ratio (z) = 0.03868 0.25120
#
# Static dielectric constant tensor:
#      x y z
#    x 1.813690 0.000000 0.000000 
#    y 0.000000 1.719220 0.000000 
#    z 0.000000 0.000000 1.728440 
# 
# From -- ./inp_files/17128.got.cif
#   From: 2010.05.17/outbox.cif.g08.bks.cpg/sg46_9_cif.got.tgz:17128.got - 2010.06.03 19:58:25.
