data_PCOD9379507
_publ_section_title
;
Structure prediction by ZEFSAII (Michael W. Deem and Ramdas Pophale) SiO2 
 PCOD9379507
Probable space group: I M A 2
;
_chemical_formula_sum "Si O2"
_cell_formula_units_Z 52
_cell_length_a 15.260535
_cell_length_b 20.962170
_cell_length_c 8.263129
_cell_angle_alpha 90.000000
_cell_angle_beta 90.000000
_cell_angle_gamma 90.000000
_cell_volume 2643.324801
_symmetry_space_group_name_H-M "I M A 2"
_symmetry_group_IT_number 46
_symmetry_cell_setting 'orthorhombic'
loop_
_space_group_symop_operation_xyz
x,y,z
-x,-y,z
1/2-x,y,z
1/2+x,-y,z
1/2+x,1/2+y,1/2+z
1/2-x,1/2-y,1/2+z
-x,1/2+y,1/2+z
x,1/2-y,1/2+z
loop_
_atom_site_type_symbol
_atom_site_label
_atom_site_fract_x
_atom_site_fract_y
_atom_site_fract_z
Si Si1 0.250000 0.650050 0.846040
Si Si2 0.051926 0.774422 0.703654
Si Si3 0.250000 0.761314 0.663121
Si Si4 0.650516 0.554153 0.586669
Si Si5 0.416891 0.893786 0.507852
Si Si6 0.587846 0.458727 0.343581
Si Si7 0.000000 0.500000 0.813059
Si Si8 0.493080 0.344829 0.511338
O O1 0.250000 0.684660 0.673903
O O2 0.163111 0.612081 0.884508
O O3 0.250000 0.704517 0.989627
O O4 0.156342 0.777849 0.743760
O O5 0.045808 0.824624 0.555479
O O6 0.025900 0.703644 0.649024
O O7 0.994717 0.802275 0.848655
O O8 0.750000 0.563248 0.643726
O O9 0.650990 0.509139 0.427637
O O10 0.584986 0.516289 0.706242
O O11 0.598294 0.619924 0.549276
O O12 0.384821 0.925816 0.676114
O O13 0.486466 0.939021 0.425511
O O14 0.500000 0.500000 0.310830
O O15 0.559824 0.402368 0.467296
#
# Coordination Sequence:
#
# PCOD9379507 Si02
#       8
#     4   8   4   8   8   8   4   8
#     4  10  22  34  54  92 124 164 196 240 314 370
#     4  10  21  37  63  91 124 168 199 257 317 372
#     4  10  20  36  52  90 134 152 200 244 296 396
#     4  11  25  43  64  92 123 168 219 263 313 378
#     4  10  22  37  60  91 124 160 207 253 312 384
#     4   9  18  41  61  85 121 164 206 255 313 370
#     4  12  24  42  64  90 130 160 206 272 316 368
#     4  10  21  39  62  88 120 162 207 254 321 371
#
# _framework density 19.672194999999999
#
# number of rings (size 3 to 8) (size 9 to 14) (size 15 to 20)
#    0.000    1.846    3.077    1.846    6.462    0.000 
#    2.769    0.769    0.000    0.000    0.000    0.000 
#    0.000    0.000    0.000    0.000    0.000    0.000 
#
# Total GULP energy -145027.329369 kJ/mol
# GULP energy per Si atom -5577.974207 kJ/mol
# Density = 1.962742 g / cm^3
# Si number density = 19.672195 Si / 1000 Ang^3
#
#
#
# Elastic Constant Matrix: (Units=GPa)
#
#
# Indices 1 2 3 4 5 6 
#
# 1 103.7494 40.0162 27.5525 0.0000 0.0000 0.0000
# 2 40.0162 117.0495 27.8731 0.0000 0.0000 0.0000
# 3 27.5525 27.8731 41.5519 0.0000 0.0000 0.0000
# 4 0.0000 0.0000 0.0000 51.1114 0.0000 0.0000
# 5 0.0000 0.0000 0.0000 0.0000 9.7492 0.0000
# 6 0.0000 0.0000 0.0000 0.0000 0.0000 21.3086
#
#
#
# Elastic Compliance Matrix: (Units=1/GPa)
#
#
# Indices 1 2 3 4 5 6 
#
# 1 0.012382 -0.002711 -0.006392 0.000000 0.000000 0.000000
# 2 -0.002711 0.010761 -0.005421 0.000000 0.000000 0.000000
# 3 -0.006392 -0.005421 0.031941 0.000000 0.000000 0.000000
# 4 0.000000 0.000000 0.000000 0.019565 0.000000 0.000000
# 5 0.000000 0.000000 0.000000 0.000000 0.102573 0.000000
# 6 0.000000 0.000000 0.000000 0.000000 0.000000 0.046929
#
#
# Mechanical properties :
#
#
# Convention : Reuss Voigt Hill
#
# Bulk Modulus (GPa) = 38.40751 50.35939 44.38345
# Shear Modulus (GPa) = 19.09295 27.56110 23.32703
#
# Velocity S-wave (km/s) = 3.11875 3.74708 3.44726
# Velocity P-wave (km/s) = 5.70394 6.66150 6.20123
#
# Compressibility (1/GPa) = 0.02603657
#
# Stress axis : x y z
#
# Youngs Moduli (GPa) = 80.76483 92.92735 31.30784
#
# Poissons Ratio (x) = 0.25192 0.20011
# Poissons Ratio (y) = 0.21895 0.16972
# Poissons Ratio (z) = 0.51622 0.50376
#
# Static dielectric constant tensor:
#      x y z
#    x 1.678370 0.000000 0.000000 
#    y 0.000000 1.719750 0.000000 
#    z 0.000000 0.000000 1.754260 
# 
# From -- ./inp_files/5904.got.cif
#   From: 2010.05.17/outbox.cif.g08.bks.cpg/sg46_3_cif.got.tgz:5904.got - 2010.06.03 19:58:25.
