data_PCOD9379356
_publ_section_title
;
Structure prediction by ZEFSAII (Michael W. Deem and Ramdas Pophale) SiO2 
 PCOD9379356
Probable space group: I M A 2
;
_chemical_formula_sum "Si O2"
_cell_formula_units_Z 48
_cell_length_a 8.658201
_cell_length_b 9.454905
_cell_length_c 32.060044
_cell_angle_alpha 90.000000
_cell_angle_beta 90.000000
_cell_angle_gamma 90.000000
_cell_volume 2624.514324
_symmetry_space_group_name_H-M "I M A 2"
_symmetry_group_IT_number 46
_symmetry_cell_setting 'orthorhombic'
loop_
_space_group_symop_operation_xyz
x,y,z
-x,-y,z
1/2-x,y,z
1/2+x,-y,z
1/2+x,1/2+y,1/2+z
1/2-x,1/2-y,1/2+z
-x,1/2+y,1/2+z
x,1/2-y,1/2+z
loop_
_atom_site_type_symbol
_atom_site_label
_atom_site_fract_x
_atom_site_fract_y
_atom_site_fract_z
Si Si1 0.434593 0.659248 0.761450
Si Si2 0.935823 0.341714 0.180347
Si Si3 0.065357 0.340253 0.847532
Si Si4 0.434618 0.657793 0.515078
Si Si5 0.065085 0.341138 0.604378
Si Si6 0.935725 0.840534 0.439645
O O1 0.500000 0.500000 0.756426
O O2 0.250000 0.649203 0.763546
O O3 0.478345 0.754997 0.722120
O O4 0.495855 0.722269 0.805215
O O5 0.750000 0.344047 0.177205
O O6 0.000000 0.500000 0.182158
O O7 0.004945 0.259271 0.140861
O O8 0.250000 0.344875 0.843841
O O9 0.026311 0.280281 0.893283
O O10 0.000000 0.500000 0.848291
O O11 0.500000 0.500000 0.509172
O O12 0.250000 0.654112 0.517532
O O13 0.502887 0.708628 0.559340
O O14 0.490482 0.752064 0.476741
O O15 0.250000 0.346438 0.603863
O O16 0.000000 0.500000 0.610858
O O17 0.750000 0.843038 0.443562
O O18 0.000000 0.000000 0.441496
#
# Coordination Sequence:
#
# PCOD9379356 Si02
#       6
#     8   8   8   8   8   8
#     4  10  20  34  56  82 109 142 184 227 270 322
#     4  11  24  40  57  82 113 146 182 226 278 330
#     4   9  17  30  52  79 109 142 181 226 270 317
#     4  11  22  38  59  83 112 146 183 227 274 326
#     4  11  22  39  62  85 110 143 183 227 270 324
#     4  10  20  35  55  83 114 147 186 229 275 325
#
# _framework density 18.289099
#
# number of rings (size 3 to 8) (size 9 to 14) (size 15 to 20)
#    0.000    1.667    0.000    7.500    0.000    6.667 
#    0.000    4.167    0.000    2.000    0.000    0.000 
#    0.000    0.000    0.000    0.000    0.000    0.000 
#
# Total GULP energy -134025.943495 kJ/mol
# GULP energy per Si atom -5584.414312 kJ/mol
# Density = 1.824747 g / cm^3
# Si number density = 18.289099 Si / 1000 Ang^3
#
#
#
# Elastic Constant Matrix: (Units=GPa)
#
#
# Indices 1 2 3 4 5 6 
#
# 1 122.3761 43.8511 86.2513 0.0000 0.0000 0.0000
# 2 43.8511 70.7785 92.9987 0.0000 0.0000 0.0000
# 3 86.2513 92.9987 223.4719 0.0000 0.0000 0.0000
# 4 0.0000 0.0000 0.0000 29.4087 0.0000 0.0000
# 5 0.0000 0.0000 0.0000 0.0000 33.5085 0.0000
# 6 0.0000 0.0000 0.0000 0.0000 0.0000 29.3578
#
#
#
# Elastic Compliance Matrix: (Units=1/GPa)
#
#
# Indices 1 2 3 4 5 6 
#
# 1 0.011479 -0.002848 -0.003246 0.000000 0.000000 0.000000
# 2 -0.002848 0.031882 -0.012169 0.000000 0.000000 0.000000
# 3 -0.003246 -0.012169 0.010791 0.000000 0.000000 0.000000
# 4 0.000000 0.000000 0.000000 0.034004 0.000000 0.000000
# 5 0.000000 0.000000 0.000000 0.000000 0.029843 0.000000
# 6 0.000000 0.000000 0.000000 0.000000 0.000000 0.034063
#
#
# Mechanical properties :
#
#
# Convention : Reuss Voigt Hill
#
# Bulk Modulus (GPa) = 56.72479 95.86986 76.29733
# Shear Modulus (GPa) = 25.71199 31.35668 28.53434
#
# Velocity S-wave (km/s) = 3.75355 4.14515 3.95420
# Velocity P-wave (km/s) = 7.06176 8.68577 7.91553
#
# Compressibility (1/GPa) = 0.01762898
#
# Stress axis : x y z
#
# Youngs Moduli (GPa) = 87.11252 31.36596 92.66556
#
# Poissons Ratio (x) = 0.08932 0.30075
# Poissons Ratio (y) = 0.24807 1.12761
# Poissons Ratio (z) = 0.28273 0.38168
#
# Static dielectric constant tensor:
#      x y z
#    x 1.610220 0.000000 0.000000 
#    y 0.000000 1.598790 0.000000 
#    z 0.000000 0.000000 1.655050 
# 
# From -- ./inp_files/24992.got.cif
#   From: 2010.05.17/outbox.cif.g08.bks.cpg/sg46_13_cif.got.tgz:24992.got - 2010.06.03 19:58:25.
