data_PCOD9379524
_publ_section_title
;
Structure prediction by ZEFSAII (Michael W. Deem and Ramdas Pophale) SiO2 
 PCOD9379524
Probable space group: I M A 2
;
_chemical_formula_sum "Si O2"
_cell_formula_units_Z 56
_cell_length_a 20.861254
_cell_length_b 5.203455
_cell_length_c 24.454529
_cell_angle_alpha 90.000000
_cell_angle_beta 90.000000
_cell_angle_gamma 90.000000
_cell_volume 2654.553708
_symmetry_space_group_name_H-M "I M A 2"
_symmetry_group_IT_number 46
_symmetry_cell_setting 'orthorhombic'
loop_
_space_group_symop_operation_xyz
x,y,z
-x,-y,z
1/2-x,y,z
1/2+x,-y,z
1/2+x,1/2+y,1/2+z
1/2-x,1/2-y,1/2+z
-x,1/2+y,1/2+z
x,1/2-y,1/2+z
loop_
_atom_site_type_symbol
_atom_site_label
_atom_site_fract_x
_atom_site_fract_y
_atom_site_fract_z
Si Si1 0.633201 0.375324 0.516810
Si Si2 0.679273 0.748273 0.734450
Si Si3 0.673084 0.061533 0.342720
Si Si4 0.575106 0.505737 0.170821
Si Si5 0.932509 0.859456 0.549441
Si Si6 0.681251 0.118429 0.132843
Si Si7 0.673722 0.942527 0.898638
O O1 0.575363 0.580764 0.523054
O O2 0.676691 0.448391 0.569098
O O3 0.662443 0.443633 0.458558
O O4 0.616443 0.074628 0.525345
O O5 0.750000 0.865064 0.747824
O O6 0.664631 0.543898 0.781711
O O7 0.617799 0.921120 0.723120
O O8 0.685229 0.609645 0.676018
O O9 0.750000 0.081484 0.350323
O O10 0.647960 0.839953 0.383824
O O11 0.647726 0.343045 0.356598
O O12 0.500000 0.500000 0.184985
O O13 0.575952 0.675489 0.114961
O O14 0.615395 0.262742 0.148087
O O15 0.000000 0.000000 0.541833
O O16 0.750000 0.265639 0.140259
O O17 0.750000 0.918585 0.891250
#
# Coordination Sequence:
#
# PCOD9379524 Si02
#       7
#     8   8   8   8   8   8   8
#     4  11  20  36  58  86 118 154 191 245 304 357
#     4  10  20  36  58  86 117 153 198 252 307 364
#     4   9  20  35  56  81 114 153 195 241 296 359
#     4  10  21  36  56  85 121 161 202 243 302 374
#     4  10  21  36  56  84 117 155 198 241 291 364
#     4  10  21  35  56  90 123 154 191 248 315 368
#     4  10  20  36  56  85 115 151 194 240 296 356
#
# _framework density 21.095825999999999
#
# number of rings (size 3 to 8) (size 9 to 14) (size 15 to 20)
#    0.000    2.000    1.429    2.143    2.000    0.571 
#    0.000    1.429    0.000    3.429    0.000    0.000 
#    0.000    0.000    0.000    0.000    0.000    0.000 
#
# Total GULP energy -155912.806195 kJ/mol
# GULP energy per Si atom -5568.314507 kJ/mol
# Density = 2.104781 g / cm^3
# Si number density = 21.095826 Si / 1000 Ang^3
#
#
#
# Elastic Constant Matrix: (Units=GPa)
#
#
# Indices 1 2 3 4 5 6 
#
# 1 100.1515 19.2296 10.6202 0.0000 0.0000 0.0000
# 2 19.2296 51.3849 -0.8613 0.0000 0.0000 0.0000
# 3 10.6202 -0.8613 59.2945 0.0000 0.0000 0.0000
# 4 0.0000 0.0000 0.0000 30.3469 0.0000 0.0000
# 5 0.0000 0.0000 0.0000 0.0000 17.9605 0.0000
# 6 0.0000 0.0000 0.0000 0.0000 0.0000 17.9997
#
#
#
# Elastic Compliance Matrix: (Units=1/GPa)
#
#
# Indices 1 2 3 4 5 6 
#
# 1 0.010997 -0.004149 -0.002030 0.000000 0.000000 0.000000
# 2 -0.004149 0.021031 0.001049 0.000000 0.000000 0.000000
# 3 -0.002030 0.001049 0.017244 0.000000 0.000000 0.000000
# 4 0.000000 0.000000 0.000000 0.032952 0.000000 0.000000
# 5 0.000000 0.000000 0.000000 0.000000 0.055678 0.000000
# 6 0.000000 0.000000 0.000000 0.000000 0.000000 0.055556
#
#
# Mechanical properties :
#
#
# Convention : Reuss Voigt Hill
#
# Bulk Modulus (GPa) = 25.63391 29.86754 27.75073
# Shear Modulus (GPa) = 23.07093 25.38425 24.22759
#
# Velocity S-wave (km/s) = 3.31059 3.47260 3.39256
# Velocity P-wave (km/s) = 5.17599 5.50158 5.34127
#
# Compressibility (1/GPa) = 0.03901082
#
# Stress axis : x y z
#
# Youngs Moduli (GPa) = 90.93535 47.54809 57.99192
#
# Poissons Ratio (x) = 0.19729 0.11772
# Poissons Ratio (y) = 0.37732 -0.06081
# Poissons Ratio (z) = 0.18459 -0.04986
#
# Static dielectric constant tensor:
#      x y z
#    x 1.811890 0.000000 0.000000 
#    y 0.000000 1.842750 0.000000 
#    z 0.000000 0.000000 1.767280 
# 
# From -- ./inp_files/23828.got.cif
#   From: 2010.05.17/outbox.cif.g08.bks.cpg/sg46_12_cif.got.tgz:23828.got - 2010.06.03 19:58:25.
