data_PCOD9379984
_publ_section_title
;
Structure prediction by ZEFSAII (Michael W. Deem and Ramdas Pophale) SiO2 
 PCOD9379984
Probable space group: I M A 2
;
_chemical_formula_sum "Si O2"
_cell_formula_units_Z 64
_cell_length_a 14.985535
_cell_length_b 16.208308
_cell_length_c 9.998539
_cell_angle_alpha 90.000000
_cell_angle_beta 90.000000
_cell_angle_gamma 90.000000
_cell_volume 2428.546806
_symmetry_space_group_name_H-M "I M A 2"
_symmetry_group_IT_number 46
_symmetry_cell_setting 'orthorhombic'
loop_
_space_group_symop_operation_xyz
x,y,z
-x,-y,z
1/2-x,y,z
1/2+x,-y,z
1/2+x,1/2+y,1/2+z
1/2-x,1/2-y,1/2+z
-x,1/2+y,1/2+z
x,1/2-y,1/2+z
loop_
_atom_site_type_symbol
_atom_site_label
_atom_site_fract_x
_atom_site_fract_y
_atom_site_fract_z
Si Si1 0.086087 0.940566 0.553940
Si Si2 0.140103 0.727948 0.191036
Si Si3 0.853434 0.002433 0.297201
Si Si4 0.355602 0.839064 0.965475
Si Si5 0.394831 0.493190 0.314831
Si Si6 0.643918 0.836018 0.474025
Si Si7 0.642514 0.764063 0.729665
Si Si8 0.643808 0.901162 0.059468
O O1 0.093837 0.849811 0.617603
O O2 0.144676 0.989832 0.667847
O O3 0.112008 0.929696 0.399001
O O4 0.000000 0.000000 0.542620
O O5 0.250000 0.718366 0.186137
O O6 0.113434 0.720461 0.345414
O O7 0.110955 0.809209 0.109498
O O8 0.750000 0.022474 0.272843
O O9 0.860072 0.921317 0.393187
O O10 0.894599 0.972565 0.157614
O O11 0.250000 0.829484 0.975363
O O12 0.369410 0.930764 0.911156
O O13 0.500000 0.500000 0.299276
O O14 0.377736 0.412784 0.403740
O O15 0.750000 0.819220 0.487129
O O16 0.608679 0.833921 0.626359
O O17 0.606138 0.767217 0.371787
O O18 0.750000 0.774926 0.750253
O O19 0.627260 0.684665 0.632490
O O20 0.750000 0.910677 0.064967
#
# Coordination Sequence:
#
# PCOD9379984 Si02
#       8
#     8   8   8   8   8   8   8   8
#     4  10  21  36  53  76 108 142 175 215 268 331
#     4   9  18  34  57  83 108 137 179 230 278 324
#     4   9  18  32  50  73 100 131 171 218 265 316
#     4   9  18  34  57  83 108 137 179 230 278 324
#     4  10  21  36  53  76 108 142 175 215 268 331
#     4   8  14  25  41  63  91 121 156 199 242 285
#     4   8  14  25  41  63  91 121 156 199 242 285
#     4   9  18  32  50  73 100 131 171 218 265 316
#
# _framework density 26.353210000000001
#
# number of rings (size 3 to 8) (size 9 to 14) (size 15 to 20)
#    0.000    3.000    0.000    2.250    0.000    4.000 
#    0.000    6.250    0.000    6.000    0.000    0.000 
#    0.000    0.000    0.000    0.000    0.000    0.000 
#
# Total GULP energy -178439.442511 kJ/mol
# GULP energy per Si atom -5576.232578 kJ/mol
# Density = 2.629323 g / cm^3
# Si number density = 26.353210 Si / 1000 Ang^3
#
#
#
# Elastic Constant Matrix: (Units=GPa)
#
#
# Indices 1 2 3 4 5 6 
#
# 1 49.2133 -8.0494 -1.6101 0.0000 0.0000 0.0000
# 2 -8.0494 46.7907 -7.0064 0.0000 0.0000 0.0000
# 3 -1.6101 -7.0064 121.3419 0.0000 0.0000 0.0000
# 4 0.0000 0.0000 0.0000 62.3829 0.0000 0.0000
# 5 0.0000 0.0000 0.0000 0.0000 -10.8823 0.0000
# 6 0.0000 0.0000 0.0000 0.0000 0.0000 14.3858
#
#
#
# Elastic Compliance Matrix: (Units=1/GPa)
#
#
# Indices 1 2 3 4 5 6 
#
# 1 0.020937 0.003675 0.000490 0.000000 0.000000 0.000000
# 2 0.003675 0.022203 0.001331 0.000000 0.000000 0.000000
# 3 0.000490 0.001331 0.008325 0.000000 0.000000 0.000000
# 4 0.000000 0.000000 0.000000 0.016030 0.000000 0.000000
# 5 0.000000 0.000000 0.000000 0.000000 -0.091893 0.000000
# 6 0.000000 0.000000 0.000000 0.000000 0.000000 0.069513
#
#
# Mechanical properties :
#
#
# Convention : Reuss Voigt Hill
#
# Bulk Modulus (GPa) = 16.01111 20.44601 18.22856
# Shear Modulus (GPa) = 91.00520 28.77807 59.89163
#
# Velocity S-wave (km/s) = 5.88284 3.30815 4.77240
# Velocity P-wave (km/s) = 7.22721 4.72939 6.10736
#
# Compressibility (1/GPa) = 0.06245662
#
# Stress axis : x y z
#
# Youngs Moduli (GPa) = 47.76267 45.03836 120.12706
#
# Poissons Ratio (x) = -0.16552 -0.05886
# Poissons Ratio (y) = -0.17554 -0.15987
# Poissons Ratio (z) = -0.02340 -0.05994
#
# Static dielectric constant tensor:
#      x y z
#    x 1.985720 0.000000 0.000000 
#    y 0.000000 2.171510 0.000000 
#    z 0.000000 0.000000 2.177180 
# 
# From -- ./inp_files/11313.got.cif
#   From: 2010.05.17/outbox.cif.g08.bks.cpg/sg46_6_cif.got.tgz:11313.got - 2010.06.03 19:58:25.
