data_PCOD9379587
_publ_section_title
;
Structure prediction by ZEFSAII (Michael W. Deem and Ramdas Pophale) SiO2 
 PCOD9379587
Probable space group: I M A 2
;
_chemical_formula_sum "Si O2"
_cell_formula_units_Z 56
_cell_length_a 18.926024
_cell_length_b 10.409418
_cell_length_c 14.389558
_cell_angle_alpha 90.000000
_cell_angle_beta 90.000000
_cell_angle_gamma 90.000000
_cell_volume 2834.870920
_symmetry_space_group_name_H-M "I M A 2"
_symmetry_group_IT_number 46
_symmetry_cell_setting 'orthorhombic'
loop_
_space_group_symop_operation_xyz
x,y,z
-x,-y,z
1/2-x,y,z
1/2+x,-y,z
1/2+x,1/2+y,1/2+z
1/2-x,1/2-y,1/2+z
-x,1/2+y,1/2+z
x,1/2-y,1/2+z
loop_
_atom_site_type_symbol
_atom_site_label
_atom_site_fract_x
_atom_site_fract_y
_atom_site_fract_z
Si Si1 0.045275 0.131360 0.235010
Si Si2 0.334232 0.953261 0.774100
Si Si3 0.121432 0.746356 0.434795
Si Si4 0.835393 0.462379 0.789411
Si Si5 0.169025 0.740640 0.639496
Si Si6 0.022433 0.148324 0.025014
Si Si7 0.552860 0.622886 0.334239
O O1 0.016102 0.251460 0.292850
O O2 0.046295 0.179674 0.128365
O O3 0.121235 0.093163 0.277827
O O4 0.000000 0.000000 0.243999
O O5 0.250000 0.972935 0.773653
O O6 0.378776 0.082448 0.777142
O O7 0.356056 0.867695 0.864442
O O8 0.360203 0.869568 0.685784
O O9 0.137887 0.875522 0.376292
O O10 0.165532 0.738107 0.529778
O O11 0.043728 0.725584 0.480583
O O12 0.750000 0.476305 0.794164
O O13 0.858178 0.383105 0.695373
O O14 0.250000 0.743319 0.669381
O O15 0.000000 0.000000 0.033517
O O16 0.076651 0.150178 0.940030
O O17 0.500000 0.500000 0.332799
#
# Coordination Sequence:
#
# PCOD9379587 Si02
#       7
#     8   8   8   8   8   8   8
#     4  11  24  41  63  89 124 167 209 262 319 384
#     4  10  21  36  60  91 122 162 204 252 314 371
#     4  11  18  35  62  92 126 163 208 259 314 376
#     4  10  22  38  60  92 128 169 215 269 329 388
#     4   9  18  32  57  91 122 156 200 250 308 373
#     4  10  20  36  60  87 120 159 209 250 301 373
#     4  11  23  42  61  87 123 161 205 257 306 366
#
# _framework density 19.753986999999999
#
# number of rings (size 3 to 8) (size 9 to 14) (size 15 to 20)
#    0.000    1.714    2.857    4.714    4.000    0.571 
#    2.571    0.714    0.000    0.000    0.000    0.000 
#    0.000    0.000    0.000    0.000    0.000    0.000 
#
# Total GULP energy -155954.394906 kJ/mol
# GULP energy per Si atom -5569.799818 kJ/mol
# Density = 1.970903 g / cm^3
# Si number density = 19.753987 Si / 1000 Ang^3
#
#
#
# Elastic Constant Matrix: (Units=GPa)
#
#
# Indices 1 2 3 4 5 6 
#
# 1 84.0685 24.4924 0.2486 0.0000 0.0000 0.0000
# 2 24.4924 72.5474 36.4824 0.0000 0.0000 0.0000
# 3 0.2486 36.4824 100.8654 0.0000 0.0000 0.0000
# 4 0.0000 0.0000 0.0000 20.3564 0.0000 0.0000
# 5 0.0000 0.0000 0.0000 0.0000 -5.3910 0.0000
# 6 0.0000 0.0000 0.0000 0.0000 0.0000 29.4097
#
#
#
# Elastic Compliance Matrix: (Units=1/GPa)
#
#
# Indices 1 2 3 4 5 6 
#
# 1 0.013507 -0.005553 0.001975 0.000000 0.000000 0.000000
# 2 -0.005553 0.019132 -0.006906 0.000000 0.000000 0.000000
# 3 0.001975 -0.006906 0.012407 0.000000 0.000000 0.000000
# 4 0.000000 0.000000 0.000000 0.049125 0.000000 0.000000
# 5 0.000000 0.000000 0.000000 0.000000 -0.185494 0.000000
# 6 0.000000 0.000000 0.000000 0.000000 0.000000 0.034002
#
#
# Mechanical properties :
#
#
# Convention : Reuss Voigt Hill
#
# Bulk Modulus (GPa) = 41.53214 42.21424 41.87319
# Shear Modulus (GPa) = -176.51624 21.95888 -77.27868
#
# Velocity S-wave (km/s) = -9.46315 3.33771 -6.26143
# Velocity P-wave (km/s) = 9.91622 6.02247 5.57051
#
# Compressibility (1/GPa) = 0.02407774
#
# Stress axis : x y z
#
# Youngs Moduli (GPa) = 74.03486 52.26856 80.59780
#
# Poissons Ratio (x) = 0.29027 -0.15921
# Poissons Ratio (y) = 0.41115 0.55663
# Poissons Ratio (z) = -0.14625 0.36098
#
# Static dielectric constant tensor:
#      x y z
#    x 1.783120 0.000000 0.000000 
#    y 0.000000 1.746070 0.000000 
#    z 0.000000 0.000000 1.716850 
# 
# From -- ./inp_files/17110.got.cif
#   From: 2010.05.17/outbox.cif.g08.bks.cpg/sg46_9_cif.got.tgz:17110.got - 2010.06.03 19:58:25.
