data_PCOD9379428
_publ_section_title
;
Structure prediction by ZEFSAII (Michael W. Deem and Ramdas Pophale) SiO2 
 PCOD9379428
Probable space group: I M A 2
;
_chemical_formula_sum "Si O2"
_cell_formula_units_Z 64
_cell_length_a 9.082171
_cell_length_b 19.652420
_cell_length_c 16.629713
_cell_angle_alpha 90.000000
_cell_angle_beta 90.000000
_cell_angle_gamma 90.000000
_cell_volume 2968.181581
_symmetry_space_group_name_H-M "I M A 2"
_symmetry_group_IT_number 46
_symmetry_cell_setting 'orthorhombic'
loop_
_space_group_symop_operation_xyz
x,y,z
-x,-y,z
1/2-x,y,z
1/2+x,-y,z
1/2+x,1/2+y,1/2+z
1/2-x,1/2-y,1/2+z
-x,1/2+y,1/2+z
x,1/2-y,1/2+z
loop_
_atom_site_type_symbol
_atom_site_label
_atom_site_fract_x
_atom_site_fract_y
_atom_site_fract_z
Si Si1 0.428002 0.925664 0.475350
Si Si2 0.421143 0.788557 0.878677
Si Si3 0.585478 0.063690 0.896771
Si Si4 0.571529 0.149979 0.308803
Si Si5 0.417493 0.790905 0.064159
Si Si6 0.425963 0.926852 0.145247
Si Si7 0.912781 0.063196 0.708598
Si Si8 0.923809 0.835743 0.616022
O O1 0.250000 0.928407 0.482121
O O2 0.464248 0.893522 0.388073
O O3 0.497264 0.877725 0.544188
O O4 0.500000 0.000000 0.480301
O O5 0.250000 0.801259 0.852354
O O6 0.491765 0.862901 0.889589
O O7 0.482410 0.727407 0.825020
O O8 0.415909 0.766204 0.971964
O O9 0.750000 0.070536 0.933076
O O10 0.604493 0.047821 0.802264
O O11 0.500000 0.000000 0.933490
O O12 0.750000 0.155286 0.305509
O O13 0.525255 0.111289 0.227919
O O14 0.250000 0.782329 0.095788
O O15 0.454498 0.870389 0.076063
O O16 0.528010 0.742109 0.110024
O O17 0.250000 0.937048 0.149722
O O18 0.500000 0.000000 0.135841
O O19 0.750000 0.070821 0.673731
O O20 0.007316 0.130253 0.695057
O O21 0.000000 0.000000 0.671235
O O22 0.750000 0.844327 0.612176
#
# Coordination Sequence:
#
# PCOD9379428 Si02
#       8
#     8   8   8   8   8   8   8   8
#     4  11  21  36  58  83 114 153 192 237 289 351
#     4   9  17  34  59  86 112 148 196 243 286 342
#     4   9  19  34  57  83 112 147 187 234 283 340
#     4   9  18  34  59  87 116 150 195 244 289 347
#     4  10  21  39  62  85 113 154 200 238 285 346
#     4  10  22  39  63  91 120 157 200 246 297 355
#     4  10  20  35  55  80 111 149 188 229 276 337
#     4  12  24  37  54  81 116 151 189 239 291 345
#
# _framework density 21.562023
#
# number of rings (size 3 to 8) (size 9 to 14) (size 15 to 20)
#    0.000    2.000    1.250    2.625    1.750    1.500 
#    0.000    1.250    0.000    0.000    0.000    0.000 
#    0.000    0.000    0.000    0.000    0.000    0.000 
#
# Total GULP energy -178555.038348 kJ/mol
# GULP energy per Si atom -5579.844948 kJ/mol
# Density = 2.151295 g / cm^3
# Si number density = 21.562023 Si / 1000 Ang^3
#
#
#
# Elastic Constant Matrix: (Units=GPa)
#
#
# Indices 1 2 3 4 5 6 
#
# 1 90.7139 52.6737 7.9026 0.0000 0.0000 0.0000
# 2 52.6737 165.9270 10.9335 0.0000 0.0000 0.0000
# 3 7.9026 10.9335 59.7976 0.0000 0.0000 0.0000
# 4 0.0000 0.0000 0.0000 19.7977 0.0000 0.0000
# 5 0.0000 0.0000 0.0000 0.0000 8.4773 0.0000
# 6 0.0000 0.0000 0.0000 0.0000 0.0000 34.7643
#
#
#
# Elastic Compliance Matrix: (Units=1/GPa)
#
#
# Indices 1 2 3 4 5 6 
#
# 1 0.013576 -0.004243 -0.001018 0.000000 0.000000 0.000000
# 2 -0.004243 0.007426 -0.000797 0.000000 0.000000 0.000000
# 3 -0.001018 -0.000797 0.017003 0.000000 0.000000 0.000000
# 4 0.000000 0.000000 0.000000 0.050511 0.000000 0.000000
# 5 0.000000 0.000000 0.000000 0.000000 0.117963 0.000000
# 6 0.000000 0.000000 0.000000 0.000000 0.000000 0.028765
#
#
# Mechanical properties :
#
#
# Convention : Reuss Voigt Hill
#
# Bulk Modulus (GPa) = 38.62620 51.05091 44.83856
# Shear Modulus (GPa) = 19.53200 28.93643 24.23422
#
# Velocity S-wave (km/s) = 3.01300 3.66732 3.35614
# Velocity P-wave (km/s) = 5.48244 6.45446 5.98820
#
# Compressibility (1/GPa) = 0.02588916
#
# Stress axis : x y z
#
# Youngs Moduli (GPa) = 73.66015 134.66062 58.81170
#
# Poissons Ratio (x) = 0.57131 0.05989
# Poissons Ratio (y) = 0.31251 0.04688
# Poissons Ratio (z) = 0.07502 0.10734
#
# Static dielectric constant tensor:
#      x y z
#    x 1.764210 0.000000 0.000000 
#    y 0.000000 1.818200 0.000000 
#    z 0.000000 0.000000 1.852950 
# 
# From -- ./inp_files/21282.got.cif
#   From: 2010.05.17/outbox.cif.g08.bks.cpg/sg46_11_cif.got.tgz:21282.got - 2010.06.03 19:58:25.
