data_PCOD9379313
_publ_section_title
;
Structure prediction by ZEFSAII (Michael W. Deem and Ramdas Pophale) SiO2 
 PCOD9379313
Probable space group: I M A 2
;
_chemical_formula_sum "Si O2"
_cell_formula_units_Z 56
_cell_length_a 8.981137
_cell_length_b 15.529463
_cell_length_c 19.767118
_cell_angle_alpha 90.000000
_cell_angle_beta 90.000000
_cell_angle_gamma 90.000000
_cell_volume 2756.964122
_symmetry_space_group_name_H-M "I M A 2"
_symmetry_group_IT_number 46
_symmetry_cell_setting 'orthorhombic'
loop_
_space_group_symop_operation_xyz
x,y,z
-x,-y,z
1/2-x,y,z
1/2+x,-y,z
1/2+x,1/2+y,1/2+z
1/2-x,1/2-y,1/2+z
-x,1/2+y,1/2+z
x,1/2-y,1/2+z
loop_
_atom_site_type_symbol
_atom_site_label
_atom_site_fract_x
_atom_site_fract_y
_atom_site_fract_z
Si Si1 0.421087 0.415028 0.942670
Si Si2 0.572182 0.262212 0.869632
Si Si3 0.426935 0.231379 0.229383
Si Si4 0.911523 0.112769 0.565233
Si Si5 0.919217 0.084097 0.721051
Si Si6 0.421957 0.817071 0.093118
Si Si7 0.069914 0.593607 0.452044
O O1 0.500000 0.500000 0.914093
O O2 0.250000 0.409344 0.923838
O O3 0.511720 0.330596 0.922885
O O4 0.446629 0.417373 0.023372
O O5 0.750000 0.263758 0.865464
O O6 0.501352 0.295175 0.799782
O O7 0.528093 0.166674 0.896423
O O8 0.250000 0.226636 0.231978
O O9 0.482709 0.330537 0.227419
O O10 0.486248 0.181487 0.162993
O O11 0.750000 0.093274 0.531526
O O12 0.906305 0.075250 0.640161
O O13 0.920661 0.216157 0.573118
O O14 0.750000 0.096169 0.747757
O O15 0.000000 0.000000 0.749700
O O16 0.250000 0.841157 0.107334
O O17 0.473218 0.870809 0.027314
O O18 0.250000 0.587900 0.451404
O O19 0.000000 0.500000 0.439984
#
# Coordination Sequence:
#
# PCOD9379313 Si02
#       7
#     8   8   8   8   8   8   8
#     4  12  24  37  58  88 120 155 196 245 304 369
#     4  11  23  44  65  87 124 168 210 262 318 378
#     4  11  23  38  59  88 119 159 207 258 318 383
#     4   9  17  33  56  82 116 152 192 238 293 355
#     4  10  20  34  53  80 115 155 197 244 297 360
#     4   9  18  38  62  87 119 161 206 252 308 370
#     4  10  22  40  66  96 128 167 215 266 322 379
#
# _framework density 20.312197000000001
#
# number of rings (size 3 to 8) (size 9 to 14) (size 15 to 20)
#    0.000    1.714    1.429    4.714    0.000    6.286 
#    0.000    2.143    0.000    1.714    0.000    0.000 
#    0.000    0.000    0.000    0.000    0.000    0.000 
#
# Total GULP energy -156239.866363 kJ/mol
# GULP energy per Si atom -5579.995227 kJ/mol
# Density = 2.026597 g / cm^3
# Si number density = 20.312197 Si / 1000 Ang^3
#
#
#
# Elastic Constant Matrix: (Units=GPa)
#
#
# Indices 1 2 3 4 5 6 
#
# 1 105.1789 18.7787 33.5481 0.0000 0.0000 0.0000
# 2 18.7787 60.1734 -2.4372 0.0000 0.0000 0.0000
# 3 33.5481 -2.4372 77.4654 0.0000 0.0000 0.0000
# 4 0.0000 0.0000 0.0000 7.1983 0.0000 0.0000
# 5 0.0000 0.0000 0.0000 0.0000 24.2179 0.0000
# 6 0.0000 0.0000 0.0000 0.0000 0.0000 29.9582
#
#
#
# Elastic Compliance Matrix: (Units=1/GPa)
#
#
# Indices 1 2 3 4 5 6 
#
# 1 0.011890 -0.003924 -0.005273 0.000000 0.000000 0.000000
# 2 -0.003924 0.017935 0.002264 0.000000 0.000000 0.000000
# 3 -0.005273 0.002264 0.015264 0.000000 0.000000 0.000000
# 4 0.000000 0.000000 0.000000 0.138922 0.000000 0.000000
# 5 0.000000 0.000000 0.000000 0.000000 0.041292 0.000000
# 6 0.000000 0.000000 0.000000 0.000000 0.000000 0.033380
#
#
# Mechanical properties :
#
#
# Convention : Reuss Voigt Hill
#
# Bulk Modulus (GPa) = 32.02834 38.06633 35.04734
# Shear Modulus (GPa) = 17.67059 25.13675 21.40367
#
# Velocity S-wave (km/s) = 2.95269 3.52166 3.24965
# Velocity P-wave (km/s) = 5.23706 5.94284 5.60108
#
# Compressibility (1/GPa) = 0.03122235
#
# Stress axis : x y z
#
# Youngs Moduli (GPa) = 84.10406 55.75706 65.51499
#
# Poissons Ratio (x) = 0.21880 0.34544
# Poissons Ratio (y) = 0.33004 -0.14831
# Poissons Ratio (z) = 0.44346 -0.12622
#
# Static dielectric constant tensor:
#      x y z
#    x 1.712250 0.000000 0.000000 
#    y 0.000000 1.830580 0.000000 
#    z 0.000000 0.000000 1.810740 
# 
# From -- ./inp_files/21104.got.cif
#   From: 2010.05.17/outbox.cif.g08.bks.cpg/sg46_11_cif.got.tgz:21104.got - 2010.06.03 19:58:25.
