data_PCOD9379928
_publ_section_title
;
Structure prediction by ZEFSAII (Michael W. Deem and Ramdas Pophale) SiO2 
 PCOD9379928
Probable space group: I M A 2
;
_chemical_formula_sum "Si O2"
_cell_formula_units_Z 40
_cell_length_a 9.616884
_cell_length_b 7.259967
_cell_length_c 26.447641
_cell_angle_alpha 90.000000
_cell_angle_beta 90.000000
_cell_angle_gamma 90.000000
_cell_volume 1846.528288
_symmetry_space_group_name_H-M "I M A 2"
_symmetry_group_IT_number 46
_symmetry_cell_setting 'orthorhombic'
loop_
_space_group_symop_operation_xyz
x,y,z
-x,-y,z
1/2-x,y,z
1/2+x,-y,z
1/2+x,1/2+y,1/2+z
1/2-x,1/2-y,1/2+z
-x,1/2+y,1/2+z
x,1/2-y,1/2+z
loop_
_atom_site_type_symbol
_atom_site_label
_atom_site_fract_x
_atom_site_fract_y
_atom_site_fract_z
Si Si1 0.250000 0.594641 0.042001
Si Si2 0.500000 0.500000 0.114359
Si Si3 0.250000 0.875831 0.964957
Si Si4 0.085596 0.336169 0.683563
Si Si5 0.084484 0.692872 0.277701
Si Si6 0.750000 0.814495 0.445720
Si Si7 0.982010 0.221942 0.888934
O O1 0.381964 0.570943 0.077185
O O2 0.250000 0.800279 0.020585
O O3 0.250000 0.447845 0.994591
O O4 0.566501 0.654616 0.150119
O O5 0.122905 0.782847 0.935378
O O6 0.250000 0.096711 0.961926
O O7 0.250000 0.373243 0.691839
O O8 0.000000 0.500000 0.657120
O O9 0.998025 0.303373 0.734978
O O10 0.250000 0.668572 0.266849
O O11 0.070511 0.780050 0.333771
O O12 0.000000 0.500000 0.277901
O O13 0.616766 0.827591 0.408964
O O14 0.000000 0.000000 0.882248
#
# Coordination Sequence:
#
# PCOD9379928 Si02
#       7
#     4   4   4   8   8   4   8
#     4  12  26  44  74 102 132 192 242 294 366 420
#     4  12  28  50  74 104 144 184 248 308 368 422
#     4  10  20  42  65  93 141 179 230 292 346 425
#     4  12  28  49  76 106 144 187 241 306 370 440
#     4  11  22  39  70 105 146 192 238 290 360 434
#     4  10  22  40  63  99 139 181 236 290 346 433
#     4   9  19  36  63  97 140 186 227 281 356 422
#
# _framework density 21.662272000000002
#
# number of rings (size 3 to 8) (size 9 to 14) (size 15 to 20)
#    0.000    1.200    3.000    2.400    8.400    1.600 
#    3.600    0.000    0.000    0.000    0.000    0.000 
#    0.000    0.000    0.000    0.000    0.000    0.000 
#
# Total GULP energy -111675.535205 kJ/mol
# GULP energy per Si atom -5583.776760 kJ/mol
# Density = 2.161297 g / cm^3
# Si number density = 21.662272 Si / 1000 Ang^3
#
#
#
# Elastic Constant Matrix: (Units=GPa)
#
#
# Indices 1 2 3 4 5 6 
#
# 1 180.1112 19.4018 34.7738 0.0000 0.0000 0.0000
# 2 19.4018 74.4788 21.3584 0.0000 0.0000 0.0000
# 3 34.7738 21.3584 94.5537 0.0000 0.0000 0.0000
# 4 0.0000 0.0000 0.0000 -4.1928 0.0000 0.0000
# 5 0.0000 0.0000 0.0000 0.0000 27.1099 0.0000
# 6 0.0000 0.0000 0.0000 0.0000 0.0000 28.1401
#
#
#
# Elastic Compliance Matrix: (Units=1/GPa)
#
#
# Indices 1 2 3 4 5 6 
#
# 1 0.006046 -0.001002 -0.001997 0.000000 0.000000 0.000000
# 2 -0.001002 0.014523 -0.002912 0.000000 0.000000 0.000000
# 3 -0.001997 -0.002912 0.011968 0.000000 0.000000 0.000000
# 4 0.000000 0.000000 0.000000 -0.238502 0.000000 0.000000
# 5 0.000000 0.000000 0.000000 0.000000 0.036887 0.000000
# 6 0.000000 0.000000 0.000000 0.000000 0.000000 0.035536
#
#
# Mechanical properties :
#
#
# Convention : Reuss Voigt Hill
#
# Bulk Modulus (GPa) = 48.27573 55.57908 51.92740
# Shear Modulus (GPa) = -43.54828 28.45208 -7.54810
#
# Velocity S-wave (km/s) = -4.48853 3.62807 -1.86869
# Velocity P-wave (km/s) = 2.12804 6.57749 4.40084
#
# Compressibility (1/GPa) = 0.02071434
#
# Stress axis : x y z
#
# Youngs Moduli (GPa) = 165.40839 68.85735 83.55471
#
# Poissons Ratio (x) = 0.06901 0.16686
# Poissons Ratio (y) = 0.16577 0.24330
# Poissons Ratio (z) = 0.33032 0.20051
#
# Static dielectric constant tensor:
#      x y z
#    x 1.773170 0.000000 0.000000 
#    y 0.000000 1.925530 0.000000 
#    z 0.000000 0.000000 1.766530 
# 
# From -- ./inp_files/22795.got.cif
#   From: 2010.05.17/outbox.cif.g08.bks.cpg/sg46_12_cif.got.tgz:22795.got - 2010.06.03 19:58:25.
