data_PCOD9379745
_publ_section_title
;
Structure prediction by ZEFSAII (Michael W. Deem and Ramdas Pophale) SiO2 
 PCOD9379745
Probable space group: I M A 2
;
_chemical_formula_sum "Si O2"
_cell_formula_units_Z 48
_cell_length_a 10.252225
_cell_length_b 7.273652
_cell_length_c 32.327929
_cell_angle_alpha 90.000000
_cell_angle_beta 90.000000
_cell_angle_gamma 90.000000
_cell_volume 2410.729772
_symmetry_space_group_name_H-M "I M A 2"
_symmetry_group_IT_number 46
_symmetry_cell_setting 'orthorhombic'
loop_
_space_group_symop_operation_xyz
x,y,z
-x,-y,z
1/2-x,y,z
1/2+x,-y,z
1/2+x,1/2+y,1/2+z
1/2-x,1/2-y,1/2+z
-x,1/2+y,1/2+z
x,1/2-y,1/2+z
loop_
_atom_site_type_symbol
_atom_site_label
_atom_site_fract_x
_atom_site_fract_y
_atom_site_fract_z
Si Si1 0.500000 0.000000 0.303601
Si Si2 0.600075 0.331244 0.661052
Si Si3 0.484889 0.777700 0.982885
Si Si4 0.597494 0.160600 0.749323
Si Si5 0.250000 0.253461 0.439756
Si Si6 0.750000 0.997854 0.359636
Si Si7 0.250000 0.693177 0.422499
Si Si8 0.902626 0.325738 0.569946
O O1 0.550781 0.161972 0.274322
O O2 0.622398 0.956156 0.332802
O O3 0.500000 0.500000 0.664485
O O4 0.750000 0.401694 0.662771
O O5 0.583593 0.201324 0.700377
O O6 0.585277 0.239676 0.615701
O O7 0.623442 0.711543 0.967103
O O8 0.376010 0.742784 0.948406
O O9 0.500000 0.000000 0.985356
O O10 0.442145 0.717172 0.028653
O O11 0.750000 0.122223 0.757773
O O12 0.500000 0.000000 0.761314
O O13 0.250000 0.469532 0.425250
O O14 0.250000 0.130093 0.399518
O O15 0.750000 0.207401 0.377970
O O16 0.750000 0.380918 0.564504
O O17 0.000000 0.500000 0.571839
#
# Coordination Sequence:
#
# PCOD9379745 Si02
#       8
#     4   8   8   8   4   4   4   8
#     4  12  26  46  68  98 132 162 218 276 328 396
#     4   9  18  34  59  91 127 167 211 255 314 375
#     4   9  17  31  55  83 120 161 208 253 307 367
#     4  11  25  44  71  98 130 174 214 264 330 395
#     4  10  22  38  60  87 119 163 209 260 314 382
#     4  12  26  42  68  92 124 164 212 270 328 392
#     4  10  20  38  60  85 117 161 205 254 318 374
#     4   9  16  27  51  87 122 163 209 256 300 364
#
# _framework density 19.910983999999999
#
# number of rings (size 3 to 8) (size 9 to 14) (size 15 to 20)
#    0.000    2.000    2.500    1.000    4.667    2.000 
#    0.000    0.000    3.667    0.000    0.000    0.000 
#    0.000    0.000    0.000    0.000    0.000    0.000 
#
# Total GULP energy -133909.701724 kJ/mol
# GULP energy per Si atom -5579.570905 kJ/mol
# Density = 1.986567 g / cm^3
# Si number density = 19.910984 Si / 1000 Ang^3
#
#
#
# Elastic Constant Matrix: (Units=GPa)
#
#
# Indices 1 2 3 4 5 6 
#
# 1 167.2102 34.7858 58.9091 0.0000 0.0000 0.0000
# 2 34.7858 56.4504 17.9835 0.0000 0.0000 0.0000
# 3 58.9091 17.9835 113.5474 0.0000 0.0000 0.0000
# 4 0.0000 0.0000 0.0000 -9.4413 0.0000 0.0000
# 5 0.0000 0.0000 0.0000 0.0000 36.0716 0.0000
# 6 0.0000 0.0000 0.0000 0.0000 0.0000 13.0604
#
#
#
# Elastic Compliance Matrix: (Units=1/GPa)
#
#
# Indices 1 2 3 4 5 6 
#
# 1 0.008028 -0.003813 -0.003561 0.000000 0.000000 0.000000
# 2 -0.003813 0.020467 -0.001263 0.000000 0.000000 0.000000
# 3 -0.003561 -0.001263 0.010855 0.000000 0.000000 0.000000
# 4 0.000000 0.000000 0.000000 -0.105918 0.000000 0.000000
# 5 0.000000 0.000000 0.000000 0.000000 0.027723 0.000000
# 6 0.000000 0.000000 0.000000 0.000000 0.000000 0.076567
#
#
# Mechanical properties :
#
#
# Convention : Reuss Voigt Hill
#
# Bulk Modulus (GPa) = 45.30067 62.28499 53.79283
# Shear Modulus (GPa) = 80.18611 22.97346 51.57978
#
# Velocity S-wave (km/s) = 6.35293 3.40046 5.09524
# Velocity P-wave (km/s) = 8.75294 6.83865 7.85433
#
# Compressibility (1/GPa) = 0.02207473
#
# Stress axis : x y z
#
# Youngs Moduli (GPa) = 124.55872 48.86007 92.12665
#
# Poissons Ratio (x) = 0.18629 0.32809
# Poissons Ratio (y) = 0.47490 0.11640
# Poissons Ratio (z) = 0.44359 0.06173
#
# Static dielectric constant tensor:
#      x y z
#    x 1.687610 0.000000 0.000000 
#    y 0.000000 1.726070 0.000000 
#    z 0.000000 0.000000 1.714310 
# 
# From -- ./inp_files/25092.got.cif
#   From: 2010.05.17/outbox.cif.g08.bks.cpg/sg46_13_cif.got.tgz:25092.got - 2010.06.03 19:58:25.
