data_PCOD9379213
_publ_section_title
;
Structure prediction by ZEFSAII (Michael W. Deem and Ramdas Pophale) SiO2 
 PCOD9379213
Probable space group: I M A 2
;
_chemical_formula_sum "Si O2"
_cell_formula_units_Z 44
_cell_length_a 20.214028
_cell_length_b 5.140309
_cell_length_c 21.010971
_cell_angle_alpha 90.000000
_cell_angle_beta 90.000000
_cell_angle_gamma 90.000000
_cell_volume 2183.173308
_symmetry_space_group_name_H-M "I M A 2"
_symmetry_group_IT_number 46
_symmetry_cell_setting 'orthorhombic'
loop_
_space_group_symop_operation_xyz
x,y,z
-x,-y,z
1/2-x,y,z
1/2+x,-y,z
1/2+x,1/2+y,1/2+z
1/2-x,1/2-y,1/2+z
-x,1/2+y,1/2+z
x,1/2-y,1/2+z
loop_
_atom_site_type_symbol
_atom_site_label
_atom_site_fract_x
_atom_site_fract_y
_atom_site_fract_z
Si Si1 0.000000 0.500000 0.116560
Si Si2 0.918860 0.496006 0.913406
Si Si3 0.675473 0.051550 0.128296
Si Si4 0.420760 0.001107 0.836966
Si Si5 0.631648 0.928796 0.552096
Si Si6 0.564617 0.148380 0.221820
O O1 0.943386 0.623098 0.074600
O O2 0.969436 0.288960 0.162733
O O3 0.900190 0.210318 0.889163
O O4 0.000000 0.500000 0.923826
O O5 0.901665 0.710498 0.859096
O O6 0.876991 0.552081 0.976641
O O7 0.750000 0.088287 0.152063
O O8 0.654761 0.306504 0.087207
O O9 0.624995 0.000214 0.187447
O O10 0.672422 0.809068 0.080318
O O11 0.406107 0.867841 0.769040
O O12 0.500000 0.000000 0.837824
O O13 0.500000 0.000000 0.251893
#
# Coordination Sequence:
#
# PCOD9379213 Si02
#       6
#     4   8   8   8   8   8
#     4  10  20  32  56  94 114 156 194 248 298 350
#     4  10  20  34  55  88 122 152 189 246 301 355
#     4  11  25  40  61  89 122 162 200 250 304 359
#     4  10  20  32  53  86 123 153 189 242 303 347
#     4  11  21  39  61  85 123 156 203 243 304 359
#     4  11  20  36  60  88 123 156 199 247 300 358
#
# _framework density 20.154147999999999
#
# number of rings (size 3 to 8) (size 9 to 14) (size 15 to 20)
#    0.000    1.455    3.636    3.273    0.000    0.000 
#    0.000    0.000    0.000    6.545    0.000    0.000 
#    0.000    0.000    0.000    0.000    0.000    0.000 
#
# Total GULP energy -122633.149320 kJ/mol
# GULP energy per Si atom -5574.234060 kJ/mol
# Density = 2.010828 g / cm^3
# Si number density = 20.154148 Si / 1000 Ang^3
#
#
#
# Elastic Constant Matrix: (Units=GPa)
#
#
# Indices 1 2 3 4 5 6 
#
# 1 77.3673 8.2244 22.7111 0.0000 0.0000 0.0000
# 2 8.2244 94.7848 21.4829 0.0000 0.0000 0.0000
# 3 22.7111 21.4829 86.7502 0.0000 0.0000 0.0000
# 4 0.0000 0.0000 0.0000 35.2198 0.0000 0.0000
# 5 0.0000 0.0000 0.0000 0.0000 19.3986 0.0000
# 6 0.0000 0.0000 0.0000 0.0000 0.0000 -14.1288
#
#
#
# Elastic Compliance Matrix: (Units=1/GPa)
#
#
# Indices 1 2 3 4 5 6 
#
# 1 0.014016 -0.000407 -0.003569 0.000000 0.000000 0.000000
# 2 -0.000407 0.011189 -0.002664 0.000000 0.000000 0.000000
# 3 -0.003569 -0.002664 0.013121 0.000000 0.000000 0.000000
# 4 0.000000 0.000000 0.000000 0.028393 0.000000 0.000000
# 5 0.000000 0.000000 0.000000 0.000000 0.051550 0.000000
# 6 0.000000 0.000000 0.000000 0.000000 0.000000 -0.070778
#
#
# Mechanical properties :
#
#
# Convention : Reuss Voigt Hill
#
# Bulk Modulus (GPa) = 39.92566 40.41548 40.17057
# Shear Modulus (GPa) = 72.33567 21.86349 47.09958
#
# Velocity S-wave (km/s) = 5.99743 3.29722 4.83946
# Velocity P-wave (km/s) = 8.23480 5.88152 7.15557
#
# Compressibility (1/GPa) = 0.02504655
#
# Stress axis : x y z
#
# Youngs Moduli (GPa) = 71.34599 89.37004 76.21143
#
# Poissons Ratio (x) = 0.03641 0.27196
# Poissons Ratio (y) = 0.02906 0.20305
# Poissons Ratio (z) = 0.25460 0.23811
#
# Static dielectric constant tensor:
#      x y z
#    x 1.739170 0.000000 0.000000 
#    y 0.000000 1.766700 0.000000 
#    z 0.000000 0.000000 1.738400 
# 
# From -- ./inp_files/22320.got.cif
#   From: 2010.05.17/outbox.cif.g08.bks.cpg/sg46_12_cif.got.tgz:22320.got - 2010.06.03 19:58:25.
