data_PCOD9379110
_publ_section_title
;
Structure prediction by ZEFSAII (Michael W. Deem and Ramdas Pophale) SiO2 
 PCOD9379110
Probable space group: I M A 2
;
_chemical_formula_sum "Si O2"
_cell_formula_units_Z 64
_cell_length_a 27.104719
_cell_length_b 11.956766
_cell_length_c 8.029087
_cell_angle_alpha 90.000000
_cell_angle_beta 90.000000
_cell_angle_gamma 90.000000
_cell_volume 2602.104915
_symmetry_space_group_name_H-M "I M A 2"
_symmetry_group_IT_number 46
_symmetry_cell_setting 'orthorhombic'
loop_
_space_group_symop_operation_xyz
x,y,z
-x,-y,z
1/2-x,y,z
1/2+x,-y,z
1/2+x,1/2+y,1/2+z
1/2-x,1/2-y,1/2+z
-x,1/2+y,1/2+z
x,1/2-y,1/2+z
loop_
_atom_site_type_symbol
_atom_site_label
_atom_site_fract_x
_atom_site_fract_y
_atom_site_fract_z
Si Si1 0.491105 0.131514 0.690490
Si Si2 0.841573 0.284677 0.113768
Si Si3 0.695857 0.603187 0.373824
Si Si4 0.896298 0.527155 0.598901
Si Si5 0.324568 0.349637 0.984368
Si Si6 0.569430 0.757663 0.963722
Si Si7 0.823390 0.072799 0.317308
Si Si8 0.413822 0.663190 0.379649
O O1 0.444681 0.165323 0.807026
O O2 0.476469 0.182234 0.514159
O O3 0.539266 0.188247 0.768787
O O4 0.500000 0.000000 0.681668
O O5 0.812725 0.362852 0.988392
O O6 0.889708 0.249668 0.006621
O O7 0.814567 0.172528 0.181507
O O8 0.865707 0.354856 0.262561
O O9 0.750000 0.549538 0.391459
O O10 0.654293 0.547389 0.491140
O O11 0.698660 0.730257 0.442170
O O12 0.682917 0.614203 0.176943
O O13 0.920620 0.647760 0.606212
O O14 0.879517 0.461046 0.763308
O O15 0.928239 0.443254 0.489525
O O16 0.382271 0.319169 0.955227
O O17 0.305798 0.446577 0.858583
#
# Coordination Sequence:
#
# PCOD9379110 Si02
#       8
#     8   8   8   8   8   8   8   8
#     4  12  24  38  59  84 120 168 217 270 311 375
#     4   9  20  35  58  85 119 153 222 276 308 372
#     4  11  23  40  66 106 136 162 208 267 326 410
#     4  10  20  39  64  89 130 170 207 262 335 401
#     4  11  22  39  66  93 133 177 209 257 337 404
#     4  11  23  41  57  89 126 170 217 264 321 383
#     4  10  20  36  61  92 117 167 213 263 322 385
#     4  10  19  37  56  85 119 165 213 269 328 368
#
# _framework density 24.595472000000001
#
# number of rings (size 3 to 8) (size 9 to 14) (size 15 to 20)
#    0.000    1.500    1.250    5.625    1.750    0.000 
#    0.000    1.250    0.000    0.000    0.000   73.500 
#    0.000    0.000    0.000    0.000    0.000    0.000 
#
# Total GULP energy -178419.340354 kJ/mol
# GULP energy per Si atom -5575.604386 kJ/mol
# Density = 2.453949 g / cm^3
# Si number density = 24.595472 Si / 1000 Ang^3
#
#
#
# Elastic Constant Matrix: (Units=GPa)
#
#
# Indices 1 2 3 4 5 6 
#
# 1 74.8003 9.5887 2.6836 0.0000 0.0000 0.0000
# 2 9.5887 115.2584 29.1230 0.0000 0.0000 0.0000
# 3 2.6836 29.1230 70.4547 0.0000 0.0000 0.0000
# 4 0.0000 0.0000 0.0000 42.5809 0.0000 0.0000
# 5 0.0000 0.0000 0.0000 0.0000 -101.1044 0.0000
# 6 0.0000 0.0000 0.0000 0.0000 0.0000 -35.4448
#
#
#
# Elastic Compliance Matrix: (Units=1/GPa)
#
#
# Indices 1 2 3 4 5 6 
#
# 1 0.013513 -0.001110 -0.000056 0.000000 0.000000 0.000000
# 2 -0.001110 0.009779 -0.004000 0.000000 0.000000 0.000000
# 3 -0.000056 -0.004000 0.015849 0.000000 0.000000 0.000000
# 4 0.000000 0.000000 0.000000 0.023485 0.000000 0.000000
# 5 0.000000 0.000000 0.000000 0.000000 -0.009891 0.000000
# 6 0.000000 0.000000 0.000000 0.000000 0.000000 -0.028213
#
#
# Mechanical properties :
#
#
# Convention : Reuss Voigt Hill
#
# Bulk Modulus (GPa) = 34.71067 38.14489 36.42778
# Shear Modulus (GPa) = 112.46633 -4.18578 54.14027
#
# Velocity S-wave (km/s) = 6.76947 -1.30596 4.69682
# Velocity P-wave (km/s) = 8.67434 3.64260 6.65255
#
# Compressibility (1/GPa) = 0.02880959
#
# Stress axis : x y z
#
# Youngs Moduli (GPa) = 74.00150 102.25768 63.09512
#
# Poissons Ratio (x) = 0.11352 0.00352
# Poissons Ratio (y) = 0.08215 0.25238
# Poissons Ratio (z) = 0.00413 0.40903
#
# Static dielectric constant tensor:
#      x y z
#    x 2.052790 0.000000 0.000000 
#    y 0.000000 1.937340 0.000000 
#    z 0.000000 0.000000 2.050740 
# 
# From -- ./inp_files/8514.got.cif
#   From: 2010.05.17/outbox.cif.g08.bks.cpg/sg46_5_cif.got.tgz:8514.got - 2010.06.03 19:58:25.
