data_PCOD9379839
_publ_section_title
;
Structure prediction by ZEFSAII (Michael W. Deem and Ramdas Pophale) SiO2 
 PCOD9379839
Probable space group: I M A 2
;
_chemical_formula_sum "Si O2"
_cell_formula_units_Z 64
_cell_length_a 16.325530
_cell_length_b 22.459171
_cell_length_c 9.449898
_cell_angle_alpha 90.000000
_cell_angle_beta 90.000000
_cell_angle_gamma 90.000000
_cell_volume 3464.879472
_symmetry_space_group_name_H-M "I M A 2"
_symmetry_group_IT_number 46
_symmetry_cell_setting 'orthorhombic'
loop_
_space_group_symop_operation_xyz
x,y,z
-x,-y,z
1/2-x,y,z
1/2+x,-y,z
1/2+x,1/2+y,1/2+z
1/2-x,1/2-y,1/2+z
-x,1/2+y,1/2+z
x,1/2-y,1/2+z
loop_
_atom_site_type_symbol
_atom_site_label
_atom_site_fract_x
_atom_site_fract_y
_atom_site_fract_z
Si Si1 0.844471 0.443708 0.995660
Si Si2 0.107232 0.927995 0.811368
Si Si3 0.943538 0.262260 0.979295
Si Si4 0.843138 0.958525 0.000437
Si Si5 0.480857 0.134441 0.998345
Si Si6 0.514460 0.121636 0.318730
Si Si7 0.159629 0.700842 0.251776
Si Si8 0.159967 0.059787 0.320138
O O1 0.750000 0.419048 0.001054
O O2 0.908324 0.409884 0.893840
O O3 0.837371 0.509899 0.938278
O O4 0.885610 0.446447 0.149206
O O5 0.160527 0.867196 0.807801
O O6 0.023808 0.900288 0.870076
O O7 0.126864 0.984903 0.909309
O O8 0.985318 0.313203 0.886688
O O9 0.867322 0.239823 0.885329
O O10 0.003814 0.205126 0.989961
O O11 0.907239 0.287720 0.127116
O O12 0.750000 0.948331 0.957916
O O13 0.892242 0.896162 0.995526
O O14 0.846982 0.972993 0.167758
O O15 0.523423 0.118991 0.148853
O O16 0.423693 0.095366 0.343411
O O17 0.250000 0.716812 0.200039
O O18 0.250000 0.091034 0.317752
#
# Coordination Sequence:
#
# PCOD9379839 Si02
#       8
#     8   8   8   8   8   8   8   8
#     4  11  22  36  56  88 123 153 194 239 295 358
#     4  11  22  36  58  88 123 153 189 244 295 359
#     4  11  22  39  57  84 115 156 198 243 290 351
#     4  10  20  39  63  85 116 153 197 251 301 355
#     4  10  23  40  58  85 115 156 204 240 298 359
#     4  11  21  39  61  81 115 157 198 245 294 351
#     4  11  22  38  58  84 120 157 198 240 289 350
#     4   9  21  39  60  85 113 153 200 246 297 353
#
# _framework density 18.471060000000001
#
# number of rings (size 3 to 8) (size 9 to 14) (size 15 to 20)
#    0.000    1.500    2.500    3.000    0.000    4.500 
#    0.000    1.875    0.000    0.000    0.000    0.000 
#    0.000    0.000    0.000    0.000    0.000    0.000 
#
# Total GULP energy -178138.004622 kJ/mol
# GULP energy per Si atom -5566.812644 kJ/mol
# Density = 1.842902 g / cm^3
# Si number density = 18.471060 Si / 1000 Ang^3
#
#
#
# Elastic Constant Matrix: (Units=GPa)
#
#
# Indices 1 2 3 4 5 6 
#
# 1 22.1908 29.3706 5.7460 0.0000 0.0000 0.0000
# 2 29.3706 85.1878 17.5312 0.0000 0.0000 0.0000
# 3 5.7460 17.5312 52.1556 0.0000 0.0000 0.0000
# 4 0.0000 0.0000 0.0000 31.8896 0.0000 0.0000
# 5 0.0000 0.0000 0.0000 0.0000 15.4907 0.0000
# 6 0.0000 0.0000 0.0000 0.0000 0.0000 -32.2526
#
#
#
# Elastic Compliance Matrix: (Units=1/GPa)
#
#
# Indices 1 2 3 4 5 6 
#
# 1 0.082900 -0.028687 0.000509 0.000000 0.000000 0.000000
# 2 -0.028687 0.022538 -0.004415 0.000000 0.000000 0.000000
# 3 0.000509 -0.004415 0.020601 0.000000 0.000000 0.000000
# 4 0.000000 0.000000 0.000000 0.031358 0.000000 0.000000
# 5 0.000000 0.000000 0.000000 0.000000 0.064555 0.000000
# 6 0.000000 0.000000 0.000000 0.000000 0.000000 -0.031005
#
#
# Mechanical properties :
#
#
# Convention : Reuss Voigt Hill
#
# Bulk Modulus (GPa) = 16.43274 29.42554 22.92914
# Shear Modulus (GPa) = 18.08861 10.15131 14.11996
#
# Velocity S-wave (km/s) = 3.13276 2.34685 2.76784
# Velocity P-wave (km/s) = 4.69057 4.82792 4.75974
#
# Compressibility (1/GPa) = 0.06085412
#
# Stress axis : x y z
#
# Youngs Moduli (GPa) = 12.06270 44.36980 48.54041
#
# Poissons Ratio (x) = 1.27282 -0.02472
# Poissons Ratio (y) = 0.34604 0.21432
# Poissons Ratio (z) = -0.00614 0.19590
#
# Static dielectric constant tensor:
#      x y z
#    x 1.731300 0.000000 0.000000 
#    y 0.000000 1.660680 0.000000 
#    z 0.000000 0.000000 1.658380 
# 
# From -- ./inp_files/6109.got.cif
#   From: 2010.05.17/outbox.cif.g08.bks.cpg/sg46_4_cif.got.tgz:6109.got - 2010.06.03 19:58:25.
