data_PCOD9379706
_publ_section_title
;
Structure prediction by ZEFSAII (Michael W. Deem and Ramdas Pophale) SiO2 
 PCOD9379706
Probable space group: I M A 2
;
_chemical_formula_sum "Si O2"
_cell_formula_units_Z 48
_cell_length_a 28.208234
_cell_length_b 5.085925
_cell_length_c 13.897964
_cell_angle_alpha 90.000000
_cell_angle_beta 90.000000
_cell_angle_gamma 90.000000
_cell_volume 1993.870884
_symmetry_space_group_name_H-M "I M A 2"
_symmetry_group_IT_number 46
_symmetry_cell_setting 'orthorhombic'
loop_
_space_group_symop_operation_xyz
x,y,z
-x,-y,z
1/2-x,y,z
1/2+x,-y,z
1/2+x,1/2+y,1/2+z
1/2-x,1/2-y,1/2+z
-x,1/2+y,1/2+z
x,1/2-y,1/2+z
loop_
_atom_site_type_symbol
_atom_site_label
_atom_site_fract_x
_atom_site_fract_y
_atom_site_fract_z
Si Si1 0.802778 0.000965 0.889140
Si Si2 0.594231 0.941832 0.216489
Si Si3 0.886133 0.121520 0.421634
Si Si4 0.301052 0.112452 0.540697
Si Si5 0.698369 0.885643 0.220978
Si Si6 0.554612 0.423538 0.108193
O O1 0.750000 0.111526 0.864454
O O2 0.852549 0.150055 0.874535
O O3 0.801210 0.911908 0.000179
O O4 0.804315 0.730099 0.828076
O O5 0.593379 0.948992 0.333360
O O6 0.649204 0.019891 0.195157
O O7 0.581250 0.671727 0.160768
O O8 0.561757 0.172323 0.176189
O O9 0.846165 0.003804 0.491581
O O10 0.926550 0.163105 0.501952
O O11 0.250000 0.000388 0.512310
O O12 0.302771 0.126555 0.654218
O O13 0.750000 0.008508 0.204737
O O14 0.500000 0.500000 0.100654
#
# Coordination Sequence:
#
# PCOD9379706 Si02
#       6
#     8   8   8   8   8   8
#     4  10  21  39  64 106 154 198 243 295 355 441
#     4  12  26  49  78 111 147 191 244 305 377 449
#     4  12  25  41  76 102 143 193 244 301 375 441
#     4  10  20  37  62  98 145 190 237 282 345 428
#     4  10  20  39  67 104 151 197 239 286 353 441
#     4  12  30  53  77 107 143 187 254 325 380 440
#
# _framework density 24.073775000000001
#
# number of rings (size 3 to 8) (size 9 to 14) (size 15 to 20)
#    0.000    1.000    3.333    3.000    0.000    2.000 
#    0.000    1.667    0.000    0.000    0.000    0.000 
#    0.000    0.000    0.000    0.000    0.000    0.000 
#
# Total GULP energy -133802.500665 kJ/mol
# GULP energy per Si atom -5575.104194 kJ/mol
# Density = 2.401898 g / cm^3
# Si number density = 24.073775 Si / 1000 Ang^3
#
#
#
# Elastic Constant Matrix: (Units=GPa)
#
#
# Indices 1 2 3 4 5 6 
#
# 1 138.1661 8.8226 23.8013 0.0000 0.0000 0.0000
# 2 8.8226 52.6147 -20.2691 0.0000 0.0000 0.0000
# 3 23.8013 -20.2691 67.9906 0.0000 0.0000 0.0000
# 4 0.0000 0.0000 0.0000 25.4183 0.0000 0.0000
# 5 0.0000 0.0000 0.0000 0.0000 23.4210 0.0000
# 6 0.0000 0.0000 0.0000 0.0000 0.0000 21.9377
#
#
#
# Elastic Compliance Matrix: (Units=1/GPa)
#
#
# Indices 1 2 3 4 5 6 
#
# 1 0.008039 -0.002748 -0.003633 0.000000 0.000000 0.000000
# 2 -0.002748 0.022411 0.007643 0.000000 0.000000 0.000000
# 3 -0.003633 0.007643 0.018258 0.000000 0.000000 0.000000
# 4 0.000000 0.000000 0.000000 0.039342 0.000000 0.000000
# 5 0.000000 0.000000 0.000000 0.000000 0.042697 0.000000
# 6 0.000000 0.000000 0.000000 0.000000 0.000000 0.045584
#
#
# Mechanical properties :
#
#
# Convention : Reuss Voigt Hill
#
# Bulk Modulus (GPa) = 19.51883 31.49788 25.50836
# Shear Modulus (GPa) = 26.19391 30.58319 28.38855
#
# Velocity S-wave (km/s) = 3.30217 3.56813 3.43772
# Velocity P-wave (km/s) = 4.76073 5.48522 5.13577
#
# Compressibility (1/GPa) = 0.05123258
#
# Stress axis : x y z
#
# Youngs Moduli (GPa) = 124.39333 44.62052 54.76951
#
# Poissons Ratio (x) = 0.12260 0.19900
# Poissons Ratio (y) = 0.34179 -0.41861
# Poissons Ratio (z) = 0.45196 -0.34104
#
# Static dielectric constant tensor:
#      x y z
#    x 1.934880 0.000000 0.000000 
#    y 0.000000 2.041680 0.000000 
#    z 0.000000 0.000000 1.902250 
# 
# From -- ./inp_files/17639.got.cif
#   From: 2010.05.17/outbox.cif.g08.bks.cpg/sg46_9_cif.got.tgz:17639.got - 2010.06.03 19:58:25.
