data_PCOD9379302
_publ_section_title
;
Structure prediction by ZEFSAII (Michael W. Deem and Ramdas Pophale) SiO2 
 PCOD9379302
Probable space group: I M A 2
;
_chemical_formula_sum "Si O2"
_cell_formula_units_Z 64
_cell_length_a 8.744448
_cell_length_b 23.601525
_cell_length_c 19.483364
_cell_angle_alpha 90.000000
_cell_angle_beta 90.000000
_cell_angle_gamma 90.000000
_cell_volume 4021.021632
_symmetry_space_group_name_H-M "I M A 2"
_symmetry_group_IT_number 46
_symmetry_cell_setting 'orthorhombic'
loop_
_space_group_symop_operation_xyz
x,y,z
-x,-y,z
1/2-x,y,z
1/2+x,-y,z
1/2+x,1/2+y,1/2+z
1/2-x,1/2-y,1/2+z
-x,1/2+y,1/2+z
x,1/2-y,1/2+z
loop_
_atom_site_type_symbol
_atom_site_label
_atom_site_fract_x
_atom_site_fract_y
_atom_site_fract_z
Si Si1 0.932277 0.252694 0.564780
Si Si2 0.932159 0.657745 0.339029
Si Si3 0.432516 0.225777 0.421109
Si Si4 0.068271 0.937834 0.928456
Si Si5 0.932691 0.331991 0.792274
Si Si6 0.433221 0.120164 0.064714
Si Si7 0.433234 0.227563 0.706888
Si Si8 0.067009 0.561774 0.700417
O O1 0.750000 0.256834 0.565784
O O2 0.989639 0.223849 0.494958
O O3 0.002710 0.315991 0.566243
O O4 0.992306 0.221410 0.632715
O O5 0.750000 0.646644 0.343608
O O6 0.964151 0.712216 0.387626
O O7 0.968279 0.678419 0.262059
O O8 0.023515 0.604437 0.366955
O O9 0.250000 0.220424 0.427065
O O10 0.496973 0.180952 0.366517
O O11 0.250000 0.940796 0.936739
O O12 0.000000 0.000000 0.917511
O O13 0.994405 0.911025 0.996947
O O14 0.750000 0.323923 0.794296
O O15 0.965229 0.393613 0.761200
O O16 0.003888 0.285408 0.740832
O O17 0.250000 0.121833 0.063732
O O18 0.492745 0.086984 0.131358
O O19 0.250000 0.231906 0.701110
O O20 0.250000 0.558829 0.691051
O O21 0.000000 0.500000 0.714096
#
# Coordination Sequence:
#
# PCOD9379302 Si02
#       8
#     8   8   8   8   8   8   8   8
#     4  12  22  33  52  79 108 139 176 214 260 313
#     4   9  19  35  53  75 102 134 174 215 257 308
#     4  10  20  34  54  76 104 137 172 213 264 315
#     4  12  24  37  54  74 103 140 180 219 260 305
#     4  10  20  34  52  75 104 135 175 220 260 306
#     4  12  23  36  52  72 105 141 180 219 257 306
#     4  10  20  34  54  76 104 138 172 212 263 314
#     4  11  23  37  53  75 104 140 181 219 259 305
#
# _framework density 15.916353000000001
#
# number of rings (size 3 to 8) (size 9 to 14) (size 15 to 20)
#    0.000    1.250    2.500    6.000    0.000    4.000 
#    0.000    0.000    0.000    0.000    0.000    0.875 
#    0.000    2.000    0.000    0.000    0.000    0.000 
#
# Total GULP energy -178827.584059 kJ/mol
# GULP energy per Si atom -5588.362002 kJ/mol
# Density = 1.588013 g / cm^3
# Si number density = 15.916353 Si / 1000 Ang^3
#
#
#
# Elastic Constant Matrix: (Units=GPa)
#
#
# Indices 1 2 3 4 5 6 
#
# 1 119.4320 57.6228 73.6842 0.0000 0.0000 0.0000
# 2 57.6228 82.6952 61.1587 0.0000 0.0000 0.0000
# 3 73.6842 61.1587 144.0039 0.0000 0.0000 0.0000
# 4 0.0000 0.0000 0.0000 14.8471 0.0000 0.0000
# 5 0.0000 0.0000 0.0000 0.0000 29.2759 0.0000
# 6 0.0000 0.0000 0.0000 0.0000 0.0000 24.6509
#
#
#
# Elastic Compliance Matrix: (Units=1/GPa)
#
#
# Indices 1 2 3 4 5 6 
#
# 1 0.014387 -0.006678 -0.004525 0.000000 0.000000 0.000000
# 2 -0.006678 0.020730 -0.005387 0.000000 0.000000 0.000000
# 3 -0.004525 -0.005387 0.011548 0.000000 0.000000 0.000000
# 4 0.000000 0.000000 0.000000 0.067353 0.000000 0.000000
# 5 0.000000 0.000000 0.000000 0.000000 0.034158 0.000000
# 6 0.000000 0.000000 0.000000 0.000000 0.000000 0.040567
#
#
# Mechanical properties :
#
#
# Convention : Reuss Voigt Hill
#
# Bulk Modulus (GPa) = 74.16366 81.22916 77.69641
# Shear Modulus (GPa) = 22.08308 23.99912 23.04110
#
# Velocity S-wave (km/s) = 3.72888 3.88729 3.80891
# Velocity P-wave (km/s) = 8.07691 8.44357 8.26227
#
# Compressibility (1/GPa) = 0.01348369
#
# Stress axis : x y z
#
# Youngs Moduli (GPa) = 69.50758 48.23910 86.59777
#
# Poissons Ratio (x) = 0.32215 0.39188
# Poissons Ratio (y) = 0.46418 0.46650
# Poissons Ratio (z) = 0.31454 0.25986
#
# Static dielectric constant tensor:
#      x y z
#    x 1.529260 0.000000 0.000000 
#    y 0.000000 1.506910 0.000000 
#    z 0.000000 0.000000 1.532570 
# 
# From -- ./inp_files/18552.got.cif
#   From: 2010.05.17/outbox.cif.g08.bks.cpg/sg46_10_cif.got.tgz:18552.got - 2010.06.03 19:58:25.
