data_PCOD9379074
_publ_section_title
;
Structure prediction by ZEFSAII (Michael W. Deem and Ramdas Pophale) SiO2 
 PCOD9379074
Probable space group: I M A 2
;
_chemical_formula_sum "Si O2"
_cell_formula_units_Z 48
_cell_length_a 15.202728
_cell_length_b 11.228135
_cell_length_c 12.602523
_cell_angle_alpha 90.000000
_cell_angle_beta 90.000000
_cell_angle_gamma 90.000000
_cell_volume 2151.229029
_symmetry_space_group_name_H-M "I M A 2"
_symmetry_group_IT_number 46
_symmetry_cell_setting 'orthorhombic'
loop_
_space_group_symop_operation_xyz
x,y,z
-x,-y,z
1/2-x,y,z
1/2+x,-y,z
1/2+x,1/2+y,1/2+z
1/2-x,1/2-y,1/2+z
-x,1/2+y,1/2+z
x,1/2-y,1/2+z
loop_
_atom_site_type_symbol
_atom_site_label
_atom_site_fract_x
_atom_site_fract_y
_atom_site_fract_z
Si Si1 0.447322 0.118064 0.069040
Si Si2 0.750000 0.043345 0.881567
Si Si3 0.930215 0.344233 0.373151
Si Si4 0.250000 0.052519 0.464543
Si Si5 0.250000 0.851123 0.646582
Si Si6 0.079974 0.570741 0.907323
Si Si7 0.750000 0.668181 0.517053
Si Si8 0.439489 0.828407 0.639540
O O1 0.341735 0.126455 0.071087
O O2 0.486589 0.229387 0.132595
O O3 0.500000 0.000000 0.103237
O O4 0.485732 0.138835 0.948618
O O5 0.657197 0.096190 0.923134
O O6 0.750000 0.086608 0.760682
O O7 0.750000 0.903935 0.905614
O O8 0.909233 0.203497 0.363578
O O9 0.944725 0.389816 0.253853
O O10 0.250000 0.189531 0.499922
O O11 0.250000 0.959831 0.563353
O O12 0.335957 0.013310 0.400803
O O13 0.339396 0.778333 0.634003
O O14 0.057840 0.594648 0.032375
O O15 0.000000 0.500000 0.857633
#
# Coordination Sequence:
#
# PCOD9379074 Si02
#       8
#     8   4   8   4   4   8   4   8
#     4  11  23  40  59  89 124 165 206 259 326 383
#     4  10  19  38  65  90 121 160 215 264 299 372
#     4  10  20  39  64  92 120 165 215 255 309 370
#     4  10  19  36  59  86 125 159 193 248 317 368
#     4   8  18  37  64  95 116 160 218 260 296 368
#     4  10  20  36  60  87 119 156 200 251 304 368
#     4  12  24  41  58  89 126 159 206 262 322 390
#     4   9  20  37  62  91 121 159 211 258 303 372
#
# _framework density 22.312826999999999
#
# number of rings (size 3 to 8) (size 9 to 14) (size 15 to 20)
#    0.000    2.000    1.667    2.500    0.000    4.000 
#    6.000    0.000    0.000    0.000    0.000    0.000 
#    0.000    0.000    0.000    0.000    0.000    0.000 
#
# Total GULP energy -133876.962098 kJ/mol
# GULP energy per Si atom -5578.206754 kJ/mol
# Density = 2.226204 g / cm^3
# Si number density = 22.312827 Si / 1000 Ang^3
#
#
#
# Elastic Constant Matrix: (Units=GPa)
#
#
# Indices 1 2 3 4 5 6 
#
# 1 201.2912 69.6224 7.9517 0.0000 0.0000 0.0000
# 2 69.6224 97.0777 -6.7075 0.0000 0.0000 0.0000
# 3 7.9517 -6.7075 56.9642 0.0000 0.0000 0.0000
# 4 0.0000 0.0000 0.0000 -0.2106 0.0000 0.0000
# 5 0.0000 0.0000 0.0000 0.0000 11.7780 0.0000
# 6 0.0000 0.0000 0.0000 0.0000 0.0000 34.2445
#
#
#
# Elastic Compliance Matrix: (Units=1/GPa)
#
#
# Indices 1 2 3 4 5 6 
#
# 1 0.006735 -0.004935 -0.001521 0.000000 0.000000 0.000000
# 2 -0.004935 0.014002 0.002338 0.000000 0.000000 0.000000
# 3 -0.001521 0.002338 0.018042 0.000000 0.000000 0.000000
# 4 0.000000 0.000000 0.000000 -4.747377 0.000000 0.000000
# 5 0.000000 0.000000 0.000000 0.000000 0.084904 0.000000
# 6 0.000000 0.000000 0.000000 0.000000 0.000000 0.029202
#
#
# Mechanical properties :
#
#
# Convention : Reuss Voigt Hill
#
# Bulk Modulus (GPa) = 32.74216 55.22958 43.98587
# Shear Modulus (GPa) = -1.09264 28.12680 13.51708
#
# Velocity S-wave (km/s) = -0.70054 3.55430 2.46397
# Velocity P-wave (km/s) = 3.74855 6.45369 5.27740
#
# Compressibility (1/GPa) = 0.03054166
#
# Stress axis : x y z
#
# Youngs Moduli (GPa) = 148.47666 71.41779 55.42473
#
# Poissons Ratio (x) = 0.35247 0.08432
# Poissons Ratio (y) = 0.73279 -0.12956
# Poissons Ratio (z) = 0.22588 -0.16695
#
# Static dielectric constant tensor:
#      x y z
#    x 1.861070 0.000000 0.000000 
#    y 0.000000 1.819830 0.000000 
#    z 0.000000 0.000000 1.841140 
# 
# From -- ./inp_files/15915.got.cif
#   From: 2010.05.17/outbox.cif.g08.bks.cpg/sg46_8_cif.got.tgz:15915.got - 2010.06.03 19:58:25.
