data_PCOD9379298
_publ_section_title
;
Structure prediction by ZEFSAII (Michael W. Deem and Ramdas Pophale) SiO2 
 PCOD9379298
Probable space group: I M A 2
;
_chemical_formula_sum "Si O2"
_cell_formula_units_Z 64
_cell_length_a 14.683837
_cell_length_b 9.552398
_cell_length_c 21.570174
_cell_angle_alpha 90.000000
_cell_angle_beta 90.000000
_cell_angle_gamma 90.000000
_cell_volume 3025.558903
_symmetry_space_group_name_H-M "I M A 2"
_symmetry_group_IT_number 46
_symmetry_cell_setting 'orthorhombic'
loop_
_space_group_symop_operation_xyz
x,y,z
-x,-y,z
1/2-x,y,z
1/2+x,-y,z
1/2+x,1/2+y,1/2+z
1/2-x,1/2-y,1/2+z
-x,1/2+y,1/2+z
x,1/2-y,1/2+z
loop_
_atom_site_type_symbol
_atom_site_label
_atom_site_fract_x
_atom_site_fract_y
_atom_site_fract_z
Si Si1 0.640256 0.107776 0.223140
Si Si2 0.144388 0.104863 0.464821
Si Si3 0.143872 0.410012 0.480778
Si Si4 0.139871 0.608111 0.862258
Si Si5 0.361039 0.394286 0.616701
Si Si6 0.600127 0.429224 0.224885
Si Si7 0.098823 0.428336 0.104499
Si Si8 0.596971 0.074479 0.861019
O O1 0.750000 0.128489 0.217294
O O2 0.623228 0.052688 0.292748
O O3 0.596834 0.261667 0.216832
O O4 0.610902 0.997544 0.171439
O O5 0.250000 0.118399 0.445664
O O6 0.100923 0.259628 0.463330
O O7 0.141565 0.056775 0.536274
O O8 0.107061 0.994324 0.416052
O O9 0.250000 0.380372 0.491271
O O10 0.112205 0.455462 0.548982
O O11 0.138719 0.514591 0.423904
O O12 0.250000 0.631155 0.867986
O O13 0.093992 0.759131 0.866297
O O14 0.250000 0.380916 0.621126
O O15 0.400867 0.237516 0.618976
O O16 0.500000 0.500000 0.226864
O O17 0.644129 0.496016 0.163626
O O18 0.641557 0.455167 0.293419
O O19 0.000000 0.500000 0.098578
O O20 0.500000 0.000000 0.858774
#
# Coordination Sequence:
#
# PCOD9379298 Si02
#       8
#     8   8   8   8   8   8   8   8
#     4   9  18  34  57  82 107 140 182 222 264 321
#     4   9  19  35  54  77 106 138 174 219 266 311
#     4   9  18  34  54  78 108 138 172 218 267 312
#     4   9  18  33  53  80 110 136 171 220 265 308
#     4   9  19  36  56  80 111 142 177 224 270 315
#     4   9  20  37  52  74 108 141 176 223 272 316
#     4  10  20  35  54  77 107 142 180 222 267 320
#     4  10  20  34  52  74 105 141 176 214 259 317
#
# _framework density 21.153116000000001
#
# number of rings (size 3 to 8) (size 9 to 14) (size 15 to 20)
#    0.000    2.750    0.000    1.500    0.000    5.500 
#    0.000    8.750    0.000    7.500    0.000    0.000 
#    0.000    0.000    0.000    0.000    0.000    0.000 
#
# Total GULP energy -178366.357851 kJ/mol
# GULP energy per Si atom -5573.948683 kJ/mol
# Density = 2.110497 g / cm^3
# Si number density = 21.153116 Si / 1000 Ang^3
#
#
#
# Elastic Constant Matrix: (Units=GPa)
#
#
# Indices 1 2 3 4 5 6 
#
# 1 60.3443 18.6126 3.4270 0.0000 0.0000 0.0000
# 2 18.6126 113.2260 108.8701 0.0000 0.0000 0.0000
# 3 3.4270 108.8701 196.5463 0.0000 0.0000 0.0000
# 4 0.0000 0.0000 0.0000 57.3696 0.0000 0.0000
# 5 0.0000 0.0000 0.0000 0.0000 27.3167 0.0000
# 6 0.0000 0.0000 0.0000 0.0000 0.0000 15.7585
#
#
#
# Elastic Compliance Matrix: (Units=1/GPa)
#
#
# Indices 1 2 3 4 5 6 
#
# 1 0.018180 -0.005742 0.002864 0.000000 0.000000 0.000000
# 2 -0.005742 0.020710 -0.011371 0.000000 0.000000 0.000000
# 3 0.002864 -0.011371 0.011337 0.000000 0.000000 0.000000
# 4 0.000000 0.000000 0.000000 0.017431 0.000000 0.000000
# 5 0.000000 0.000000 0.000000 0.000000 0.036608 0.000000
# 6 0.000000 0.000000 0.000000 0.000000 0.000000 0.063458
#
#
# Mechanical properties :
#
#
# Convention : Reuss Voigt Hill
#
# Bulk Modulus (GPa) = 46.02568 70.21511 58.12040
# Shear Modulus (GPa) = 24.57441 36.03610 30.30526
#
# Velocity S-wave (km/s) = 3.41213 4.13193 3.78916
# Velocity P-wave (km/s) = 6.10975 7.48529 6.83223
#
# Compressibility (1/GPa) = 0.02172700
#
# Stress axis : x y z
#
# Youngs Moduli (GPa) = 55.00556 48.28699 88.20975
#
# Poissons Ratio (x) = 0.27726 -0.25259
# Poissons Ratio (y) = 0.31584 1.00305
# Poissons Ratio (z) = -0.15751 0.54908
#
# Static dielectric constant tensor:
#      x y z
#    x 1.829000 0.000000 0.000000 
#    y 0.000000 1.701000 0.000000 
#    z 0.000000 0.000000 1.805330 
# 
# From -- ./inp_files/22218.got.cif
#   From: 2010.05.17/outbox.cif.g08.bks.cpg/sg46_12_cif.got.tgz:22218.got - 2010.06.03 19:58:25.
