data_PCOD9379938
_publ_section_title
;
Structure prediction by ZEFSAII (Michael W. Deem and Ramdas Pophale) SiO2 
 PCOD9379938
Probable space group: I M A 2
;
_chemical_formula_sum "Si O2"
_cell_formula_units_Z 28
_cell_length_a 14.230609
_cell_length_b 5.206884
_cell_length_c 15.514850
_cell_angle_alpha 90.000000
_cell_angle_beta 90.000000
_cell_angle_gamma 90.000000
_cell_volume 1149.605862
_symmetry_space_group_name_H-M "I M A 2"
_symmetry_group_IT_number 46
_symmetry_cell_setting 'orthorhombic'
loop_
_space_group_symop_operation_xyz
x,y,z
-x,-y,z
1/2-x,y,z
1/2+x,-y,z
1/2+x,1/2+y,1/2+z
1/2-x,1/2-y,1/2+z
-x,1/2+y,1/2+z
x,1/2-y,1/2+z
loop_
_atom_site_type_symbol
_atom_site_label
_atom_site_fract_x
_atom_site_fract_y
_atom_site_fract_z
Si Si1 0.500000 0.500000 0.026461
Si Si2 0.899018 0.359797 0.645024
Si Si3 0.148149 0.095207 0.972600
Si Si4 0.934687 0.245735 0.825037
O O1 0.421350 0.605285 0.091291
O O2 0.442191 0.282697 0.974511
O O3 0.844837 0.516899 0.572682
O O4 0.868727 0.303930 0.742022
O O5 0.000000 0.500000 0.652576
O O6 0.250000 0.201906 0.944976
O O7 0.122399 0.856251 0.908947
O O8 0.000000 0.500000 0.831760
O O9 0.000000 0.000000 0.800989
#
# Coordination Sequence:
#
# PCOD9379938 Si02
#       4
#     4   8   8   8
#     4  10  20  46  70 100 144 198 244 298 364 426
#     4   9  20  41  71 100 136 194 246 296 367 436
#     4  11  26  43  72 112 150 195 249 304 369 444
#     4  11  24  43  75 105 143 196 245 297 372 442
#
# _framework density 24.356175
#
# number of rings (size 3 to 8) (size 9 to 14) (size 15 to 20)
#    0.000    1.714    1.429    2.571    8.000    2.286 
#    0.000    0.000    0.000    1.714    0.000    0.000 
#    0.000    0.000    0.000    0.000    0.000    0.000 
#
# Total GULP energy -77969.577403 kJ/mol
# GULP energy per Si atom -5569.255529 kJ/mol
# Density = 2.430074 g / cm^3
# Si number density = 24.356175 Si / 1000 Ang^3
#
#
#
# Elastic Constant Matrix: (Units=GPa)
#
#
# Indices 1 2 3 4 5 6 
#
# 1 119.4405 29.4159 47.1565 0.0000 0.0000 0.0000
# 2 29.4159 128.4558 50.5412 0.0000 0.0000 0.0000
# 3 47.1565 50.5412 214.5911 0.0000 0.0000 0.0000
# 4 0.0000 0.0000 0.0000 5.3181 0.0000 0.0000
# 5 0.0000 0.0000 0.0000 0.0000 -8.9758 0.0000
# 6 0.0000 0.0000 0.0000 0.0000 0.0000 -3.6827
#
#
#
# Elastic Compliance Matrix: (Units=1/GPa)
#
#
# Indices 1 2 3 4 5 6 
#
# 1 0.009416 -0.001479 -0.001721 0.000000 0.000000 0.000000
# 2 -0.001479 0.008812 -0.001750 0.000000 0.000000 0.000000
# 3 -0.001721 -0.001750 0.005450 0.000000 0.000000 0.000000
# 4 0.000000 0.000000 0.000000 0.188038 0.000000 0.000000
# 5 0.000000 0.000000 0.000000 0.000000 -0.111411 0.000000
# 6 0.000000 0.000000 0.000000 0.000000 0.000000 -0.271538
#
#
# Mechanical properties :
#
#
# Convention : Reuss Voigt Hill
#
# Bulk Modulus (GPa) = 72.58013 79.63496 76.10755
# Shear Modulus (GPa) = -31.90009 20.89017 -5.50496
#
# Velocity S-wave (km/s) = -3.62295 2.93182 -1.50502
# Velocity P-wave (km/s) = 3.51613 6.65039 5.31935
#
# Compressibility (1/GPa) = 0.01377788
#
# Stress axis : x y z
#
# Youngs Moduli (GPa) = 106.20159 113.47880 183.47149
#
# Poissons Ratio (x) = 0.16786 0.31572
# Poissons Ratio (y) = 0.15709 0.32115
# Poissons Ratio (z) = 0.18275 0.19864
#
# Static dielectric constant tensor:
#      x y z
#    x 3.503720 0.000000 0.000000 
#    y 0.000000 2.025530 0.000000 
#    z 0.000000 0.000000 2.059460 
# 
# From -- ./inp_files/19077.got.cif
#   From: 2010.05.17/outbox.cif.g08.bks.cpg/sg46_10_cif.got.tgz:19077.got - 2010.06.03 19:58:25.
