data_PCOD9379511
_publ_section_title
;
Structure prediction by ZEFSAII (Michael W. Deem and Ramdas Pophale) SiO2 
 PCOD9379511
Probable space group: I M A 2
;
_chemical_formula_sum "Si O2"
_cell_formula_units_Z 48
_cell_length_a 8.630096
_cell_length_b 31.455348
_cell_length_c 10.012426
_cell_angle_alpha 90.000000
_cell_angle_beta 90.000000
_cell_angle_gamma 90.000000
_cell_volume 2717.999925
_symmetry_space_group_name_H-M "I M A 2"
_symmetry_group_IT_number 46
_symmetry_cell_setting 'orthorhombic'
loop_
_space_group_symop_operation_xyz
x,y,z
-x,-y,z
1/2-x,y,z
1/2+x,-y,z
1/2+x,1/2+y,1/2+z
1/2-x,1/2-y,1/2+z
-x,1/2+y,1/2+z
x,1/2-y,1/2+z
loop_
_atom_site_type_symbol
_atom_site_label
_atom_site_fract_x
_atom_site_fract_y
_atom_site_fract_z
Si Si1 0.936543 0.787200 0.974940
Si Si2 0.562479 0.710585 0.784346
Si Si3 0.934828 0.953822 0.475297
Si Si4 0.936558 0.046251 0.772178
Si Si5 0.935761 0.118038 0.281789
Si Si6 0.436551 0.620717 0.472340
O O1 0.750000 0.788690 0.969406
O O2 0.988149 0.748700 0.880711
O O3 0.999779 0.833139 0.932619
O O4 0.980960 0.780470 0.130024
O O5 0.750000 0.707325 0.790696
O O6 0.490969 0.665184 0.822081
O O7 0.750000 0.955792 0.481667
O O8 0.001018 0.945126 0.623413
O O9 0.989550 0.917632 0.374221
O O10 0.000000 0.000000 0.434319
O O11 0.750000 0.044687 0.768279
O O12 0.986285 0.083101 0.874031
O O13 0.000000 0.000000 0.812844
O O14 0.750000 0.115314 0.290148
O O15 0.983039 0.112478 0.126242
O O16 0.250000 0.622534 0.469555
#
# Coordination Sequence:
#
# PCOD9379511 Si02
#       6
#     8   8   8   8   8   8
#     4   9  18  32  51  73 102 136 174 215 257 305
#     4   9  18  33  50  73 102 135 173 215 258 305
#     4  11  22  37  56  79 106 138 174 215 259 309
#     4  10  20  36  55  78 106 137 173 216 261 311
#     4  10  20  36  55  78 107 140 175 215 259 308
#     4   9  20  36  54  77 107 138 174 216 261 310
#
# _framework density 17.660045
#
# number of rings (size 3 to 8) (size 9 to 14) (size 15 to 20)
#    0.000    2.333    0.000    3.500    0.000    4.667 
#    0.000    3.333    0.000    0.000    0.000    0.000 
#    0.000    0.000    0.000    0.000    0.000    0.000 
#
# Total GULP energy -133947.541666 kJ/mol
# GULP energy per Si atom -5581.147569 kJ/mol
# Density = 1.761985 g / cm^3
# Si number density = 17.660045 Si / 1000 Ang^3
#
#
#
# Elastic Constant Matrix: (Units=GPa)
#
#
# Indices 1 2 3 4 5 6 
#
# 1 53.6681 50.6918 35.6228 0.0001 -0.0005 0.0000
# 2 50.6918 197.4428 121.8921 0.0006 -0.0008 0.0000
# 3 35.6228 121.8921 91.2421 0.0014 -0.0045 0.0000
# 4 0.0001 0.0006 0.0014 44.3735 -0.0013 0.0000
# 5 -0.0005 -0.0008 -0.0045 -0.0013 -53.3652 -0.0001
# 6 0.0000 0.0000 0.0000 0.0000 -0.0001 35.1923
#
#
#
# Elastic Compliance Matrix: (Units=1/GPa)
#
#
# Indices 1 2 3 4 5 6 
#
# 1 0.025328 -0.002271 -0.006855 0.000000 0.000000 0.000000
# 2 -0.002271 0.029101 -0.037991 0.000001 0.000003 0.000000
# 3 -0.006855 -0.037991 0.064388 -0.000002 -0.000005 0.000000
# 4 0.000000 0.000001 -0.000002 0.022536 -0.000001 0.000000
# 5 0.000000 0.000003 -0.000005 -0.000001 -0.018739 0.000000
# 6 0.000000 0.000000 0.000000 0.000000 0.000000 0.028415
#
#
# Mechanical properties :
#
#
# Convention : Reuss Voigt Hill
#
# Bulk Modulus (GPa) = 40.67480 84.30741 62.49111
# Shear Modulus (GPa) = 19.72714 14.18320 16.95517
#
# Velocity S-wave (km/s) = 3.34585 2.83702 3.10189
# Velocity P-wave (km/s) = 6.16510 7.65338 6.94920
#
# Compressibility (1/GPa) = 0.02458524
#
# Stress axis : x y z
#
# Youngs Moduli (GPa) = 39.48202 34.36262 15.53074
#
# Poissons Ratio (x) = 0.07803 0.10646
# Poissons Ratio (y) = 0.08966 0.59002
# Poissons Ratio (z) = 0.27065 1.30545
#
# Static dielectric constant tensor:
#      x y z
#    x 1.594730 0.000000 0.000000 
#    y 0.000000 1.573000 0.000000 
#    z 0.000000 0.000000 1.593550 
# 
# From -- ./inp_files/3915.got.cif
#   From: 2010.05.17/outbox.cif.g08.bks.cpg/sg46_2_cif.got.tgz:3915.got - 2010.06.03 19:58:25.
