data_PCOD9379837
_publ_section_title
;
Structure prediction by ZEFSAII (Michael W. Deem and Ramdas Pophale) SiO2 
 PCOD9379837
Probable space group: I M A 2
;
_chemical_formula_sum "Si O2"
_cell_formula_units_Z 64
_cell_length_a 11.742870
_cell_length_b 30.746871
_cell_length_c 9.115337
_cell_angle_alpha 90.000000
_cell_angle_beta 90.000000
_cell_angle_gamma 90.000000
_cell_volume 3291.151756
_symmetry_space_group_name_H-M "I M A 2"
_symmetry_group_IT_number 46
_symmetry_cell_setting 'orthorhombic'
loop_
_space_group_symop_operation_xyz
x,y,z
-x,-y,z
1/2-x,y,z
1/2+x,-y,z
1/2+x,1/2+y,1/2+z
1/2-x,1/2-y,1/2+z
-x,1/2+y,1/2+z
x,1/2-y,1/2+z
loop_
_atom_site_type_symbol
_atom_site_label
_atom_site_fract_x
_atom_site_fract_y
_atom_site_fract_z
Si Si1 0.547664 0.396275 0.371430
Si Si2 0.624295 0.009182 0.806892
Si Si3 0.119299 0.474041 0.892107
Si Si4 0.124722 0.437513 0.564433
Si Si5 0.510951 0.756766 0.145885
Si Si6 0.618130 0.610899 0.093574
Si Si7 0.121127 0.799347 0.879737
Si Si8 0.617845 0.805227 0.416618
O O1 0.619812 0.439957 0.345961
O O2 0.473621 0.404920 0.516942
O O3 0.457928 0.392909 0.237640
O O4 0.613209 0.351351 0.378980
O O5 0.750000 0.000081 0.738601
O O6 0.500000 0.000000 0.733423
O O7 0.619622 0.977909 0.949670
O O8 0.250000 0.494113 0.902798
O O9 0.113407 0.455256 0.727189
O O10 0.000000 0.500000 0.910438
O O11 0.116677 0.433878 0.004407
O O12 0.250000 0.417241 0.548118
O O13 0.448385 0.720267 0.243359
O O14 0.559251 0.789789 0.267064
O O15 0.600215 0.731702 0.041289
O O16 0.430092 0.781047 0.030803
O O17 0.750000 0.620370 0.133981
O O18 0.575777 0.649731 0.988084
O O19 0.250000 0.784537 0.865416
O O20 0.750000 0.811070 0.384781
#
# Coordination Sequence:
#
# PCOD9379837 Si02
#       8
#     8   8   8   8   8   8   8   8
#     4  11  20  35  57  89 116 153 198 247 291 352
#     4   9  18  33  55  82 114 145 188 242 290 340
#     4  10  21  39  61  84 119 162 203 247 303 361
#     4   9  19  36  59  86 115 154 195 244 301 357
#     4  10  22  40  63  87 117 156 197 242 304 362
#     4  10  22  38  57  85 125 158 188 241 302 361
#     4  11  23  40  61  85 118 159 204 249 298 357
#     4  10  20  39  62  92 122 151 191 244 301 364
#
# _framework density 19.446079999999998
#
# number of rings (size 3 to 8) (size 9 to 14) (size 15 to 20)
#    0.000    2.000    1.250    2.625    1.750    2.000 
#    0.000    5.625    0.000    0.000    0.000    0.000 
#    0.000    0.000    0.000    0.000    0.000    0.000 
#
# Total GULP energy -178474.886046 kJ/mol
# GULP energy per Si atom -5577.340189 kJ/mol
# Density = 1.940182 g / cm^3
# Si number density = 19.446080 Si / 1000 Ang^3
#
#
#
# Elastic Constant Matrix: (Units=GPa)
#
#
# Indices 1 2 3 4 5 6 
#
# 1 99.3057 7.3956 15.4972 0.0005 -0.0005 0.0000
# 2 7.3956 53.8027 -4.2212 0.0006 -0.0001 -0.0002
# 3 15.4972 -4.2212 86.8269 0.0011 -0.0019 -0.0011
# 4 0.0005 0.0006 0.0011 22.3666 0.0000 0.0000
# 5 -0.0005 -0.0001 -0.0019 0.0000 -3.5421 0.0004
# 6 0.0000 -0.0002 -0.0011 0.0000 0.0004 18.6322
#
#
#
# Elastic Compliance Matrix: (Units=1/GPa)
#
#
# Indices 1 2 3 4 5 6 
#
# 1 0.010493 -0.001595 -0.001950 0.000000 0.000000 0.000000
# 2 -0.001595 0.018900 0.001204 -0.000001 -0.000001 0.000000
# 3 -0.001950 0.001204 0.011924 -0.000001 -0.000006 0.000001
# 4 0.000000 -0.000001 -0.000001 0.044710 -0.000001 0.000000
# 5 0.000000 -0.000001 -0.000006 -0.000001 -0.282316 0.000005
# 6 0.000000 0.000000 0.000001 0.000000 0.000005 0.053671
#
#
# Mechanical properties :
#
#
# Convention : Reuss Voigt Hill
#
# Bulk Modulus (GPa) = 27.29805 30.80873 29.05339
# Shear Modulus (GPa) = -39.76986 22.24224 -8.76381
#
# Velocity S-wave (km/s) = -4.52722 3.38567 -2.12521
# Velocity P-wave (km/s) = 3.64134 5.58222 2.99181
#
# Compressibility (1/GPa) = 0.03663265
#
# Stress axis : x y z
#
# Youngs Moduli (GPa) = 95.30070 52.90967 83.86592
#
# Poissons Ratio (x) = 0.08441 0.16357
# Poissons Ratio (y) = 0.15204 -0.10094
# Poissons Ratio (z) = 0.18588 -0.06368
#
# Static dielectric constant tensor:
#      x y z
#    x 1.704210 0.000000 0.000000 
#    y 0.000000 1.679460 0.000000 
#    z 0.000000 0.000000 1.657160 
# 
# From -- ./inp_files/5002.got.cif
#   From: 2010.05.17/outbox.cif.g08.bks.cpg/sg46_3_cif.got.tgz:5002.got - 2010.06.03 19:58:25.
