data_PCOD9379323
_publ_section_title
;
Structure prediction by ZEFSAII (Michael W. Deem and Ramdas Pophale) SiO2 
 PCOD9379323
Probable space group: I M A 2
;
_chemical_formula_sum "Si O2"
_cell_formula_units_Z 48
_cell_length_a 9.597740
_cell_length_b 22.876925
_cell_length_c 11.889476
_cell_angle_alpha 90.000000
_cell_angle_beta 90.000000
_cell_angle_gamma 90.000000
_cell_volume 2610.533939
_symmetry_space_group_name_H-M "I M A 2"
_symmetry_group_IT_number 46
_symmetry_cell_setting 'orthorhombic'
loop_
_space_group_symop_operation_xyz
x,y,z
-x,-y,z
1/2-x,y,z
1/2+x,-y,z
1/2+x,1/2+y,1/2+z
1/2-x,1/2-y,1/2+z
-x,1/2+y,1/2+z
x,1/2-y,1/2+z
loop_
_atom_site_type_symbol
_atom_site_label
_atom_site_fract_x
_atom_site_fract_y
_atom_site_fract_z
Si Si1 0.587079 0.145016 0.031320
Si Si2 0.085030 0.617697 0.093610
Si Si3 0.091846 0.051698 0.412253
Si Si4 0.588677 0.274480 0.934591
Si Si5 0.416364 0.939663 0.828566
Si Si6 0.408350 0.164047 0.252248
O O1 0.750000 0.137426 0.063105
O O2 0.490867 0.149237 0.139723
O O3 0.575656 0.207581 0.969801
O O4 0.548869 0.093882 0.944127
O O5 0.250000 0.606349 0.075034
O O6 0.057165 0.604633 0.224196
O O7 0.058000 0.682032 0.040424
O O8 0.989689 0.573863 0.022205
O O9 0.250000 0.033533 0.437603
O O10 0.095889 0.105620 0.327356
O O11 0.000000 0.000000 0.362178
O O12 0.750000 0.285603 0.902488
O O13 0.490933 0.290378 0.830364
O O14 0.250000 0.951547 0.828552
O O15 0.500000 0.000000 0.815472
O O16 0.250000 0.183007 0.229328
#
# Coordination Sequence:
#
# PCOD9379323 Si02
#       6
#     8   8   8   8   8   8
#     4  10  22  38  60  84 111 150 194 238 280 337
#     4   9  18  34  57  85 113 142 182 234 286 338
#     4  10  20  34  54  80 110 145 185 230 279 329
#     4   9  19  36  62  87 110 143 187 240 290 339
#     4  10  22  38  56  83 117 153 194 235 282 339
#     4  10  22  38  55  81 116 147 182 231 285 344
#
# _framework density 18.387042999999998
#
# number of rings (size 3 to 8) (size 9 to 14) (size 15 to 20)
#    0.000    2.333    0.000    1.500    2.333    6.000 
#    0.000    3.333    0.000    0.000    0.000    0.000 
#    0.000    0.000    0.000    0.000    0.000    0.000 
#
# Total GULP energy -133891.689027 kJ/mol
# GULP energy per Si atom -5578.820376 kJ/mol
# Density = 1.834519 g / cm^3
# Si number density = 18.387043 Si / 1000 Ang^3
#
#
#
# Elastic Constant Matrix: (Units=GPa)
#
#
# Indices 1 2 3 4 5 6 
#
# 1 80.7858 19.1099 57.7024 0.0000 0.0001 0.0000
# 2 19.1099 43.4391 8.9975 0.0001 0.0000 0.0000
# 3 57.7024 8.9975 112.8637 0.0001 0.0005 0.0000
# 4 0.0000 0.0001 0.0001 4.0025 0.0002 0.0000
# 5 0.0001 0.0000 0.0005 0.0002 -15.3061 0.0000
# 6 0.0000 0.0000 0.0000 0.0000 0.0000 22.8539
#
#
#
# Elastic Compliance Matrix: (Units=1/GPa)
#
#
# Indices 1 2 3 4 5 6 
#
# 1 0.021572 -0.007327 -0.010445 0.000000 0.000000 0.000000
# 2 -0.007327 0.025896 0.001681 0.000000 0.000000 0.000000
# 3 -0.010445 0.001681 0.014066 0.000000 0.000000 0.000000
# 4 0.000000 0.000000 0.000000 0.249844 0.000003 0.000000
# 5 0.000000 0.000000 0.000000 0.000003 -0.065334 0.000000
# 6 0.000000 0.000000 0.000000 0.000000 0.000000 0.043756
#
#
# Mechanical properties :
#
#
# Convention : Reuss Voigt Hill
#
# Bulk Modulus (GPa) = 34.06716 45.41203 39.73960
# Shear Modulus (GPa) = 15.07095 12.39533 13.73314
#
# Velocity S-wave (km/s) = 2.86606 2.59923 2.73590
# Velocity P-wave (km/s) = 5.43327 5.81029 5.62494
#
# Compressibility (1/GPa) = 0.02935378
#
# Stress axis : x y z
#
# Youngs Moduli (GPa) = 46.35700 38.61659 71.09294
#
# Poissons Ratio (x) = 0.28293 0.74254
# Poissons Ratio (y) = 0.33964 -0.11953
# Poissons Ratio (z) = 0.48418 -0.06493
#
# Static dielectric constant tensor:
#      x y z
#    x 1.632310 0.000000 0.000000 
#    y 0.000000 1.629810 0.000000 
#    z 0.000000 0.000000 1.616550 
# 
# From -- ./inp_files/9293.got.cif
#   From: 2010.05.17/outbox.cif.g08.bks.cpg/sg46_5_cif.got.tgz:9293.got - 2010.06.03 19:58:25.
