data_PCOD9379562
_publ_section_title
;
Structure prediction by ZEFSAII (Michael W. Deem and Ramdas Pophale) SiO2 
 PCOD9379562
Probable space group: I M A 2
;
_chemical_formula_sum "Si O2"
_cell_formula_units_Z 64
_cell_length_a 8.757463
_cell_length_b 25.516866
_cell_length_c 15.091184
_cell_angle_alpha 90.000000
_cell_angle_beta 90.000000
_cell_angle_gamma 90.000000
_cell_volume 3372.321399
_symmetry_space_group_name_H-M "I M A 2"
_symmetry_group_IT_number 46
_symmetry_cell_setting 'orthorhombic'
loop_
_space_group_symop_operation_xyz
x,y,z
-x,-y,z
1/2-x,y,z
1/2+x,-y,z
1/2+x,1/2+y,1/2+z
1/2-x,1/2-y,1/2+z
-x,1/2+y,1/2+z
x,1/2-y,1/2+z
loop_
_atom_site_type_symbol
_atom_site_label
_atom_site_fract_x
_atom_site_fract_y
_atom_site_fract_z
Si Si1 0.567980 0.558105 0.794460
Si Si2 0.933206 0.666481 0.469708
Si Si3 0.933610 0.344207 0.274921
Si Si4 0.427374 0.285430 0.955100
Si Si5 0.931347 0.365964 0.647785
Si Si6 0.431217 0.894100 0.471996
Si Si7 0.071614 0.266875 0.743227
Si Si8 0.566366 0.443740 0.157300
O O1 0.500000 0.500000 0.796179
O O2 0.750000 0.556750 0.788992
O O3 0.500635 0.590311 0.712218
O O4 0.518054 0.587095 0.884616
O O5 0.750000 0.663126 0.461950
O O6 0.970357 0.727786 0.488995
O O7 0.008508 0.652684 0.375951
O O8 0.995946 0.632627 0.550345
O O9 0.750000 0.339268 0.272960
O O10 0.979421 0.396144 0.221475
O O11 0.007323 0.291684 0.233969
O O12 0.250000 0.295648 0.977316
O O13 0.529209 0.333219 0.987607
O O14 0.438109 0.280958 0.847997
O O15 0.750000 0.370826 0.643537
O O16 0.978280 0.310234 0.690474
O O17 0.250000 0.900062 0.458368
O O18 0.478557 0.927743 0.557322
O O19 0.250000 0.269133 0.717472
O O20 0.500000 0.500000 0.181709
O O21 0.750000 0.446583 0.159296
#
# Coordination Sequence:
#
# PCOD9379562 Si02
#       8
#     8   8   8   8   8   8   8   8
#     4  12  25  43  64  89 124 164 208 257 309 369
#     4  10  22  40  61  89 125 163 205 253 311 372
#     4  10  21  40  62  89 122 158 205 259 311 367
#     4   9  19  35  56  85 122 162 201 243 297 360
#     4  12  24  39  62  92 124 163 207 255 310 365
#     4  11  22  37  59  90 125 164 205 249 305 367
#     4  10  20  36  58  88 123 161 202 245 301 367
#     4  10  24  42  61  88 120 157 206 257 305 361
#
# _framework density 18.978024999999999
#
# number of rings (size 3 to 8) (size 9 to 14) (size 15 to 20)
#    0.000    1.500    1.250    4.875    1.750    5.500 
#    0.000    0.625    0.000    1.500    0.000    0.000 
#    0.000    0.000    0.000    0.000    0.000    0.000 
#
# Total GULP energy -178939.514582 kJ/mol
# GULP energy per Si atom -5591.859831 kJ/mol
# Density = 1.893483 g / cm^3
# Si number density = 18.978025 Si / 1000 Ang^3
#
#
#
# Elastic Constant Matrix: (Units=GPa)
#
#
# Indices 1 2 3 4 5 6 
#
# 1 74.1676 30.0226 13.7677 0.0000 -0.0003 0.0000
# 2 30.0226 96.9902 22.4487 0.0001 -0.0008 0.0000
# 3 13.7677 22.4487 41.6354 0.0002 -0.0020 0.0000
# 4 0.0000 0.0001 0.0002 27.6878 -0.0006 0.0000
# 5 -0.0003 -0.0008 -0.0020 -0.0006 -209.9826 0.0001
# 6 0.0000 0.0000 0.0000 0.0000 0.0001 36.0417
#
#
#
# Elastic Compliance Matrix: (Units=1/GPa)
#
#
# Indices 1 2 3 4 5 6 
#
# 1 0.015724 -0.004186 -0.002942 0.000000 0.000000 0.000000
# 2 -0.004186 0.012895 -0.005568 0.000000 0.000000 0.000000
# 3 -0.002942 -0.005568 0.027993 0.000000 0.000000 0.000000
# 4 0.000000 0.000000 0.000000 0.036117 0.000000 0.000000
# 5 0.000000 0.000000 0.000000 0.000000 -0.004762 0.000000
# 6 0.000000 0.000000 0.000000 0.000000 0.000000 0.027746
#
#
# Mechanical properties :
#
#
# Convention : Reuss Voigt Hill
#
# Bulk Modulus (GPa) = 32.03258 38.36345 35.19801
# Shear Modulus (GPa) = 33.00070 -19.48034 6.76018
#
# Velocity S-wave (km/s) = 4.17452 -3.20733 1.88940
# Velocity P-wave (km/s) = 6.33648 2.55785 4.83185
#
# Compressibility (1/GPa) = 0.03121822
#
# Stress axis : x y z
#
# Youngs Moduli (GPa) = 63.59837 77.54994 35.72288
#
# Poissons Ratio (x) = 0.32463 0.10511
# Poissons Ratio (y) = 0.26623 0.19892
# Poissons Ratio (z) = 0.18713 0.43182
#
# Static dielectric constant tensor:
#      x y z
#    x 1.631130 0.000000 0.000000 
#    y 0.000000 1.647270 0.000000 
#    z 0.000000 0.000000 1.661890 
# 
# From -- ./inp_files/14523.got.cif
#   From: 2010.05.17/outbox.cif.g08.bks.cpg/sg46_8_cif.got.tgz:14523.got - 2010.06.03 19:58:25.
