data_PCOD9379191
_publ_section_title
;
Structure prediction by ZEFSAII (Michael W. Deem and Ramdas Pophale) SiO2 
 PCOD9379191
Probable space group: I M A 2
;
_chemical_formula_sum "Si O2"
_cell_formula_units_Z 48
_cell_length_a 7.475146
_cell_length_b 23.707416
_cell_length_c 12.065669
_cell_angle_alpha 90.000000
_cell_angle_beta 90.000000
_cell_angle_gamma 90.000000
_cell_volume 2138.234374
_symmetry_space_group_name_H-M "I M A 2"
_symmetry_group_IT_number 46
_symmetry_cell_setting 'orthorhombic'
loop_
_space_group_symop_operation_xyz
x,y,z
-x,-y,z
1/2-x,y,z
1/2+x,-y,z
1/2+x,1/2+y,1/2+z
1/2-x,1/2-y,1/2+z
-x,1/2+y,1/2+z
x,1/2-y,1/2+z
loop_
_atom_site_type_symbol
_atom_site_label
_atom_site_fract_x
_atom_site_fract_y
_atom_site_fract_z
Si Si1 0.529736 0.350743 0.835690
Si Si2 0.468486 0.735577 0.647094
Si Si3 0.535306 0.434092 0.281067
Si Si4 0.550198 0.061579 0.169371
Si Si5 0.032254 0.858657 0.588379
Si Si6 0.455115 0.649911 0.468200
O O1 0.750000 0.349027 0.836209
O O2 0.476100 0.298533 0.756808
O O3 0.460598 0.406081 0.770765
O O4 0.471472 0.353174 0.962017
O O5 0.250000 0.732489 0.643283
O O6 0.519767 0.800559 0.648694
O O7 0.530387 0.704437 0.533133
O O8 0.500000 0.500000 0.303868
O O9 0.750000 0.429397 0.287243
O O10 0.475312 0.412624 0.160024
O O11 0.465340 0.386928 0.368191
O O12 0.750000 0.053530 0.210340
O O13 0.500000 0.000000 0.131331
O O14 0.549587 0.104502 0.067896
O O15 0.250000 0.859955 0.585516
O O16 0.250000 0.665244 0.435796
#
# Coordination Sequence:
#
# PCOD9379191 Si02
#       6
#     8   8   8   8   8   8
#     4   8  15  26  38  59  88 114 143 180 225 269
#     4   8  14  24  41  64  91 117 142 185 239 275
#     4  10  20  32  46  68  96 126 157 187 223 273
#     4   9  16  27  43  62  86 116 146 180 217 256
#     4   9  17  26  41  64  91 120 148 183 228 277
#     4   8  15  27  43  65  92 117 146 187 230 266
#
# _framework density 22.448429000000001
#
# number of rings (size 3 to 8) (size 9 to 14) (size 15 to 20)
#    0.000    3.333    0.000    2.500    2.333    0.667 
#    0.000    0.000    0.000    0.000    0.000    5.833 
#    0.000    0.000    0.000    0.000    0.000    0.000 
#
# Total GULP energy -133673.795375 kJ/mol
# GULP energy per Si atom -5569.741474 kJ/mol
# Density = 2.239734 g / cm^3
# Si number density = 22.448429 Si / 1000 Ang^3
#
#
#
# Elastic Constant Matrix: (Units=GPa)
#
#
# Indices 1 2 3 4 5 6 
#
# 1 55.9201 -1.7629 2.7515 0.0000 0.0000 0.0000
# 2 -1.7629 61.3690 1.4114 0.0000 0.0000 0.0000
# 3 2.7515 1.4114 85.8180 0.0001 -0.0002 -0.0001
# 4 0.0000 0.0000 0.0001 19.2807 -0.0001 0.0000
# 5 0.0000 0.0000 -0.0002 -0.0001 -11.7768 0.0000
# 6 0.0000 0.0000 -0.0001 0.0000 0.0000 0.7096
#
#
#
# Elastic Compliance Matrix: (Units=1/GPa)
#
#
# Indices 1 2 3 4 5 6 
#
# 1 0.017928 0.000528 -0.000583 0.000000 0.000000 0.000000
# 2 0.000528 0.016317 -0.000285 0.000000 0.000000 -0.000001
# 3 -0.000583 -0.000285 0.011676 0.000000 0.000000 0.000001
# 4 0.000000 0.000000 0.000000 0.051865 0.000000 0.000003
# 5 0.000000 0.000000 0.000000 0.000000 -0.084913 0.000005
# 6 0.000000 -0.000001 0.000001 0.000003 0.000005 1.409301
#
#
# Mechanical properties :
#
#
# Convention : Reuss Voigt Hill
#
# Bulk Modulus (GPa) = 22.10439 23.10078 22.60258
# Shear Modulus (GPa) = 3.47721 15.02318 9.25019
#
# Velocity S-wave (km/s) = 1.24593 2.58976 2.03214
# Velocity P-wave (km/s) = 3.45513 4.38810 3.94926
#
# Compressibility (1/GPa) = 0.04523988
#
# Stress axis : x y z
#
# Youngs Moduli (GPa) = 55.77859 61.28727 85.64599
#
# Poissons Ratio (x) = -0.03239 0.04997
# Poissons Ratio (y) = -0.02947 0.02443
# Poissons Ratio (z) = 0.03255 0.01748
#
# Static dielectric constant tensor:
#      x y z
#    x 1.913470 0.000000 0.000000 
#    y 0.000000 1.873210 0.000000 
#    z 0.000000 0.000000 1.836190 
# 
# From -- ./inp_files/9294.got.cif
#   From: 2010.05.17/outbox.cif.g08.bks.cpg/sg46_5_cif.got.tgz:9294.got - 2010.06.03 19:58:25.
