data_PCOD9379473
_publ_section_title
;
Structure prediction by ZEFSAII (Michael W. Deem and Ramdas Pophale) SiO2 
 PCOD9379473
Probable space group: I M A 2
;
_chemical_formula_sum "Si O2"
_cell_formula_units_Z 48
_cell_length_a 15.666048
_cell_length_b 8.563545
_cell_length_c 19.393698
_cell_angle_alpha 90.000000
_cell_angle_beta 90.000000
_cell_angle_gamma 90.000000
_cell_volume 2601.798539
_symmetry_space_group_name_H-M "I M A 2"
_symmetry_group_IT_number 46
_symmetry_cell_setting 'orthorhombic'
loop_
_space_group_symop_operation_xyz
x,y,z
-x,-y,z
1/2-x,y,z
1/2+x,-y,z
1/2+x,1/2+y,1/2+z
1/2-x,1/2-y,1/2+z
-x,1/2+y,1/2+z
x,1/2-y,1/2+z
loop_
_atom_site_type_symbol
_atom_site_label
_atom_site_fract_x
_atom_site_fract_y
_atom_site_fract_z
Si Si1 0.916898 0.888105 0.490120
Si Si2 0.350195 0.200613 0.857800
Si Si3 0.006503 0.685981 0.602003
Si Si4 0.499977 0.312401 0.762856
Si Si5 0.350250 0.673939 0.357419
Si Si6 0.655692 0.296321 0.008535
O O1 0.888207 0.785464 0.425416
O O2 0.938712 0.777104 0.554390
O O3 0.846704 0.016742 0.508022
O O4 0.000000 0.000000 0.476152
O O5 0.250000 0.242397 0.849179
O O6 0.412446 0.251945 0.796435
O O7 0.355727 0.013173 0.862525
O O8 0.000000 0.500000 0.595597
O O9 0.002153 0.728780 0.682114
O O10 0.095304 0.736397 0.568188
O O11 0.500000 0.500000 0.769723
O O12 0.581674 0.241003 0.803003
O O13 0.250000 0.714999 0.342977
O O14 0.373495 0.741246 0.432692
O O15 0.750000 0.233362 0.017913
#
# Coordination Sequence:
#
# PCOD9379473 Si02
#       6
#     8   8   8   8   8   8
#     4  10  20  35  58  85 112 146 185 227 276 327
#     4  11  22  37  59  86 113 147 187 231 278 329
#     4  10  22  39  57  79 111 151 187 224 277 333
#     4  11  23  39  58  81 114 152 187 229 279 331
#     4  10  22  38  60  86 113 146 186 230 279 331
#     4  10  20  36  58  85 112 142 183 231 276 327
#
# _framework density 18.448777
#
# number of rings (size 3 to 8) (size 9 to 14) (size 15 to 20)
#    0.000    1.667    0.000    5.500    0.000    6.667 
#    0.000    6.667    0.000    0.000    0.000    0.000 
#    0.000    0.000    0.000    0.000    0.000    0.000 
#
# Total GULP energy -133981.322048 kJ/mol
# GULP energy per Si atom -5582.555085 kJ/mol
# Density = 1.840679 g / cm^3
# Si number density = 18.448777 Si / 1000 Ang^3
#
#
#
# Elastic Constant Matrix: (Units=GPa)
#
#
# Indices 1 2 3 4 5 6 
#
# 1 116.9603 49.8815 94.5817 0.0000 0.0000 0.0000
# 2 49.8815 89.9622 78.1981 0.0000 0.0000 0.0000
# 3 94.5817 78.1981 188.9791 0.0000 0.0000 0.0000
# 4 0.0000 0.0000 0.0000 33.8162 0.0000 0.0000
# 5 0.0000 0.0000 0.0000 0.0000 10.8075 0.0000
# 6 0.0000 0.0000 0.0000 0.0000 0.0000 14.9683
#
#
#
# Elastic Compliance Matrix: (Units=1/GPa)
#
#
# Indices 1 2 3 4 5 6 
#
# 1 0.014789 -0.002758 -0.006260 0.000000 0.000000 0.000000
# 2 -0.002758 0.017874 -0.006016 0.000000 0.000000 0.000000
# 3 -0.006260 -0.006016 0.010914 0.000000 0.000000 0.000000
# 4 0.000000 0.000000 0.000000 0.029572 0.000000 0.000000
# 5 0.000000 0.000000 0.000000 0.000000 0.092529 0.000000
# 6 0.000000 0.000000 0.000000 0.000000 0.000000 0.066808
#
#
# Mechanical properties :
#
#
# Convention : Reuss Voigt Hill
#
# Bulk Modulus (GPa) = 74.02770 93.46936 83.74853
# Shear Modulus (GPa) = 18.72264 23.46774 21.09519
#
# Velocity S-wave (km/s) = 3.18912 3.57045 3.38516
# Velocity P-wave (km/s) = 7.33306 8.23236 7.79569
#
# Compressibility (1/GPa) = 0.01350846
#
# Stress axis : x y z
#
# Youngs Moduli (GPa) = 67.61932 55.94636 91.62559
#
# Poissons Ratio (x) = 0.15432 0.57359
# Poissons Ratio (y) = 0.18652 0.55119
# Poissons Ratio (z) = 0.42331 0.33656
#
# Static dielectric constant tensor:
#      x y z
#    x 1.648290 0.000000 0.000000 
#    y 0.000000 1.638650 0.000000 
#    z 0.000000 0.000000 1.601190 
# 
# From -- ./inp_files/19417.got.cif
#   From: 2010.05.17/outbox.cif.g08.bks.cpg/sg46_10_cif.got.tgz:19417.got - 2010.06.03 19:58:25.
