data_PCOD9379413
_publ_section_title
;
Structure prediction by ZEFSAII (Michael W. Deem and Ramdas Pophale) SiO2 
 PCOD9379413
Probable space group: I M A 2
;
_chemical_formula_sum "Si O2"
_cell_formula_units_Z 64
_cell_length_a 8.590305
_cell_length_b 20.769024
_cell_length_c 20.307215
_cell_angle_alpha 90.000000
_cell_angle_beta 90.000000
_cell_angle_gamma 90.000000
_cell_volume 3623.055934
_symmetry_space_group_name_H-M "I M A 2"
_symmetry_group_IT_number 46
_symmetry_cell_setting 'orthorhombic'
loop_
_space_group_symop_operation_xyz
x,y,z
-x,-y,z
1/2-x,y,z
1/2+x,-y,z
1/2+x,1/2+y,1/2+z
1/2-x,1/2-y,1/2+z
-x,1/2+y,1/2+z
x,1/2-y,1/2+z
loop_
_atom_site_type_symbol
_atom_site_label
_atom_site_fract_x
_atom_site_fract_y
_atom_site_fract_z
Si Si1 0.935499 0.677496 0.627350
Si Si2 0.062089 0.929715 0.876026
Si Si3 0.435578 0.070674 0.375877
Si Si4 0.561577 0.318839 0.124311
Si Si5 0.062893 0.825526 0.274012
Si Si6 0.062978 0.570785 0.528479
Si Si7 0.062893 0.570657 0.021832
Si Si8 0.560931 0.178818 0.775230
O O1 0.750000 0.676134 0.631805
O O2 0.991867 0.749130 0.607922
O O3 0.007465 0.663373 0.699281
O O4 0.994580 0.625089 0.575540
O O5 0.250000 0.931216 0.873682
O O6 0.005340 0.874190 0.826893
O O7 0.017530 0.917387 0.952076
O O8 0.000000 0.000000 0.857200
O O9 0.250000 0.068093 0.378255
O O10 0.491886 0.123324 0.323900
O O11 0.500129 0.085530 0.448848
O O12 0.500000 0.000000 0.357890
O O13 0.750000 0.313260 0.123026
O O14 0.515694 0.374614 0.073747
O O15 0.514972 0.334648 0.199645
O O16 0.250000 0.829159 0.276273
O O17 0.014812 0.752114 0.291402
O O18 0.250000 0.571008 0.532676
O O19 0.000000 0.500000 0.546415
O O20 0.250000 0.568122 0.019436
O O21 0.000000 0.500000 0.040261
O O22 0.750000 0.177608 0.776695
#
# Coordination Sequence:
#
# PCOD9379413 Si02
#       8
#     8   8   8   8   8   8   8   8
#     4  11  22  36  55  80 108 138 176 223 272 319
#     4   9  18  33  53  77 105 137 173 213 257 306
#     4  11  22  37  56  80 109 140 177 220 267 319
#     4   9  19  36  56  77 106 145 184 220 264 320
#     4  10  20  37  58  79 106 140 177 217 263 318
#     4  10  20  35  54  77 106 140 177 217 263 317
#     4  10  20  35  55  79 108 143 182 223 270 321
#     4   8  16  33  55  77 103 137 175 213 255 308
#
# _framework density 17.664646000000001
#
# number of rings (size 3 to 8) (size 9 to 14) (size 15 to 20)
#    0.000    2.250    0.000    4.875    0.000    3.500 
#    0.000    8.125    0.000    0.000    0.000    0.000 
#    0.000    0.000    0.000    0.000    0.000    0.000 
#
# Total GULP energy -178613.361283 kJ/mol
# GULP energy per Si atom -5581.667540 kJ/mol
# Density = 1.762444 g / cm^3
# Si number density = 17.664646 Si / 1000 Ang^3
#
#
#
# Elastic Constant Matrix: (Units=GPa)
#
#
# Indices 1 2 3 4 5 6 
#
# 1 65.9234 49.3008 40.7739 0.0000 0.0000 0.0000
# 2 49.3008 177.4746 134.9731 0.0000 0.0000 0.0000
# 3 40.7739 134.9731 118.7945 0.0000 0.0000 0.0000
# 4 0.0000 0.0000 0.0000 44.9668 0.0000 0.0000
# 5 0.0000 0.0000 0.0000 0.0000 21.4525 0.0000
# 6 0.0000 0.0000 0.0000 0.0000 0.0000 31.3893
#
#
#
# Elastic Compliance Matrix: (Units=1/GPa)
#
#
# Indices 1 2 3 4 5 6 
#
# 1 0.019394 -0.002391 -0.003940 0.000000 0.000000 0.000000
# 2 -0.002391 0.041755 -0.046621 0.000000 0.000000 0.000000
# 3 -0.003940 -0.046621 0.062740 0.000000 0.000000 0.000000
# 4 0.000000 0.000000 0.000000 0.022239 0.000000 0.000000
# 5 0.000000 0.000000 0.000000 0.000000 0.046615 0.000000
# 6 0.000000 0.000000 0.000000 0.000000 0.000000 0.031858
#
#
# Mechanical properties :
#
#
# Convention : Reuss Voigt Hill
#
# Bulk Modulus (GPa) = 55.59962 90.25425 72.92693
# Shear Modulus (GPa) = 14.85887 28.70471 21.78179
#
# Velocity S-wave (km/s) = 2.90343 4.03548 3.51532
# Velocity P-wave (km/s) = 6.54089 8.53918 7.60594
#
# Compressibility (1/GPa) = 0.01798574
#
# Stress axis : x y z
#
# Youngs Moduli (GPa) = 51.56184 23.94926 15.93876
#
# Poissons Ratio (x) = 0.05727 0.06279
# Poissons Ratio (y) = 0.12330 0.74308
# Poissons Ratio (z) = 0.20314 1.11653
#
# Static dielectric constant tensor:
#      x y z
#    x 1.599610 0.000000 0.000000 
#    y 0.000000 1.579340 0.000000 
#    z 0.000000 0.000000 1.585620 
# 
# From -- ./inp_files/21321.got.cif
#   From: 2010.05.17/outbox.cif.g08.bks.cpg/sg46_11_cif.got.tgz:21321.got - 2010.06.03 19:58:25.
