data_PCOD9379814
_publ_section_title
;
Structure prediction by ZEFSAII (Michael W. Deem and Ramdas Pophale) SiO2 
 PCOD9379814
Probable space group: I M A 2
;
_chemical_formula_sum "Si O2"
_cell_formula_units_Z 64
_cell_length_a 31.273035
_cell_length_b 9.148912
_cell_length_c 10.769589
_cell_angle_alpha 90.000000
_cell_angle_beta 90.000000
_cell_angle_gamma 90.000000
_cell_volume 3081.332828
_symmetry_space_group_name_H-M "I M A 2"
_symmetry_group_IT_number 46
_symmetry_cell_setting 'orthorhombic'
loop_
_space_group_symop_operation_xyz
x,y,z
-x,-y,z
1/2-x,y,z
1/2+x,-y,z
1/2+x,1/2+y,1/2+z
1/2-x,1/2-y,1/2+z
-x,1/2+y,1/2+z
x,1/2-y,1/2+z
loop_
_atom_site_type_symbol
_atom_site_label
_atom_site_fract_x
_atom_site_fract_y
_atom_site_fract_z
Si Si1 0.298356 0.180974 0.290230
Si Si2 0.984538 0.359495 0.949079
Si Si3 0.048457 0.557787 0.497439
Si Si4 0.339678 0.178357 0.031195
Si Si5 0.083244 0.506039 0.763341
Si Si6 0.173932 0.850681 0.300102
Si Si7 0.924533 0.712840 0.393003
Si Si8 0.801287 0.353887 0.530358
O O1 0.250000 0.223835 0.264192
O O2 0.325373 0.224906 0.168499
O O3 0.313418 0.249920 0.418733
O O4 0.301571 0.005815 0.304943
O O5 0.953364 0.232089 0.992841
O O6 0.000000 0.500000 0.028997
O O7 0.958364 0.432662 0.835790
O O8 0.028323 0.273464 0.923305
O O9 0.074669 0.520822 0.619323
O O10 0.067922 0.462772 0.382876
O O11 0.000000 0.500000 0.515526
O O12 0.327783 0.005899 0.023843
O O13 0.388104 0.222390 0.997746
O O14 0.124333 0.599910 0.802307
O O15 0.089673 0.334375 0.793823
O O16 0.186204 0.747600 0.414295
O O17 0.185984 0.786229 0.164604
O O18 0.750000 0.381898 0.528748
#
# Coordination Sequence:
#
# PCOD9379814 Si02
#       8
#     8   8   8   8   8   8   8   8
#     4  11  22  42  66  95 128 171 218 277 348 408
#     4   9  21  40  64  94 132 169 218 274 327 405
#     4  10  20  38  66  89 126 178 213 275 340 391
#     4  11  23  40  65  97 131 169 217 280 330 407
#     4  11  22  41  62  93 131 171 223 277 331 396
#     4  11  24  41  68  94 130 175 220 278 337 408
#     4  10  21  39  61  94 127 167 225 263 329 393
#     4  11  24  45  66  95 131 173 221 282 350 418
#
# _framework density 20.770233000000001
#
# number of rings (size 3 to 8) (size 9 to 14) (size 15 to 20)
#    0.000    1.500    1.250    5.625    3.500    1.000 
#    0.000    8.125    0.000    0.000    0.000    0.000 
#    0.000    0.000    0.000    0.000    0.000    0.000 
#
# Total GULP energy -178290.146685 kJ/mol
# GULP energy per Si atom -5571.567084 kJ/mol
# Density = 2.072296 g / cm^3
# Si number density = 20.770233 Si / 1000 Ang^3
#
#
#
# Elastic Constant Matrix: (Units=GPa)
#
#
# Indices 1 2 3 4 5 6 
#
# 1 132.4843 11.5532 37.5434 0.0000 0.0000 0.0000
# 2 11.5532 107.8853 64.1303 0.0000 0.0000 0.0000
# 3 37.5434 64.1303 123.3086 0.0000 0.0000 0.0000
# 4 0.0000 0.0000 0.0000 20.7124 0.0000 0.0000
# 5 0.0000 0.0000 0.0000 0.0000 25.0139 0.0000
# 6 0.0000 0.0000 0.0000 0.0000 0.0000 32.5318
#
#
#
# Elastic Compliance Matrix: (Units=1/GPa)
#
#
# Indices 1 2 3 4 5 6 
#
# 1 0.008319 0.000890 -0.002996 0.000000 0.000000 0.000000
# 2 0.000890 0.013512 -0.007298 0.000000 0.000000 0.000000
# 3 -0.002996 -0.007298 0.012818 0.000000 0.000000 0.000000
# 4 0.000000 0.000000 0.000000 0.048280 0.000000 0.000000
# 5 0.000000 0.000000 0.000000 0.000000 0.039978 0.000000
# 6 0.000000 0.000000 0.000000 0.000000 0.000000 0.030739
#
#
# Mechanical properties :
#
#
# Convention : Reuss Voigt Hill
#
# Bulk Modulus (GPa) = 63.12879 65.57025 64.34952
# Shear Modulus (GPa) = 28.13175 32.34836 30.24006
#
# Velocity S-wave (km/s) = 3.68425 3.95072 3.81981
# Velocity P-wave (km/s) = 6.96836 7.24215 7.10658
#
# Compressibility (1/GPa) = 0.01584063
#
# Stress axis : x y z
#
# Youngs Moduli (GPa) = 120.20080 74.00740 78.01784
#
# Poissons Ratio (x) = -0.06586 0.23373
# Poissons Ratio (y) = -0.10696 0.56940
# Poissons Ratio (z) = 0.36010 0.54013
#
# Static dielectric constant tensor:
#      x y z
#    x 1.825520 0.000000 0.000000 
#    y 0.000000 1.808910 0.000000 
#    z 0.000000 0.000000 1.735420 
# 
# From -- ./inp_files/13229.got.cif
#   From: 2010.05.17/outbox.cif.g08.bks.cpg/sg46_7_cif.got.tgz:13229.got - 2010.06.03 19:58:25.
