data_PCOD9379500
_publ_section_title
;
Structure prediction by ZEFSAII (Michael W. Deem and Ramdas Pophale) SiO2 
 PCOD9379500
Probable space group: I M A 2
;
_chemical_formula_sum "Si O2"
_cell_formula_units_Z 56
_cell_length_a 20.716004
_cell_length_b 13.760382
_cell_length_c 9.949261
_cell_angle_alpha 90.000000
_cell_angle_beta 90.000000
_cell_angle_gamma 90.000000
_cell_volume 2836.137620
_symmetry_space_group_name_H-M "I M A 2"
_symmetry_group_IT_number 46
_symmetry_cell_setting 'orthorhombic'
loop_
_space_group_symop_operation_xyz
x,y,z
-x,-y,z
1/2-x,y,z
1/2+x,-y,z
1/2+x,1/2+y,1/2+z
1/2-x,1/2-y,1/2+z
-x,1/2+y,1/2+z
x,1/2-y,1/2+z
loop_
_atom_site_type_symbol
_atom_site_label
_atom_site_fract_x
_atom_site_fract_y
_atom_site_fract_z
Si Si1 0.324994 0.467435 0.858790
Si Si2 0.106961 0.757136 0.991272
Si Si3 0.828610 0.872126 0.900655
Si Si4 0.178610 0.680284 0.748843
Si Si5 0.570734 0.040679 0.867647
Si Si6 0.327724 0.280704 0.682685
Si Si7 0.932774 0.451390 0.046544
O O1 0.250000 0.453725 0.902226
O O2 0.326655 0.564361 0.767115
O O3 0.345635 0.374329 0.772681
O O4 0.373044 0.491762 0.979604
O O5 0.165952 0.728645 0.893026
O O6 0.076343 0.853444 0.931635
O O7 0.128957 0.779758 0.141506
O O8 0.065879 0.659020 0.993777
O O9 0.750000 0.888836 0.902103
O O10 0.847994 0.815707 0.763311
O O11 0.870959 0.969516 0.912792
O O12 0.844963 0.802345 0.028171
O O13 0.250000 0.704070 0.700907
O O14 0.575102 0.048794 0.706566
O O15 0.500000 0.000000 0.901839
O O16 0.250000 0.277129 0.683854
O O17 0.000000 0.500000 0.010236
#
# Coordination Sequence:
#
# PCOD9379500 Si02
#       7
#     8   8   8   8   8   8   8
#     4   9  19  36  61  91 124 161 210 260 308 372
#     4  11  21  42  62  90 125 166 206 257 314 379
#     4  10  22  40  65  97 130 170 212 263 318 374
#     4  10  20  35  61  94 126 160 204 256 313 371
#     4  11  25  44  62  93 129 165 214 262 315 380
#     4   9  19  37  61  94 131 163 208 262 315 373
#     4  10  23  42  64  89 126 165 209 262 321 377
#
# _framework density 19.745163000000002
#
# number of rings (size 3 to 8) (size 9 to 14) (size 15 to 20)
#    0.000    2.000    1.429    1.286    2.000    4.571 
#    2.571    6.429    0.000    0.000    0.000    0.000 
#    0.000    0.000    0.000    0.000    0.000    0.000 
#
# Total GULP energy -156259.083065 kJ/mol
# GULP energy per Si atom -5580.681538 kJ/mol
# Density = 1.970022 g / cm^3
# Si number density = 19.745163 Si / 1000 Ang^3
#
#
#
# Elastic Constant Matrix: (Units=GPa)
#
#
# Indices 1 2 3 4 5 6 
#
# 1 78.3156 40.7887 31.2391 0.0000 0.0000 0.0000
# 2 40.7887 80.8854 24.1730 0.0000 0.0000 0.0000
# 3 31.2391 24.1730 61.8513 0.0000 0.0000 0.0000
# 4 0.0000 0.0000 0.0000 24.6099 0.0000 0.0000
# 5 0.0000 0.0000 0.0000 0.0000 -0.3925 0.0000
# 6 0.0000 0.0000 0.0000 0.0000 0.0000 17.2427
#
#
#
# Elastic Compliance Matrix: (Units=1/GPa)
#
#
# Indices 1 2 3 4 5 6 
#
# 1 0.019568 -0.007828 -0.006824 0.000000 0.000000 0.000000
# 2 -0.007828 0.017130 -0.002741 0.000000 0.000000 0.000000
# 3 -0.006824 -0.002741 0.020685 0.000000 0.000000 0.000000
# 4 0.000000 0.000000 0.000000 0.040634 0.000000 0.000000
# 5 0.000000 0.000000 0.000000 0.000000 -2.548079 0.000000
# 6 0.000000 0.000000 0.000000 0.000000 0.000000 0.057996
#
#
# Mechanical properties :
#
#
# Convention : Reuss Voigt Hill
#
# Bulk Modulus (GPa) = 44.25276 45.93930 45.09603
# Shear Modulus (GPa) = -2.12789 16.61547 7.24379
#
# Velocity S-wave (km/s) = -1.03924 2.90400 1.91745
# Velocity P-wave (km/s) = 4.58482 5.87885 5.27169
#
# Compressibility (1/GPa) = 0.02259746
#
# Stress axis : x y z
#
# Youngs Moduli (GPa) = 51.10409 58.37716 48.34325
#
# Poissons Ratio (x) = 0.45700 0.32987
# Poissons Ratio (y) = 0.40006 0.13251
# Poissons Ratio (z) = 0.34871 0.16001
#
# Static dielectric constant tensor:
#      x y z
#    x 1.661720 0.000000 0.000000 
#    y 0.000000 1.702070 0.000000 
#    z 0.000000 0.000000 1.686990 
# 
# From -- ./inp_files/7411.got.cif
#   From: 2010.05.17/outbox.cif.g08.bks.cpg/sg46_4_cif.got.tgz:7411.got - 2010.06.03 19:58:25.
