data_PCOD9379943
_publ_section_title
;
Structure prediction by ZEFSAII (Michael W. Deem and Ramdas Pophale) SiO2 
 PCOD9379943
Probable space group: I M A 2
;
_chemical_formula_sum "Si O2"
_cell_formula_units_Z 64
_cell_length_a 29.905146
_cell_length_b 9.298710
_cell_length_c 10.400575
_cell_angle_alpha 90.000000
_cell_angle_beta 90.000000
_cell_angle_gamma 90.000000
_cell_volume 2892.184409
_symmetry_space_group_name_H-M "I M A 2"
_symmetry_group_IT_number 46
_symmetry_cell_setting 'orthorhombic'
loop_
_space_group_symop_operation_xyz
x,y,z
-x,-y,z
1/2-x,y,z
1/2+x,-y,z
1/2+x,1/2+y,1/2+z
1/2-x,1/2-y,1/2+z
-x,1/2+y,1/2+z
x,1/2-y,1/2+z
loop_
_atom_site_type_symbol
_atom_site_label
_atom_site_fract_x
_atom_site_fract_y
_atom_site_fract_z
Si Si1 0.882689 0.931450 0.478730
Si Si2 0.799938 0.681174 0.102069
Si Si3 0.394596 0.609089 0.231016
Si Si4 0.603221 0.423583 0.708925
Si Si5 0.465865 0.382241 0.298303
Si Si6 0.701304 0.440438 0.319972
Si Si7 0.699009 0.005017 0.122266
Si Si8 0.553999 0.825888 0.071215
O O1 0.831574 0.883366 0.493620
O O2 0.896142 0.988791 0.341444
O O3 0.910049 0.790899 0.520823
O O4 0.889973 0.055082 0.584666
O O5 0.750000 0.692321 0.050868
O O6 0.800707 0.576417 0.224368
O O7 0.812937 0.838958 0.148961
O O8 0.419427 0.474241 0.298421
O O9 0.345910 0.633463 0.293281
O O10 0.417144 0.765294 0.230243
O O11 0.655383 0.408633 0.666784
O O12 0.576358 0.522806 0.608979
O O13 0.500000 0.500000 0.245045
O O14 0.464334 0.248603 0.201058
O O15 0.477039 0.343352 0.445617
O O16 0.750000 0.368555 0.293075
O O17 0.701425 0.481720 0.468442
O O18 0.750000 0.036021 0.170471
#
# Coordination Sequence:
#
# PCOD9379943 Si02
#       8
#     8   8   8   8   8   8   8   8
#     4  10  22  39  62  96 127 172 227 274 331 403
#     4   9  18  32  55  86 122 168 224 284 334 388
#     4  10  25  42  66  96 136 179 220 278 338 405
#     4  12  24  38  68  96 134 179 225 274 342 404
#     4  11  26  50  76 105 142 175 224 276 338 399
#     4   9  19  38  58  83 128 177 221 276 335 396
#     4  10  21  32  54  88 124 172 229 279 330 396
#     4  11  23  47  74 102 134 177 220 273 332 401
#
# _framework density 22.128602999999998
#
# number of rings (size 3 to 8) (size 9 to 14) (size 15 to 20)
#    0.000    1.750    2.500    0.750    5.250    2.000 
#    2.250    0.625    0.000    0.000    0.000    0.000 
#    0.000    0.000    0.000    0.000    0.000    0.000 
#
# Total GULP energy -178627.153223 kJ/mol
# GULP energy per Si atom -5582.098538 kJ/mol
# Density = 2.207824 g / cm^3
# Si number density = 22.128603 Si / 1000 Ang^3
#
#
#
# Elastic Constant Matrix: (Units=GPa)
#
#
# Indices 1 2 3 4 5 6 
#
# 1 27.4818 -2.6723 -4.8100 0.0000 0.0000 0.0000
# 2 -2.6723 82.1445 6.8406 0.0000 0.0000 0.0000
# 3 -4.8100 6.8406 83.8053 0.0000 0.0000 0.0000
# 4 0.0000 0.0000 0.0000 11.0823 0.0000 0.0000
# 5 0.0000 0.0000 0.0000 0.0000 13.6232 0.0000
# 6 0.0000 0.0000 0.0000 0.0000 0.0000 16.9795
#
#
#
# Elastic Compliance Matrix: (Units=1/GPa)
#
#
# Indices 1 2 3 4 5 6 
#
# 1 0.036843 0.001029 0.002031 0.000000 0.000000 0.000000
# 2 0.001029 0.012286 -0.000944 0.000000 0.000000 0.000000
# 3 0.002031 -0.000944 0.012126 0.000000 0.000000 0.000000
# 4 0.000000 0.000000 0.000000 0.090234 0.000000 0.000000
# 5 0.000000 0.000000 0.000000 0.000000 0.073404 0.000000
# 6 0.000000 0.000000 0.000000 0.000000 0.000000 0.058895
#
#
# Mechanical properties :
#
#
# Convention : Reuss Voigt Hill
#
# Bulk Modulus (GPa) = 15.27007 21.34979 18.30993
# Shear Modulus (GPa) = 16.59011 21.27521 18.93266
#
# Velocity S-wave (km/s) = 2.74106 3.10407 2.92819
# Velocity P-wave (km/s) = 4.11503 4.74510 4.44125
#
# Compressibility (1/GPa) = 0.06548761
#
# Stress axis : x y z
#
# Youngs Moduli (GPa) = 27.14205 81.39508 82.46743
#
# Poissons Ratio (x) = -0.08380 -0.16746
# Poissons Ratio (y) = -0.02794 0.07783
# Poissons Ratio (z) = -0.05511 0.07681
#
# Static dielectric constant tensor:
#      x y z
#    x 1.882770 0.000000 0.000000 
#    y 0.000000 1.818880 0.000000 
#    z 0.000000 0.000000 1.791560 
# 
# From -- ./inp_files/13190.got.cif
#   From: 2010.05.17/outbox.cif.g08.bks.cpg/sg46_7_cif.got.tgz:13190.got - 2010.06.03 19:58:25.
