data_PCOD9379700
_publ_section_title
;
Structure prediction by ZEFSAII (Michael W. Deem and Ramdas Pophale) SiO2 
 PCOD9379700
Probable space group: I M A 2
;
_chemical_formula_sum "Si O2"
_cell_formula_units_Z 48
_cell_length_a 8.815774
_cell_length_b 20.756227
_cell_length_c 14.603838
_cell_angle_alpha 90.000000
_cell_angle_beta 90.000000
_cell_angle_gamma 90.000000
_cell_volume 2672.242498
_symmetry_space_group_name_H-M "I M A 2"
_symmetry_group_IT_number 46
_symmetry_cell_setting 'orthorhombic'
loop_
_space_group_symop_operation_xyz
x,y,z
-x,-y,z
1/2-x,y,z
1/2+x,-y,z
1/2+x,1/2+y,1/2+z
1/2-x,1/2-y,1/2+z
-x,1/2+y,1/2+z
x,1/2-y,1/2+z
loop_
_atom_site_type_symbol
_atom_site_label
_atom_site_fract_x
_atom_site_fract_y
_atom_site_fract_z
Si Si1 0.930557 0.727624 0.721480
Si Si2 0.068130 0.069989 0.521209
Si Si3 0.931652 0.809140 0.012962
Si Si4 0.569440 0.430958 0.410968
Si Si5 0.430397 0.813365 0.407046
Si Si6 0.431158 0.119413 0.725077
O O1 0.750000 0.720447 0.738234
O O2 0.963489 0.701390 0.620269
O O3 0.963802 0.804161 0.724112
O O4 0.021148 0.692603 0.801428
O O5 0.250000 0.069471 0.512402
O O6 0.031875 0.090246 0.625984
O O7 0.999321 0.123668 0.454652
O O8 0.000000 0.000000 0.502531
O O9 0.750000 0.809367 0.999860
O O10 0.001443 0.874444 0.973661
O O11 0.000018 0.748996 0.957690
O O12 0.500000 0.500000 0.435539
O O13 0.750000 0.432326 0.417939
O O14 0.520148 0.414048 0.307108
O O15 0.250000 0.812962 0.416342
O O16 0.250000 0.111564 0.740667
#
# Coordination Sequence:
#
# PCOD9379700 Si02
#       6
#     8   8   8   8   8   8
#     4  10  21  39  64  91 121 159 202 250 301 353
#     4  11  23  41  62  89 124 163 204 251 304 361
#     4  11  22  41  65  89 120 160 203 251 301 356
#     4  12  25  40  60  90 125 164 202 249 304 363
#     4  12  24  38  61  92 124 161 202 249 299 358
#     4  10  20  37  62  91 124 161 199 247 304 360
#
# _framework density 17.962441999999999
#
# number of rings (size 3 to 8) (size 9 to 14) (size 15 to 20)
#    0.000    1.000    3.333    4.500    0.000    4.000 
#    0.000    0.833    0.000    4.000    0.000    0.000 
#    0.000    0.000    0.000    0.000    0.000    0.000 
#
# Total GULP energy -134255.120004 kJ/mol
# GULP energy per Si atom -5593.963333 kJ/mol
# Density = 1.792156 g / cm^3
# Si number density = 17.962442 Si / 1000 Ang^3
#
#
#
# Elastic Constant Matrix: (Units=GPa)
#
#
# Indices 1 2 3 4 5 6 
#
# 1 104.8128 74.9505 73.0396 0.0000 0.0000 0.0000
# 2 74.9505 164.2953 70.4443 0.0000 0.0000 0.0000
# 3 73.0396 70.4443 102.9794 0.0000 0.0000 0.0000
# 4 0.0000 0.0000 0.0000 17.6802 0.0000 0.0000
# 5 0.0000 0.0000 0.0000 0.0000 147.9763 0.0000
# 6 0.0000 0.0000 0.0000 0.0000 0.0000 31.8751
#
#
#
# Elastic Compliance Matrix: (Units=1/GPa)
#
#
# Indices 1 2 3 4 5 6 
#
# 1 0.020995 -0.004518 -0.011800 0.000000 0.000000 0.000000
# 2 -0.004518 0.009585 -0.003352 0.000000 0.000000 0.000000
# 3 -0.011800 -0.003352 0.020373 0.000000 0.000000 0.000000
# 4 0.000000 0.000000 0.000000 0.056561 0.000000 0.000000
# 5 0.000000 0.000000 0.000000 0.000000 0.006758 0.000000
# 6 0.000000 0.000000 0.000000 0.000000 0.000000 0.031372
#
#
# Mechanical properties :
#
#
# Convention : Reuss Voigt Hill
#
# Bulk Modulus (GPa) = 86.11763 89.88404 88.00083
# Shear Modulus (GPa) = 26.47528 49.74986 38.11257
#
# Velocity S-wave (km/s) = 3.84334 5.26847 4.61129
# Velocity P-wave (km/s) = 8.23057 9.33582 8.80056
#
# Compressibility (1/GPa) = 0.01161202
#
# Stress axis : x y z
#
# Youngs Moduli (GPa) = 47.63110 104.32885 49.08415
#
# Poissons Ratio (x) = 0.47138 0.57920
# Poissons Ratio (y) = 0.21521 0.16454
# Poissons Ratio (z) = 0.56205 0.34973
#
# Static dielectric constant tensor:
#      x y z
#    x 1.589740 0.000000 0.000000 
#    y 0.000000 1.585820 0.000000 
#    z 0.000000 0.000000 1.596190 
# 
# From -- ./inp_files/13899.got.cif
#   From: 2010.05.17/outbox.cif.g08.bks.cpg/sg46_7_cif.got.tgz:13899.got - 2010.06.03 19:58:25.
