data_PCOD9379446
_publ_section_title
;
Structure prediction by ZEFSAII (Michael W. Deem and Ramdas Pophale) SiO2 
 PCOD9379446
Probable space group: I M A 2
;
_chemical_formula_sum "Si O2"
_cell_formula_units_Z 48
_cell_length_a 15.236484
_cell_length_b 18.602934
_cell_length_c 8.835847
_cell_angle_alpha 90.000000
_cell_angle_beta 90.000000
_cell_angle_gamma 90.000000
_cell_volume 2504.461687
_symmetry_space_group_name_H-M "I M A 2"
_symmetry_group_IT_number 46
_symmetry_cell_setting 'orthorhombic'
loop_
_space_group_symop_operation_xyz
x,y,z
-x,-y,z
1/2-x,y,z
1/2+x,-y,z
1/2+x,1/2+y,1/2+z
1/2-x,1/2-y,1/2+z
-x,1/2+y,1/2+z
x,1/2-y,1/2+z
loop_
_atom_site_type_symbol
_atom_site_label
_atom_site_fract_x
_atom_site_fract_y
_atom_site_fract_z
Si Si1 0.349532 0.546154 0.275210
Si Si2 0.400442 0.972703 0.119360
Si Si3 0.847785 0.614068 0.783923
Si Si4 0.020756 0.675351 0.285514
Si Si5 0.850958 0.888801 0.645148
Si Si6 0.025038 0.825352 0.147884
O O1 0.250000 0.567464 0.237367
O O2 0.355699 0.531739 0.455759
O O3 0.418298 0.608458 0.238135
O O4 0.369324 0.471109 0.193158
O O5 0.412482 0.893055 0.186817
O O6 0.500000 0.000000 0.090454
O O7 0.356965 0.031676 0.226754
O O8 0.750000 0.640056 0.742849
O O9 0.927548 0.656475 0.707869
O O10 0.857819 0.617904 0.964468
O O11 0.922802 0.660128 0.226064
O O12 0.053601 0.750189 0.217735
O O13 0.021681 0.678550 0.466708
O O14 0.750000 0.872823 0.689569
#
# Coordination Sequence:
#
# PCOD9379446 Si02
#       6
#     8   8   8   8   8   8
#     4  10  20  36  57  81 107 141 183 225 268 318
#     4   9  18  34  56  81 107 140 179 218 267 321
#     4  10  20  35  56  84 111 138 176 223 269 320
#     4  11  22  38  56  78 110 147 181 222 270 320
#     4  10  21  35  56  84 111 141 179 221 270 321
#     4  10  22  36  54  78 107 145 183 217 269 322
#
# _framework density 19.165794999999999
#
# number of rings (size 3 to 8) (size 9 to 14) (size 15 to 20)
#    0.000    2.000    0.000    5.000    0.000    8.000 
#    0.000    4.167    0.000    0.000    0.000    0.000 
#    0.000    0.000    0.000    0.000    0.000    0.000 
#
# Total GULP energy -134040.792934 kJ/mol
# GULP energy per Si atom -5585.033039 kJ/mol
# Density = 1.912217 g / cm^3
# Si number density = 19.165795 Si / 1000 Ang^3
#
#
#
# Elastic Constant Matrix: (Units=GPa)
#
#
# Indices 1 2 3 4 5 6 
#
# 1 34.1782 -1.4598 1.3211 0.0000 0.0000 0.0000
# 2 -1.4598 54.5844 1.7849 0.0000 0.0000 0.0000
# 3 1.3211 1.7849 26.7401 0.0000 0.0000 0.0000
# 4 0.0000 0.0000 0.0000 35.3117 0.0000 0.0000
# 5 0.0000 0.0000 0.0000 0.0000 24.0919 0.0000
# 6 0.0000 0.0000 0.0000 0.0000 0.0000 12.5455
#
#
#
# Elastic Compliance Matrix: (Units=1/GPa)
#
#
# Indices 1 2 3 4 5 6 
#
# 1 0.029352 0.000834 -0.001506 0.000000 0.000000 0.000000
# 2 0.000834 0.018384 -0.001268 0.000000 0.000000 0.000000
# 3 -0.001506 -0.001268 0.037556 0.000000 0.000000 0.000000
# 4 0.000000 0.000000 0.000000 0.028319 0.000000 0.000000
# 5 0.000000 0.000000 0.000000 0.000000 0.041508 0.000000
# 6 0.000000 0.000000 0.000000 0.000000 0.000000 0.079710
#
#
# Mechanical properties :
#
#
# Convention : Reuss Voigt Hill
#
# Bulk Modulus (GPa) = 12.28313 13.19945 12.74129
# Shear Modulus (GPa) = 18.80783 21.98024 20.39403
#
# Velocity S-wave (km/s) = 3.13601 3.39019 3.26557
# Velocity P-wave (km/s) = 4.41990 4.71449 4.56957
#
# Compressibility (1/GPa) = 0.08141249
#
# Stress axis : x y z
#
# Youngs Moduli (GPa) = 34.06892 54.39502 26.62685
#
# Poissons Ratio (x) = -0.04538 0.04010
# Poissons Ratio (y) = -0.02842 0.03377
# Poissons Ratio (z) = 0.05130 0.06899
#
# Static dielectric constant tensor:
#      x y z
#    x 1.663340 0.000000 0.000000 
#    y 0.000000 1.676640 0.000000 
#    z 0.000000 0.000000 1.631300 
# 
# From -- ./inp_files/5679.got.cif
#   From: 2010.05.17/outbox.cif.g08.bks.cpg/sg46_3_cif.got.tgz:5679.got - 2010.06.03 19:58:25.
