data_PCOD9379291
_publ_section_title
;
Structure prediction by ZEFSAII (Michael W. Deem and Ramdas Pophale) SiO2 
 PCOD9379291
Probable space group: I M A 2
;
_chemical_formula_sum "Si O2"
_cell_formula_units_Z 56
_cell_length_a 8.634439
_cell_length_b 13.999309
_cell_length_c 30.246503
_cell_angle_alpha 90.000000
_cell_angle_beta 90.000000
_cell_angle_gamma 90.000000
_cell_volume 3656.081729
_symmetry_space_group_name_H-M "I M A 2"
_symmetry_group_IT_number 46
_symmetry_cell_setting 'orthorhombic'
loop_
_space_group_symop_operation_xyz
x,y,z
-x,-y,z
1/2-x,y,z
1/2+x,-y,z
1/2+x,1/2+y,1/2+z
1/2-x,1/2-y,1/2+z
-x,1/2+y,1/2+z
x,1/2-y,1/2+z
loop_
_atom_site_type_symbol
_atom_site_label
_atom_site_fract_x
_atom_site_fract_y
_atom_site_fract_z
Si Si1 0.936680 0.392437 0.509720
Si Si2 0.937895 0.297202 0.600459
Si Si3 0.563644 0.211067 0.734801
Si Si4 0.064973 0.395332 0.687600
Si Si5 0.934694 0.891698 0.820575
Si Si6 0.436030 0.891801 0.912660
Si Si7 0.564356 0.396215 0.145595
O O1 0.750000 0.397963 0.510504
O O2 0.986575 0.331216 0.551957
O O3 0.979103 0.351968 0.461123
O O4 0.000000 0.500000 0.513903
O O5 0.750000 0.303172 0.603537
O O6 0.983387 0.188818 0.612531
O O7 0.007230 0.363953 0.638759
O O8 0.750000 0.214300 0.736582
O O9 0.500234 0.314435 0.720570
O O10 0.496647 0.171062 0.780209
O O11 0.518079 0.139674 0.694636
O O12 0.250000 0.395619 0.688683
O O13 0.000000 0.500000 0.697763
O O14 0.250000 0.103395 0.820062
O O15 0.992097 0.850921 0.867832
O O16 0.000000 0.000000 0.816167
O O17 0.250000 0.892886 0.908552
O O18 0.500000 0.000000 0.914020
O O19 0.500000 0.500000 0.135568
O O20 0.750000 0.400874 0.144937
#
# Coordination Sequence:
#
# PCOD9379291 Si02
#       7
#     8   8   8   8   8   8   8
#     4   9  17  28  44  64  89 118 150 185 225 270
#     4   9  18  32  46  65  91 121 154 189 227 269
#     4  10  20  34  49  67  90 119 153 190 228 269
#     4  11  21  33  48  68  93 122 153 187 224 268
#     4  11  20  30  45  67  94 124 153 186 226 273
#     4   9  16  27  42  62  87 117 149 184 225 272
#     4   9  18  30  45  63  88 117 147 183 222 261
#
# _framework density 15.316943
#
# number of rings (size 3 to 8) (size 9 to 14) (size 15 to 20)
#    0.000    2.286    0.000    6.000    0.000    6.286 
#    0.000    0.000    0.000    0.000    0.000    1.000 
#    0.000    4.571    0.000    0.000    0.000    0.000 
#
# Total GULP energy -156099.403641 kJ/mol
# GULP energy per Si atom -5574.978701 kJ/mol
# Density = 1.528208 g / cm^3
# Si number density = 15.316943 Si / 1000 Ang^3
#
#
#
# Elastic Constant Matrix: (Units=GPa)
#
#
# Indices 1 2 3 4 5 6 
#
# 1 66.5348 29.8662 45.8813 0.0000 0.0000 0.0000
# 2 29.8662 89.9293 65.3091 0.0000 0.0000 0.0000
# 3 45.8813 65.3091 162.3733 0.0000 0.0000 0.0000
# 4 0.0000 0.0000 0.0000 13.9354 0.0000 0.0000
# 5 0.0000 0.0000 0.0000 0.0000 23.1044 0.0000
# 6 0.0000 0.0000 0.0000 0.0000 0.0000 23.8069
#
#
#
# Elastic Compliance Matrix: (Units=1/GPa)
#
#
# Indices 1 2 3 4 5 6 
#
# 1 0.019408 -0.003479 -0.004085 0.000000 0.000000 0.000000
# 2 -0.003479 0.016332 -0.005586 0.000000 0.000000 0.000000
# 3 -0.004085 -0.005586 0.009560 0.000000 0.000000 0.000000
# 4 0.000000 0.000000 0.000000 0.071760 0.000000 0.000000
# 5 0.000000 0.000000 0.000000 0.000000 0.043282 0.000000
# 6 0.000000 0.000000 0.000000 0.000000 0.000000 0.042005
#
#
# Mechanical properties :
#
#
# Convention : Reuss Voigt Hill
#
# Bulk Modulus (GPa) = 52.63107 66.77229 59.70168
# Shear Modulus (GPa) = 21.27851 24.02138 22.64995
#
# Velocity S-wave (km/s) = 3.73126 3.96446 3.84963
# Velocity P-wave (km/s) = 7.28004 8.04017 7.66953
#
# Compressibility (1/GPa) = 0.01900018
#
# Stress axis : x y z
#
# Youngs Moduli (GPa) = 51.52454 61.22985 104.60709
#
# Poissons Ratio (x) = 0.21303 0.42729
# Poissons Ratio (y) = 0.17926 0.58432
# Poissons Ratio (z) = 0.21047 0.34202
#
# Static dielectric constant tensor:
#      x y z
#    x 1.512560 0.000000 0.000000 
#    y 0.000000 1.524700 0.000000 
#    z 0.000000 0.000000 1.534960 
# 
# From -- ./inp_files/25238.got.cif
#   From: 2010.05.17/outbox.cif.g08.bks.cpg/sg46_13_cif.got.tgz:25238.got - 2010.06.03 19:58:25.
