data_PCOD9379920
_publ_section_title
;
Structure prediction by ZEFSAII (Michael W. Deem and Ramdas Pophale) SiO2 
 PCOD9379920
Probable space group: I M A 2
;
_chemical_formula_sum "Si O2"
_cell_formula_units_Z 40
_cell_length_a 15.775072
_cell_length_b 14.970748
_cell_length_c 7.115757
_cell_angle_alpha 90.000000
_cell_angle_beta 90.000000
_cell_angle_gamma 90.000000
_cell_volume 1680.490102
_symmetry_space_group_name_H-M "I M A 2"
_symmetry_group_IT_number 46
_symmetry_cell_setting 'orthorhombic'
loop_
_space_group_symop_operation_xyz
x,y,z
-x,-y,z
1/2-x,y,z
1/2+x,-y,z
1/2+x,1/2+y,1/2+z
1/2-x,1/2-y,1/2+z
-x,1/2+y,1/2+z
x,1/2-y,1/2+z
loop_
_atom_site_type_symbol
_atom_site_label
_atom_site_fract_x
_atom_site_fract_y
_atom_site_fract_z
Si Si1 0.657793 0.050031 0.612260
Si Si2 0.342895 0.337247 0.740745
Si Si3 0.934070 0.340011 0.408893
Si Si4 0.532609 0.365307 0.839274
Si Si5 0.376432 0.367228 0.308675
O O1 0.750000 0.069598 0.528790
O O2 0.639443 0.116902 0.786402
O O3 0.583712 0.065136 0.462727
O O4 0.655748 0.951426 0.696804
O O5 0.250000 0.362190 0.817859
O O6 0.430009 0.365339 0.843320
O O7 0.349551 0.371152 0.527000
O O8 0.347980 0.229140 0.732797
O O9 0.940106 0.373577 0.621911
O O10 0.937133 0.232724 0.408899
O O11 0.021738 0.368343 0.309124
#
# Coordination Sequence:
#
# PCOD9379920 Si02
#       5
#     8   8   8   8   8
#     4  12  25  43  69 106 148 192 247 299 348 423
#     4  10  20  41  74 107 143 186 230 291 374 444
#     4  10  21  45  69  98 140 191 242 292 359 425
#     4  10  22  42  72 100 143 190 238 294 360 427
#     4  10  23  43  71 105 144 183 235 304 365 429
#
# _framework density 23.802582000000001
#
# number of rings (size 3 to 8) (size 9 to 14) (size 15 to 20)
#    0.000    1.600    2.000    2.400    2.800    1.600 
#    3.600    2.000    0.000    0.000    0.000    0.000 
#    0.000    0.000    0.000    0.000    0.000    0.000 
#
# Total GULP energy -112100.141884 kJ/mol
# GULP energy per Si atom -5605.007094 kJ/mol
# Density = 2.374841 g / cm^3
# Si number density = 23.802582 Si / 1000 Ang^3
#
#
#
# Elastic Constant Matrix: (Units=GPa)
#
#
# Indices 1 2 3 4 5 6 
#
# 1 170.3489 67.7352 60.3425 0.0000 0.0000 0.0000
# 2 67.7352 113.6641 53.1368 0.0000 0.0000 0.0000
# 3 60.3425 53.1368 113.7167 0.0000 0.0000 0.0000
# 4 0.0000 0.0000 0.0000 32.2782 0.0000 0.0000
# 5 0.0000 0.0000 0.0000 0.0000 19.2383 0.0000
# 6 0.0000 0.0000 0.0000 0.0000 0.0000 1324.8286
#
#
#
# Elastic Compliance Matrix: (Units=1/GPa)
#
#
# Indices 1 2 3 4 5 6 
#
# 1 0.008283 -0.003687 -0.002673 0.000000 0.000000 0.000000
# 2 -0.003687 0.012898 -0.004071 0.000000 0.000000 0.000000
# 3 -0.002673 -0.004071 0.012114 0.000000 0.000000 0.000000
# 4 0.000000 0.000000 0.000000 0.030981 0.000000 0.000000
# 5 0.000000 0.000000 0.000000 0.000000 0.051980 0.000000
# 6 0.000000 0.000000 0.000000 0.000000 0.000000 0.000755
#
#
# Mechanical properties :
#
#
# Convention : Reuss Voigt Hill
#
# Bulk Modulus (GPa) = 80.41657 84.46208 82.43932
# Shear Modulus (GPa) = 35.20775 289.70336 162.45555
#
# Velocity S-wave (km/s) = 3.85015 11.04423 8.27039
# Velocity P-wave (km/s) = 7.32278 14.07817 11.22092
#
# Compressibility (1/GPa) = 0.01243525
#
# Stress axis : x y z
#
# Youngs Moduli (GPa) = 120.73086 77.53323 82.54902
#
# Poissons Ratio (x) = 0.28583 0.22062
# Poissons Ratio (y) = 0.44508 0.33602
# Poissons Ratio (z) = 0.32266 0.31560
#
# Static dielectric constant tensor:
#      x y z
#    x 1.869830 0.000000 0.000000 
#    y 0.000000 1.876780 0.000000 
#    z 0.000000 0.000000 1.917380 
# 
# From -- ./inp_files/5405.got.cif
#   From: 2010.05.17/outbox.cif.g08.bks.cpg/sg46_3_cif.got.tgz:5405.got - 2010.06.03 19:58:25.
