data_PCOD9379139
_publ_section_title
;
Structure prediction by ZEFSAII (Michael W. Deem and Ramdas Pophale) SiO2 
 PCOD9379139
Probable space group: I M A 2
;
_chemical_formula_sum "Si O2"
_cell_formula_units_Z 24
_cell_length_a 15.534620
_cell_length_b 9.283031
_cell_length_c 8.501007
_cell_angle_alpha 90.000000
_cell_angle_beta 90.000000
_cell_angle_gamma 90.000000
_cell_volume 1225.916270
_symmetry_space_group_name_H-M "I M A 2"
_symmetry_group_IT_number 46
_symmetry_cell_setting 'orthorhombic'
loop_
_space_group_symop_operation_xyz
x,y,z
-x,-y,z
1/2-x,y,z
1/2+x,-y,z
1/2+x,1/2+y,1/2+z
1/2-x,1/2-y,1/2+z
-x,1/2+y,1/2+z
x,1/2-y,1/2+z
loop_
_atom_site_type_symbol
_atom_site_label
_atom_site_fract_x
_atom_site_fract_y
_atom_site_fract_z
Si Si1 0.750000 0.158972 0.430030
Si Si2 0.653190 0.686279 0.719094
Si Si3 0.250000 0.542210 0.574679
Si Si4 0.595808 0.955440 0.524350
O O1 0.750000 0.330272 0.451941
O O2 0.750000 0.119334 0.245856
O O3 0.665283 0.083917 0.505447
O O4 0.750000 0.802928 0.291135
O O5 0.668735 0.566651 0.581882
O O6 0.628231 0.836952 0.647053
O O7 0.593664 0.623165 0.853926
O O8 0.500000 0.000000 0.566981
#
# Coordination Sequence:
#
# PCOD9379139 Si02
#       4
#     4   8   4   8
#     4  10  19  38  52  90 116 156 197 254 286 352
#     4   9  19  41  60  83 119 168 191 245 311 359
#     4   8  19  32  62  76 116 158 191 238 304 348
#     4  11  22  37  64  88 119 159 209 248 298 367
#
# _framework density 19.577192
#
# number of rings (size 3 to 8) (size 9 to 14) (size 15 to 20)
#    1.000    1.333    3.333    0.000    0.000    8.000 
#    0.000    1.667    0.000    0.000    0.000    0.000 
#    0.000    0.000    0.000    0.000    0.000    0.000 
#
# Total GULP energy -66867.442810 kJ/mol
# GULP energy per Si atom -5572.286901 kJ/mol
# Density = 1.953263 g / cm^3
# Si number density = 19.577192 Si / 1000 Ang^3
#
#
#
# Elastic Constant Matrix: (Units=GPa)
#
#
# Indices 1 2 3 4 5 6 
#
# 1 68.0484 12.6830 -4.2039 0.0000 0.0000 0.0000
# 2 12.6830 40.1136 2.2155 0.0000 0.0000 0.0000
# 3 -4.2039 2.2155 7.6811 0.0000 0.0000 0.0000
# 4 0.0000 0.0000 0.0000 42.2441 0.0000 0.0000
# 5 0.0000 0.0000 0.0000 0.0000 20.9155 0.0000
# 6 0.0000 0.0000 0.0000 0.0000 0.0000 15.2459
#
#
#
# Elastic Compliance Matrix: (Units=1/GPa)
#
#
# Indices 1 2 3 4 5 6 
#
# 1 0.016432 -0.005784 0.010662 0.000000 0.000000 0.000000
# 2 -0.005784 0.027369 -0.011060 0.000000 0.000000 0.000000
# 3 0.010662 -0.011060 0.139215 0.000000 0.000000 0.000000
# 4 0.000000 0.000000 0.000000 0.023672 0.000000 0.000000
# 5 0.000000 0.000000 0.000000 0.000000 0.047811 0.000000
# 6 0.000000 0.000000 0.000000 0.000000 0.000000 0.065592
#
#
# Mechanical properties :
#
#
# Convention : Reuss Voigt Hill
#
# Bulk Modulus (GPa) = 5.85990 15.24803 10.55396
# Shear Modulus (GPa) = 12.84224 22.69099 17.76661
#
# Velocity S-wave (km/s) = 2.56399 3.40818 3.01577
# Velocity P-wave (km/s) = 3.43003 4.82630 4.18678
#
# Compressibility (1/GPa) = 0.17065141
#
# Stress axis : x y z
#
# Youngs Moduli (GPa) = 60.85615 36.53778 7.18312
#
# Poissons Ratio (x) = 0.21135 -0.07658
# Poissons Ratio (y) = 0.35201 0.07945
# Poissons Ratio (z) = -0.64884 0.40411
#
# Static dielectric constant tensor:
#      x y z
#    x 1.695630 0.000000 0.000000 
#    y 0.000000 1.716540 0.000000 
#    z 0.000000 0.000000 1.713640 
# 
# From -- ./inp_files/5120.got.cif
#   From: 2010.05.17/outbox.cif.g08.bks.cpg/sg46_3_cif.got.tgz:5120.got - 2010.06.03 19:58:25.
