data_PCOD9379690
_publ_section_title
;
Structure prediction by ZEFSAII (Michael W. Deem and Ramdas Pophale) SiO2 
 PCOD9379690
Probable space group: I M A 2
;
_chemical_formula_sum "Si O2"
_cell_formula_units_Z 64
_cell_length_a 8.736038
_cell_length_b 15.860041
_cell_length_c 24.319882
_cell_angle_alpha 90.000000
_cell_angle_beta 90.000000
_cell_angle_gamma 90.000000
_cell_volume 3369.615006
_symmetry_space_group_name_H-M "I M A 2"
_symmetry_group_IT_number 46
_symmetry_cell_setting 'orthorhombic'
loop_
_space_group_symop_operation_xyz
x,y,z
-x,-y,z
1/2-x,y,z
1/2+x,-y,z
1/2+x,1/2+y,1/2+z
1/2-x,1/2-y,1/2+z
-x,1/2+y,1/2+z
x,1/2-y,1/2+z
loop_
_atom_site_type_symbol
_atom_site_label
_atom_site_fract_x
_atom_site_fract_y
_atom_site_fract_z
Si Si1 0.934668 0.661464 0.126170
Si Si2 0.433131 0.090719 0.745186
Si Si3 0.435094 0.251600 0.436797
Si Si4 0.934273 0.410575 0.746709
Si Si5 0.566767 0.588581 0.511845
Si Si6 0.934115 0.589916 0.008430
Si Si7 0.066228 0.754841 0.814770
Si Si8 0.933591 0.150291 0.126145
O O1 0.750000 0.672939 0.124445
O O2 0.973906 0.612137 0.181807
O O3 0.981038 0.612717 0.070884
O O4 0.011594 0.752968 0.127012
O O5 0.250000 0.089312 0.749705
O O6 0.498907 0.165346 0.782485
O O7 0.500000 0.000000 0.760428
O O8 0.250000 0.251434 0.432017
O O9 0.477946 0.333038 0.473166
O O10 0.481313 0.167014 0.469314
O O11 0.508217 0.254656 0.376999
O O12 0.750000 0.414310 0.747893
O O13 0.982516 0.331329 0.783925
O O14 0.981797 0.391978 0.683699
O O15 0.000000 0.500000 0.765098
O O16 0.500000 0.500000 0.491774
O O17 0.750000 0.584498 0.513456
O O18 0.505370 0.606337 0.573044
O O19 0.750000 0.585827 0.007467
O O20 0.000000 0.500000 0.991769
O O21 0.250000 0.758938 0.812992
O O22 0.750000 0.146791 0.122523
#
# Coordination Sequence:
#
# PCOD9379690 Si02
#       8
#     8   8   8   8   8   8   8   8
#     4  10  20  37  61  90 124 162 197 240 300 360
#     4  11  23  39  64  93 124 162 202 245 303 363
#     4  10  23  43  63  84 119 161 203 251 303 358
#     4  10  23  40  60  89 122 158 198 246 298 355
#     4  11  23  41  63  90 124 157 199 247 300 362
#     4  10  21  39  61  89 123 158 197 244 297 354
#     4  11  24  43  63  87 121 157 206 258 302 356
#     4  11  21  36  61  92 125 159 198 243 299 360
#
# _framework density 18.993266999999999
#
# number of rings (size 3 to 8) (size 9 to 14) (size 15 to 20)
#    0.000    1.500    2.500    2.250    0.000    6.500 
#    0.000    3.750    0.000    0.000    0.000    0.000 
#    0.000    0.000    0.000    0.000    0.000    0.000 
#
# Total GULP energy -178895.247083 kJ/mol
# GULP energy per Si atom -5590.476471 kJ/mol
# Density = 1.895004 g / cm^3
# Si number density = 18.993267 Si / 1000 Ang^3
#
#
#
# Elastic Constant Matrix: (Units=GPa)
#
#
# Indices 1 2 3 4 5 6 
#
# 1 29.2719 48.0601 42.8275 0.0000 0.0000 0.0000
# 2 48.0601 200.1810 86.0748 0.0000 0.0000 0.0000
# 3 42.8275 86.0748 148.5727 0.0000 0.0000 0.0000
# 4 0.0000 0.0000 0.0000 -0.1629 0.0000 0.0000
# 5 0.0000 0.0000 0.0000 0.0000 11.7097 0.0000
# 6 0.0000 0.0000 0.0000 0.0000 0.0000 37.6738
#
#
#
# Elastic Compliance Matrix: (Units=1/GPa)
#
#
# Indices 1 2 3 4 5 6 
#
# 1 0.075014 -0.011602 -0.014902 0.000000 0.000000 0.000000
# 2 -0.011602 0.008447 -0.001549 0.000000 0.000000 0.000000
# 3 -0.014902 -0.001549 0.011924 0.000000 0.000000 0.000000
# 4 0.000000 0.000000 0.000000 -6.138502 0.000000 0.000000
# 5 0.000000 0.000000 0.000000 0.000000 0.085399 0.000000
# 6 0.000000 0.000000 0.000000 0.000000 0.000000 0.026544
#
#
# Mechanical properties :
#
#
# Convention : Reuss Voigt Hill
#
# Bulk Modulus (GPa) = 25.45923 81.32783 53.39353
# Shear Modulus (GPa) = -0.85295 23.24834 11.19769
#
# Velocity S-wave (km/s) = -0.67086 3.50241 2.43072
# Velocity P-wave (km/s) = 3.58237 7.69858 6.00423
#
# Compressibility (1/GPa) = 0.03927849
#
# Stress axis : x y z
#
# Youngs Moduli (GPa) = 13.33082 118.38291 83.86456
#
# Poissons Ratio (x) = 1.37348 1.24974
# Poissons Ratio (y) = 0.15466 0.12994
# Poissons Ratio (z) = 0.19866 0.18343
#
# Static dielectric constant tensor:
#      x y z
#    x 1.642070 0.000000 0.000000 
#    y 0.000000 1.639690 0.000000 
#    z 0.000000 0.000000 1.640940 
# 
# From -- ./inp_files/23139.got.cif
#   From: 2010.05.17/outbox.cif.g08.bks.cpg/sg46_12_cif.got.tgz:23139.got - 2010.06.03 19:58:25.
