data_PCOD9379499
_publ_section_title
;
Structure prediction by ZEFSAII (Michael W. Deem and Ramdas Pophale) SiO2 
 PCOD9379499
Probable space group: I M A 2
;
_chemical_formula_sum "Si O2"
_cell_formula_units_Z 64
_cell_length_a 15.162064
_cell_length_b 7.996971
_cell_length_c 24.817853
_cell_angle_alpha 90.000000
_cell_angle_beta 90.000000
_cell_angle_gamma 90.000000
_cell_volume 3009.179222
_symmetry_space_group_name_H-M "I M A 2"
_symmetry_group_IT_number 46
_symmetry_cell_setting 'orthorhombic'
loop_
_space_group_symop_operation_xyz
x,y,z
-x,-y,z
1/2-x,y,z
1/2+x,-y,z
1/2+x,1/2+y,1/2+z
1/2-x,1/2-y,1/2+z
-x,1/2+y,1/2+z
x,1/2-y,1/2+z
loop_
_atom_site_type_symbol
_atom_site_label
_atom_site_fract_x
_atom_site_fract_y
_atom_site_fract_z
Si Si1 0.153367 0.693212 0.830020
Si Si2 0.147620 0.202242 0.315552
Si Si3 0.034520 0.305144 0.213658
Si Si4 0.150911 0.217252 0.607621
Si Si5 0.652012 0.197459 0.215047
Si Si6 0.490150 0.304968 0.523313
Si Si7 0.489924 0.199994 0.902440
Si Si8 0.655443 0.322770 0.092296
O O1 0.250000 0.713434 0.855732
O O2 0.143758 0.499902 0.811395
O O3 0.154464 0.792882 0.773140
O O4 0.073516 0.734394 0.868701
O O5 0.250000 0.251673 0.314979
O O6 0.093502 0.281927 0.266542
O O7 0.098089 0.251848 0.370278
O O8 0.094282 0.264609 0.161836
O O9 0.000000 0.500000 0.209498
O O10 0.954085 0.171594 0.216017
O O11 0.250000 0.283067 0.614632
O O12 0.098639 0.290001 0.557504
O O13 0.154692 0.021767 0.593904
O O14 0.750000 0.106682 0.216735
O O15 0.654496 0.274745 0.155301
O O16 0.500000 0.500000 0.515151
O O17 0.488500 0.230260 0.463284
O O18 0.571128 0.238274 0.559343
O O19 0.500000 0.000000 0.902470
O O20 0.750000 0.263078 0.069480
#
# Coordination Sequence:
#
# PCOD9379499 Si02
#       8
#     8   8   8   8   8   8   8   8
#     4  10  23  43  65  93 127 165 207 256 314 371
#     4  11  25  41  62  94 128 165 207 256 311 371
#     4  12  21  37  63  95 132 166 205 249 305 366
#     4  11  23  41  65  94 127 166 209 255 305 367
#     4  10  20  35  61  93 126 159 199 246 302 363
#     4  11  25  43  63  89 124 162 209 262 319 372
#     4  11  25  44  64  89 119 164 212 263 316 370
#     4  10  21  40  65  93 124 162 208 253 302 368
#
# _framework density 21.268256999999998
#
# number of rings (size 3 to 8) (size 9 to 14) (size 15 to 20)
#    0.000    1.250    3.750    1.500    0.000    5.500 
#    0.000    6.250    0.000    0.000    0.000    0.000 
#    0.000    0.000    0.000    0.000    0.000    0.000 
#
# Total GULP energy -178348.654589 kJ/mol
# GULP energy per Si atom -5573.395456 kJ/mol
# Density = 2.121985 g / cm^3
# Si number density = 21.268257 Si / 1000 Ang^3
#
#
#
# Elastic Constant Matrix: (Units=GPa)
#
#
# Indices 1 2 3 4 5 6 
#
# 1 210.2060 31.0775 82.0159 0.0000 0.0000 0.0000
# 2 31.0775 27.2439 23.4090 0.0000 0.0000 0.0000
# 3 82.0159 23.4090 161.8906 0.0000 0.0000 0.0000
# 4 0.0000 0.0000 0.0000 35.9311 0.0000 0.0000
# 5 0.0000 0.0000 0.0000 0.0000 -50.3152 0.0000
# 6 0.0000 0.0000 0.0000 0.0000 0.0000 -25.2779
#
#
#
# Elastic Compliance Matrix: (Units=1/GPa)
#
#
# Indices 1 2 3 4 5 6 
#
# 1 0.006528 -0.005259 -0.002547 0.000000 0.000000 0.000000
# 2 -0.005259 0.046149 -0.004009 0.000000 0.000000 0.000000
# 3 -0.002547 -0.004009 0.008047 0.000000 0.000000 0.000000
# 4 0.000000 0.000000 0.000000 0.027831 0.000000 0.000000
# 5 0.000000 0.000000 0.000000 0.000000 -0.019875 0.000000
# 6 0.000000 0.000000 0.000000 0.000000 0.000000 -0.039560
#
#
# Mechanical properties :
#
#
# Convention : Reuss Voigt Hill
#
# Bulk Modulus (GPa) = 26.95774 74.70502 50.83138
# Shear Modulus (GPa) = 76.78811 9.59016 43.18914
#
# Velocity S-wave (km/s) = 6.01523 2.12578 4.51120
# Velocity P-wave (km/s) = 7.80683 6.42080 7.14749
#
# Compressibility (1/GPa) = 0.03709510
#
# Stress axis : x y z
#
# Youngs Moduli (GPa) = 153.17559 21.66910 124.26934
#
# Poissons Ratio (x) = 0.11395 0.31652
# Poissons Ratio (y) = 0.80549 0.49818
# Poissons Ratio (z) = 0.39014 0.08687
#
# Static dielectric constant tensor:
#      x y z
#    x 1.840320 0.000000 0.000000 
#    y 0.000000 1.751820 0.000000 
#    z 0.000000 0.000000 1.791000 
# 
# From -- ./inp_files/23638.got.cif
#   From: 2010.05.17/outbox.cif.g08.bks.cpg/sg46_12_cif.got.tgz:23638.got - 2010.06.03 19:58:25.
