data_PCOD9379000
_publ_section_title
;
Structure prediction by ZEFSAII (Michael W. Deem and Ramdas Pophale) SiO2 
 PCOD9379000
Probable space group: I M A 2
;
_chemical_formula_sum "Si O2"
_cell_formula_units_Z 40
_cell_length_a 8.557474
_cell_length_b 13.880832
_cell_length_c 19.047214
_cell_angle_alpha 90.000000
_cell_angle_beta 90.000000
_cell_angle_gamma 90.000000
_cell_volume 2262.520628
_symmetry_space_group_name_H-M "I M A 2"
_symmetry_group_IT_number 46
_symmetry_cell_setting 'orthorhombic'
loop_
_space_group_symop_operation_xyz
x,y,z
-x,-y,z
1/2-x,y,z
1/2+x,-y,z
1/2+x,1/2+y,1/2+z
1/2-x,1/2-y,1/2+z
-x,1/2+y,1/2+z
x,1/2-y,1/2+z
loop_
_atom_site_type_symbol
_atom_site_label
_atom_site_fract_x
_atom_site_fract_y
_atom_site_fract_z
Si Si1 0.563503 0.297162 0.491980
Si Si2 0.562225 0.894606 0.425597
Si Si3 0.560451 0.799367 0.279853
Si Si4 0.437664 0.395166 0.352132
Si Si5 0.438282 0.108806 0.133510
O O1 0.750000 0.299998 0.491595
O O2 0.504232 0.189668 0.474671
O O3 0.499873 0.363847 0.428641
O O4 0.499137 0.335376 0.565454
O O5 0.750000 0.892579 0.428755
O O6 0.513298 0.865705 0.345933
O O7 0.500000 0.000000 0.443084
O O8 0.750000 0.799915 0.278640
O O9 0.512460 0.690487 0.299328
O O10 0.506985 0.839864 0.205464
O O11 0.500000 0.500000 0.333009
O O12 0.250000 0.396580 0.354744
O O13 0.250000 0.107750 0.132535
O O14 0.500000 0.000000 0.132116
#
# Coordination Sequence:
#
# PCOD9379000 Si02
#       5
#     8   8   8   8   8
#     4  11  22  36  53  78 107 141 180 219 260 311
#     4  10  19  35  57  82 108 139 175 217 262 311
#     4   8  18  34  54  78 107 138 174 215 261 312
#     4  10  19  35  56  80 106 138 176 219 265 314
#     4  11  21  36  55  78 107 140 173 216 266 316
#
# _framework density 17.679397000000002
#
# number of rings (size 3 to 8) (size 9 to 14) (size 15 to 20)
#    0.000    2.000    0.000    6.000    0.000    0.000 
#    0.000   12.000    0.000    2.400    0.000    0.000 
#    0.000    0.000    0.000    0.000    0.000    0.000 
#
# Total GULP energy -111679.628292 kJ/mol
# GULP energy per Si atom -5583.981415 kJ/mol
# Density = 1.763916 g / cm^3
# Si number density = 17.679397 Si / 1000 Ang^3
#
#
#
# Elastic Constant Matrix: (Units=GPa)
#
#
# Indices 1 2 3 4 5 6 
#
# 1 88.8952 44.7605 40.2889 0.0000 0.0000 0.0000
# 2 44.7605 162.8050 90.0565 0.0000 0.0000 0.0000
# 3 40.2889 90.0565 150.0818 0.0000 0.0000 0.0000
# 4 0.0000 0.0000 0.0000 8.5728 0.0000 0.0000
# 5 0.0000 0.0000 0.0000 0.0000 15.4790 0.0000
# 6 0.0000 0.0000 0.0000 0.0000 0.0000 32.4505
#
#
#
# Elastic Compliance Matrix: (Units=1/GPa)
#
#
# Indices 1 2 3 4 5 6 
#
# 1 0.013480 -0.002551 -0.002088 0.000000 0.000000 0.000000
# 2 -0.002551 0.009677 -0.005122 0.000000 0.000000 0.000000
# 3 -0.002088 -0.005122 0.010297 0.000000 0.000000 0.000000
# 4 0.000000 0.000000 0.000000 0.116648 0.000000 0.000000
# 5 0.000000 0.000000 0.000000 0.000000 0.064604 0.000000
# 6 0.000000 0.000000 0.000000 0.000000 0.000000 0.030816
#
#
# Mechanical properties :
#
#
# Convention : Reuss Voigt Hill
#
# Bulk Modulus (GPa) = 71.77643 83.55489 77.66566
# Shear Modulus (GPa) = 18.54004 26.41221 22.47612
#
# Velocity S-wave (km/s) = 3.24185 3.86936 3.56942
# Velocity P-wave (km/s) = 7.39593 8.20527 7.81109
#
# Compressibility (1/GPa) = 0.01393215
#
# Stress axis : x y z
#
# Youngs Moduli (GPa) = 74.18388 103.33952 97.11775
#
# Poissons Ratio (x) = 0.26364 0.20276
# Poissons Ratio (y) = 0.18926 0.49741
# Poissons Ratio (z) = 0.15488 0.52928
#
# Static dielectric constant tensor:
#      x y z
#    x 1.598870 0.000000 0.000000 
#    y 0.000000 1.589480 0.000000 
#    z 0.000000 0.000000 1.584280 
# 
# From -- ./inp_files/13655.got.cif
#   From: 2010.05.17/outbox.cif.g08.bks.cpg/sg46_7_cif.got.tgz:13655.got - 2010.06.03 19:58:25.
