data_PCOD9379715
_publ_section_title
;
Structure prediction by ZEFSAII (Michael W. Deem and Ramdas Pophale) SiO2 
 PCOD9379715
Probable space group: I M A 2
;
_chemical_formula_sum "Si O2"
_cell_formula_units_Z 64
_cell_length_a 24.696586
_cell_length_b 23.029023
_cell_length_c 5.063658
_cell_angle_alpha 90.000000
_cell_angle_beta 90.000000
_cell_angle_gamma 90.000000
_cell_volume 2879.895974
_symmetry_space_group_name_H-M "I M A 2"
_symmetry_group_IT_number 46
_symmetry_cell_setting 'orthorhombic'
loop_
_space_group_symop_operation_xyz
x,y,z
-x,-y,z
1/2-x,y,z
1/2+x,-y,z
1/2+x,1/2+y,1/2+z
1/2-x,1/2-y,1/2+z
-x,1/2+y,1/2+z
x,1/2-y,1/2+z
loop_
_atom_site_type_symbol
_atom_site_label
_atom_site_fract_x
_atom_site_fract_y
_atom_site_fract_z
Si Si1 0.426942 0.217407 0.753440
Si Si2 0.690476 0.598493 0.804895
Si Si3 0.003691 0.380049 0.989423
Si Si4 0.928567 0.291872 0.695129
Si Si5 0.088035 0.021142 0.351928
Si Si6 0.055129 0.962690 0.852413
Si Si7 0.190712 0.321516 0.307022
Si Si8 0.309113 0.789791 0.281574
O O1 0.444016 0.266887 0.547455
O O2 0.451945 0.158640 0.642504
O O3 0.362083 0.215236 0.748494
O O4 0.750000 0.571871 0.763877
O O5 0.640881 0.555794 0.768252
O O6 0.685593 0.650687 0.595576
O O7 0.688784 0.626309 0.095144
O O8 0.970971 0.340743 0.783462
O O9 0.961999 0.403471 0.211023
O O10 0.037443 0.433305 0.860053
O O11 0.933690 0.239071 0.910412
O O12 0.867433 0.317846 0.725018
O O13 0.093585 0.995752 0.644821
O O14 0.077041 0.969451 0.145901
O O15 0.000000 0.000000 0.850151
O O16 0.250000 0.293212 0.280061
O O17 0.250000 0.819134 0.240357
O O18 0.309720 0.735341 0.077914
#
# Coordination Sequence:
#
# PCOD9379715 Si02
#       8
#     8   8   8   8   8   8   8   8
#     4  12  26  39  58  87 121 167 207 245 306 360
#     4  10  20  37  64  90 114 152 202 255 309 364
#     4  11  24  41  60  86 125 158 193 251 292 362
#     4  10  21  36  55  84 118 156 195 230 284 348
#     4  11  22  39  63  87 114 148 198 249 304 358
#     4  10  23  38  58  88 111 147 194 240 301 357
#     4  10  21  39  59  84 117 159 206 256 305 351
#     4   8  14  27  49  75 104 140 185 229 263 313
#
# _framework density 22.223023999999999
#
# number of rings (size 3 to 8) (size 9 to 14) (size 15 to 20)
#    0.000    1.750    1.250    3.375    1.750    4.500 
#    0.000    0.000    0.000    1.500    0.000    1.750 
#    0.000    0.000    0.000    0.000    0.000    0.250 
#
# Total GULP energy -178889.634698 kJ/mol
# GULP energy per Si atom -5590.301084 kJ/mol
# Density = 2.217244 g / cm^3
# Si number density = 22.223024 Si / 1000 Ang^3
#
#
#
# Elastic Constant Matrix: (Units=GPa)
#
#
# Indices 1 2 3 4 5 6 
#
# 1 121.8972 30.1744 15.7826 0.0000 0.0000 0.0000
# 2 30.1744 59.4399 22.2072 0.0000 0.0000 0.0000
# 3 15.7826 22.2072 72.2135 0.0000 0.0000 0.0000
# 4 0.0000 0.0000 0.0000 26.9090 0.0000 0.0000
# 5 0.0000 0.0000 0.0000 0.0000 24.2583 0.0000
# 6 0.0000 0.0000 0.0000 0.0000 0.0000 27.7868
#
#
#
# Elastic Compliance Matrix: (Units=1/GPa)
#
#
# Indices 1 2 3 4 5 6 
#
# 1 0.009411 -0.004529 -0.000664 0.000000 0.000000 0.000000
# 2 -0.004529 0.021187 -0.005526 0.000000 0.000000 0.000000
# 3 -0.000664 -0.005526 0.015692 0.000000 0.000000 0.000000
# 4 0.000000 0.000000 0.000000 0.037162 0.000000 0.000000
# 5 0.000000 0.000000 0.000000 0.000000 0.041223 0.000000
# 6 0.000000 0.000000 0.000000 0.000000 0.000000 0.035988
#
#
# Mechanical properties :
#
#
# Convention : Reuss Voigt Hill
#
# Bulk Modulus (GPa) = 40.23721 43.31987 41.77854
# Shear Modulus (GPa) = 26.26244 28.14992 27.20618
#
# Velocity S-wave (km/s) = 3.44141 3.56293 3.50270
# Velocity P-wave (km/s) = 5.82550 6.03834 5.93288
#
# Compressibility (1/GPa) = 0.02485262
#
# Stress axis : x y z
#
# Youngs Moduli (GPa) = 106.26114 47.19778 63.72598
#
# Poissons Ratio (x) = 0.21377 0.04231
# Poissons Ratio (y) = 0.48129 0.35213
# Poissons Ratio (z) = 0.07055 0.26080
#
# Static dielectric constant tensor:
#      x y z
#    x 1.869430 0.000000 0.000000 
#    y 0.000000 1.815620 0.000000 
#    z 0.000000 0.000000 1.818980 
# 
# From -- ./inp_files/2617.got.cif
#   From: 2010.05.17/outbox.cif.g08.bks.cpg/sg46_2_cif.got.tgz:2617.got - 2010.06.03 19:58:25.
