data_PCOD9379809
_publ_section_title
;
Structure prediction by ZEFSAII (Michael W. Deem and Ramdas Pophale) SiO2 
 PCOD9379809
Probable space group: I M A 2
;
_chemical_formula_sum "Si O2"
_cell_formula_units_Z 48
_cell_length_a 21.528065
_cell_length_b 12.253003
_cell_length_c 7.277751
_cell_angle_alpha 90.000000
_cell_angle_beta 90.000000
_cell_angle_gamma 90.000000
_cell_volume 1919.750231
_symmetry_space_group_name_H-M "I M A 2"
_symmetry_group_IT_number 46
_symmetry_cell_setting 'orthorhombic'
loop_
_space_group_symop_operation_xyz
x,y,z
-x,-y,z
1/2-x,y,z
1/2+x,-y,z
1/2+x,1/2+y,1/2+z
1/2-x,1/2-y,1/2+z
-x,1/2+y,1/2+z
x,1/2-y,1/2+z
loop_
_atom_site_type_symbol
_atom_site_label
_atom_site_fract_x
_atom_site_fract_y
_atom_site_fract_z
Si Si1 0.178659 0.544284 0.489920
Si Si2 0.078118 0.697584 0.497007
Si Si3 0.682027 0.621074 0.947099
Si Si4 0.864745 0.665762 0.328250
Si Si5 0.820538 0.119349 0.555768
Si Si6 0.001278 0.120937 0.668181
O O1 0.250000 0.559198 0.552611
O O2 0.123287 0.608686 0.592090
O O3 0.160029 0.416901 0.483007
O O4 0.176757 0.590253 0.275831
O O5 0.128982 0.794670 0.487906
O O6 0.018437 0.768631 0.561805
O O7 0.049567 0.628180 0.330336
O O8 0.750000 0.641176 0.866695
O O9 0.682836 0.649375 0.162593
O O10 0.669075 0.493552 0.948443
O O11 0.633246 0.707250 0.873610
O O12 0.931145 0.629704 0.254879
O O13 0.750000 0.158063 0.520755
O O14 0.000000 0.000000 0.576572
#
# Coordination Sequence:
#
# PCOD9379809 Si02
#       6
#     8   8   8   8   8   8
#     4  10  20  39  69  97 129 170 219 278 340 400
#     4  12  22  43  67  94 129 176 224 271 334 402
#     4  10  20  38  65  94 127 168 218 272 330 393
#     4  11  21  41  62  94 128 176 219 267 333 392
#     4   9  19  38  64  95 129 167 216 275 339 395
#     4  12  25  44  66  95 138 179 225 273 329 414
#
# _framework density 25.003253999999998
#
# number of rings (size 3 to 8) (size 9 to 14) (size 15 to 20)
#    0.000    1.333    3.333    5.000    0.000    0.000 
#    3.000    0.833    0.000    0.000    0.000    0.000 
#    0.000    0.000    0.000    0.000    0.000    0.000 
#
# Total GULP energy -133909.618559 kJ/mol
# GULP energy per Si atom -5579.567440 kJ/mol
# Density = 2.494635 g / cm^3
# Si number density = 25.003254 Si / 1000 Ang^3
#
#
#
# Elastic Constant Matrix: (Units=GPa)
#
#
# Indices 1 2 3 4 5 6 
#
# 1 115.1788 23.7524 -2.8076 0.0000 0.0000 0.0000
# 2 23.7524 103.1445 21.9432 0.0000 0.0000 0.0000
# 3 -2.8076 21.9432 35.1037 0.0000 0.0000 0.0000
# 4 0.0000 0.0000 0.0000 25.3077 0.0000 0.0000
# 5 0.0000 0.0000 0.0000 0.0000 1.7612 0.0000
# 6 0.0000 0.0000 0.0000 0.0000 0.0000 19.6552
#
#
#
# Elastic Compliance Matrix: (Units=1/GPa)
#
#
# Indices 1 2 3 4 5 6 
#
# 1 0.009287 -0.002649 0.002399 0.000000 0.000000 0.000000
# 2 -0.002649 0.011938 -0.007674 0.000000 0.000000 0.000000
# 3 0.002399 -0.007674 0.033476 0.000000 0.000000 0.000000
# 4 0.000000 0.000000 0.000000 0.039514 0.000000 0.000000
# 5 0.000000 0.000000 0.000000 0.000000 0.567781 0.000000
# 6 0.000000 0.000000 0.000000 0.000000 0.000000 0.050877
#
#
# Mechanical properties :
#
#
# Convention : Reuss Voigt Hill
#
# Bulk Modulus (GPa) = 25.73890 37.68923 31.71407
# Shear Modulus (GPa) = 6.74153 23.38078 15.06116
#
# Velocity S-wave (km/s) = 1.64381 3.06127 2.45698
# Velocity P-wave (km/s) = 3.73087 5.25373 4.55637
#
# Compressibility (1/GPa) = 0.03885170
#
# Stress axis : x y z
#
# Youngs Moduli (GPa) = 107.67882 83.76802 29.87226
#
# Poissons Ratio (x) = 0.22189 -0.07165
# Poissons Ratio (y) = 0.28523 0.22924
# Poissons Ratio (z) = -0.25828 0.64284
#
# Static dielectric constant tensor:
#      x y z
#    x 1.957030 0.000000 0.000000 
#    y 0.000000 2.033660 0.000000 
#    z 0.000000 0.000000 2.122770 
# 
# From -- ./inp_files/7828.got.cif
#   From: 2010.05.17/outbox.cif.g08.bks.cpg/sg46_4_cif.got.tgz:7828.got - 2010.06.03 19:58:25.
