data_PCOD9379502
_publ_section_title
;
Structure prediction by ZEFSAII (Michael W. Deem and Ramdas Pophale) SiO2 
 PCOD9379502
Probable space group: I M A 2
;
_chemical_formula_sum "Si O2"
_cell_formula_units_Z 56
_cell_length_a 10.480417
_cell_length_b 23.078673
_cell_length_c 11.270030
_cell_angle_alpha 90.000000
_cell_angle_beta 90.000000
_cell_angle_gamma 90.000000
_cell_volume 2725.928553
_symmetry_space_group_name_H-M "I M A 2"
_symmetry_group_IT_number 46
_symmetry_cell_setting 'orthorhombic'
loop_
_space_group_symop_operation_xyz
x,y,z
-x,-y,z
1/2-x,y,z
1/2+x,-y,z
1/2+x,1/2+y,1/2+z
1/2-x,1/2-y,1/2+z
-x,1/2+y,1/2+z
x,1/2-y,1/2+z
loop_
_atom_site_type_symbol
_atom_site_label
_atom_site_fract_x
_atom_site_fract_y
_atom_site_fract_z
Si Si1 0.021246 0.354905 0.673510
Si Si2 0.098064 0.053104 0.340859
Si Si3 0.893556 0.765256 0.704231
Si Si4 0.750000 0.286630 0.405514
Si Si5 0.602514 0.549586 0.253611
Si Si6 0.750000 0.306199 0.682208
Si Si7 0.021814 0.152298 0.903685
Si Si8 0.897496 0.858728 0.537618
O O1 0.869755 0.349485 0.681670
O O2 0.059435 0.341397 0.539176
O O3 0.081531 0.414338 0.716035
O O4 0.060273 0.297087 0.743296
O O5 0.250000 0.040042 0.362936
O O6 0.049838 0.104295 0.429249
O O7 0.000000 0.000000 0.351319
O O8 0.750000 0.757320 0.665688
O O9 0.958742 0.800780 0.594845
O O10 0.899319 0.806948 0.816466
O O11 0.750000 0.273526 0.550770
O O12 0.750000 0.236864 0.299380
O O13 0.623392 0.325496 0.387593
O O14 0.500000 0.500000 0.227584
O O15 0.750000 0.530320 0.271470
O O16 0.549092 0.586961 0.363218
O O17 0.604321 0.594821 0.144637
O O18 0.750000 0.846177 0.504736
#
# Coordination Sequence:
#
# PCOD9379502 Si02
#       8
#     8   8   8   4   8   4   8   8
#     4  11  24  40  62  90 127 164 210 258 322 386
#     4  11  25  43  66  92 128 174 222 265 314 384
#     4  10  20  35  62  92 123 161 201 261 324 385
#     4  10  20  40  64  90 130 168 210 257 319 400
#     4  10  21  38  62  88 121 160 208 263 315 373
#     4  10  22  40  64  92 128 168 210 263 323 388
#     4  10  22  39  59  87 125 158 201 259 315 384
#     4   8  18  38  61  91 126 159 206 263 320 375
#
# _framework density 20.54346
#
# number of rings (size 3 to 8) (size 9 to 14) (size 15 to 20)
#    0.000    2.000    1.429    2.143    4.000    2.857 
#    0.000    0.000    3.143    0.000    0.000    0.000 
#    0.000    0.000    0.000    0.000    0.000    0.000 
#
# Total GULP energy -155893.592929 kJ/mol
# GULP energy per Si atom -5567.628319 kJ/mol
# Density = 2.049670 g / cm^3
# Si number density = 20.543460 Si / 1000 Ang^3
#
#
#
# Elastic Constant Matrix: (Units=GPa)
#
#
# Indices 1 2 3 4 5 6 
#
# 1 86.9262 30.0804 4.6263 0.0000 0.0000 0.0000
# 2 30.0804 57.0954 16.9278 -0.0001 0.0000 0.0000
# 3 4.6263 16.9278 58.9078 -0.0005 0.0005 0.0000
# 4 0.0000 -0.0001 -0.0005 23.1467 0.0001 0.0000
# 5 0.0000 0.0000 0.0005 0.0001 20.4631 -0.0001
# 6 0.0000 0.0000 0.0000 0.0000 -0.0001 22.3170
#
#
#
# Elastic Compliance Matrix: (Units=1/GPa)
#
#
# Indices 1 2 3 4 5 6 
#
# 1 0.014137 -0.007782 0.001126 0.000000 0.000000 0.000000
# 2 -0.007782 0.023429 -0.006122 0.000000 0.000000 0.000000
# 3 0.001126 -0.006122 0.018646 0.000000 0.000000 0.000000
# 4 0.000000 0.000000 0.000000 0.043203 0.000000 0.000000
# 5 0.000000 0.000000 0.000000 0.000000 0.048868 0.000000
# 6 0.000000 0.000000 0.000000 0.000000 0.000000 0.044809
#
#
# Mechanical properties :
#
#
# Convention : Reuss Voigt Hill
#
# Bulk Modulus (GPa) = 32.61811 34.02205 33.32008
# Shear Modulus (GPa) = 21.84680 23.27170 22.55925
#
# Velocity S-wave (km/s) = 3.26459 3.36937 3.31739
# Velocity P-wave (km/s) = 5.48836 5.63328 5.56129
#
# Compressibility (1/GPa) = 0.03065782
#
# Stress axis : x y z
#
# Youngs Moduli (GPa) = 70.73661 42.68165 53.62979
#
# Poissons Ratio (x) = 0.33214 -0.06038
# Poissons Ratio (y) = 0.55046 0.32830
# Poissons Ratio (z) = -0.07965 0.26128
#
# Static dielectric constant tensor:
#      x y z
#    x 1.811810 0.000000 0.000000 
#    y 0.000000 1.741680 0.000000 
#    z 0.000000 0.000000 1.854250 
# 
# From -- ./inp_files/10411.got.cif
#   From: 2010.05.17/outbox.cif.g08.bks.cpg/sg46_6_cif.got.tgz:10411.got - 2010.06.03 19:58:25.
