data_PCOD9379684
_publ_section_title
;
Structure prediction by ZEFSAII (Michael W. Deem and Ramdas Pophale) SiO2 
 PCOD9379684
Probable space group: I M A 2
;
_chemical_formula_sum "Si O2"
_cell_formula_units_Z 48
_cell_length_a 18.022509
_cell_length_b 11.380626
_cell_length_c 12.340285
_cell_angle_alpha 90.000000
_cell_angle_beta 90.000000
_cell_angle_gamma 90.000000
_cell_volume 2531.084197
_symmetry_space_group_name_H-M "I M A 2"
_symmetry_group_IT_number 46
_symmetry_cell_setting 'orthorhombic'
loop_
_space_group_symop_operation_xyz
x,y,z
-x,-y,z
1/2-x,y,z
1/2+x,-y,z
1/2+x,1/2+y,1/2+z
1/2-x,1/2-y,1/2+z
-x,1/2+y,1/2+z
x,1/2-y,1/2+z
loop_
_atom_site_type_symbol
_atom_site_label
_atom_site_fract_x
_atom_site_fract_y
_atom_site_fract_z
Si Si1 0.335677 0.029579 0.397660
Si Si2 0.336184 0.616469 0.107816
Si Si3 0.436037 0.240727 0.878764
Si Si4 0.551723 0.105923 0.267639
Si Si5 0.912951 0.012583 0.818143
Si Si6 0.437309 0.830299 0.027180
O O1 0.250000 0.044227 0.368054
O O2 0.380671 0.150034 0.383076
O O3 0.340905 0.989740 0.522269
O O4 0.371756 0.923154 0.327498
O O5 0.250000 0.651792 0.117573
O O6 0.368110 0.574422 0.222693
O O7 0.384974 0.720532 0.055826
O O8 0.505693 0.278599 0.801225
O O9 0.393838 0.123505 0.841477
O O10 0.480850 0.213093 0.989801
O O11 0.559606 0.100463 0.139544
O O12 0.500000 0.000000 0.307069
O O13 0.090722 0.912035 0.928944
O O14 0.000000 0.000000 0.787949
#
# Coordination Sequence:
#
# PCOD9379684 Si02
#       6
#     8   8   8   8   8   8
#     4  10  23  41  60  89 123 166 209 249 313 370
#     4  11  25  40  60  88 126 166 205 253 305 375
#     4  10  21  38  65  93 121 162 200 266 309 370
#     4  10  20  37  61  89 121 155 202 256 303 363
#     4  10  23  40  63  97 123 159 209 259 311 364
#     4  11  21  39  63  94 121 159 204 257 312 362
#
# _framework density 18.964205
#
# number of rings (size 3 to 8) (size 9 to 14) (size 15 to 20)
#    0.000    1.667    1.667    3.500    4.667    2.000 
#    0.000    0.000    0.000    0.000    0.000    0.000 
#    0.000    0.000    0.000    0.000    0.000    0.000 
#
# Total GULP energy -133844.843629 kJ/mol
# GULP energy per Si atom -5576.868485 kJ/mol
# Density = 1.892104 g / cm^3
# Si number density = 18.964205 Si / 1000 Ang^3
#
#
#
# Elastic Constant Matrix: (Units=GPa)
#
#
# Indices 1 2 3 4 5 6 
#
# 1 93.7041 46.5727 47.9906 0.0000 0.0000 0.0000
# 2 46.5727 116.1281 29.2402 0.0000 0.0000 0.0000
# 3 47.9906 29.2402 107.2583 0.0000 0.0000 0.0000
# 4 0.0000 0.0000 0.0000 27.6424 0.0000 0.0000
# 5 0.0000 0.0000 0.0000 0.0000 19.8402 0.0000
# 6 0.0000 0.0000 0.0000 0.0000 0.0000 15.6665
#
#
#
# Elastic Compliance Matrix: (Units=1/GPa)
#
#
# Indices 1 2 3 4 5 6 
#
# 1 0.016165 -0.005005 -0.005868 0.000000 0.000000 0.000000
# 2 -0.005005 0.010796 -0.000704 0.000000 0.000000 0.000000
# 3 -0.005868 -0.000704 0.012141 0.000000 0.000000 0.000000
# 4 0.000000 0.000000 0.000000 0.036176 0.000000 0.000000
# 5 0.000000 0.000000 0.000000 0.000000 0.050403 0.000000
# 6 0.000000 0.000000 0.000000 0.000000 0.000000 0.063830
#
#
# Mechanical properties :
#
#
# Convention : Reuss Voigt Hill
#
# Bulk Modulus (GPa) = 62.70661 62.74419 62.72540
# Shear Modulus (GPa) = 22.93782 25.51563 24.22672
#
# Velocity S-wave (km/s) = 3.48161 3.67203 3.57809
# Velocity P-wave (km/s) = 7.02137 7.15093 7.08645
#
# Compressibility (1/GPa) = 0.01594728
#
# Stress axis : x y z
#
# Youngs Moduli (GPa) = 61.86185 92.62951 82.36765
#
# Poissons Ratio (x) = 0.46364 0.48335
# Poissons Ratio (y) = 0.30964 0.05795
# Poissons Ratio (z) = 0.36302 0.06517
#
# Static dielectric constant tensor:
#      x y z
#    x 1.657850 0.000000 0.000000 
#    y 0.000000 1.713920 0.000000 
#    z 0.000000 0.000000 1.649240 
# 
# From -- ./inp_files/11090.got.cif
#   From: 2010.05.17/outbox.cif.g08.bks.cpg/sg46_6_cif.got.tgz:11090.got - 2010.06.03 19:58:25.
