data_PCOD9379164
_publ_section_title
;
Structure prediction by ZEFSAII (Michael W. Deem and Ramdas Pophale) SiO2 
 PCOD9379164
Probable space group: I M A 2
;
_chemical_formula_sum "Si O2"
_cell_formula_units_Z 64
_cell_length_a 25.415333
_cell_length_b 7.854319
_cell_length_c 13.736260
_cell_angle_alpha 90.000000
_cell_angle_beta 90.000000
_cell_angle_gamma 90.000000
_cell_volume 2742.034046
_symmetry_space_group_name_H-M "I M A 2"
_symmetry_group_IT_number 46
_symmetry_cell_setting 'orthorhombic'
loop_
_space_group_symop_operation_xyz
x,y,z
-x,-y,z
1/2-x,y,z
1/2+x,-y,z
1/2+x,1/2+y,1/2+z
1/2-x,1/2-y,1/2+z
-x,1/2+y,1/2+z
x,1/2-y,1/2+z
loop_
_atom_site_type_symbol
_atom_site_label
_atom_site_fract_x
_atom_site_fract_y
_atom_site_fract_z
Si Si1 0.939497 0.983622 0.362410
Si Si2 0.551732 0.588659 0.421046
Si Si3 0.424146 0.898010 0.569805
Si Si4 0.190829 0.661772 0.152970
Si Si5 0.306575 0.457776 0.566982
Si Si6 0.123393 0.334744 0.729477
Si Si7 0.973951 0.762222 0.118951
Si Si8 0.660034 0.988018 0.845839
O O1 0.936372 0.787589 0.400672
O O2 0.887672 0.001758 0.294467
O O3 0.932202 0.111909 0.453690
O O4 0.000000 0.000000 0.329294
O O5 0.500000 0.500000 0.378467
O O6 0.543035 0.603112 0.536807
O O7 0.600026 0.482674 0.379015
O O8 0.363506 0.902392 0.602408
O O9 0.462943 0.761053 0.621497
O O10 0.450508 0.077916 0.593225
O O11 0.250000 0.594087 0.126802
O O12 0.191934 0.857356 0.117926
O O13 0.182862 0.619850 0.267603
O O14 0.250000 0.378256 0.588226
O O15 0.350761 0.355462 0.624570
O O16 0.312487 0.472879 0.450839
O O17 0.061401 0.297469 0.712131
O O18 0.155814 0.191762 0.787184
#
# Coordination Sequence:
#
# PCOD9379164 Si02
#       8
#     8   8   8   8   8   8   8   8
#     4  10  21  39  60  95 137 176 223 277 344 420
#     4  10  21  35  62  98 135 173 224 274 343 419
#     4  10  20  40  70  93 139 184 219 289 341 405
#     4  11  26  46  71 101 132 184 243 283 343 414
#     4  11  27  48  67  99 142 179 233 303 344 406
#     4  11  24  42  68 102 139 173 232 284 350 426
#     4  10  19  39  64  98 138 172 220 278 347 420
#     4  11  24  45  73  97 137 185 234 291 344 418
#
# _framework density 23.340336000000001
#
# number of rings (size 3 to 8) (size 9 to 14) (size 15 to 20)
#    0.000    1.500    5.000    0.375    1.750    6.500 
#    0.000    1.875    0.000    0.000    0.000    0.000 
#    0.000    0.000    0.000    0.000    0.000    0.000 
#
# Total GULP energy -178261.466657 kJ/mol
# GULP energy per Si atom -5570.670833 kJ/mol
# Density = 2.328721 g / cm^3
# Si number density = 23.340336 Si / 1000 Ang^3
#
#
#
# Elastic Constant Matrix: (Units=GPa)
#
#
# Indices 1 2 3 4 5 6 
#
# 1 177.5728 25.4653 44.5801 0.0000 0.0000 0.0000
# 2 25.4653 52.0953 27.5083 0.0000 0.0000 0.0000
# 3 44.5801 27.5083 125.5886 0.0000 0.0000 0.0000
# 4 0.0000 0.0000 0.0000 19.2876 0.0000 0.0000
# 5 0.0000 0.0000 0.0000 0.0000 38.1908 0.0000
# 6 0.0000 0.0000 0.0000 0.0000 0.0000 12.0239
#
#
#
# Elastic Compliance Matrix: (Units=1/GPa)
#
#
# Indices 1 2 3 4 5 6 
#
# 1 0.006394 -0.002179 -0.001792 0.000000 0.000000 0.000000
# 2 -0.002179 0.022449 -0.004144 0.000000 0.000000 0.000000
# 3 -0.001792 -0.004144 0.009506 0.000000 0.000000 0.000000
# 4 0.000000 0.000000 0.000000 0.051847 0.000000 0.000000
# 5 0.000000 0.000000 0.000000 0.000000 0.026184 0.000000
# 6 0.000000 0.000000 0.000000 0.000000 0.000000 0.083168
#
#
# Mechanical properties :
#
#
# Convention : Reuss Voigt Hill
#
# Bulk Modulus (GPa) = 45.20995 61.15155 53.18075
# Shear Modulus (GPa) = 22.40635 31.08064 26.74350
#
# Velocity S-wave (km/s) = 3.10172 3.65311 3.38865
# Velocity P-wave (km/s) = 5.67798 6.63705 6.17616
#
# Compressibility (1/GPa) = 0.02211903
#
# Stress axis : x y z
#
# Youngs Moduli (GPa) = 156.39740 44.54603 105.19313
#
# Poissons Ratio (x) = 0.09707 0.18855
# Poissons Ratio (y) = 0.34080 0.43587
# Poissons Ratio (z) = 0.28032 0.18458
#
# Static dielectric constant tensor:
#      x y z
#    x 1.872240 0.000000 0.000000 
#    y 0.000000 2.042140 0.000000 
#    z 0.000000 0.000000 2.078510 
# 
# From -- ./inp_files/17418.got.cif
#   From: 2010.05.17/outbox.cif.g08.bks.cpg/sg46_9_cif.got.tgz:17418.got - 2010.06.03 19:58:25.
