data_PCOD9379865
_publ_section_title
;
Structure prediction by ZEFSAII (Michael W. Deem and Ramdas Pophale) SiO2 
 PCOD9379865
Probable space group: I M A 2
;
_chemical_formula_sum "Si O2"
_cell_formula_units_Z 60
_cell_length_a 24.109754
_cell_length_b 6.606543
_cell_length_c 15.584970
_cell_angle_alpha 90.000000
_cell_angle_beta 90.000000
_cell_angle_gamma 90.000000
_cell_volume 2482.407163
_symmetry_space_group_name_H-M "I M A 2"
_symmetry_group_IT_number 46
_symmetry_cell_setting 'orthorhombic'
loop_
_space_group_symop_operation_xyz
x,y,z
-x,-y,z
1/2-x,y,z
1/2+x,-y,z
1/2+x,1/2+y,1/2+z
1/2-x,1/2-y,1/2+z
-x,1/2+y,1/2+z
x,1/2-y,1/2+z
loop_
_atom_site_type_symbol
_atom_site_label
_atom_site_fract_x
_atom_site_fract_y
_atom_site_fract_z
Si Si1 0.366757 0.597685 0.410810
Si Si2 0.685790 0.024980 0.492191
Si Si3 0.311017 0.184492 0.799810
Si Si4 0.190212 0.807309 0.677996
Si Si5 0.101859 0.474156 0.730534
Si Si6 0.590694 0.707102 0.543776
Si Si7 0.451398 0.649252 0.258770
Si Si8 0.500000 0.000000 0.588092
O O1 0.343582 0.821599 0.426247
O O2 0.316242 0.450694 0.384905
O O3 0.401300 0.496621 0.488114
O O4 0.403437 0.591250 0.325054
O O5 0.750000 0.968570 0.471120
O O6 0.689628 0.161911 0.577230
O O7 0.643583 0.845578 0.517836
O O8 0.250000 0.279537 0.794091
O O9 0.363098 0.333898 0.794115
O O10 0.314978 0.028364 0.720240
O O11 0.250000 0.728198 0.706567
O O12 0.144115 0.650125 0.703006
O O13 0.088849 0.348592 0.644812
O O14 0.050800 0.607349 0.764237
O O15 0.534567 0.838746 0.532652
O O16 0.500000 0.500000 0.289393
O O17 0.455625 0.601179 0.155571
#
# Coordination Sequence:
#
# PCOD9379865 Si02
#       8
#     8   8   8   8   8   8   8   4
#     4  12  26  47  69 109 157 197 245 318 390 462
#     4  11  25  46  72 110 161 202 242 312 387 467
#     4  11  24  42  69 107 150 200 255 304 372 467
#     4  10  20  39  69 100 141 194 245 297 363 451
#     4  12  22  46  74 104 143 194 256 318 372 454
#     4  12  27  45  78 112 147 193 260 318 382 460
#     4  10  26  50  74 102 144 196 259 320 394 452
#     4  10  26  56  74 106 140 196 262 324 374 460
#
# _framework density 24.170089000000001
#
# number of rings (size 3 to 8) (size 9 to 14) (size 15 to 20)
#    0.400    0.533    4.000    2.400    1.867    3.200 
#    0.000    0.000    0.000    0.000    0.000    0.000 
#    0.000    0.000    0.000    0.000    0.000    0.000 
#
# Total GULP energy -167453.508378 kJ/mol
# GULP energy per Si atom -5581.783613 kJ/mol
# Density = 2.411508 g / cm^3
# Si number density = 24.170089 Si / 1000 Ang^3
#
#
#
# Elastic Constant Matrix: (Units=GPa)
#
#
# Indices 1 2 3 4 5 6 
#
# 1 124.2291 63.6721 23.9189 0.0000 0.0000 0.0000
# 2 63.6721 116.9897 19.7868 0.0000 0.0000 0.0000
# 3 23.9189 19.7868 51.6960 0.0000 0.0000 0.0000
# 4 0.0000 0.0000 0.0000 38.1750 0.0000 0.0000
# 5 0.0000 0.0000 0.0000 0.0000 6.6049 0.0000
# 6 0.0000 0.0000 0.0000 0.0000 0.0000 35.2353
#
#
#
# Elastic Compliance Matrix: (Units=1/GPa)
#
#
# Indices 1 2 3 4 5 6 
#
# 1 0.011628 -0.005794 -0.003163 0.000000 0.000000 0.000000
# 2 -0.005794 0.012026 -0.001922 0.000000 0.000000 0.000000
# 3 -0.003163 -0.001922 0.021543 0.000000 0.000000 0.000000
# 4 0.000000 0.000000 0.000000 0.026195 0.000000 0.000000
# 5 0.000000 0.000000 0.000000 0.000000 0.151402 0.000000
# 6 0.000000 0.000000 0.000000 0.000000 0.000000 0.028381
#
#
# Mechanical properties :
#
#
# Convention : Reuss Voigt Hill
#
# Bulk Modulus (GPa) = 42.66246 56.40783 49.53515
# Shear Modulus (GPa) = 17.80974 28.37219 23.09096
#
# Velocity S-wave (km/s) = 2.71744 3.42987 3.09423
# Velocity P-wave (km/s) = 5.24740 6.25091 5.77101
#
# Compressibility (1/GPa) = 0.02343981
#
# Stress axis : x y z
#
# Youngs Moduli (GPa) = 85.99884 83.15209 46.41900
#
# Poissons Ratio (x) = 0.48176 0.14680
# Poissons Ratio (y) = 0.49825 0.08923
# Poissons Ratio (z) = 0.27198 0.15985
#
# Static dielectric constant tensor:
#      x y z
#    x 2.030550 0.000000 0.000000 
#    y 0.000000 1.961090 0.000000 
#    z 0.000000 0.000000 1.913190 
# 
# From -- ./inp_files/20484.got.cif
#   From: 2010.05.17/outbox.cif.g08.bks.cpg/sg46_11_cif.got.tgz:20484.got - 2010.06.03 19:58:25.
