data_PCOD9379025
_publ_section_title
;
Structure prediction by ZEFSAII (Michael W. Deem and Ramdas Pophale) SiO2 
 PCOD9379025
Probable space group: I M A 2
;
_chemical_formula_sum "Si O2"
_cell_formula_units_Z 52
_cell_length_a 20.926959
_cell_length_b 16.594566
_cell_length_c 5.533240
_cell_angle_alpha 90.000000
_cell_angle_beta 90.000000
_cell_angle_gamma 90.000000
_cell_volume 1921.549294
_symmetry_space_group_name_H-M "I M A 2"
_symmetry_group_IT_number 46
_symmetry_cell_setting 'orthorhombic'
loop_
_space_group_symop_operation_xyz
x,y,z
-x,-y,z
1/2-x,y,z
1/2+x,-y,z
1/2+x,1/2+y,1/2+z
1/2-x,1/2-y,1/2+z
-x,1/2+y,1/2+z
x,1/2-y,1/2+z
loop_
_atom_site_type_symbol
_atom_site_label
_atom_site_fract_x
_atom_site_fract_y
_atom_site_fract_z
Si Si1 0.537454 0.583299 0.233420
Si Si2 0.153901 0.209116 0.256041
Si Si3 0.175508 0.012599 0.273540
Si Si4 0.750000 0.299005 0.714732
Si Si5 0.828565 0.969337 0.775689
Si Si6 0.485453 0.160087 0.233102
Si Si7 0.374082 0.709435 0.873234
O O1 0.500000 0.500000 0.277073
O O2 0.614506 0.596438 0.274881
O O3 0.508313 0.634957 0.454168
O O4 0.529976 0.596844 0.946733
O O5 0.177527 0.250280 0.505541
O O6 0.169174 0.112419 0.263929
O O7 0.076772 0.216085 0.245833
O O8 0.250000 0.999069 0.273364
O O9 0.151744 0.985569 0.532134
O O10 0.151581 0.984310 0.016336
O O11 0.750000 0.268098 0.437525
O O12 0.684944 0.344601 0.779251
O O13 0.750000 0.952840 0.774700
O O14 0.553726 0.188394 0.323587
O O15 0.365093 0.777476 0.659527
#
# Coordination Sequence:
#
# PCOD9379025 Si02
#       7
#     8   8   8   4   8   8   8
#     4  12  24  41  64  86 109 148 194 242 298 342
#     4  12  22  33  53  81 116 153 185 226 274 327
#     4  10  20  35  55  79 111 154 192 228 275 324
#     4   8  16  30  54  82 116 154 196 220 258 346
#     4  10  19  38  62  81 107 148 193 235 282 344
#     4  12  23  39  58  85 121 148 189 239 285 338
#     4  10  19  35  58  89 118 158 193 225 279 343
#
# _framework density 27.061495000000001
#
# number of rings (size 3 to 8) (size 9 to 14) (size 15 to 20)
#    0.000    1.231    3.077    4.154    0.000    0.615 
#    0.000    0.000    3.385    0.000    0.000    0.000 
#    0.000    0.000    0.000    0.000    0.000    0.000 
#
# Total GULP energy -144790.629989 kJ/mol
# GULP energy per Si atom -5568.870384 kJ/mol
# Density = 2.699990 g / cm^3
# Si number density = 27.061495 Si / 1000 Ang^3
#
#
#
# Elastic Constant Matrix: (Units=GPa)
#
#
# Indices 1 2 3 4 5 6 
#
# 1 163.7532 18.3661 -1.9623 0.0000 0.0000 0.0000
# 2 18.3661 68.0836 30.4495 0.0000 0.0000 0.0000
# 3 -1.9623 30.4495 193.7463 0.0000 0.0000 0.0000
# 4 0.0000 0.0000 0.0000 38.3642 0.0000 0.0000
# 5 0.0000 0.0000 0.0000 0.0000 37.3975 0.0000
# 6 0.0000 0.0000 0.0000 0.0000 0.0000 29.0260
#
#
#
# Elastic Compliance Matrix: (Units=1/GPa)
#
#
# Indices 1 2 3 4 5 6 
#
# 1 0.006320 -0.001865 0.000357 0.000000 0.000000 0.000000
# 2 -0.001865 0.016348 -0.002588 0.000000 0.000000 0.000000
# 3 0.000357 -0.002588 0.005572 0.000000 0.000000 0.000000
# 4 0.000000 0.000000 0.000000 0.026066 0.000000 0.000000
# 5 0.000000 0.000000 0.000000 0.000000 0.026740 0.000000
# 6 0.000000 0.000000 0.000000 0.000000 0.000000 0.034452
#
#
# Mechanical properties :
#
#
# Convention : Reuss Voigt Hill
#
# Bulk Modulus (GPa) = 49.87843 57.69888 53.78866
# Shear Modulus (GPa) = 38.35170 46.20620 42.27895
#
# Velocity S-wave (km/s) = 3.76866 4.13662 3.95692
# Velocity P-wave (km/s) = 6.11626 6.64704 6.38716
#
# Compressibility (1/GPa) = 0.02004875
#
# Stress axis : x y z
#
# Youngs Moduli (GPa) = 158.22387 61.16821 179.47603
#
# Poissons Ratio (x) = 0.11405 -0.06408
# Poissons Ratio (y) = 0.29503 0.46452
# Poissons Ratio (z) = -0.05650 0.15832
#
# Static dielectric constant tensor:
#      x y z
#    x 2.149850 0.000000 0.000000 
#    y 0.000000 2.283650 0.000000 
#    z 0.000000 0.000000 2.222270 
# 
# From -- ./inp_files/2071.got.cif
#   From: 2010.05.17/outbox.cif.g08.bks.cpg/sg46_2_cif.got.tgz:2071.got - 2010.06.03 19:58:25.
