data_PCOD9379427
_publ_section_title
;
Structure prediction by ZEFSAII (Michael W. Deem and Ramdas Pophale) SiO2 
 PCOD9379427
Probable space group: I M A 2
;
_chemical_formula_sum "Si O2"
_cell_formula_units_Z 40
_cell_length_a 8.539523
_cell_length_b 9.797645
_cell_length_c 26.204384
_cell_angle_alpha 90.000000
_cell_angle_beta 90.000000
_cell_angle_gamma 90.000000
_cell_volume 2192.447825
_symmetry_space_group_name_H-M "I M A 2"
_symmetry_group_IT_number 46
_symmetry_cell_setting 'orthorhombic'
loop_
_space_group_symop_operation_xyz
x,y,z
-x,-y,z
1/2-x,y,z
1/2+x,-y,z
1/2+x,1/2+y,1/2+z
1/2-x,1/2-y,1/2+z
-x,1/2+y,1/2+z
x,1/2-y,1/2+z
loop_
_atom_site_type_symbol
_atom_site_label
_atom_site_fract_x
_atom_site_fract_y
_atom_site_fract_z
Si Si1 0.561134 0.348750 0.100820
Si Si2 0.561668 0.154204 0.308680
Si Si3 0.438599 0.847757 0.009698
Si Si4 0.937061 0.846116 0.898299
Si Si5 0.439020 0.652182 0.216446
O O1 0.500000 0.500000 0.090364
O O2 0.750000 0.350069 0.100682
O O3 0.509675 0.247306 0.056355
O O4 0.510454 0.312327 0.158579
O O5 0.750000 0.151825 0.309869
O O6 0.500505 0.241307 0.356544
O O7 0.510314 0.237036 0.257981
O O8 0.500000 0.000000 0.309086
O O9 0.250000 0.848537 0.006931
O O10 0.500000 0.000000 0.018686
O O11 0.504950 0.804539 0.954716
O O12 0.750000 0.850126 0.897192
O O13 0.000000 0.000000 0.888622
O O14 0.500000 0.500000 0.228493
O O15 0.250000 0.646927 0.217251
#
# Coordination Sequence:
#
# PCOD9379427 Si02
#       5
#     8   8   8   8   8
#     4   9  19  35  55  80 109 141 178 220 265 317
#     4  11  23  38  56  81 112 143 180 225 274 324
#     4  10  20  35  55  80 110 142 180 222 266 318
#     4  11  22  38  59  81 108 143 184 225 270 324
#     4   9  19  36  57  80 107 141 180 220 264 319
#
# _framework density 18.244447000000001
#
# number of rings (size 3 to 8) (size 9 to 14) (size 15 to 20)
#    0.000    2.000    0.000    4.800    0.000    6.400 
#    0.000    2.000    0.000    0.000    0.000    0.000 
#    0.000    0.000    0.000    0.000    0.000    0.000 
#
# Total GULP energy -111680.794254 kJ/mol
# GULP energy per Si atom -5584.039713 kJ/mol
# Density = 1.820292 g / cm^3
# Si number density = 18.244447 Si / 1000 Ang^3
#
#
#
# Elastic Constant Matrix: (Units=GPa)
#
#
# Indices 1 2 3 4 5 6 
#
# 1 64.8278 39.7930 48.6178 0.0000 0.0000 0.0000
# 2 39.7930 135.6139 140.2140 0.0000 0.0000 0.0000
# 3 48.6178 140.2140 189.2202 0.0000 0.0000 0.0000
# 4 0.0000 0.0000 0.0000 -22.5520 0.0000 0.0000
# 5 0.0000 0.0000 0.0000 0.0000 59.6703 0.0000
# 6 0.0000 0.0000 0.0000 0.0000 0.0000 33.2016
#
#
#
# Elastic Compliance Matrix: (Units=1/GPa)
#
#
# Indices 1 2 3 4 5 6 
#
# 1 0.019272 -0.002289 -0.003256 0.000000 0.000000 0.000000
# 2 -0.002289 0.031804 -0.022979 0.000000 0.000000 0.000000
# 3 -0.003256 -0.022979 0.023149 0.000000 0.000000 0.000000
# 4 0.000000 0.000000 0.000000 -0.044342 0.000000 0.000000
# 5 0.000000 0.000000 0.000000 0.000000 0.016759 0.000000
# 6 0.000000 0.000000 0.000000 0.000000 0.000000 0.030119
#
#
# Mechanical properties :
#
#
# Convention : Reuss Voigt Hill
#
# Bulk Modulus (GPa) = 58.21408 94.10128 76.15768
# Shear Modulus (GPa) = 35.83392 24.79980 30.31686
#
# Velocity S-wave (km/s) = 4.43663 3.69088 4.08082
# Velocity P-wave (km/s) = 7.63033 8.35784 8.00236
#
# Compressibility (1/GPa) = 0.01717797
#
# Stress axis : x y z
#
# Youngs Moduli (GPa) = 51.88873 31.44296 43.19895
#
# Poissons Ratio (x) = 0.07197 0.14064
# Poissons Ratio (y) = 0.11877 0.99265
# Poissons Ratio (z) = 0.16893 0.72252
#
# Static dielectric constant tensor:
#      x y z
#    x 1.615610 0.000000 0.000000 
#    y 0.000000 1.613560 0.000000 
#    z 0.000000 0.000000 1.637490 
# 
# From -- ./inp_files/22730.got.cif
#   From: 2010.05.17/outbox.cif.g08.bks.cpg/sg46_12_cif.got.tgz:22730.got - 2010.06.03 19:58:25.
