data_PCOD9379491
_publ_section_title
;
Structure prediction by ZEFSAII (Michael W. Deem and Ramdas Pophale) SiO2 
 PCOD9379491
Probable space group: I M A 2
;
_chemical_formula_sum "Si O2"
_cell_formula_units_Z 48
_cell_length_a 8.603565
_cell_length_b 23.314418
_cell_length_c 12.141134
_cell_angle_alpha 90.000000
_cell_angle_beta 90.000000
_cell_angle_gamma 90.000000
_cell_volume 2435.354990
_symmetry_space_group_name_H-M "I M A 2"
_symmetry_group_IT_number 46
_symmetry_cell_setting 'orthorhombic'
loop_
_space_group_symop_operation_xyz
x,y,z
-x,-y,z
1/2-x,y,z
1/2+x,-y,z
1/2+x,1/2+y,1/2+z
1/2-x,1/2-y,1/2+z
-x,1/2+y,1/2+z
x,1/2-y,1/2+z
loop_
_atom_site_type_symbol
_atom_site_label
_atom_site_fract_x
_atom_site_fract_y
_atom_site_fract_z
Si Si1 0.061344 0.734747 0.092690
Si Si2 0.565328 0.935984 0.226254
Si Si3 0.439037 0.638455 0.923413
Si Si4 0.437948 0.636529 0.535697
Si Si5 0.070227 0.839455 0.792054
Si Si6 0.073353 0.940549 0.619437
O O1 0.250000 0.728059 0.095866
O O2 0.027040 0.801491 0.088599
O O3 0.001145 0.706611 0.206374
O O4 0.014859 0.698934 0.982326
O O5 0.750000 0.938410 0.234287
O O6 0.502204 0.886808 0.309757
O O7 0.512734 0.914213 0.105694
O O8 0.500000 0.000000 0.250127
O O9 0.250000 0.639589 0.915683
O O10 0.494680 0.592080 0.014339
O O11 0.250000 0.628320 0.535623
O O12 0.495946 0.645006 0.410540
O O13 0.250000 0.820995 0.813947
O O14 0.071840 0.896829 0.719917
O O15 0.250000 0.952159 0.588106
O O16 0.000000 0.000000 0.648474
#
# Coordination Sequence:
#
# PCOD9379491 Si02
#       6
#     8   8   8   8   8   8
#     4   8  16  31  58  91 117 145 188 236 282 341
#     4  12  26  42  58  81 116 157 200 246 293 348
#     4   9  18  35  59  88 116 145 185 237 286 339
#     4  10  20  35  60  86 113 151 192 237 284 342
#     4   8  16  31  50  81 114 140 179 230 278 330
#     4   9  17  30  50  77 110 140 177 226 275 326
#
# _framework density 19.709651999999998
#
# number of rings (size 3 to 8) (size 9 to 14) (size 15 to 20)
#    0.000    2.667    0.000    4.000    2.333    2.667 
#    0.000    3.333    0.000    2.000    0.000    0.000 
#    0.000    0.000    0.000    0.000    0.000    0.000 
#
# Total GULP energy -133683.905810 kJ/mol
# GULP energy per Si atom -5570.162742 kJ/mol
# Density = 1.966479 g / cm^3
# Si number density = 19.709652 Si / 1000 Ang^3
#
#
#
# Elastic Constant Matrix: (Units=GPa)
#
#
# Indices 1 2 3 4 5 6 
#
# 1 27.3061 19.6032 12.5902 0.0000 0.0000 0.0000
# 2 19.6032 40.2811 8.1558 0.0000 0.0000 0.0000
# 3 12.5902 8.1558 97.2999 0.0000 0.0001 0.0000
# 4 0.0000 0.0000 0.0000 0.2121 0.0000 0.0000
# 5 0.0000 0.0000 0.0001 0.0000 11.5989 0.0000
# 6 0.0000 0.0000 0.0000 0.0000 0.0000 16.7168
#
#
#
# Elastic Compliance Matrix: (Units=1/GPa)
#
#
# Indices 1 2 3 4 5 6 
#
# 1 0.058862 -0.027572 -0.005305 -0.000007 0.000000 0.000000
# 2 -0.027572 0.038169 0.000368 0.000004 0.000000 0.000000
# 3 -0.005305 0.000368 0.010933 0.000000 0.000000 0.000000
# 4 -0.000007 0.000004 0.000000 4.713831 -0.000017 -0.000002
# 5 0.000000 0.000000 0.000000 -0.000017 0.086215 0.000000
# 6 0.000000 0.000000 0.000000 -0.000002 0.000000 0.059820
#
#
# Mechanical properties :
#
#
# Convention : Reuss Voigt Hill
#
# Bulk Modulus (GPa) = 23.28472 27.28727 25.28599
# Shear Modulus (GPa) = 0.99066 14.00808 7.49937
#
# Velocity S-wave (km/s) = 0.70973 2.66883 1.95274
# Velocity P-wave (km/s) = 3.53711 4.83441 4.23572
#
# Compressibility (1/GPa) = 0.04294662
#
# Stress axis : x y z
#
# Youngs Moduli (GPa) = 16.98893 26.19929 91.46513
#
# Poissons Ratio (x) = 0.72236 0.48526
# Poissons Ratio (y) = 0.46841 -0.03368
# Poissons Ratio (z) = 0.09013 -0.00965
#
# Static dielectric constant tensor:
#      x y z
#    x 1.694590 0.000000 0.000000 
#    y 0.000000 1.702380 0.000000 
#    z 0.000000 0.000000 1.735340 
# 
# From -- ./inp_files/9308.got.cif
#   From: 2010.05.17/outbox.cif.g08.bks.cpg/sg46_5_cif.got.tgz:9308.got - 2010.06.03 19:58:25.
