data_PCOD9379311
_publ_section_title
;
Structure prediction by ZEFSAII (Michael W. Deem and Ramdas Pophale) SiO2 
 PCOD9379311
Probable space group: I M A 2
;
_chemical_formula_sum "Si O2"
_cell_formula_units_Z 64
_cell_length_a 8.707410
_cell_length_b 16.844309
_cell_length_c 22.908396
_cell_angle_alpha 90.000000
_cell_angle_beta 90.000000
_cell_angle_gamma 90.000000
_cell_volume 3359.981420
_symmetry_space_group_name_H-M "I M A 2"
_symmetry_group_IT_number 46
_symmetry_cell_setting 'orthorhombic'
loop_
_space_group_symop_operation_xyz
x,y,z
-x,-y,z
1/2-x,y,z
1/2+x,-y,z
1/2+x,1/2+y,1/2+z
1/2-x,1/2-y,1/2+z
-x,1/2+y,1/2+z
x,1/2-y,1/2+z
loop_
_atom_site_type_symbol
_atom_site_label
_atom_site_fract_x
_atom_site_fract_y
_atom_site_fract_z
Si Si1 0.565504 0.581943 0.352930
Si Si2 0.566179 0.414218 0.937020
Si Si3 0.568487 0.243666 0.144496
Si Si4 0.934567 0.237589 0.515890
Si Si5 0.566646 0.920933 0.180397
Si Si6 0.571573 0.790753 0.763758
Si Si7 0.565186 0.913229 0.989153
Si Si8 0.927824 0.613234 0.810112
O O1 0.500000 0.500000 0.330933
O O2 0.750000 0.583106 0.351510
O O3 0.505467 0.649099 0.310491
O O4 0.522562 0.590491 0.420375
O O5 0.500000 0.500000 0.957390
O O6 0.750000 0.417359 0.941480
O O7 0.517445 0.405581 0.869009
O O8 0.514111 0.334184 0.972497
O O9 0.750000 0.230194 0.146538
O O10 0.532357 0.285339 0.083235
O O11 0.487104 0.158127 0.148582
O O12 0.515872 0.287767 0.202866
O O13 0.750000 0.245124 0.508389
O O14 0.003792 0.326918 0.510147
O O15 0.750000 0.922346 0.181828
O O16 0.510056 0.917895 0.247934
O O17 0.500000 0.000000 0.152613
O O18 0.750000 0.808896 0.750647
O O19 0.571347 0.706641 0.796600
O O20 0.750000 0.915214 0.996584
O O21 0.500000 0.000000 0.009854
O O22 0.750000 0.587094 0.817549
#
# Coordination Sequence:
#
# PCOD9379311 Si02
#       8
#     8   8   8   8   8   8   8   8
#     4   9  18  32  51  78 109 137 168 211 262 317
#     4  11  23  38  57  81 109 142 183 229 276 326
#     4  10  21  37  55  74 100 136 179 222 264 312
#     4  10  23  41  57  77 108 145 186 232 274 317
#     4  10  20  34  53  79 110 140 171 209 257 314
#     4   9  18  34  54  77 106 137 172 215 263 316
#     4  10  20  35  58  86 115 147 181 218 266 325
#     4   9  18  33  54  80 109 138 170 212 263 321
#
# _framework density 19.047723000000001
#
# number of rings (size 3 to 8) (size 9 to 14) (size 15 to 20)
#    0.000    2.250    0.000    3.375    0.000    8.000 
#    0.000    0.625    0.000    3.000    0.000    0.000 
#    0.000    0.000    0.000    0.000    0.000    0.000 
#
# Total GULP energy -178337.386261 kJ/mol
# GULP energy per Si atom -5573.043321 kJ/mol
# Density = 1.900437 g / cm^3
# Si number density = 19.047723 Si / 1000 Ang^3
#
#
#
# Elastic Constant Matrix: (Units=GPa)
#
#
# Indices 1 2 3 4 5 6 
#
# 1 33.0861 16.0873 27.7848 0.0000 0.0000 0.0000
# 2 16.0873 84.7819 47.7809 0.0000 0.0000 0.0000
# 3 27.7848 47.7809 92.7186 0.0000 0.0000 0.0000
# 4 0.0000 0.0000 0.0000 -4.9166 0.0000 0.0000
# 5 0.0000 0.0000 0.0000 0.0000 25.8074 0.0000
# 6 0.0000 0.0000 0.0000 0.0000 0.0000 28.9296
#
#
#
# Elastic Compliance Matrix: (Units=1/GPa)
#
#
# Indices 1 2 3 4 5 6 
#
# 1 0.040473 -0.001190 -0.011515 0.000000 0.000000 0.000000
# 2 -0.001190 0.016658 -0.008228 0.000000 0.000000 0.000000
# 3 -0.011515 -0.008228 0.018476 0.000000 0.000000 0.000000
# 4 0.000000 0.000000 0.000000 -0.203395 0.000000 0.000000
# 5 0.000000 0.000000 0.000000 0.000000 0.038749 0.000000
# 6 0.000000 0.000000 0.000000 0.000000 0.000000 0.034567
#
#
# Mechanical properties :
#
#
# Convention : Reuss Voigt Hill
#
# Bulk Modulus (GPa) = 29.63763 43.76585 36.70174
# Shear Modulus (GPa) = -3676.15575 17.89299 -1829.13138
#
# Velocity S-wave (km/s) = -43.97910 3.06825 -31.02214
# Velocity P-wave (km/s) = 50.62892 5.96482 35.55073
#
# Compressibility (1/GPa) = 0.03374089
#
# Stress axis : x y z
#
# Youngs Moduli (GPa) = 24.70788 60.03252 54.12424
#
# Poissons Ratio (x) = 0.07144 0.62325
# Poissons Ratio (y) = 0.02940 0.44531
# Poissons Ratio (z) = 0.28452 0.49392
#
# Static dielectric constant tensor:
#      x y z
#    x 1.628560 0.000000 0.000000 
#    y 0.000000 1.720450 0.000000 
#    z 0.000000 0.000000 1.673490 
# 
# From -- ./inp_files/23177.got.cif
#   From: 2010.05.17/outbox.cif.g08.bks.cpg/sg46_12_cif.got.tgz:23177.got - 2010.06.03 19:58:25.
