data_PCOD9379649
_publ_section_title
;
Structure prediction by ZEFSAII (Michael W. Deem and Ramdas Pophale) SiO2 
 PCOD9379649
Probable space group: I M A 2
;
_chemical_formula_sum "Si O2"
_cell_formula_units_Z 48
_cell_length_a 8.694801
_cell_length_b 15.538152
_cell_length_c 18.819873
_cell_angle_alpha 90.000000
_cell_angle_beta 90.000000
_cell_angle_gamma 90.000000
_cell_volume 2542.586288
_symmetry_space_group_name_H-M "I M A 2"
_symmetry_group_IT_number 46
_symmetry_cell_setting 'orthorhombic'
loop_
_space_group_symop_operation_xyz
x,y,z
-x,-y,z
1/2-x,y,z
1/2+x,-y,z
1/2+x,1/2+y,1/2+z
1/2-x,1/2-y,1/2+z
-x,1/2+y,1/2+z
x,1/2-y,1/2+z
loop_
_atom_site_type_symbol
_atom_site_label
_atom_site_fract_x
_atom_site_fract_y
_atom_site_fract_z
Si Si1 0.434519 0.737295 0.662960
Si Si2 0.565172 0.261957 0.824500
Si Si3 0.434082 0.093495 0.595463
Si Si4 0.433539 0.092679 0.892647
Si Si5 0.065429 0.093611 0.058132
Si Si6 0.564432 0.093154 0.437795
O O1 0.250000 0.741101 0.656861
O O2 0.476166 0.714091 0.743954
O O3 0.504145 0.830173 0.644305
O O4 0.498611 0.667466 0.607997
O O5 0.750000 0.254945 0.827854
O O6 0.495304 0.170647 0.846054
O O7 0.518730 0.334174 0.881471
O O8 0.250000 0.090961 0.595255
O O9 0.495072 0.111378 0.515538
O O10 0.500000 0.000000 0.616054
O O11 0.250000 0.089385 0.889154
O O12 0.500000 0.000000 0.871483
O O13 0.478293 0.108292 0.975404
O O14 0.250000 0.092926 0.062645
O O15 0.000000 0.000000 0.078356
O O16 0.750000 0.089783 0.443047
O O17 0.500000 0.000000 0.415958
#
# Coordination Sequence:
#
# PCOD9379649 Si02
#       6
#     8   8   8   8   8   8
#     4  11  23  39  57  82 116 153 188 229 279 334
#     4  10  23  39  56  81 115 151 187 226 277 333
#     4  11  22  38  60  86 112 145 188 234 281 333
#     4  10  21  37  60  85 111 144 185 231 279 329
#     4  10  21  38  60  87 114 147 189 233 279 331
#     4  10  20  37  60  85 112 146 185 231 279 328
#
# _framework density 18.878416000000001
#
# number of rings (size 3 to 8) (size 9 to 14) (size 15 to 20)
#    0.000    1.667    0.000    5.500    0.000    8.667 
#    0.000    1.667    0.000    0.000    0.000    0.000 
#    0.000    0.000    0.000    0.000    0.000    0.000 
#
# Total GULP energy -134160.750501 kJ/mol
# GULP energy per Si atom -5590.031271 kJ/mol
# Density = 1.883545 g / cm^3
# Si number density = 18.878416 Si / 1000 Ang^3
#
#
#
# Elastic Constant Matrix: (Units=GPa)
#
#
# Indices 1 2 3 4 5 6 
#
# 1 53.1404 6.5326 7.2634 0.0000 0.0000 0.0000
# 2 6.5326 38.1713 2.1089 0.0000 0.0000 0.0000
# 3 7.2634 2.1089 7.9513 0.0000 0.0000 0.0000
# 4 0.0000 0.0000 0.0000 -21.5309 0.0000 0.0000
# 5 0.0000 0.0000 0.0000 0.0000 25.9471 0.0000
# 6 0.0000 0.0000 0.0000 0.0000 0.0000 38.7018
#
#
#
# Elastic Compliance Matrix: (Units=1/GPa)
#
#
# Indices 1 2 3 4 5 6 
#
# 1 0.021767 -0.002666 -0.019177 0.000000 0.000000 0.000000
# 2 -0.002666 0.026914 -0.004703 0.000000 0.000000 0.000000
# 3 -0.019177 -0.004703 0.144531 0.000000 0.000000 0.000000
# 4 0.000000 0.000000 0.000000 -0.046445 0.000000 0.000000
# 5 0.000000 0.000000 0.000000 0.000000 0.038540 0.000000
# 6 0.000000 0.000000 0.000000 0.000000 0.000000 0.025839
#
#
# Mechanical properties :
#
#
# Convention : Reuss Voigt Hill
#
# Bulk Modulus (GPa) = 7.13672 14.56365 10.85018
# Shear Modulus (GPa) = 16.08006 14.18080 15.13043
#
# Velocity S-wave (km/s) = 2.92168 2.74371 2.83409
# Velocity P-wave (km/s) = 3.89489 4.21527 4.05824
#
# Compressibility (1/GPa) = 0.14012044
#
# Stress axis : x y z
#
# Youngs Moduli (GPa) = 45.94126 37.15570 6.91891
#
# Poissons Ratio (x) = 0.09905 0.13268
# Poissons Ratio (y) = 0.12247 0.03254
# Poissons Ratio (z) = 0.88101 0.17475
#
# Static dielectric constant tensor:
#      x y z
#    x 1.632970 0.000000 0.000000 
#    y 0.000000 1.624620 0.000000 
#    z 0.000000 0.000000 1.647160 
# 
# From -- ./inp_files/18167.got.cif
#   From: 2010.05.17/outbox.cif.g08.bks.cpg/sg46_10_cif.got.tgz:18167.got - 2010.06.03 19:58:25.
