data_PCOD9379732
_publ_section_title
;
Structure prediction by ZEFSAII (Michael W. Deem and Ramdas Pophale) SiO2 
 PCOD9379732
Probable space group: I M A 2
;
_chemical_formula_sum "Si O2"
_cell_formula_units_Z 32
_cell_length_a 11.457098
_cell_length_b 11.941312
_cell_length_c 9.421195
_cell_angle_alpha 90.000000
_cell_angle_beta 90.000000
_cell_angle_gamma 90.000000
_cell_volume 1288.939896
_symmetry_space_group_name_H-M "I M A 2"
_symmetry_group_IT_number 46
_symmetry_cell_setting 'orthorhombic'
loop_
_space_group_symop_operation_xyz
x,y,z
-x,-y,z
1/2-x,y,z
1/2+x,-y,z
1/2+x,1/2+y,1/2+z
1/2-x,1/2-y,1/2+z
-x,1/2+y,1/2+z
x,1/2-y,1/2+z
loop_
_atom_site_type_symbol
_atom_site_label
_atom_site_fract_x
_atom_site_fract_y
_atom_site_fract_z
Si Si1 0.250000 0.714750 0.486190
Si Si2 0.982290 0.238893 0.335790
Si Si3 0.878787 0.811171 0.079878
Si Si4 0.000000 0.500000 0.991414
Si Si5 0.750000 0.027343 0.530660
Si Si6 0.750000 0.009921 0.189297
O O1 0.136619 0.705000 0.386367
O O2 0.250000 0.839545 0.548567
O O3 0.250000 0.629265 0.616528
O O4 0.982825 0.111091 0.395229
O O5 0.015839 0.238304 0.171841
O O6 0.087892 0.298343 0.417986
O O7 0.750000 0.759542 0.105846
O O8 0.858560 0.938188 0.130071
O O9 0.121866 0.484972 0.076419
O O10 0.750000 0.006266 0.358671
#
# Coordination Sequence:
#
# PCOD9379732 Si02
#       6
#     4   8   8   4   4   4
#     4  10  26  36  62 102 142 164 237 297 364 401
#     4  11  23  41  66 102 135 185 228 301 344 443
#     4  10  23  41  73  95 132 178 247 281 349 418
#     4  10  20  38  62  94 126 178 226 276 346 422
#     4  10  20  37  66  89 131 169 236 273 350 422
#     4  10  22  41  70  97 127 189 233 292 348 439
#
# _framework density 24.826602000000001
#
# number of rings (size 3 to 8) (size 9 to 14) (size 15 to 20)
#    0.750    1.000    2.500    0.750    8.750    1.000 
#    0.000    2.500    0.000    0.000    0.000    0.000 
#    0.000    0.000    0.000    0.000    0.000    0.000 
#
# Total GULP energy -89485.058394 kJ/mol
# GULP energy per Si atom -5592.816150 kJ/mol
# Density = 2.477010 g / cm^3
# Si number density = 24.826602 Si / 1000 Ang^3
#
#
#
# Elastic Constant Matrix: (Units=GPa)
#
#
# Indices 1 2 3 4 5 6 
#
# 1 180.5829 4.8996 8.3597 0.0000 0.0000 0.0000
# 2 4.8996 54.1087 11.7252 0.0000 0.0000 0.0000
# 3 8.3597 11.7252 57.0474 0.0000 0.0000 0.0000
# 4 0.0000 0.0000 0.0000 30.7471 0.0000 0.0000
# 5 0.0000 0.0000 0.0000 0.0000 28.9806 0.0000
# 6 0.0000 0.0000 0.0000 0.0000 0.0000 32.8077
#
#
#
# Elastic Compliance Matrix: (Units=1/GPa)
#
#
# Indices 1 2 3 4 5 6 
#
# 1 0.005582 -0.000343 -0.000747 0.000000 0.000000 0.000000
# 2 -0.000343 0.019364 -0.003930 0.000000 0.000000 0.000000
# 3 -0.000747 -0.003930 0.018446 0.000000 0.000000 0.000000
# 4 0.000000 0.000000 0.000000 0.032523 0.000000 0.000000
# 5 0.000000 0.000000 0.000000 0.000000 0.034506 0.000000
# 6 0.000000 0.000000 0.000000 0.000000 0.000000 0.030481
#
#
# Mechanical properties :
#
#
# Convention : Reuss Voigt Hill
#
# Bulk Modulus (GPa) = 29.98400 37.96754 33.97577
# Shear Modulus (GPa) = 30.85283 36.29072 33.57177
#
# Velocity S-wave (km/s) = 3.52907 3.82745 3.68128
# Velocity P-wave (km/s) = 5.35811 5.90414 5.63774
#
# Compressibility (1/GPa) = 0.03335112
#
# Stress axis : x y z
#
# Youngs Moduli (GPa) = 179.16211 51.64237 54.21086
#
# Poissons Ratio (x) = 0.01774 0.04051
# Poissons Ratio (y) = 0.06154 0.21303
# Poissons Ratio (z) = 0.13389 0.20294
#
# Static dielectric constant tensor:
#      x y z
#    x 2.029130 0.000000 0.000000 
#    y 0.000000 1.991900 0.000000 
#    z 0.000000 0.000000 1.870020 
# 
# From -- ./inp_files/9997.got.cif
#   From: 2010.05.17/outbox.cif.g08.bks.cpg/sg46_5_cif.got.tgz:9997.got - 2010.06.03 19:58:25.
