data_PCOD9379229
_publ_section_title
;
Structure prediction by ZEFSAII (Michael W. Deem and Ramdas Pophale) SiO2 
 PCOD9379229
Probable space group: I M A 2
;
_chemical_formula_sum "Si O2"
_cell_formula_units_Z 60
_cell_length_a 27.023515
_cell_length_b 14.102227
_cell_length_c 9.717830
_cell_angle_alpha 90.000000
_cell_angle_beta 90.000000
_cell_angle_gamma 90.000000
_cell_volume 3703.384772
_symmetry_space_group_name_H-M "I M A 2"
_symmetry_group_IT_number 46
_symmetry_cell_setting 'orthorhombic'
loop_
_space_group_symop_operation_xyz
x,y,z
-x,-y,z
1/2-x,y,z
1/2+x,-y,z
1/2+x,1/2+y,1/2+z
1/2-x,1/2-y,1/2+z
-x,1/2+y,1/2+z
x,1/2-y,1/2+z
loop_
_atom_site_type_symbol
_atom_site_label
_atom_site_fract_x
_atom_site_fract_y
_atom_site_fract_z
Si Si1 0.500000 0.000000 0.782600
Si Si2 0.512794 0.176201 0.604839
Si Si3 0.574297 0.550603 0.755105
Si Si4 0.402711 0.183132 0.492521
Si Si5 0.304640 0.227886 0.645965
Si Si6 0.466815 0.854067 0.295395
Si Si7 0.195914 0.375273 0.419769
Si Si8 0.090637 0.098755 0.940089
O O1 0.524223 0.080098 0.686430
O O2 0.456789 0.049351 0.872220
O O3 0.453111 0.172262 0.580797
O O4 0.535813 0.178669 0.453091
O O5 0.530409 0.265907 0.692570
O O6 0.572349 0.437140 0.766783
O O7 0.519527 0.593603 0.778461
O O8 0.588793 0.579996 0.602694
O O9 0.603211 0.603650 0.876043
O O10 0.354172 0.181391 0.586453
O O11 0.410236 0.286962 0.423133
O O12 0.250000 0.189466 0.603661
O O13 0.306365 0.330734 0.573056
O O14 0.305573 0.212333 0.809954
O O15 0.250000 0.421073 0.401988
O O16 0.145590 0.432249 0.392251
#
# Coordination Sequence:
#
# PCOD9379229 Si02
#       8
#     4   8   8   8   8   8   8   8
#     4  12  22  32  48  78  98 132 180 208 260 314
#     4  11  21  33  51  71  98 139 170 212 251 309
#     4  10  20  34  47  70 101 134 175 211 251 298
#     4  10  20  33  50  71  98 141 173 201 252 300
#     4   9  18  30  47  69  97 131 170 210 245 297
#     4  10  21  35  49  68  99 137 171 211 252 298
#     4   9  19  32  46  69  99 133 172 209 249 296
#     4  11  22  30  52  74 101 139 171 215 250 304
#
# _framework density 16.201395999999999
#
# number of rings (size 3 to 8) (size 9 to 14) (size 15 to 20)
#    0.000    1.867    1.333    4.800    9.333    0.000 
#    0.000    0.000    0.000    0.000    0.000    0.000 
#    0.000    2.133    0.000    0.000    0.000    0.133 
#
# Total GULP energy -167070.861396 kJ/mol
# GULP energy per Si atom -5569.028713 kJ/mol
# Density = 1.616452 g / cm^3
# Si number density = 16.201396 Si / 1000 Ang^3
#
#
#
# Elastic Constant Matrix: (Units=GPa)
#
#
# Indices 1 2 3 4 5 6 
#
# 1 70.8860 12.4487 24.4601 0.0000 0.0000 0.0000
# 2 12.4487 85.2826 43.9978 0.0000 0.0000 0.0000
# 3 24.4601 43.9978 90.7459 0.0000 0.0000 0.0000
# 4 0.0000 0.0000 0.0000 14.1382 0.0000 0.0000
# 5 0.0000 0.0000 0.0000 0.0000 7.1214 0.0000
# 6 0.0000 0.0000 0.0000 0.0000 0.0000 8.3071
#
#
#
# Elastic Compliance Matrix: (Units=1/GPa)
#
#
# Indices 1 2 3 4 5 6 
#
# 1 0.015555 -0.000143 -0.004123 0.000000 0.000000 0.000000
# 2 -0.000143 0.015638 -0.007544 0.000000 0.000000 0.000000
# 3 -0.004123 -0.007544 0.015789 0.000000 0.000000 0.000000
# 4 0.000000 0.000000 0.000000 0.070730 0.000000 0.000000
# 5 0.000000 0.000000 0.000000 0.000000 0.140422 0.000000
# 6 0.000000 0.000000 0.000000 0.000000 0.000000 0.120379
#
#
# Mechanical properties :
#
#
# Convention : Reuss Voigt Hill
#
# Bulk Modulus (GPa) = 42.80499 45.41418 44.10959
# Shear Modulus (GPa) = 12.19745 16.98052 14.58899
#
# Velocity S-wave (km/s) = 2.74681 3.24093 3.00405
# Velocity P-wave (km/s) = 6.04466 6.48820 6.27035
#
# Compressibility (1/GPa) = 0.02336176
#
# Stress axis : x y z
#
# Youngs Moduli (GPa) = 64.28744 63.94498 63.33646
#
# Poissons Ratio (x) = 0.00917 0.26116
# Poissons Ratio (y) = 0.00921 0.47779
# Poissons Ratio (z) = 0.26508 0.48238
#
# Static dielectric constant tensor:
#      x y z
#    x 1.597180 0.000000 0.000000 
#    y 0.000000 1.553330 0.000000 
#    z 0.000000 0.000000 1.592500 
# 
# From -- ./inp_files/8248.got.cif
#   From: 2010.05.17/outbox.cif.g08.bks.cpg/sg46_5_cif.got.tgz:8248.got - 2010.06.03 19:58:25.
