data_PCOD9379364
_publ_section_title
;
Structure prediction by ZEFSAII (Michael W. Deem and Ramdas Pophale) SiO2 
 PCOD9379364
Probable space group: I M A 2
;
_chemical_formula_sum "Si O2"
_cell_formula_units_Z 64
_cell_length_a 8.789411
_cell_length_b 20.997853
_cell_length_c 19.900085
_cell_angle_alpha 90.000000
_cell_angle_beta 90.000000
_cell_angle_gamma 90.000000
_cell_volume 3672.735014
_symmetry_space_group_name_H-M "I M A 2"
_symmetry_group_IT_number 46
_symmetry_cell_setting 'orthorhombic'
loop_
_space_group_symop_operation_xyz
x,y,z
-x,-y,z
1/2-x,y,z
1/2+x,-y,z
1/2+x,1/2+y,1/2+z
1/2-x,1/2-y,1/2+z
-x,1/2+y,1/2+z
x,1/2-y,1/2+z
loop_
_atom_site_type_symbol
_atom_site_label
_atom_site_fract_x
_atom_site_fract_y
_atom_site_fract_z
Si Si1 0.068823 0.886071 0.892520
Si Si2 0.068950 0.566541 0.672440
Si Si3 0.431482 0.117733 0.036148
Si Si4 0.570007 0.234180 0.384511
Si Si5 0.067302 0.188505 0.666587
Si Si6 0.430612 0.315522 0.751292
Si Si7 0.432252 0.433988 0.255094
Si Si8 0.431318 0.741127 0.036227
O O1 0.250000 0.895722 0.895879
O O2 0.040805 0.810319 0.881267
O O3 0.998037 0.921847 0.829389
O O4 0.994275 0.903685 0.963690
O O5 0.250000 0.563330 0.669767
O O6 0.000000 0.500000 0.697015
O O7 0.003516 0.579983 0.598020
O O8 0.016066 0.624934 0.718946
O O9 0.250000 0.113360 0.038224
O O10 0.483253 0.191412 0.044510
O O11 0.750000 0.224661 0.372482
O O12 0.476682 0.197944 0.327929
O O13 0.534930 0.215813 0.461414
O O14 0.250000 0.188115 0.656761
O O15 0.029261 0.251391 0.709986
O O16 0.024971 0.125867 0.708401
O O17 0.984530 0.195508 0.595599
O O18 0.250000 0.325319 0.744997
O O19 0.500000 0.500000 0.229010
O O20 0.250000 0.437079 0.258493
O O21 0.250000 0.753352 0.039436
#
# Coordination Sequence:
#
# PCOD9379364 Si02
#       8
#     8   8   8   8   8   8   8   8
#     4  10  20  35  55  81 113 151 193 233 278 333
#     4  12  25  41  59  82 114 151 190 234 282 336
#     4  11  21  35  55  81 115 152 190 231 277 333
#     4   9  19  34  54  84 116 146 184 232 281 333
#     4  10  21  36  57  84 115 148 190 235 284 338
#     4  11  21  36  59  87 114 148 189 233 283 335
#     4  11  23  39  56  81 114 152 193 236 284 337
#     4  10  20  34  56  86 116 147 188 234 284 334
#
# _framework density 17.425705000000001
#
# number of rings (size 3 to 8) (size 9 to 14) (size 15 to 20)
#    0.000    1.500    2.500    4.500    0.000    4.500 
#    0.000    2.500    0.000    0.750    0.000    1.750 
#    0.000    0.000    0.000    0.000    0.000    0.000 
#
# Total GULP energy -178832.783098 kJ/mol
# GULP energy per Si atom -5588.524472 kJ/mol
# Density = 1.738604 g / cm^3
# Si number density = 17.425705 Si / 1000 Ang^3
#
#
#
# Elastic Constant Matrix: (Units=GPa)
#
#
# Indices 1 2 3 4 5 6 
#
# 1 96.5219 57.9219 51.0885 0.0000 0.0000 0.0000
# 2 57.9219 101.0708 52.2100 0.0000 0.0000 0.0000
# 3 51.0885 52.2100 100.5155 0.0000 0.0000 0.0000
# 4 0.0000 0.0000 0.0000 18.9340 0.0000 0.0000
# 5 0.0000 0.0000 0.0000 0.0000 34.0613 0.0000
# 6 0.0000 0.0000 0.0000 0.0000 0.0000 26.3136
#
#
#
# Elastic Compliance Matrix: (Units=1/GPa)
#
#
# Indices 1 2 3 4 5 6 
#
# 1 0.017472 -0.007415 -0.005029 0.000000 0.000000 0.000000
# 2 -0.007415 0.016669 -0.004890 0.000000 0.000000 0.000000
# 3 -0.005029 -0.004890 0.015044 0.000000 0.000000 0.000000
# 4 0.000000 0.000000 0.000000 0.052815 0.000000 0.000000
# 5 0.000000 0.000000 0.000000 0.000000 0.029359 0.000000
# 6 0.000000 0.000000 0.000000 0.000000 0.000000 0.038003
#
#
# Mechanical properties :
#
#
# Convention : Reuss Voigt Hill
#
# Bulk Modulus (GPa) = 68.87675 68.94989 68.91332
# Shear Modulus (GPa) = 23.93846 24.98762 24.46304
#
# Velocity S-wave (km/s) = 3.71043 3.79086 3.75086
# Velocity P-wave (km/s) = 7.61368 7.66907 7.64143
#
# Compressibility (1/GPa) = 0.01451869
#
# Stress axis : x y z
#
# Youngs Moduli (GPa) = 57.23533 59.99044 66.47000
#
# Poissons Ratio (x) = 0.44483 0.33426
# Poissons Ratio (y) = 0.42440 0.32501
# Poissons Ratio (z) = 0.28782 0.29333
#
# Static dielectric constant tensor:
#      x y z
#    x 1.579830 0.000000 0.000000 
#    y 0.000000 1.589470 0.000000 
#    z 0.000000 0.000000 1.584310 
# 
# From -- ./inp_files/18590.got.cif
#   From: 2010.05.17/outbox.cif.g08.bks.cpg/sg46_10_cif.got.tgz:18590.got - 2010.06.03 19:58:25.
