data_PCOD9379793
_publ_section_title
;
Structure prediction by ZEFSAII (Michael W. Deem and Ramdas Pophale) SiO2 
 PCOD9379793
Probable space group: I M A 2
;
_chemical_formula_sum "Si O2"
_cell_formula_units_Z 40
_cell_length_a 11.711191
_cell_length_b 15.476978
_cell_length_c 9.685367
_cell_angle_alpha 90.000000
_cell_angle_beta 90.000000
_cell_angle_gamma 90.000000
_cell_volume 1755.510013
_symmetry_space_group_name_H-M "I M A 2"
_symmetry_group_IT_number 46
_symmetry_cell_setting 'orthorhombic'
loop_
_space_group_symop_operation_xyz
x,y,z
-x,-y,z
1/2-x,y,z
1/2+x,-y,z
1/2+x,1/2+y,1/2+z
1/2-x,1/2-y,1/2+z
-x,1/2+y,1/2+z
x,1/2-y,1/2+z
loop_
_atom_site_type_symbol
_atom_site_label
_atom_site_fract_x
_atom_site_fract_y
_atom_site_fract_z
Si Si1 0.123858 0.290244 0.500000
Si Si2 0.378277 0.608900 0.822890
Si Si3 0.623312 0.516447 0.560530
Si Si4 0.618804 0.049392 0.636879
Si Si5 0.987812 0.213157 0.734062
O O1 0.250000 0.253125 0.490093
O O2 0.127340 0.380924 0.581425
O O3 0.044064 0.226410 0.584690
O O4 0.078737 0.314122 0.349177
O O5 0.250000 0.643288 0.822876
O O6 0.385025 0.537678 0.702040
O O7 0.450554 0.692476 0.784812
O O8 0.394881 0.567828 0.972830
O O9 0.500000 0.500000 0.488794
O O10 0.750000 0.493822 0.498789
O O11 0.750000 0.014309 0.656897
O O12 0.608315 0.140890 0.716902
O O13 0.500000 0.000000 0.674259
#
# Coordination Sequence:
#
# PCOD9379793 Si02
#       5
#     8   8   8   8   8
#     4  11  25  41  68 104 146 189 235 291 364 429
#     4  10  21  41  72 104 136 181 239 291 347 419
#     4  10  20  38  64 100 136 176 225 279 339 410
#     4  11  26  47  72 105 143 191 239 295 362 429
#     4  12  23  46  69 102 144 183 242 298 358 422
#
# _framework density 22.785401
#
# number of rings (size 3 to 8) (size 9 to 14) (size 15 to 20)
#    0.000    1.200    4.000    1.800    0.000    2.400 
#    0.000    4.000    0.000    0.000    0.000    0.000 
#    0.000    0.000    0.000    0.000    0.000    0.000 
#
# Total GULP energy -111533.845012 kJ/mol
# GULP energy per Si atom -5576.692251 kJ/mol
# Density = 2.273354 g / cm^3
# Si number density = 22.785401 Si / 1000 Ang^3
#
#
#
# Elastic Constant Matrix: (Units=GPa)
#
#
# Indices 1 2 3 4 5 6 
#
# 1 185.9197 20.9606 20.5551 0.0000 0.0000 0.0000
# 2 20.9606 54.0425 13.4116 0.0000 0.0000 0.0000
# 3 20.5551 13.4116 95.0166 0.0000 0.0000 0.0000
# 4 0.0000 0.0000 0.0000 8.6940 0.0000 0.0000
# 5 0.0000 0.0000 0.0000 0.0000 11.4616 0.0000
# 6 0.0000 0.0000 0.0000 0.0000 0.0000 17.3074
#
#
#
# Elastic Compliance Matrix: (Units=1/GPa)
#
#
# Indices 1 2 3 4 5 6 
#
# 1 0.005707 -0.001976 -0.000956 0.000000 0.000000 0.000000
# 2 -0.001976 0.019860 -0.002376 0.000000 0.000000 0.000000
# 3 -0.000956 -0.002376 0.011067 0.000000 0.000000 0.000000
# 4 0.000000 0.000000 0.000000 0.115021 0.000000 0.000000
# 5 0.000000 0.000000 0.000000 0.000000 0.087248 0.000000
# 6 0.000000 0.000000 0.000000 0.000000 0.000000 0.057779
#
#
# Mechanical properties :
#
#
# Convention : Reuss Voigt Hill
#
# Bulk Modulus (GPa) = 38.43453 49.42594 43.93023
# Shear Modulus (GPa) = 15.82429 26.16271 20.99350
#
# Velocity S-wave (km/s) = 2.63818 3.39222 3.03868
# Velocity P-wave (km/s) = 5.11710 6.08949 5.62435
#
# Compressibility (1/GPa) = 0.02601827
#
# Stress axis : x y z
#
# Youngs Moduli (GPa) = 175.21906 50.35232 90.36241
#
# Poissons Ratio (x) = 0.09951 0.08636
# Poissons Ratio (y) = 0.34630 0.21467
# Poissons Ratio (z) = 0.16745 0.11962
#
# Static dielectric constant tensor:
#      x y z
#    x 1.913290 0.000000 0.000000 
#    y 0.000000 1.855500 0.000000 
#    z 0.000000 0.000000 1.820670 
# 
# From -- ./inp_files/4453.got.cif
#   From: 2010.05.17/outbox.cif.g08.bks.cpg/sg46_3_cif.got.tgz:4453.got - 2010.06.03 19:58:25.
