data_PCOD9379968
_publ_section_title
;
Structure prediction by ZEFSAII (Michael W. Deem and Ramdas Pophale) SiO2 
 PCOD9379968
Probable space group: I M A 2
;
_chemical_formula_sum "Si O2"
_cell_formula_units_Z 64
_cell_length_a 19.062716
_cell_length_b 5.279269
_cell_length_c 29.463870
_cell_angle_alpha 90.000000
_cell_angle_beta 90.000000
_cell_angle_gamma 90.000000
_cell_volume 2965.161544
_symmetry_space_group_name_H-M "I M A 2"
_symmetry_group_IT_number 46
_symmetry_cell_setting 'orthorhombic'
loop_
_space_group_symop_operation_xyz
x,y,z
-x,-y,z
1/2-x,y,z
1/2+x,-y,z
1/2+x,1/2+y,1/2+z
1/2-x,1/2-y,1/2+z
-x,1/2+y,1/2+z
x,1/2-y,1/2+z
loop_
_atom_site_type_symbol
_atom_site_label
_atom_site_fract_x
_atom_site_fract_y
_atom_site_fract_z
Si Si1 0.666046 0.182293 0.449450
Si Si2 0.335854 0.173527 0.901078
Si Si3 0.669417 0.423746 0.307864
Si Si4 0.666868 0.564358 0.749035
Si Si5 0.671574 0.294002 0.134537
Si Si6 0.428493 0.117095 0.091123
Si Si7 0.673106 0.594707 0.040495
Si Si8 0.571078 0.627158 0.185473
O O1 0.750000 0.186748 0.442452
O O2 0.640088 0.954012 0.416384
O O3 0.656297 0.103833 0.501525
O O4 0.643068 0.465294 0.438359
O O5 0.250000 0.191396 0.897945
O O6 0.361150 0.038684 0.854576
O O7 0.750000 0.352164 0.319013
O O8 0.668720 0.670232 0.276164
O O9 0.643781 0.173581 0.280792
O O10 0.750000 0.521963 0.735583
O O11 0.607929 0.637063 0.711280
O O12 0.750000 0.212804 0.145587
O O13 0.676846 0.482295 0.091415
O O14 0.633678 0.426070 0.176819
O O15 0.625369 0.071925 0.114866
O O16 0.390037 0.218093 0.046962
O O17 0.448189 0.295007 0.133857
O O18 0.500000 0.000000 0.075854
O O19 0.750000 0.707489 0.029809
O O20 0.500000 0.500000 0.205447
#
# Coordination Sequence:
#
# PCOD9379968 Si02
#       8
#     8   8   8   8   8   8   8   8
#     4   9  17  28  48  79 114 149 184 230 286 343
#     4   9  16  28  49  77 113 149 181 227 290 346
#     4   9  18  33  52  81 116 149 185 232 291 352
#     4  10  21  35  56  83 114 148 190 240 290 347
#     4  10  21  37  58  80 112 151 192 239 293 346
#     4  11  22  37  58  78 108 154 194 239 289 344
#     4   9  20  34  51  82 116 148 192 240 288 341
#     4  11  23  39  55  81 113 149 195 244 293 350
#
# _framework density 21.583985999999999
#
# number of rings (size 3 to 8) (size 9 to 14) (size 15 to 20)
#    0.000    2.250    1.250    1.500    3.500    4.500 
#    0.000    0.000    0.000    0.000    0.000    5.250 
#    0.000    0.000    0.000    0.000    0.000    0.000 
#
# Total GULP energy -178290.758305 kJ/mol
# GULP energy per Si atom -5571.586197 kJ/mol
# Density = 2.153486 g / cm^3
# Si number density = 21.583986 Si / 1000 Ang^3
#
#
#
# Elastic Constant Matrix: (Units=GPa)
#
#
# Indices 1 2 3 4 5 6 
#
# 1 76.3892 9.8810 3.9309 0.0000 0.0000 0.0000
# 2 9.8810 61.5561 -13.9279 0.0000 0.0000 0.0000
# 3 3.9309 -13.9279 51.2413 0.0000 0.0000 0.0000
# 4 0.0000 0.0000 0.0000 31.2851 0.0000 0.0000
# 5 0.0000 0.0000 0.0000 0.0000 17.9148 0.0000
# 6 0.0000 0.0000 0.0000 0.0000 0.0000 -50.4115
#
#
#
# Elastic Compliance Matrix: (Units=1/GPa)
#
#
# Indices 1 2 3 4 5 6 
#
# 1 0.013511 -0.002561 -0.001733 0.000000 0.000000 0.000000
# 2 -0.002561 0.017795 0.005033 0.000000 0.000000 0.000000
# 3 -0.001733 0.005033 0.021017 0.000000 0.000000 0.000000
# 4 0.000000 0.000000 0.000000 0.031964 0.000000 0.000000
# 5 0.000000 0.000000 0.000000 0.000000 0.055820 0.000000
# 6 0.000000 0.000000 0.000000 0.000000 0.000000 -0.019837
#
#
# Mechanical properties :
#
#
# Convention : Reuss Voigt Hill
#
# Bulk Modulus (GPa) = 18.58629 20.99495 19.79062
# Shear Modulus (GPa) = 36.56986 12.37787 24.47386
#
# Velocity S-wave (km/s) = 4.12066 2.39733 3.37098
# Velocity P-wave (km/s) = 5.59192 4.17267 4.93360
#
# Compressibility (1/GPa) = 0.05380310
#
# Stress axis : x y z
#
# Youngs Moduli (GPa) = 74.01237 56.19467 47.58151
#
# Poissons Ratio (x) = 0.14391 0.08244
# Poissons Ratio (y) = 0.18953 -0.23950
# Poissons Ratio (z) = 0.12823 -0.28285
#
# Static dielectric constant tensor:
#      x y z
#    x 1.784030 0.000000 0.000000 
#    y 0.000000 1.857920 0.000000 
#    z 0.000000 0.000000 1.849160 
# 
# From -- ./inp_files/24721.got.cif
#   From: 2010.05.17/outbox.cif.g08.bks.cpg/sg46_13_cif.got.tgz:24721.got - 2010.06.03 19:58:25.
