data_PCOD9379987
_publ_section_title
;
Structure prediction by ZEFSAII (Michael W. Deem and Ramdas Pophale) SiO2 
 PCOD9379987
Probable space group: I M A 2
;
_chemical_formula_sum "Si O2"
_cell_formula_units_Z 48
_cell_length_a 9.141720
_cell_length_b 18.698593
_cell_length_c 15.085198
_cell_angle_alpha 90.000000
_cell_angle_beta 90.000000
_cell_angle_gamma 90.000000
_cell_volume 2578.623040
_symmetry_space_group_name_H-M "I M A 2"
_symmetry_group_IT_number 46
_symmetry_cell_setting 'orthorhombic'
loop_
_space_group_symop_operation_xyz
x,y,z
-x,-y,z
1/2-x,y,z
1/2+x,-y,z
1/2+x,1/2+y,1/2+z
1/2-x,1/2-y,1/2+z
-x,1/2+y,1/2+z
x,1/2-y,1/2+z
loop_
_atom_site_type_symbol
_atom_site_label
_atom_site_fract_x
_atom_site_fract_y
_atom_site_fract_z
Si Si1 0.425622 0.427231 0.595800
Si Si2 0.075516 0.574311 0.041588
Si Si3 0.575613 0.356211 0.226720
Si Si4 0.922623 0.705082 0.718427
Si Si5 0.421574 0.305310 0.926525
Si Si6 0.425586 0.360358 0.411735
O O1 0.500000 0.500000 0.625836
O O2 0.250000 0.433504 0.601429
O O3 0.468454 0.359131 0.654854
O O4 0.464555 0.410383 0.493862
O O5 0.250000 0.568944 0.032445
O O6 0.040594 0.592859 0.144114
O O7 0.000000 0.500000 0.016015
O O8 0.015394 0.639548 0.982693
O O9 0.750000 0.352554 0.236479
O O10 0.512206 0.277541 0.205082
O O11 0.503589 0.378352 0.319786
O O12 0.750000 0.720433 0.702828
O O13 0.937167 0.682259 0.821088
O O14 0.250000 0.313230 0.950097
O O15 0.461823 0.221779 0.938551
O O16 0.250000 0.361889 0.398177
#
# Coordination Sequence:
#
# PCOD9379987 Si02
#       6
#     8   8   8   8   8   8
#     4  10  21  36  54  79 111 145 179 215 260 315
#     4  11  24  38  53  77 109 144 179 218 267 318
#     4  10  21  36  56  82 107 135 177 226 269 309
#     4   9  19  37  59  81 107 141 178 215 262 320
#     4   9  18  35  59  82 103 134 178 223 265 313
#     4   9  19  36  58  81 106 141 179 215 263 319
#
# _framework density 18.614587
#
# number of rings (size 3 to 8) (size 9 to 14) (size 15 to 20)
#    0.000    2.333    0.000    3.000    0.000    9.333 
#    0.000    5.000    0.000    0.000    0.000    0.000 
#    0.000    0.000    0.000    0.000    0.000    0.000 
#
# Total GULP energy -134015.349303 kJ/mol
# GULP energy per Si atom -5583.972888 kJ/mol
# Density = 1.857222 g / cm^3
# Si number density = 18.614587 Si / 1000 Ang^3
#
#
#
# Elastic Constant Matrix: (Units=GPa)
#
#
# Indices 1 2 3 4 5 6 
#
# 1 25.6873 10.2670 15.0331 0.0000 0.0000 0.0000
# 2 10.2670 19.6842 13.2987 0.0000 0.0000 0.0000
# 3 15.0331 13.2987 25.8453 0.0000 0.0000 0.0000
# 4 0.0000 0.0000 0.0000 2.5435 0.0000 0.0000
# 5 0.0000 0.0000 0.0000 0.0000 27.5249 0.0000
# 6 0.0000 0.0000 0.0000 0.0000 0.0000 25.7885
#
#
#
# Elastic Compliance Matrix: (Units=1/GPa)
#
#
# Indices 1 2 3 4 5 6 
#
# 1 0.060812 -0.011989 -0.029203 0.000000 0.000000 0.000000
# 2 -0.011989 0.080237 -0.034312 0.000000 0.000000 0.000000
# 3 -0.029203 -0.034312 0.073333 -0.000001 0.000000 0.000000
# 4 0.000000 0.000000 -0.000001 0.393159 0.000000 0.000000
# 5 0.000000 0.000000 0.000000 0.000000 0.036331 0.000000
# 6 0.000000 0.000000 0.000000 0.000000 0.000000 0.038777
#
#
# Mechanical properties :
#
#
# Convention : Reuss Voigt Hill
#
# Bulk Modulus (GPa) = 15.77940 16.49048 16.13494
# Shear Modulus (GPa) = 5.84944 13.34592 9.59768
#
# Velocity S-wave (km/s) = 1.77460 2.68052 2.27315
# Velocity P-wave (km/s) = 3.56290 4.29632 3.94668
#
# Compressibility (1/GPa) = 0.06337376
#
# Stress axis : x y z
#
# Youngs Moduli (GPa) = 16.44403 12.46306 13.63642
#
# Poissons Ratio (x) = 0.14942 0.39822
# Poissons Ratio (y) = 0.19715 0.46789
# Poissons Ratio (z) = 0.48021 0.42763
#
# Static dielectric constant tensor:
#      x y z
#    x 1.620270 0.000000 0.000000 
#    y 0.000000 1.612680 0.000000 
#    z 0.000000 0.000000 1.645510 
# 
# From -- ./inp_files/13885.got.cif
#   From: 2010.05.17/outbox.cif.g08.bks.cpg/sg46_7_cif.got.tgz:13885.got - 2010.06.03 19:58:25.
