data_PCOD9379536
_publ_section_title
;
Structure prediction by ZEFSAII (Michael W. Deem and Ramdas Pophale) SiO2 
 PCOD9379536
Probable space group: I M A 2
;
_chemical_formula_sum "Si O2"
_cell_formula_units_Z 64
_cell_length_a 12.262553
_cell_length_b 19.922304
_cell_length_c 13.184919
_cell_angle_alpha 90.000000
_cell_angle_beta 90.000000
_cell_angle_gamma 90.000000
_cell_volume 3221.053412
_symmetry_space_group_name_H-M "I M A 2"
_symmetry_group_IT_number 46
_symmetry_cell_setting 'orthorhombic'
loop_
_space_group_symop_operation_xyz
x,y,z
-x,-y,z
1/2-x,y,z
1/2+x,-y,z
1/2+x,1/2+y,1/2+z
1/2-x,1/2-y,1/2+z
-x,1/2+y,1/2+z
x,1/2-y,1/2+z
loop_
_atom_site_type_symbol
_atom_site_label
_atom_site_fract_x
_atom_site_fract_y
_atom_site_fract_z
Si Si1 0.626020 0.143154 0.947030
Si Si2 0.873009 0.822329 0.388420
Si Si3 0.628854 0.795743 0.736109
Si Si4 0.375692 0.534432 0.624823
Si Si5 0.018694 0.733369 0.057593
Si Si6 0.507440 0.422589 0.259108
Si Si7 0.951345 0.074037 0.334710
Si Si8 0.868589 0.395888 0.058137
O O1 0.750000 0.168007 0.937480
O O2 0.585342 0.116088 0.838687
O O3 0.624429 0.082773 0.028009
O O4 0.551144 0.201142 0.995640
O O5 0.750000 0.848021 0.396324
O O6 0.870156 0.749658 0.336091
O O7 0.931084 0.810881 0.495160
O O8 0.949443 0.873349 0.327326
O O9 0.750000 0.791592 0.690680
O O10 0.538911 0.760164 0.665369
O O11 0.596916 0.872963 0.756468
O O12 0.500000 0.500000 0.621211
O O13 0.250000 0.501436 0.624006
O O14 0.381544 0.573846 0.732073
O O15 0.121586 0.684532 0.068315
O O16 0.500000 0.500000 0.292437
O O17 0.550222 0.423277 0.143448
O O18 0.891583 0.088116 0.440837
O O19 0.000000 0.000000 0.344588
O O20 0.750000 0.421443 0.085434
#
# Coordination Sequence:
#
# PCOD9379536 Si02
#       8
#     8   8   8   8   8   8   8   8
#     4  11  22  39  62  89 124 166 211 264 323 391
#     4  10  20  36  57  85 119 157 201 254 316 383
#     4  10  21  38  61  88 121 162 210 263 321 383
#     4  10  22  40  61  88 124 164 213 265 323 388
#     4  10  20  37  58  84 115 152 202 256 310 377
#     4  11  23  40  61  90 129 169 213 265 320 394
#     4  10  21  37  59  88 121 160 207 266 324 389
#     4  10  21  37  58  84 116 156 204 254 316 380
#
# _framework density 19.869277
#
# number of rings (size 3 to 8) (size 9 to 14) (size 15 to 20)
#    0.000    1.750    1.250    3.000    0.000    3.500 
#    0.000    1.875    0.000    0.000    0.000    0.000 
#    0.000    0.000    0.000    0.000    0.000    0.000 
#
# Total GULP energy -178145.464048 kJ/mol
# GULP energy per Si atom -5567.045751 kJ/mol
# Density = 1.982405 g / cm^3
# Si number density = 19.869277 Si / 1000 Ang^3
#
#
#
# Elastic Constant Matrix: (Units=GPa)
#
#
# Indices 1 2 3 4 5 6 
#
# 1 103.7033 23.5954 9.3868 -0.0008 0.0000 0.0000
# 2 23.5954 71.9764 -4.6874 0.0010 0.0000 0.0000
# 3 9.3868 -4.6874 68.8367 0.0028 0.0000 0.0000
# 4 -0.0008 0.0010 0.0028 175.6373 0.0003 -0.0001
# 5 0.0000 0.0000 0.0000 0.0003 19.3950 0.0000
# 6 0.0000 0.0000 0.0000 -0.0001 0.0000 18.9415
#
#
#
# Elastic Compliance Matrix: (Units=1/GPa)
#
#
# Indices 1 2 3 4 5 6 
#
# 1 0.010613 -0.003589 -0.001692 0.000000 0.000000 0.000000
# 2 -0.003589 0.015169 0.001522 0.000000 0.000000 0.000000
# 3 -0.001692 0.001522 0.014861 0.000000 0.000000 0.000000
# 4 0.000000 0.000000 0.000000 0.005694 0.000000 0.000000
# 5 0.000000 0.000000 0.000000 0.000000 0.051560 0.000000
# 6 0.000000 0.000000 0.000000 0.000000 0.000000 0.052794
#
#
# Mechanical properties :
#
#
# Convention : Reuss Voigt Hill
#
# Bulk Modulus (GPa) = 30.18731 33.45621 31.82176
# Shear Modulus (GPa) = 29.54217 57.20954 43.37586
#
# Velocity S-wave (km/s) = 3.86012 5.37173 4.67739
# Velocity P-wave (km/s) = 5.92396 7.43967 6.72466
#
# Compressibility (1/GPa) = 0.03312650
#
# Stress axis : x y z
#
# Youngs Moduli (GPa) = 94.22712 65.92305 67.28809
#
# Poissons Ratio (x) = 0.23661 0.11382
# Poissons Ratio (y) = 0.33820 -0.10244
# Poissons Ratio (z) = 0.15939 -0.10036
#
# Static dielectric constant tensor:
#      x y z
#    x 1.781950 0.000000 0.000000 
#    y 0.000000 1.696810 0.000000 
#    z 0.000000 0.000000 1.691650 
# 
# From -- ./inp_files/15359.got.cif
#   From: 2010.05.17/outbox.cif.g08.bks.cpg/sg46_8_cif.got.tgz:15359.got - 2010.06.03 19:58:25.
