data_PCOD9379173
_publ_section_title
;
Structure prediction by ZEFSAII (Michael W. Deem and Ramdas Pophale) SiO2 
 PCOD9379173
Probable space group: I M A 2
;
_chemical_formula_sum "Si O2"
_cell_formula_units_Z 60
_cell_length_a 7.559321
_cell_length_b 25.085576
_cell_length_c 14.739122
_cell_angle_alpha 90.000000
_cell_angle_beta 90.000000
_cell_angle_gamma 90.000000
_cell_volume 2794.978547
_symmetry_space_group_name_H-M "I M A 2"
_symmetry_group_IT_number 46
_symmetry_cell_setting 'orthorhombic'
loop_
_space_group_symop_operation_xyz
x,y,z
-x,-y,z
1/2-x,y,z
1/2+x,-y,z
1/2+x,1/2+y,1/2+z
1/2-x,1/2-y,1/2+z
-x,1/2+y,1/2+z
x,1/2-y,1/2+z
loop_
_atom_site_type_symbol
_atom_site_label
_atom_site_fract_x
_atom_site_fract_y
_atom_site_fract_z
Si Si1 0.250000 0.917201 0.071491
Si Si2 0.039253 0.342887 0.259026
Si Si3 0.961783 0.835862 0.556561
Si Si4 0.039320 0.721081 0.752635
Si Si5 0.960374 0.378972 0.870246
Si Si6 0.534736 0.610910 0.445522
Si Si7 0.051949 0.438719 0.702065
Si Si8 0.452872 0.281344 0.543952
O O1 0.404319 0.906199 0.149209
O O2 0.409791 0.930018 0.997590
O O3 0.250000 0.348753 0.255133
O O4 0.969592 0.350629 0.156634
O O5 0.983575 0.381005 0.340548
O O6 0.002867 0.281110 0.283404
O O7 0.750000 0.829171 0.565414
O O8 0.034141 0.777218 0.528369
O O9 0.995508 0.876461 0.475838
O O10 0.250000 0.717156 0.742597
O O11 0.978249 0.676365 0.823005
O O12 0.958116 0.712844 0.652873
O O13 0.750000 0.382459 0.862147
O O14 0.041979 0.424667 0.808058
O O15 0.750000 0.604545 0.453986
O O16 0.472508 0.666850 0.494440
O O17 0.250000 0.428633 0.668603
O O18 0.000000 0.500000 0.687639
O O19 0.250000 0.279714 0.512505
#
# Coordination Sequence:
#
# PCOD9379173 Si02
#       8
#     4   8   8   8   8   8   8   8
#     4  12  24  40  64  94 124 146 202 232 304 384
#     4   9  19  36  52  74 119 168 216 253 292 340
#     4   9  18  33  52  77 113 164 216 257 299 344
#     4  10  20  29  47  75 114 162 205 253 300 349
#     4  11  22  36  54  87 120 154 205 254 303 374
#     4  10  21  36  57  85 120 163 206 254 299 354
#     4  12  25  46  70  94 126 154 187 248 321 387
#     4   9  18  31  48  73 112 163 212 254 298 349
#
# _framework density 21.46707
#
# number of rings (size 3 to 8) (size 9 to 14) (size 15 to 20)
#    0.000    1.867    1.333    3.600    3.733    6.400 
#    0.000    0.000    0.000    0.000    0.000    0.933 
#    0.000    0.000    0.000    0.000    0.000    0.000 
#
# Total GULP energy -167012.827966 kJ/mol
# GULP energy per Si atom -5567.094266 kJ/mol
# Density = 2.141821 g / cm^3
# Si number density = 21.467070 Si / 1000 Ang^3
#
#
#
# Elastic Constant Matrix: (Units=GPa)
#
#
# Indices 1 2 3 4 5 6 
#
# 1 102.0914 7.6426 31.4325 0.0000 0.0000 0.0000
# 2 7.6426 19.3796 20.7249 0.0001 0.0000 0.0000
# 3 31.4325 20.7249 82.3098 0.0002 0.0002 0.0000
# 4 0.0000 0.0001 0.0002 9.5384 0.0000 0.0000
# 5 0.0000 0.0000 0.0002 0.0000 -15.8368 0.0000
# 6 0.0000 0.0000 0.0000 0.0000 0.0000 9.8314
#
#
#
# Elastic Compliance Matrix: (Units=1/GPa)
#
#
# Indices 1 2 3 4 5 6 
#
# 1 0.011101 0.000213 -0.004293 0.000000 0.000000 0.000000
# 2 0.000213 0.070619 -0.017863 0.000000 0.000000 0.000000
# 3 -0.004293 -0.017863 0.018286 0.000000 0.000000 0.000000
# 4 0.000000 0.000000 0.000000 0.104840 0.000000 0.000000
# 5 0.000000 0.000000 0.000000 0.000000 -0.063144 0.000000
# 6 0.000000 0.000000 0.000000 0.000000 0.000000 0.101715
#
#
# Mechanical properties :
#
#
# Convention : Reuss Voigt Hill
#
# Bulk Modulus (GPa) = 17.81848 35.93118 26.87483
# Shear Modulus (GPa) = 16.33938 10.30532 13.32235
#
# Velocity S-wave (km/s) = 2.76186 2.19339 2.49388
# Velocity P-wave (km/s) = 4.29987 4.81547 4.56496
#
# Compressibility (1/GPa) = 0.05612150
#
# Stress axis : x y z
#
# Youngs Moduli (GPa) = 90.08273 14.16043 54.68579
#
# Poissons Ratio (x) = -0.00302 0.23476
# Poissons Ratio (y) = -0.01920 0.97684
# Poissons Ratio (z) = 0.38671 0.25294
#
# Static dielectric constant tensor:
#      x y z
#    x 1.878480 0.000000 0.000000 
#    y 0.000000 1.841130 0.000000 
#    z 0.000000 0.000000 1.826670 
# 
# From -- ./inp_files/14637.got.cif
#   From: 2010.05.17/outbox.cif.g08.bks.cpg/sg46_8_cif.got.tgz:14637.got - 2010.06.03 19:58:25.
