data_PCOD9379255
_publ_section_title
;
Structure prediction by ZEFSAII (Michael W. Deem and Ramdas Pophale) SiO2 
 PCOD9379255
Probable space group: I M A 2
;
_chemical_formula_sum "Si O2"
_cell_formula_units_Z 64
_cell_length_a 7.461944
_cell_length_b 26.792908
_cell_length_c 13.820507
_cell_angle_alpha 90.000000
_cell_angle_beta 90.000000
_cell_angle_gamma 90.000000
_cell_volume 2763.094978
_symmetry_space_group_name_H-M "I M A 2"
_symmetry_group_IT_number 46
_symmetry_cell_setting 'orthorhombic'
loop_
_space_group_symop_operation_xyz
x,y,z
-x,-y,z
1/2-x,y,z
1/2+x,-y,z
1/2+x,1/2+y,1/2+z
1/2-x,1/2-y,1/2+z
-x,1/2+y,1/2+z
x,1/2-y,1/2+z
loop_
_atom_site_type_symbol
_atom_site_label
_atom_site_fract_x
_atom_site_fract_y
_atom_site_fract_z
Si Si1 0.034243 0.737436 0.926310
Si Si2 0.034841 0.809562 0.097184
Si Si3 0.453095 0.079648 0.049448
Si Si4 0.458686 0.121904 0.434885
Si Si5 0.464485 0.441965 0.334387
Si Si6 0.958529 0.880461 0.650030
Si Si7 0.466000 0.726476 0.229016
Si Si8 0.464216 0.055768 0.259648
O O1 0.250000 0.733544 0.922135
O O2 0.978433 0.774043 0.839989
O O3 0.966301 0.681404 0.922192
O O4 0.986711 0.765903 0.023090
O O5 0.250000 0.817352 0.095349
O O6 0.982920 0.782515 0.196187
O O7 0.949426 0.861196 0.068283
O O8 0.250000 0.059149 0.044585
O O9 0.534447 0.069695 0.943305
O O10 0.537764 0.059977 0.149735
O O11 0.250000 0.106995 0.438462
O O12 0.535742 0.110291 0.542313
O O13 0.535059 0.094346 0.340133
O O14 0.500000 0.500000 0.314404
O O15 0.250000 0.432850 0.338641
O O16 0.535024 0.408777 0.244520
O O17 0.750000 0.895128 0.645005
O O18 0.966005 0.821301 0.671800
O O19 0.250000 0.723974 0.219770
O O20 0.250000 0.064410 0.250392
O O21 0.500000 0.000000 0.294952
#
# Coordination Sequence:
#
# PCOD9379255 Si02
#       8
#     8   8   8   8   8   8   8   8
#     4  10  20  34  53  79 111 145 183 226 270 322
#     4  10  20  33  51  80 112 141 178 218 264 324
#     4  10  21  37  57  82 112 143 181 230 279 334
#     4  10  21  37  56  80 112 147 185 228 272 328
#     4  10  22  39  58  82 109 141 185 233 282 333
#     4  10  21  37  56  80 112 147 185 228 272 328
#     4  10  20  34  53  79 111 145 183 226 270 322
#     4  10  22  39  58  82 109 141 185 233 282 333
#
# _framework density 23.162433
#
# number of rings (size 3 to 8) (size 9 to 14) (size 15 to 20)
#    0.000    2.000    1.250    1.875    0.000    4.000 
#    0.000    0.000    0.000    0.000    0.000    0.000 
#    0.000    0.000    0.000    0.000    0.000    0.000 
#
# Total GULP energy -178626.363390 kJ/mol
# GULP energy per Si atom -5582.073856 kJ/mol
# Density = 2.310971 g / cm^3
# Si number density = 23.162433 Si / 1000 Ang^3
#
#
#
# Elastic Constant Matrix: (Units=GPa)
#
#
# Indices 1 2 3 4 5 6 
#
# 1 65.0286 -11.9404 11.7345 0.0000 0.0000 0.0000
# 2 -11.9404 93.4208 26.4274 0.0000 0.0000 0.0000
# 3 11.7345 26.4274 141.8403 0.0000 -0.0001 0.0000
# 4 0.0000 0.0000 0.0000 21.3851 0.0000 0.0000
# 5 0.0000 0.0000 -0.0001 0.0000 -17.2009 0.0000
# 6 0.0000 0.0000 0.0000 0.0000 0.0000 21.8209
#
#
#
# Elastic Compliance Matrix: (Units=1/GPa)
#
#
# Indices 1 2 3 4 5 6 
#
# 1 0.016181 0.002583 -0.001820 0.000000 0.000000 0.000000
# 2 0.002583 0.011712 -0.002396 0.000000 0.000000 0.000000
# 3 -0.001820 -0.002396 0.007647 0.000000 0.000000 0.000000
# 4 0.000000 0.000000 0.000000 0.046762 0.000000 0.000000
# 5 0.000000 0.000000 0.000000 0.000000 -0.058137 0.000000
# 6 0.000000 0.000000 0.000000 0.000000 0.000000 0.045828
#
#
# Mechanical properties :
#
#
# Convention : Reuss Voigt Hill
#
# Bulk Modulus (GPa) = 30.98457 39.19253 35.08855
# Shear Modulus (GPa) = 59.51237 23.47223 41.49230
#
# Velocity S-wave (km/s) = 5.07437 3.18681 4.23704
# Velocity P-wave (km/s) = 6.90930 5.52254 6.25448
#
# Compressibility (1/GPa) = 0.03227413
#
# Stress axis : x y z
#
# Youngs Moduli (GPa) = 61.80274 85.38146 130.76792
#
# Poissons Ratio (x) = -0.22053 0.23798
# Poissons Ratio (y) = -0.15963 0.31330
# Poissons Ratio (z) = 0.11247 0.20456
#
# Static dielectric constant tensor:
#      x y z
#    x 1.902450 0.000000 0.000000 
#    y 0.000000 1.799580 0.000000 
#    z 0.000000 0.000000 1.912530 
# 
# From -- ./inp_files/14484.got.cif
#   From: 2010.05.17/outbox.cif.g08.bks.cpg/sg46_8_cif.got.tgz:14484.got - 2010.06.03 19:58:25.
