data_PCOD9379503
_publ_section_title
;
Structure prediction by ZEFSAII (Michael W. Deem and Ramdas Pophale) SiO2 
 PCOD9379503
Probable space group: I M A 2
;
_chemical_formula_sum "Si O2"
_cell_formula_units_Z 40
_cell_length_a 19.658309
_cell_length_b 8.578714
_cell_length_c 10.096132
_cell_angle_alpha 90.000000
_cell_angle_beta 90.000000
_cell_angle_gamma 90.000000
_cell_volume 1702.642096
_symmetry_space_group_name_H-M "I M A 2"
_symmetry_group_IT_number 46
_symmetry_cell_setting 'orthorhombic'
loop_
_space_group_symop_operation_xyz
x,y,z
-x,-y,z
1/2-x,y,z
1/2+x,-y,z
1/2+x,1/2+y,1/2+z
1/2-x,1/2-y,1/2+z
-x,1/2+y,1/2+z
x,1/2-y,1/2+z
loop_
_atom_site_type_symbol
_atom_site_label
_atom_site_fract_x
_atom_site_fract_y
_atom_site_fract_z
Si Si1 0.669672 0.080150 0.618340
Si Si2 0.675117 0.900781 0.347373
Si Si3 0.327532 0.566524 0.583366
Si Si4 0.956081 0.635775 0.532186
Si Si5 0.071011 0.141416 0.751842
O O1 0.750000 0.081785 0.661573
O O2 0.653599 0.253304 0.565200
O O3 0.664711 0.962365 0.494326
O O4 0.615001 0.013257 0.722329
O O5 0.750000 0.830067 0.338990
O O6 0.623371 0.775739 0.294267
O O7 0.672671 0.041208 0.242314
O O8 0.250000 0.540185 0.536176
O O9 0.380017 0.438907 0.528364
O O10 0.961313 0.792671 0.616478
O O11 0.977781 0.648357 0.379237
O O12 0.000000 0.500000 0.599702
#
# Coordination Sequence:
#
# PCOD9379503 Si02
#       5
#     8   8   8   8   8
#     4  10  20  35  63  99 131 170 213 262 321 380
#     4   9  18  35  58  92 130 164 208 263 314 374
#     4   9  21  39  64  95 133 169 211 264 319 378
#     4  11  26  46  67  94 128 170 217 265 323 385
#     4  11  22  43  64  90 126 169 219 258 324 379
#
# _framework density 23.492898
#
# number of rings (size 3 to 8) (size 9 to 14) (size 15 to 20)
#    0.000    2.000    2.000    0.600    2.800    4.000 
#    3.600    1.000    0.000    0.000    0.000    0.000 
#    0.000    0.000    0.000    0.000    0.000    0.000 
#
# Total GULP energy -111650.365128 kJ/mol
# GULP energy per Si atom -5582.518256 kJ/mol
# Density = 2.343943 g / cm^3
# Si number density = 23.492898 Si / 1000 Ang^3
#
#
#
# Elastic Constant Matrix: (Units=GPa)
#
#
# Indices 1 2 3 4 5 6 
#
# 1 27.8674 9.1271 3.6811 0.0000 0.0000 0.0000
# 2 9.1271 63.9814 -2.8672 0.0000 0.0000 0.0000
# 3 3.6811 -2.8672 83.1963 0.0000 0.0000 0.0000
# 4 0.0000 0.0000 0.0000 21.6461 0.0000 0.0000
# 5 0.0000 0.0000 0.0000 0.0000 8.9452 0.0000
# 6 0.0000 0.0000 0.0000 0.0000 0.0000 34.2582
#
#
#
# Elastic Compliance Matrix: (Units=1/GPa)
#
#
# Indices 1 2 3 4 5 6 
#
# 1 0.037930 -0.005495 -0.001868 0.000000 0.000000 0.000000
# 2 -0.005495 0.016450 0.000810 0.000000 0.000000 0.000000
# 3 -0.001868 0.000810 0.012130 0.000000 0.000000 0.000000
# 4 0.000000 0.000000 0.000000 0.046198 0.000000 0.000000
# 5 0.000000 0.000000 0.000000 0.000000 0.111792 0.000000
# 6 0.000000 0.000000 0.000000 0.000000 0.000000 0.029190
#
#
# Mechanical properties :
#
#
# Convention : Reuss Voigt Hill
#
# Bulk Modulus (GPa) = 18.72444 21.65855 20.19150
# Shear Modulus (GPa) = 17.56872 23.97683 20.77278
#
# Velocity S-wave (km/s) = 2.73762 3.19815 2.97680
# Velocity P-wave (km/s) = 4.24032 4.78296 4.51979
#
# Compressibility (1/GPa) = 0.05340613
#
# Stress axis : x y z
#
# Youngs Moduli (GPa) = 26.36406 60.79153 82.43814
#
# Poissons Ratio (x) = 0.33402 0.15396
# Poissons Ratio (y) = 0.14486 -0.06678
# Poissons Ratio (z) = 0.04924 -0.04924
#
# Static dielectric constant tensor:
#      x y z
#    x 1.916410 0.000000 0.000000 
#    y 0.000000 1.884110 0.000000 
#    z 0.000000 0.000000 1.930410 
# 
# From -- ./inp_files/7699.got.cif
#   From: 2010.05.17/outbox.cif.g08.bks.cpg/sg46_4_cif.got.tgz:7699.got - 2010.06.03 19:58:25.
