data_PCOD9379198
_publ_section_title
;
Structure prediction by ZEFSAII (Michael W. Deem and Ramdas Pophale) SiO2 
 PCOD9379198
Probable space group: I M A 2
;
_chemical_formula_sum "Si O2"
_cell_formula_units_Z 64
_cell_length_a 8.806138
_cell_length_b 23.845473
_cell_length_c 19.512847
_cell_angle_alpha 90.000000
_cell_angle_beta 90.000000
_cell_angle_gamma 90.000000
_cell_volume 4097.434952
_symmetry_space_group_name_H-M "I M A 2"
_symmetry_group_IT_number 46
_symmetry_cell_setting 'orthorhombic'
loop_
_space_group_symop_operation_xyz
x,y,z
-x,-y,z
1/2-x,y,z
1/2+x,-y,z
1/2+x,1/2+y,1/2+z
1/2-x,1/2-y,1/2+z
-x,1/2+y,1/2+z
x,1/2-y,1/2+z
loop_
_atom_site_type_symbol
_atom_site_label
_atom_site_fract_x
_atom_site_fract_y
_atom_site_fract_z
Si Si1 0.568758 0.275628 0.656500
Si Si2 0.432239 0.439034 0.165166
Si Si3 0.931266 0.061672 0.946264
Si Si4 0.067596 0.117297 0.809888
Si Si5 0.930659 0.258333 0.306236
Si Si6 0.433256 0.168287 0.581303
Si Si7 0.068997 0.342027 0.535422
Si Si8 0.569281 0.769846 0.446370
O O1 0.750000 0.279948 0.648419
O O2 0.530852 0.275231 0.736951
O O3 0.512377 0.215882 0.626978
O O4 0.489041 0.322187 0.609528
O O5 0.500000 0.500000 0.153907
O O6 0.250000 0.443019 0.164147
O O7 0.475141 0.414733 0.239918
O O8 0.477118 0.392571 0.108957
O O9 0.750000 0.059116 0.944465
O O10 0.992947 0.087540 0.875067
O O11 0.000000 0.000000 0.955191
O O12 0.987237 0.103667 0.005555
O O13 0.250000 0.116152 0.817288
O O14 0.013181 0.181424 0.805311
O O15 0.750000 0.268000 0.306469
O O16 0.981006 0.227785 0.375546
O O17 0.250000 0.174838 0.589358
O O18 0.468695 0.182830 0.502535
O O19 0.250000 0.350001 0.536011
O O20 0.036563 0.289577 0.484149
O O21 0.750000 0.771384 0.433309
#
# Coordination Sequence:
#
# PCOD9379198 Si02
#       8
#     8   8   8   8   8   8   8   8
#     4  10  20  32  49  74 101 131 165 207 255 302
#     4  10  21  34  50  70  97 133 173 211 249 294
#     4  12  24  37  53  73 102 137 175 215 251 298
#     4  11  21  34  50  70 100 140 178 210 247 295
#     4  11  21  31  48  75 105 135 167 206 254 304
#     4   9  18  34  50  69  95 130 168 208 251 301
#     4  10  20  35  53  74  99 132 170 210 253 301
#     4   9  18  31  51  71  96 128 165 206 251 304
#
# _framework density 15.619528000000001
#
# number of rings (size 3 to 8) (size 9 to 14) (size 15 to 20)
#    0.000    1.750    2.500    3.750    0.000    6.000 
#    0.000    0.000    0.000    0.000    0.000    0.875 
#    0.000    4.000    0.000    0.000    0.000    0.000 
#
# Total GULP energy -178647.700099 kJ/mol
# GULP energy per Si atom -5582.740628 kJ/mol
# Density = 1.558398 g / cm^3
# Si number density = 15.619528 Si / 1000 Ang^3
#
#
#
# Elastic Constant Matrix: (Units=GPa)
#
#
# Indices 1 2 3 4 5 6 
#
# 1 62.3052 41.0138 56.7887 0.0000 0.0000 0.0000
# 2 41.0138 100.9599 67.3887 0.0000 0.0000 0.0000
# 3 56.7887 67.3887 126.8288 0.0000 0.0000 0.0000
# 4 0.0000 0.0000 0.0000 16.4789 0.0000 0.0000
# 5 0.0000 0.0000 0.0000 0.0000 25.3703 0.0000
# 6 0.0000 0.0000 0.0000 0.0000 0.0000 25.8341
#
#
#
# Elastic Compliance Matrix: (Units=1/GPa)
#
#
# Indices 1 2 3 4 5 6 
#
# 1 0.028511 -0.004744 -0.010246 0.000000 0.000000 0.000000
# 2 -0.004744 0.016137 -0.006450 0.000000 0.000000 0.000000
# 3 -0.010246 -0.006450 0.015900 0.000000 0.000000 0.000000
# 4 0.000000 0.000000 0.000000 0.060684 0.000000 0.000000
# 5 0.000000 0.000000 0.000000 0.000000 0.039416 0.000000
# 6 0.000000 0.000000 0.000000 0.000000 0.000000 0.038709
#
#
# Mechanical properties :
#
#
# Convention : Reuss Voigt Hill
#
# Bulk Modulus (GPa) = 56.59688 68.94181 62.76934
# Shear Modulus (GPa) = 20.15109 21.86349 21.00729
#
# Velocity S-wave (km/s) = 3.59572 3.74539 3.67132
# Velocity P-wave (km/s) = 7.31794 7.93334 7.63185
#
# Compressibility (1/GPa) = 0.01766882
#
# Stress axis : x y z
#
# Youngs Moduli (GPa) = 35.07414 61.96750 62.89467
#
# Poissons Ratio (x) = 0.29394 0.64440
# Poissons Ratio (y) = 0.16637 0.40570
# Poissons Ratio (z) = 0.35936 0.39972
#
# Static dielectric constant tensor:
#      x y z
#    x 1.525820 0.000000 0.000000 
#    y 0.000000 1.494690 0.000000 
#    z 0.000000 0.000000 1.526340 
# 
# From -- ./inp_files/18627.got.cif
#   From: 2010.05.17/outbox.cif.g08.bks.cpg/sg46_10_cif.got.tgz:18627.got - 2010.06.03 19:58:25.
