data_PCOD9379876
_publ_section_title
;
Structure prediction by ZEFSAII (Michael W. Deem and Ramdas Pophale) SiO2 
 PCOD9379876
Probable space group: I M A 2
;
_chemical_formula_sum "Si O2"
_cell_formula_units_Z 52
_cell_length_a 19.113250
_cell_length_b 9.989712
_cell_length_c 11.339286
_cell_angle_alpha 90.000000
_cell_angle_beta 90.000000
_cell_angle_gamma 90.000000
_cell_volume 2165.076357
_symmetry_space_group_name_H-M "I M A 2"
_symmetry_group_IT_number 46
_symmetry_cell_setting 'orthorhombic'
loop_
_space_group_symop_operation_xyz
x,y,z
-x,-y,z
1/2-x,y,z
1/2+x,-y,z
1/2+x,1/2+y,1/2+z
1/2-x,1/2-y,1/2+z
-x,1/2+y,1/2+z
x,1/2-y,1/2+z
loop_
_atom_site_type_symbol
_atom_site_label
_atom_site_fract_x
_atom_site_fract_y
_atom_site_fract_z
Si Si1 0.104741 0.587104 0.941470
Si Si2 0.750000 0.233891 0.474070
Si Si3 0.000000 0.000000 0.102433
Si Si4 0.523169 0.174652 0.888571
Si Si5 0.750000 0.117597 0.726749
Si Si6 0.379584 0.288709 0.652998
Si Si7 0.132138 0.277172 0.903127
Si Si8 0.095971 0.988947 0.686271
O O1 0.180625 0.652244 0.943965
O O2 0.056232 0.680101 0.863440
O O3 0.114101 0.432502 0.917829
O O4 0.073623 0.594303 0.072225
O O5 0.750000 0.234975 0.621198
O O6 0.750000 0.344019 0.366947
O O7 0.937097 0.909587 0.159422
O O8 0.038416 0.893094 0.015430
O O9 0.440607 0.197377 0.890208
O O10 0.558354 0.076211 0.796244
O O11 0.820710 0.034657 0.702228
O O12 0.334405 0.278454 0.773024
O O13 0.339761 0.283232 0.526516
O O14 0.417661 0.143714 0.656563
#
# Coordination Sequence:
#
# PCOD9379876 Si02
#       8
#     8   4   4   8   4   8   8   8
#     4  10  22  37  63  89 124 166 211 262 315 376
#     4  10  20  42  61  91 123 165 219 267 315 369
#     4  10  24  38  56  86 132 160 208 260 318 390
#     4  11  21  37  57  89 127 165 205 254 318 386
#     4  10  20  40  63  91 125 167 215 269 315 377
#     4  10  22  42  58  87 122 166 208 252 314 385
#     4  10  23  39  58  90 127 166 202 257 316 386
#     4  10  21  37  64  87 123 169 215 259 320 378
#
# _framework density 24.017628999999999
#
# number of rings (size 3 to 8) (size 9 to 14) (size 15 to 20)
#    0.000    1.846    1.538    2.308    6.462    0.000 
#    0.000    0.769    0.000    5.538    0.000    0.000 
#    0.000    0.000    0.000    0.000    0.000    0.000 
#
# Total GULP energy -144838.501249 kJ/mol
# GULP energy per Si atom -5570.711586 kJ/mol
# Density = 2.396296 g / cm^3
# Si number density = 24.017629 Si / 1000 Ang^3
#
#
#
# Elastic Constant Matrix: (Units=GPa)
#
#
# Indices 1 2 3 4 5 6 
#
# 1 76.7922 -0.2680 6.9385 0.0000 0.0000 0.0000
# 2 -0.2680 93.0837 -9.8061 0.0000 0.0000 0.0000
# 3 6.9385 -9.8061 126.7555 0.0000 0.0000 0.0000
# 4 0.0000 0.0000 0.0000 33.0717 0.0000 0.0000
# 5 0.0000 0.0000 0.0000 0.0000 13.7826 0.0000
# 6 0.0000 0.0000 0.0000 0.0000 0.0000 8.6392
#
#
#
# Elastic Compliance Matrix: (Units=1/GPa)
#
#
# Indices 1 2 3 4 5 6 
#
# 1 0.013087 -0.000038 -0.000719 0.000000 0.000000 0.000000
# 2 -0.000038 0.010831 0.000840 0.000000 0.000000 0.000000
# 3 -0.000719 0.000840 0.007994 0.000000 0.000000 0.000000
# 4 0.000000 0.000000 0.000000 0.030237 0.000000 0.000000
# 5 0.000000 0.000000 0.000000 0.000000 0.072555 0.000000
# 6 0.000000 0.000000 0.000000 0.000000 0.000000 0.115751
#
#
# Mechanical properties :
#
#
# Convention : Reuss Voigt Hill
#
# Bulk Modulus (GPa) = 31.17479 32.26225 31.71852
# Shear Modulus (GPa) = 19.15835 31.08316 25.12075
#
# Velocity S-wave (km/s) = 2.82738 3.60138 3.23759
# Velocity P-wave (km/s) = 4.86487 5.54573 5.21642
#
# Compressibility (1/GPa) = 0.03207720
#
# Stress axis : x y z
#
# Youngs Moduli (GPa) = 76.41159 92.32409 125.10063
#
# Poissons Ratio (x) = 0.00352 0.08999
# Poissons Ratio (y) = 0.00291 -0.10509
# Poissons Ratio (z) = 0.05496 -0.07756
#
# Static dielectric constant tensor:
#      x y z
#    x 1.853690 0.000000 0.000000 
#    y 0.000000 1.934790 0.000000 
#    z 0.000000 0.000000 2.135830 
# 
# From -- ./inp_files/13057.got.cif
#   From: 2010.05.17/outbox.cif.g08.bks.cpg/sg46_7_cif.got.tgz:13057.got - 2010.06.03 19:58:25.
