data_PCOD9379599
_publ_section_title
;
Structure prediction by ZEFSAII (Michael W. Deem and Ramdas Pophale) SiO2 
 PCOD9379599
Probable space group: I M A 2
;
_chemical_formula_sum "Si O2"
_cell_formula_units_Z 40
_cell_length_a 15.173813
_cell_length_b 9.311335
_cell_length_c 13.220955
_cell_angle_alpha 90.000000
_cell_angle_beta 90.000000
_cell_angle_gamma 90.000000
_cell_volume 1867.968320
_symmetry_space_group_name_H-M "I M A 2"
_symmetry_group_IT_number 46
_symmetry_cell_setting 'orthorhombic'
loop_
_space_group_symop_operation_xyz
x,y,z
-x,-y,z
1/2-x,y,z
1/2+x,-y,z
1/2+x,1/2+y,1/2+z
1/2-x,1/2-y,1/2+z
-x,1/2+y,1/2+z
x,1/2-y,1/2+z
loop_
_atom_site_type_symbol
_atom_site_label
_atom_site_fract_x
_atom_site_fract_y
_atom_site_fract_z
Si Si1 0.403517 0.031063 0.993710
Si Si2 0.459793 0.294396 0.694591
Si Si3 0.649669 0.554187 0.102167
Si Si4 0.151604 0.192197 0.385551
Si Si5 0.152904 0.785755 0.129367
O O1 0.354325 0.141266 0.921225
O O2 0.500000 0.000000 0.949019
O O3 0.422091 0.114660 0.099732
O O4 0.358176 0.884022 0.028917
O O5 0.422237 0.135044 0.670277
O O6 0.417885 0.339891 0.799389
O O7 0.564784 0.311273 0.694034
O O8 0.750000 0.602375 0.130196
O O9 0.634670 0.602680 0.987011
O O10 0.648238 0.383339 0.107124
O O11 0.250000 0.161915 0.348513
O O12 0.250000 0.817801 0.173229
#
# Coordination Sequence:
#
# PCOD9379599 Si02
#       5
#     8   8   8   8   8
#     4   9  20  38  58  82 114 151 189 234 287 339
#     4  10  20  37  59  84 116 154 193 231 278 342
#     4   9  19  36  59  86 116 150 188 235 287 338
#     4  10  20  36  61  87 111 148 195 236 279 338
#     4  10  20  37  60  85 117 153 187 234 291 335
#
# _framework density 21.413640999999998
#
# number of rings (size 3 to 8) (size 9 to 14) (size 15 to 20)
#    0.000    2.400    0.000    1.800    0.000    4.000 
#    0.000   20.000    0.000   22.800    0.000    0.000 
#    0.000    0.000    0.000    0.000    0.000    0.000 
#
# Total GULP energy -111661.069405 kJ/mol
# GULP energy per Si atom -5583.053470 kJ/mol
# Density = 2.136490 g / cm^3
# Si number density = 21.413641 Si / 1000 Ang^3
#
#
#
# Elastic Constant Matrix: (Units=GPa)
#
#
# Indices 1 2 3 4 5 6 
#
# 1 150.7709 5.5250 51.5620 0.0000 0.0000 0.0000
# 2 5.5250 56.5677 -4.6554 0.0000 0.0000 0.0000
# 3 51.5620 -4.6554 41.2479 0.0000 0.0000 0.0000
# 4 0.0000 0.0000 0.0000 4.5090 0.0000 0.0000
# 5 0.0000 0.0000 0.0000 0.0000 24.5082 0.0000
# 6 0.0000 0.0000 0.0000 0.0000 0.0000 23.5644
#
#
#
# Elastic Compliance Matrix: (Units=1/GPa)
#
#
# Indices 1 2 3 4 5 6 
#
# 1 0.011902 -0.002409 -0.015150 0.000000 0.000000 0.000000
# 2 -0.002409 0.018331 0.005081 0.000000 0.000000 0.000000
# 3 -0.015150 0.005081 0.043756 0.000000 0.000000 0.000000
# 4 0.000000 0.000000 0.000000 0.221779 0.000000 0.000000
# 5 0.000000 0.000000 0.000000 0.000000 0.040803 0.000000
# 6 0.000000 0.000000 0.000000 0.000000 0.000000 0.042437
#
#
# Mechanical properties :
#
#
# Convention : Reuss Voigt Hill
#
# Bulk Modulus (GPa) = 20.39504 39.27220 29.83362
# Shear Modulus (GPa) = 11.89601 23.59330 17.74465
#
# Velocity S-wave (km/s) = 2.35953 3.32292 2.88177
# Velocity P-wave (km/s) = 4.11925 5.75344 5.00351
#
# Compressibility (1/GPa) = 0.04903154
#
# Stress axis : x y z
#
# Youngs Moduli (GPa) = 84.01920 54.55129 22.85425
#
# Poissons Ratio (x) = 0.13143 0.34624
# Poissons Ratio (y) = 0.20243 -0.11612
# Poissons Ratio (z) = 1.27290 -0.27716
#
# Static dielectric constant tensor:
#      x y z
#    x 1.808200 0.000000 0.000000 
#    y 0.000000 1.816810 0.000000 
#    z 0.000000 0.000000 1.723250 
# 
# From -- ./inp_files/11586.got.cif
#   From: 2010.05.17/outbox.cif.g08.bks.cpg/sg46_6_cif.got.tgz:11586.got - 2010.06.03 19:58:25.
