data_PCOD9379455
_publ_section_title
;
Structure prediction by ZEFSAII (Michael W. Deem and Ramdas Pophale) SiO2 
 PCOD9379455
Probable space group: I M A 2
;
_chemical_formula_sum "Si O2"
_cell_formula_units_Z 56
_cell_length_a 9.011898
_cell_length_b 20.187693
_cell_length_c 15.831470
_cell_angle_alpha 90.000000
_cell_angle_beta 90.000000
_cell_angle_gamma 90.000000
_cell_volume 2880.210316
_symmetry_space_group_name_H-M "I M A 2"
_symmetry_group_IT_number 46
_symmetry_cell_setting 'orthorhombic'
loop_
_space_group_symop_operation_xyz
x,y,z
-x,-y,z
1/2-x,y,z
1/2+x,-y,z
1/2+x,1/2+y,1/2+z
1/2-x,1/2-y,1/2+z
-x,1/2+y,1/2+z
x,1/2-y,1/2+z
loop_
_atom_site_type_symbol
_atom_site_label
_atom_site_fract_x
_atom_site_fract_y
_atom_site_fract_z
Si Si1 0.420178 0.931084 0.719810
Si Si2 0.088061 0.105822 0.868756
Si Si3 0.923149 0.570075 0.065611
Si Si4 0.920024 0.746836 0.790924
Si Si5 0.928323 0.291075 0.617307
Si Si6 0.424592 0.427399 0.566566
Si Si7 0.426699 0.298379 0.969167
O O1 0.250000 0.927988 0.699747
O O2 0.449969 0.921658 0.817557
O O3 0.509725 0.891886 0.648469
O O4 0.500000 0.000000 0.702931
O O5 0.250000 0.076688 0.842922
O O6 0.088538 0.180074 0.832553
O O7 0.071692 0.093609 0.967246
O O8 0.750000 0.557665 0.081176
O O9 0.940695 0.625343 0.994857
O O10 0.000000 0.500000 0.042827
O O11 0.750000 0.727077 0.770274
O O12 0.015594 0.739340 0.706514
O O13 0.979012 0.707610 0.872518
O O14 0.750000 0.290765 0.613326
O O15 0.991579 0.366446 0.611790
O O16 0.993062 0.249406 0.537133
O O17 0.500000 0.500000 0.576456
O O18 0.250000 0.430350 0.590493
O O19 0.250000 0.280658 0.971178
#
# Coordination Sequence:
#
# PCOD9379455 Si02
#       7
#     8   8   8   8   8   8   8
#     4  11  21  32  49  76 114 152 191 233 289 356
#     4  10  20  36  59  86 116 153 199 250 310 372
#     4  10  20  35  57  83 116 154 199 246 304 367
#     4  10  21  40  64  88 118 160 209 256 311 377
#     4  12  25  40  62  95 130 167 210 264 323 382
#     4  11  23  42  65  91 125 169 217 267 325 387
#     4  10  21  41  65  89 117 161 209 256 313 375
#
# _framework density 19.443023
#
# number of rings (size 3 to 8) (size 9 to 14) (size 15 to 20)
#    0.000    1.429    1.429    5.571    0.000    8.000 
#    0.000    0.714    0.000    1.714    0.000    0.000 
#    0.000    0.000    0.000    0.000    0.000    0.000 
#
# Total GULP energy -155985.694729 kJ/mol
# GULP energy per Si atom -5570.917669 kJ/mol
# Density = 1.939877 g / cm^3
# Si number density = 19.443023 Si / 1000 Ang^3
#
#
#
# Elastic Constant Matrix: (Units=GPa)
#
#
# Indices 1 2 3 4 5 6 
#
# 1 125.0501 49.4490 39.6803 0.0000 0.0000 0.0000
# 2 49.4490 97.3410 29.0972 0.0000 0.0000 0.0000
# 3 39.6803 29.0972 78.4084 0.0000 0.0000 0.0000
# 4 0.0000 0.0000 0.0000 27.7488 0.0000 0.0000
# 5 0.0000 0.0000 0.0000 0.0000 16.2085 0.0000
# 6 0.0000 0.0000 0.0000 0.0000 0.0000 18.6398
#
#
#
# Elastic Compliance Matrix: (Units=1/GPa)
#
#
# Indices 1 2 3 4 5 6 
#
# 1 0.010985 -0.004407 -0.003923 0.000000 0.000000 0.000000
# 2 -0.004407 0.013323 -0.002714 0.000000 0.000000 0.000000
# 3 -0.003923 -0.002714 0.015746 0.000000 0.000000 0.000000
# 4 0.000000 0.000000 0.000000 0.036038 0.000000 0.000000
# 5 0.000000 0.000000 0.000000 0.000000 0.061696 0.000000
# 6 0.000000 0.000000 0.000000 0.000000 0.000000 0.053649
#
#
# Mechanical properties :
#
#
# Convention : Reuss Voigt Hill
#
# Bulk Modulus (GPa) = 55.66359 59.69471 57.67915
# Shear Modulus (GPa) = 22.77759 24.69096 23.73428
#
# Velocity S-wave (km/s) = 3.42644 3.56745 3.49766
# Velocity P-wave (km/s) = 6.65922 6.90927 6.78540
#
# Compressibility (1/GPa) = 0.01796506
#
# Stress axis : x y z
#
# Youngs Moduli (GPa) = 91.03680 75.05649 63.50675
#
# Poissons Ratio (x) = 0.33080 0.24916
# Poissons Ratio (y) = 0.40123 0.17235
# Poissons Ratio (z) = 0.35718 0.20369
#
# Static dielectric constant tensor:
#      x y z
#    x 1.685730 0.000000 0.000000 
#    y 0.000000 1.776610 0.000000 
#    z 0.000000 0.000000 1.788510 
# 
# From -- ./inp_files/14216.got.cif
#   From: 2010.05.17/outbox.cif.g08.bks.cpg/sg46_8_cif.got.tgz:14216.got - 2010.06.03 19:58:25.
