data_PCOD9379355
_publ_section_title
;
Structure prediction by ZEFSAII (Michael W. Deem and Ramdas Pophale) SiO2 
 PCOD9379355
Probable space group: I M A 2
;
_chemical_formula_sum "Si O2"
_cell_formula_units_Z 36
_cell_length_a 19.701687
_cell_length_b 13.643995
_cell_length_c 5.068032
_cell_angle_alpha 90.000000
_cell_angle_beta 90.000000
_cell_angle_gamma 90.000000
_cell_volume 1362.336257
_symmetry_space_group_name_H-M "I M A 2"
_symmetry_group_IT_number 46
_symmetry_cell_setting 'orthorhombic'
loop_
_space_group_symop_operation_xyz
x,y,z
-x,-y,z
1/2-x,y,z
1/2+x,-y,z
1/2+x,1/2+y,1/2+z
1/2-x,1/2-y,1/2+z
-x,1/2+y,1/2+z
x,1/2-y,1/2+z
loop_
_atom_site_type_symbol
_atom_site_label
_atom_site_fract_x
_atom_site_fract_y
_atom_site_fract_z
Si Si1 0.000000 0.500000 0.789830
Si Si2 0.854227 0.005546 0.515894
Si Si3 0.524709 0.193927 0.966222
Si Si4 0.823715 0.126990 0.011851
Si Si5 0.670745 0.705969 0.780177
O O1 0.998633 0.594278 0.598236
O O2 0.065357 0.508744 0.973448
O O3 0.833181 0.898592 0.417974
O O4 0.825973 0.083607 0.305414
O O5 0.831488 0.036495 0.805630
O O6 0.505004 0.280217 0.169553
O O7 0.607506 0.187348 0.968749
O O8 0.750000 0.173744 0.962896
O O9 0.750000 0.727769 0.730842
O O10 0.640167 0.717086 0.489378
#
# Coordination Sequence:
#
# PCOD9379355 Si02
#       5
#     4   8   8   8   8
#     4  10  26  46  68  98 140 182 234 288 342 414
#     4  11  23  40  64  92 129 180 227 279 346 416
#     4  11  25  44  69 101 136 179 230 285 344 412
#     4  11  23  41  67  97 130 173 225 283 350 420
#     4  10  20  34  55  87 123 159 209 271 331 395
#
# _framework density 26.425194000000001
#
# number of rings (size 3 to 8) (size 9 to 14) (size 15 to 20)
#    0.000    1.333    0.000    6.000    0.000   12.444 
#    0.000    0.000    0.000    0.000    0.000    0.000 
#    0.000    0.000    0.000    0.000    0.000    0.000 
#
# Total GULP energy -100946.151921 kJ/mol
# GULP energy per Si atom -5608.119551 kJ/mol
# Density = 2.636505 g / cm^3
# Si number density = 26.425194 Si / 1000 Ang^3
#
#
#
# Elastic Constant Matrix: (Units=GPa)
#
#
# Indices 1 2 3 4 5 6 
#
# 1 148.1124 -5.8152 15.4518 0.0000 0.0000 0.0000
# 2 -5.8152 72.4963 2.6836 0.0000 0.0000 0.0000
# 3 15.4518 2.6836 64.5598 0.0000 0.0000 0.0000
# 4 0.0000 0.0000 0.0000 53.2454 0.0000 0.0000
# 5 0.0000 0.0000 0.0000 0.0000 16.7699 0.0000
# 6 0.0000 0.0000 0.0000 0.0000 0.0000 66.3752
#
#
#
# Elastic Compliance Matrix: (Units=1/GPa)
#
#
# Indices 1 2 3 4 5 6 
#
# 1 0.006952 0.000620 -0.001690 0.000000 0.000000 0.000000
# 2 0.000620 0.013870 -0.000725 0.000000 0.000000 0.000000
# 3 -0.001690 -0.000725 0.015924 0.000000 0.000000 0.000000
# 4 0.000000 0.000000 0.000000 0.018781 0.000000 0.000000
# 5 0.000000 0.000000 0.000000 0.000000 0.059631 0.000000
# 6 0.000000 0.000000 0.000000 0.000000 0.000000 0.015066
#
#
# Mechanical properties :
#
#
# Convention : Reuss Voigt Hill
#
# Bulk Modulus (GPa) = 30.15891 34.42319 32.29105
# Shear Modulus (GPa) = 34.51470 45.46797 39.99134
#
# Velocity S-wave (km/s) = 3.61796 4.15255 3.89444
# Velocity P-wave (km/s) = 5.37499 6.00387 5.69812
#
# Compressibility (1/GPa) = 0.03315769
#
# Stress axis : x y z
#
# Youngs Moduli (GPa) = 143.83802 72.09595 62.79799
#
# Poissons Ratio (x) = -0.04472 0.10611
# Poissons Ratio (y) = -0.08921 0.04553
# Poissons Ratio (z) = 0.24305 0.05227
#
# Static dielectric constant tensor:
#      x y z
#    x 2.108930 0.000000 0.000000 
#    y 0.000000 2.043290 0.000000 
#    z 0.000000 0.000000 2.021630 
# 
# From -- ./inp_files/1953.got.cif
#   From: 2010.05.17/outbox.cif.g08.bks.cpg/sg46_1_cif.got.tgz:1953.got - 2010.06.03 19:58:25.
