data_PCOD9379859
_publ_section_title
;
Structure prediction by ZEFSAII (Michael W. Deem and Ramdas Pophale) SiO2 
 PCOD9379859
Probable space group: I M A 2
;
_chemical_formula_sum "Si O2"
_cell_formula_units_Z 48
_cell_length_a 15.445651
_cell_length_b 9.856743
_cell_length_c 14.885626
_cell_angle_alpha 90.000000
_cell_angle_beta 90.000000
_cell_angle_gamma 90.000000
_cell_volume 2266.244452
_symmetry_space_group_name_H-M "I M A 2"
_symmetry_group_IT_number 46
_symmetry_cell_setting 'orthorhombic'
loop_
_space_group_symop_operation_xyz
x,y,z
-x,-y,z
1/2-x,y,z
1/2+x,-y,z
1/2+x,1/2+y,1/2+z
1/2-x,1/2-y,1/2+z
-x,1/2+y,1/2+z
x,1/2-y,1/2+z
loop_
_atom_site_type_symbol
_atom_site_label
_atom_site_fract_x
_atom_site_fract_y
_atom_site_fract_z
Si Si1 0.601111 0.045735 0.267290
Si Si2 0.561736 0.373842 0.584652
Si Si3 0.151328 0.264883 0.846846
Si Si4 0.645635 0.306902 0.937431
Si Si5 0.852295 0.904603 0.515582
Si Si6 0.548509 0.641881 0.187855
O O1 0.625110 0.074052 0.164314
O O2 0.616002 0.171538 0.334538
O O3 0.500000 0.000000 0.269424
O O4 0.652464 0.917845 0.306631
O O5 0.500000 0.500000 0.562185
O O6 0.605970 0.312464 0.496871
O O7 0.509941 0.256824 0.639973
O O8 0.250000 0.211316 0.847951
O O9 0.087555 0.184191 0.782848
O O10 0.114857 0.289119 0.947208
O O11 0.750000 0.299455 0.939387
O O12 0.615093 0.447318 0.985793
O O13 0.750000 0.906297 0.501458
O O14 0.874035 0.876578 0.617236
O O15 0.500000 0.500000 0.194164
#
# Coordination Sequence:
#
# PCOD9379859 Si02
#       6
#     8   8   8   8   8   8
#     4  10  20  39  66  96 127 170 219 263 323 393
#     4  11  23  41  61  94 131 165 217 265 326 383
#     4  10  21  39  65  95 127 172 219 261 318 390
#     4  10  22  39  65  95 124 172 218 263 323 388
#     4   9  20  38  63  93 126 166 214 262 319 386
#     4  12  22  38  66  95 127 169 213 268 323 382
#
# _framework density 21.180416999999998
#
# number of rings (size 3 to 8) (size 9 to 14) (size 15 to 20)
#    0.000    1.667    5.000    2.000    4.667    1.333 
#    0.000    3.333    0.000    2.000    0.000    0.000 
#    0.000    0.000    0.000    0.000    0.000    0.000 
#
# Total GULP energy -134031.318599 kJ/mol
# GULP energy per Si atom -5584.638275 kJ/mol
# Density = 2.113221 g / cm^3
# Si number density = 21.180417 Si / 1000 Ang^3
#
#
#
# Elastic Constant Matrix: (Units=GPa)
#
#
# Indices 1 2 3 4 5 6 
#
# 1 60.7519 30.9131 29.9945 0.0000 0.0000 0.0000
# 2 30.9131 88.1221 43.6773 0.0000 0.0000 0.0000
# 3 29.9945 43.6773 125.4219 0.0000 0.0000 0.0000
# 4 0.0000 0.0000 0.0000 45.3066 0.0000 0.0000
# 5 0.0000 0.0000 0.0000 0.0000 20.5316 0.0000
# 6 0.0000 0.0000 0.0000 0.0000 0.0000 27.0588
#
#
#
# Elastic Compliance Matrix: (Units=1/GPa)
#
#
# Indices 1 2 3 4 5 6 
#
# 1 0.020906 -0.005869 -0.002956 0.000000 0.000000 0.000000
# 2 -0.005869 0.015363 -0.003946 0.000000 0.000000 0.000000
# 3 -0.002956 -0.003946 0.010054 0.000000 0.000000 0.000000
# 4 0.000000 0.000000 0.000000 0.022072 0.000000 0.000000
# 5 0.000000 0.000000 0.000000 0.000000 0.048705 0.000000
# 6 0.000000 0.000000 0.000000 0.000000 0.000000 0.036957
#
#
# Mechanical properties :
#
#
# Convention : Reuss Voigt Hill
#
# Bulk Modulus (GPa) = 48.12121 53.71841 50.91981
# Shear Modulus (GPa) = 26.80593 29.89348 28.34970
#
# Velocity S-wave (km/s) = 3.56139 3.76090 3.66250
# Velocity P-wave (km/s) = 6.29923 6.65406 6.47907
#
# Compressibility (1/GPa) = 0.02078086
#
# Stress axis : x y z
#
# Youngs Moduli (GPa) = 47.83308 65.09293 99.45988
#
# Poissons Ratio (x) = 0.38201 0.29400
# Poissons Ratio (y) = 0.28072 0.39251
# Poissons Ratio (z) = 0.14139 0.25688
#
# Static dielectric constant tensor:
#      x y z
#    x 1.782760 0.000000 0.000000 
#    y 0.000000 1.784230 0.000000 
#    z 0.000000 0.000000 1.798180 
# 
# From -- ./inp_files/16552.got.cif
#   From: 2010.05.17/outbox.cif.g08.bks.cpg/sg46_9_cif.got.tgz:16552.got - 2010.06.03 19:58:25.
