data_PCOD9379299
_publ_section_title
;
Structure prediction by ZEFSAII (Michael W. Deem and Ramdas Pophale) SiO2 
 PCOD9379299
Probable space group: I M A 2
;
_chemical_formula_sum "Si O2"
_cell_formula_units_Z 64
_cell_length_a 8.756148
_cell_length_b 20.936564
_cell_length_c 20.188376
_cell_angle_alpha 90.000000
_cell_angle_beta 90.000000
_cell_angle_gamma 90.000000
_cell_volume 3701.006836
_symmetry_space_group_name_H-M "I M A 2"
_symmetry_group_IT_number 46
_symmetry_cell_setting 'orthorhombic'
loop_
_space_group_symop_operation_xyz
x,y,z
-x,-y,z
1/2-x,y,z
1/2+x,-y,z
1/2+x,1/2+y,1/2+z
1/2-x,1/2-y,1/2+z
-x,1/2+y,1/2+z
x,1/2-y,1/2+z
loop_
_atom_site_type_symbol
_atom_site_label
_atom_site_fract_x
_atom_site_fract_y
_atom_site_fract_z
Si Si1 0.434325 0.181658 0.965610
Si Si2 0.434638 0.178305 0.317622
Si Si3 0.934103 0.431176 0.063694
Si Si4 0.434175 0.068711 0.216002
Si Si5 0.933274 0.320169 0.963331
Si Si6 0.432633 0.931086 0.716829
Si Si7 0.934212 0.931304 0.063080
Si Si8 0.066669 0.175816 0.811996
O O1 0.250000 0.187519 0.968601
O O2 0.505196 0.250212 0.982372
O O3 0.473884 0.165676 0.889339
O O4 0.483395 0.125767 0.015095
O O5 0.250000 0.176878 0.323396
O O6 0.482968 0.125374 0.264621
O O7 0.504012 0.165920 0.389857
O O8 0.476124 0.250614 0.296703
O O9 0.750000 0.434544 0.061757
O O10 0.979640 0.419144 0.140199
O O11 0.000000 0.500000 0.043907
O O12 0.983292 0.374514 0.015042
O O13 0.250000 0.065617 0.217711
O O14 0.480003 0.080549 0.139560
O O15 0.500000 0.000000 0.236045
O O16 0.750000 0.318839 0.961780
O O17 0.250000 0.934374 0.719119
O O18 0.490589 0.875289 0.764277
O O19 0.500000 0.000000 0.736339
O O20 0.750000 0.934484 0.060895
O O21 0.000000 0.000000 0.043077
O O22 0.250000 0.170218 0.806084
#
# Coordination Sequence:
#
# PCOD9379299 Si02
#       8
#     8   8   8   8   8   8   8   8
#     4   9  19  35  53  74 101 132 166 202 242 293
#     4   9  19  35  52  72 101 134 166 201 243 293
#     4   9  20  36  52  73 100 129 164 205 246 292
#     4   9  18  33  52  74 101 132 166 204 244 288
#     4  10  20  34  52  75 101 128 163 206 248 291
#     4  10  20  35  53  73  99 130 164 203 247 294
#     4   9  18  33  52  74 100 131 167 204 243 289
#     4   9  18  33  51  73 100 128 162 205 247 290
#
# _framework density 17.292591000000002
#
# number of rings (size 3 to 8) (size 9 to 14) (size 15 to 20)
#    0.000    2.750    0.000    1.500    0.000    6.500 
#    0.000    5.000    0.000    0.000    0.000    0.000 
#    0.000    0.000    0.000    0.000    0.000    0.000 
#
# Total GULP energy -178457.782679 kJ/mol
# GULP energy per Si atom -5576.805709 kJ/mol
# Density = 1.725323 g / cm^3
# Si number density = 17.292591 Si / 1000 Ang^3
#
#
#
# Elastic Constant Matrix: (Units=GPa)
#
#
# Indices 1 2 3 4 5 6 
#
# 1 15.6503 42.0443 32.4194 0.0000 0.0000 0.0000
# 2 42.0443 193.2547 129.8692 0.0000 0.0000 0.0000
# 3 32.4194 129.8692 105.2447 0.0000 0.0000 0.0000
# 4 0.0000 0.0000 0.0000 43.4091 0.0000 0.0000
# 5 0.0000 0.0000 0.0000 0.0000 22.6769 0.0000
# 6 0.0000 0.0000 0.0000 0.0000 0.0000 32.1934
#
#
#
# Elastic Compliance Matrix: (Units=1/GPa)
#
#
# Indices 1 2 3 4 5 6 
#
# 1 0.180576 -0.011161 -0.041852 0.000000 0.000000 0.000000
# 2 -0.011161 0.030993 -0.034807 0.000000 0.000000 0.000000
# 3 -0.041852 -0.034807 0.065344 0.000000 0.000000 0.000000
# 4 0.000000 0.000000 0.000000 0.023037 0.000000 0.000000
# 5 0.000000 0.000000 0.000000 0.000000 0.044098 0.000000
# 6 0.000000 0.000000 0.000000 0.000000 0.000000 0.031062
#
#
# Mechanical properties :
#
#
# Convention : Reuss Voigt Hill
#
# Bulk Modulus (GPa) = 9.87419 80.31281 45.09350
# Shear Modulus (GPa) = 8.55420 26.97700 17.76560
#
# Velocity S-wave (km/s) = 2.22654 3.95401 3.20871
# Velocity P-wave (km/s) = 3.51176 8.20913 6.31357
#
# Compressibility (1/GPa) = 0.10127410
#
# Stress axis : x y z
#
# Youngs Moduli (GPa) = 5.53784 32.26508 15.30353
#
# Poissons Ratio (x) = 0.36011 0.64048
# Poissons Ratio (y) = 0.06181 0.53267
# Poissons Ratio (z) = 0.23177 1.12305
#
# Static dielectric constant tensor:
#      x y z
#    x 1.587170 0.000000 0.000000 
#    y 0.000000 1.561240 0.000000 
#    z 0.000000 0.000000 1.578050 
# 
# From -- ./inp_files/21300.got.cif
#   From: 2010.05.17/outbox.cif.g08.bks.cpg/sg46_11_cif.got.tgz:21300.got - 2010.06.03 19:58:25.
