data_PCOD9379419
_publ_section_title
;
Structure prediction by ZEFSAII (Michael W. Deem and Ramdas Pophale) SiO2 
 PCOD9379419
Probable space group: I M A 2
;
_chemical_formula_sum "Si O2"
_cell_formula_units_Z 56
_cell_length_a 16.630347
_cell_length_b 12.332677
_cell_length_c 15.389068
_cell_angle_alpha 90.000000
_cell_angle_beta 90.000000
_cell_angle_gamma 90.000000
_cell_volume 3156.247031
_symmetry_space_group_name_H-M "I M A 2"
_symmetry_group_IT_number 46
_symmetry_cell_setting 'orthorhombic'
loop_
_space_group_symop_operation_xyz
x,y,z
-x,-y,z
1/2-x,y,z
1/2+x,-y,z
1/2+x,1/2+y,1/2+z
1/2-x,1/2-y,1/2+z
-x,1/2+y,1/2+z
x,1/2-y,1/2+z
loop_
_atom_site_type_symbol
_atom_site_label
_atom_site_fract_x
_atom_site_fract_y
_atom_site_fract_z
Si Si1 0.058296 0.750579 0.364490
Si Si2 0.345982 0.306986 0.113425
Si Si3 0.938410 0.903399 0.455351
Si Si4 0.093693 0.976628 0.285243
Si Si5 0.652522 0.459195 0.421224
Si Si6 0.560663 0.908325 0.770633
Si Si7 0.345487 0.059252 0.104506
O O1 0.100774 0.852876 0.317860
O O2 0.119306 0.661408 0.401747
O O3 0.997876 0.804070 0.433958
O O4 0.997795 0.687846 0.300777
O O5 0.250000 0.306224 0.114490
O O6 0.379226 0.364232 0.199082
O O7 0.376489 0.182635 0.108692
O O8 0.378512 0.371156 0.030440
O O9 0.892073 0.943930 0.367980
O O10 0.000000 0.000000 0.478895
O O11 0.138350 0.002208 0.196452
O O12 0.000000 0.000000 0.266210
O O13 0.750000 0.463689 0.413260
O O14 0.609225 0.538587 0.351446
O O15 0.626522 0.496684 0.518020
O O16 0.500000 0.000000 0.735357
O O17 0.250000 0.066926 0.093844
#
# Coordination Sequence:
#
# PCOD9379419 Si02
#       7
#     8   8   8   8   8   8   8
#     4   9  19  35  58  78 102 143 180 220 276 323
#     4  11  21  34  54  80 109 145 181 222 273 323
#     4   9  19  36  54  78 108 138 180 227 266 319
#     4   9  19  36  56  79 105 135 176 223 262 312
#     4  10  21  37  54  80 112 142 179 224 268 320
#     4  10  20  35  55  78 106 141 181 224 270 323
#     4  10  22  35  52  79 109 138 174 218 266 318
#
# _framework density 17.742591000000001
#
# number of rings (size 3 to 8) (size 9 to 14) (size 15 to 20)
#    0.000    2.571    0.000    3.429    0.000    5.143 
#    0.000    7.143    0.000    6.857    0.000    0.000 
#    0.000    0.000    0.000    0.000    0.000    0.000 
#
# Total GULP energy -156071.314446 kJ/mol
# GULP energy per Si atom -5573.975516 kJ/mol
# Density = 1.770221 g / cm^3
# Si number density = 17.742591 Si / 1000 Ang^3
#
#
#
# Elastic Constant Matrix: (Units=GPa)
#
#
# Indices 1 2 3 4 5 6 
#
# 1 43.4422 29.3527 46.1483 0.0000 0.0000 0.0000
# 2 29.3527 99.3663 73.1272 0.0000 0.0000 0.0000
# 3 46.1483 73.1272 129.2588 0.0000 0.0000 0.0000
# 4 0.0000 0.0000 0.0000 13.2991 0.0000 0.0000
# 5 0.0000 0.0000 0.0000 0.0000 23.9719 0.0000
# 6 0.0000 0.0000 0.0000 0.0000 0.0000 19.4787
#
#
#
# Elastic Compliance Matrix: (Units=1/GPa)
#
#
# Indices 1 2 3 4 5 6 
#
# 1 0.037335 -0.002089 -0.012148 0.000000 0.000000 0.000000
# 2 -0.002089 0.017360 -0.009075 0.000000 0.000000 0.000000
# 3 -0.012148 -0.009075 0.017208 0.000000 0.000000 0.000000
# 4 0.000000 0.000000 0.000000 0.075193 0.000000 0.000000
# 5 0.000000 0.000000 0.000000 0.000000 0.041715 0.000000
# 6 0.000000 0.000000 0.000000 0.000000 0.000000 0.051338
#
#
# Mechanical properties :
#
#
# Convention : Reuss Voigt Hill
#
# Bulk Modulus (GPa) = 39.55915 63.25820 51.40868
# Shear Modulus (GPa) = 16.93777 19.57923 18.25850
#
# Velocity S-wave (km/s) = 3.09307 3.32552 3.21140
# Velocity P-wave (km/s) = 5.92458 7.10466 6.54129
#
# Compressibility (1/GPa) = 0.02527860
#
# Stress axis : x y z
#
# Youngs Moduli (GPa) = 26.78465 57.60477 58.11342
#
# Poissons Ratio (x) = 0.12032 0.70594
# Poissons Ratio (y) = 0.05595 0.52740
# Poissons Ratio (z) = 0.32537 0.52278
#
# Static dielectric constant tensor:
#      x y z
#    x 1.590460 0.000000 0.000000 
#    y 0.000000 1.645060 0.000000 
#    z 0.000000 0.000000 1.604580 
# 
# From -- ./inp_files/15986.got.cif
#   From: 2010.05.17/outbox.cif.g08.bks.cpg/sg46_8_cif.got.tgz:15986.got - 2010.06.03 19:58:25.
