data_PCOD9379138
_publ_section_title
;
Structure prediction by ZEFSAII (Michael W. Deem and Ramdas Pophale) SiO2 
 PCOD9379138
Probable space group: I M A 2
;
_chemical_formula_sum "Si O2"
_cell_formula_units_Z 64
_cell_length_a 17.233147
_cell_length_b 13.135629
_cell_length_c 13.928919
_cell_angle_alpha 90.000000
_cell_angle_beta 90.000000
_cell_angle_gamma 90.000000
_cell_volume 3153.064677
_symmetry_space_group_name_H-M "I M A 2"
_symmetry_group_IT_number 46
_symmetry_cell_setting 'orthorhombic'
loop_
_space_group_symop_operation_xyz
x,y,z
-x,-y,z
1/2-x,y,z
1/2+x,-y,z
1/2+x,1/2+y,1/2+z
1/2-x,1/2-y,1/2+z
-x,1/2+y,1/2+z
x,1/2-y,1/2+z
loop_
_atom_site_type_symbol
_atom_site_label
_atom_site_fract_x
_atom_site_fract_y
_atom_site_fract_z
Si Si1 0.659929 0.395108 0.407930
Si Si2 0.658038 0.407074 0.622502
Si Si3 0.011504 0.119950 0.456595
Si Si4 0.164658 0.260055 0.919544
Si Si5 0.840409 0.923366 0.772531
Si Si6 0.460550 0.314444 0.165455
Si Si7 0.662365 0.649354 0.624189
Si Si8 0.087028 0.725694 0.792887
O O1 0.750000 0.421087 0.424241
O O2 0.626498 0.383259 0.515070
O O3 0.630335 0.488809 0.343971
O O4 0.651103 0.294433 0.344935
O O5 0.750000 0.381949 0.626873
O O6 0.650980 0.529048 0.633621
O O7 0.616468 0.345358 0.706718
O O8 0.097335 0.157323 0.425168
O O9 0.001316 0.169153 0.561916
O O10 0.953794 0.162299 0.376528
O O11 0.000000 0.000000 0.463665
O O12 0.250000 0.308276 0.916977
O O13 0.157317 0.181495 0.832413
O O14 0.161680 0.188058 0.013982
O O15 0.750000 0.942700 0.745145
O O16 0.899052 0.905006 0.685273
O O17 0.408477 0.212075 0.167838
O O18 0.524537 0.303110 0.246921
O O19 0.750000 0.674249 0.660954
#
# Coordination Sequence:
#
# PCOD9379138 Si02
#       8
#     8   8   8   8   8   8   8   8
#     4  10  22  42  66  93 125 160 213 272 315 378
#     4  10  21  40  68  94 120 162 215 269 317 375
#     4  11  26  44  59  90 138 171 206 261 317 383
#     4   9  17  38  67  95 121 157 207 265 321 370
#     4  10  19  37  68  98 122 158 211 268 319 371
#     4  11  24  39  62  91 129 171 205 256 316 378
#     4   9  18  36  63  93 121 153 204 263 313 364
#     4  12  25  40  62  89 128 174 211 252 320 389
#
# _framework density 20.297711
#
# number of rings (size 3 to 8) (size 9 to 14) (size 15 to 20)
#    0.000    1.750    2.500    1.500    3.500    0.500 
#    0.000    2.500    0.000    0.000    0.000    0.000 
#    0.000    0.000    0.000    0.000    0.000    0.000 
#
# Total GULP energy -178661.470099 kJ/mol
# GULP energy per Si atom -5583.170941 kJ/mol
# Density = 2.025151 g / cm^3
# Si number density = 20.297711 Si / 1000 Ang^3
#
#
#
# Elastic Constant Matrix: (Units=GPa)
#
#
# Indices 1 2 3 4 5 6 
#
# 1 39.8247 26.7478 23.3968 0.0000 0.0000 0.0000
# 2 26.7478 90.8683 31.4000 0.0000 0.0000 0.0000
# 3 23.3968 31.4000 100.8801 0.0000 0.0000 0.0000
# 4 0.0000 0.0000 0.0000 23.7753 0.0000 0.0000
# 5 0.0000 0.0000 0.0000 0.0000 30.0198 0.0000
# 6 0.0000 0.0000 0.0000 0.0000 0.0000 8.8577
#
#
#
# Elastic Compliance Matrix: (Units=1/GPa)
#
#
# Indices 1 2 3 4 5 6 
#
# 1 0.033641 -0.008075 -0.005289 0.000000 0.000000 0.000000
# 2 -0.008075 0.014269 -0.002569 0.000000 0.000000 0.000000
# 3 -0.005289 -0.002569 0.011939 0.000000 0.000000 0.000000
# 4 0.000000 0.000000 0.000000 0.042061 0.000000 0.000000
# 5 0.000000 0.000000 0.000000 0.000000 0.033311 0.000000
# 6 0.000000 0.000000 0.000000 0.000000 0.000000 0.112896
#
#
# Mechanical properties :
#
#
# Convention : Reuss Voigt Hill
#
# Bulk Modulus (GPa) = 35.73437 43.85135 39.79286
# Shear Modulus (GPa) = 17.28256 22.53247 19.90751
#
# Velocity S-wave (km/s) = 2.92113 3.33543 3.13513
# Velocity P-wave (km/s) = 5.38709 6.04023 5.72299
#
# Compressibility (1/GPa) = 0.02798426
#
# Stress axis : x y z
#
# Youngs Moduli (GPa) = 29.72605 70.07970 83.75970
#
# Poissons Ratio (x) = 0.56588 0.44299
# Poissons Ratio (y) = 0.24003 0.21516
# Poissons Ratio (z) = 0.15721 0.18002
#
# Static dielectric constant tensor:
#      x y z
#    x 1.741790 0.000000 0.000000 
#    y 0.000000 1.687150 0.000000 
#    z 0.000000 0.000000 1.753830 
# 
# From -- ./inp_files/16746.got.cif
#   From: 2010.05.17/outbox.cif.g08.bks.cpg/sg46_9_cif.got.tgz:16746.got - 2010.06.03 19:58:25.
