data_PCOD9379086
_publ_section_title
;
Structure prediction by ZEFSAII (Michael W. Deem and Ramdas Pophale) SiO2 
 PCOD9379086
Probable space group: I M A 2
;
_chemical_formula_sum "Si O2"
_cell_formula_units_Z 48
_cell_length_a 15.728054
_cell_length_b 19.337430
_cell_length_c 8.506368
_cell_angle_alpha 90.000000
_cell_angle_beta 90.000000
_cell_angle_gamma 90.000000
_cell_volume 2587.127982
_symmetry_space_group_name_H-M "I M A 2"
_symmetry_group_IT_number 46
_symmetry_cell_setting 'orthorhombic'
loop_
_space_group_symop_operation_xyz
x,y,z
-x,-y,z
1/2-x,y,z
1/2+x,-y,z
1/2+x,1/2+y,1/2+z
1/2-x,1/2-y,1/2+z
-x,1/2+y,1/2+z
x,1/2-y,1/2+z
loop_
_atom_site_type_symbol
_atom_site_label
_atom_site_fract_x
_atom_site_fract_y
_atom_site_fract_z
Si Si1 0.850533 0.903629 0.100250
Si Si2 0.250000 0.845231 0.049830
Si Si3 0.503714 0.832606 0.290492
Si Si4 0.555762 0.306373 0.129050
Si Si5 0.250000 0.803151 0.683070
Si Si6 0.901088 0.442531 0.648827
Si Si7 0.019223 0.073529 0.844429
O O1 0.750000 0.889300 0.101150
O O2 0.907485 0.849994 0.202455
O O3 0.868615 0.980145 0.172454
O O4 0.888360 0.910673 0.921521
O O5 0.250000 0.823684 0.866722
O O6 0.250000 0.778618 0.158800
O O7 0.327530 0.892919 0.093561
O O8 0.455967 0.771079 0.196835
O O9 0.498816 0.809322 0.469901
O O10 0.451029 0.904546 0.286910
O O11 0.657177 0.323595 0.111462
O O12 0.515612 0.362141 0.247451
O O13 0.964196 0.436417 0.501792
O O14 0.000000 0.000000 0.758795
#
# Coordination Sequence:
#
# PCOD9379086 Si02
#       7
#     8   4   8   8   4   8   8
#     4  10  21  40  64  87 113 158 208 247 289 350
#     4  12  20  34  58  94 124 155 195 236 284 362
#     4  11  23  38  60  87 121 159 195 245 301 351
#     4  12  23  40  60  89 123 157 195 241 300 358
#     4  12  24  34  60  92 124 155 193 236 290 362
#     4  10  19  36  61  87 122 155 195 239 294 353
#     4   9  20  38  61  88 118 156 192 242 300 350
#
# _framework density 18.553391999999999
#
# number of rings (size 3 to 8) (size 9 to 14) (size 15 to 20)
#    0.000    1.333    4.167    4.500    0.000    1.333 
#    0.000    4.167    0.000    0.000    0.000    0.000 
#    0.000    0.000    0.000    0.000    0.000    0.000 
#
# Total GULP energy -133643.148877 kJ/mol
# GULP energy per Si atom -5568.464537 kJ/mol
# Density = 1.851116 g / cm^3
# Si number density = 18.553392 Si / 1000 Ang^3
#
#
#
# Elastic Constant Matrix: (Units=GPa)
#
#
# Indices 1 2 3 4 5 6 
#
# 1 138.9994 36.6716 27.8020 0.0000 0.0000 0.0000
# 2 36.6716 79.5394 21.5391 0.0000 0.0000 0.0000
# 3 27.8020 21.5391 49.9377 0.0000 0.0000 0.0000
# 4 0.0000 0.0000 0.0000 155.5133 0.0000 0.0000
# 5 0.0000 0.0000 0.0000 0.0000 30.3376 0.0000
# 6 0.0000 0.0000 0.0000 0.0000 0.0000 11.4071
#
#
#
# Elastic Compliance Matrix: (Units=1/GPa)
#
#
# Indices 1 2 3 4 5 6 
#
# 1 0.008707 -0.003059 -0.003528 0.000000 0.000000 0.000000
# 2 -0.003059 0.015310 -0.004900 0.000000 0.000000 0.000000
# 3 -0.003528 -0.004900 0.024103 0.000000 0.000000 0.000000
# 4 0.000000 0.000000 0.000000 0.006430 0.000000 0.000000
# 5 0.000000 0.000000 0.000000 0.000000 0.032962 0.000000
# 6 0.000000 0.000000 0.000000 0.000000 0.000000 0.087665
#
#
# Mechanical properties :
#
#
# Convention : Reuss Voigt Hill
#
# Bulk Modulus (GPa) = 39.76981 48.94464 44.35723
# Shear Modulus (GPa) = 24.20919 51.61586 37.91253
#
# Velocity S-wave (km/s) = 3.61617 5.28021 4.52533
# Velocity P-wave (km/s) = 6.23839 7.97570 7.15993
#
# Compressibility (1/GPa) = 0.02514470
#
# Stress axis : x y z
#
# Youngs Moduli (GPa) = 114.85048 65.31794 41.48901
#
# Poissons Ratio (x) = 0.19980 0.14638
# Poissons Ratio (y) = 0.35132 0.20331
# Poissons Ratio (z) = 0.40520 0.32008
#
# Static dielectric constant tensor:
#      x y z
#    x 1.619180 0.000000 0.000000 
#    y 0.000000 1.581860 0.000000 
#    z 0.000000 0.000000 1.648160 
# 
# From -- ./inp_files/5734.got.cif
#   From: 2010.05.17/outbox.cif.g08.bks.cpg/sg46_3_cif.got.tgz:5734.got - 2010.06.03 19:58:25.
