data_PCOD9379714
_publ_section_title
;
Structure prediction by ZEFSAII (Michael W. Deem and Ramdas Pophale) SiO2 
 PCOD9379714
Probable space group: I M A 2
;
_chemical_formula_sum "Si O2"
_cell_formula_units_Z 64
_cell_length_a 14.228283
_cell_length_b 9.429747
_cell_length_c 21.761142
_cell_angle_alpha 90.000000
_cell_angle_beta 90.000000
_cell_angle_gamma 90.000000
_cell_volume 2919.673032
_symmetry_space_group_name_H-M "I M A 2"
_symmetry_group_IT_number 46
_symmetry_cell_setting 'orthorhombic'
loop_
_space_group_symop_operation_xyz
x,y,z
-x,-y,z
1/2-x,y,z
1/2+x,-y,z
1/2+x,1/2+y,1/2+z
1/2-x,1/2-y,1/2+z
-x,1/2+y,1/2+z
x,1/2-y,1/2+z
loop_
_atom_site_type_symbol
_atom_site_label
_atom_site_fract_x
_atom_site_fract_y
_atom_site_fract_z
Si Si1 0.139863 0.360641 0.278960
Si Si2 0.521206 0.651227 0.532944
Si Si3 0.861647 0.553885 0.413256
Si Si4 0.859510 0.140613 0.488370
Si Si5 0.360548 0.757600 0.357850
Si Si6 0.480209 0.663271 0.737774
Si Si7 0.360911 0.395992 0.079996
Si Si8 0.361244 0.893072 0.689732
O O1 0.250000 0.339327 0.267174
O O2 0.123184 0.354578 0.351747
O O3 0.118096 0.517502 0.251989
O O4 0.077192 0.247322 0.244932
O O5 0.500000 0.500000 0.562477
O O6 0.579585 0.610208 0.470743
O O7 0.428538 0.740280 0.515205
O O8 0.583060 0.752267 0.575139
O O9 0.750000 0.554156 0.428032
O O10 0.885122 0.394771 0.389078
O O11 0.750000 0.176526 0.502259
O O12 0.869082 0.135967 0.415189
O O13 0.879451 0.989772 0.519258
O O14 0.250000 0.747223 0.339401
O O15 0.422590 0.810223 0.301448
O O16 0.500000 0.500000 0.726896
O O17 0.418095 0.748485 0.688529
O O18 0.250000 0.368035 0.084449
O O19 0.386726 0.499276 0.135679
O O20 0.250000 0.866211 0.686501
#
# Coordination Sequence:
#
# PCOD9379714 Si02
#       8
#     8   8   8   8   8   8   8   8
#     4  10  22  39  64  94 129 179 227 270 325 398
#     4  12  23  36  64  99 135 170 218 284 343 402
#     4  10  20  37  63  96 135 177 223 272 335 405
#     4  10  22  39  59  89 135 186 226 269 331 408
#     4  10  20  38  63  94 136 180 224 271 336 409
#     4  12  25  38  64 102 136 172 218 285 342 399
#     4  10  24  46  69  94 127 176 232 280 335 405
#     4  10  22  46  74  93 123 178 232 277 333 406
#
# _framework density 21.920262999999998
#
# number of rings (size 3 to 8) (size 9 to 14) (size 15 to 20)
#    0.000    1.500    2.500    2.250    0.000    5.500 
#    0.000    5.000    0.000    4.500    0.000    0.000 
#    0.000    0.000    0.000    0.000    0.000    0.000 
#
# Total GULP energy -179109.154713 kJ/mol
# GULP energy per Si atom -5597.161085 kJ/mol
# Density = 2.187037 g / cm^3
# Si number density = 21.920263 Si / 1000 Ang^3
#
#
#
# Elastic Constant Matrix: (Units=GPa)
#
#
# Indices 1 2 3 4 5 6 
#
# 1 104.3035 74.6090 28.2649 0.0000 0.0000 0.0000
# 2 74.6090 171.4762 44.1017 0.0000 0.0000 0.0000
# 3 28.2649 44.1017 67.7089 0.0000 0.0000 0.0000
# 4 0.0000 0.0000 0.0000 29.1925 0.0000 0.0000
# 5 0.0000 0.0000 0.0000 0.0000 20.1100 0.0000
# 6 0.0000 0.0000 0.0000 0.0000 0.0000 24.9765
#
#
#
# Elastic Compliance Matrix: (Units=1/GPa)
#
#
# Indices 1 2 3 4 5 6 
#
# 1 0.014209 -0.005594 -0.002288 0.000000 0.000000 0.000000
# 2 -0.005594 0.009207 -0.003662 0.000000 0.000000 0.000000
# 3 -0.002288 -0.003662 0.018109 0.000000 0.000000 0.000000
# 4 0.000000 0.000000 0.000000 0.034255 0.000000 0.000000
# 5 0.000000 0.000000 0.000000 0.000000 0.049726 0.000000
# 6 0.000000 0.000000 0.000000 0.000000 0.000000 0.040038
#
#
# Mechanical properties :
#
#
# Convention : Reuss Voigt Hill
#
# Bulk Modulus (GPa) = 54.23573 70.82664 62.53119
# Shear Modulus (GPa) = 25.67021 27.95667 26.81344
#
# Velocity S-wave (km/s) = 3.42581 3.57512 3.50126
# Velocity P-wave (km/s) = 6.35957 7.03016 6.70326
#
# Compressibility (1/GPa) = 0.01843803
#
# Stress axis : x y z
#
# Youngs Moduli (GPa) = 70.37973 108.60861 55.21975
#
# Poissons Ratio (x) = 0.60753 0.12634
# Poissons Ratio (y) = 0.39368 0.20222
# Poissons Ratio (z) = 0.16102 0.39773
#
# Static dielectric constant tensor:
#      x y z
#    x 1.811300 0.000000 0.000000 
#    y 0.000000 1.775200 0.000000 
#    z 0.000000 0.000000 1.853600 
# 
# From -- ./inp_files/23677.got.cif
#   From: 2010.05.17/outbox.cif.g08.bks.cpg/sg46_12_cif.got.tgz:23677.got - 2010.06.03 19:58:25.
