data_PCOD9379932
_publ_section_title
;
Structure prediction by ZEFSAII (Michael W. Deem and Ramdas Pophale) SiO2 
 PCOD9379932
Probable space group: I M A 2
;
_chemical_formula_sum "Si O2"
_cell_formula_units_Z 64
_cell_length_a 16.662094
_cell_length_b 11.825637
_cell_length_c 15.071006
_cell_angle_alpha 90.000000
_cell_angle_beta 90.000000
_cell_angle_gamma 90.000000
_cell_volume 2969.589143
_symmetry_space_group_name_H-M "I M A 2"
_symmetry_group_IT_number 46
_symmetry_cell_setting 'orthorhombic'
loop_
_space_group_symop_operation_xyz
x,y,z
-x,-y,z
1/2-x,y,z
1/2+x,-y,z
1/2+x,1/2+y,1/2+z
1/2-x,1/2-y,1/2+z
-x,1/2+y,1/2+z
x,1/2-y,1/2+z
loop_
_atom_site_type_symbol
_atom_site_label
_atom_site_fract_x
_atom_site_fract_y
_atom_site_fract_z
Si Si1 0.155225 0.014192 0.610230
Si Si2 0.430107 0.682348 0.338515
Si Si3 0.844747 0.743690 0.008347
Si Si4 0.401902 0.450528 0.296801
Si Si5 0.338416 0.278466 0.817847
Si Si6 0.092691 0.844128 0.167416
Si Si7 0.592985 0.901785 0.149363
Si Si8 0.844761 0.293911 0.001093
O O1 0.250000 0.000269 0.633950
O O2 0.139143 0.921701 0.534660
O O3 0.142575 0.139765 0.574033
O O4 0.099388 0.004042 0.695949
O O5 0.382289 0.563799 0.350313
O O6 0.517642 0.621510 0.322275
O O7 0.409686 0.762903 0.254119
O O8 0.406123 0.754932 0.424495
O O9 0.750000 0.755448 0.993263
O O10 0.880074 0.708515 0.913329
O O11 0.872954 0.856731 0.056392
O O12 0.335143 0.355737 0.305031
O O13 0.250000 0.330218 0.820108
O O14 0.381555 0.326879 0.732974
O O15 0.001281 0.875070 0.141383
O O16 0.123189 0.973048 0.175354
O O17 0.138136 0.781102 0.088425
O O18 0.750000 0.285548 0.975034
#
# Coordination Sequence:
#
# PCOD9379932 Si02
#       8
#     8   8   8   8   8   8   8   8
#     4  10  20  42  69  96 133 178 232 287 336 408
#     4  11  25  44  69  98 137 177 229 288 347 420
#     4  10  22  39  63  96 131 171 220 278 340 403
#     4  11  22  42  71  98 131 176 232 287 341 410
#     4  11  23  39  64  98 133 170 218 277 343 407
#     4  11  25  45  66  94 133 180 224 280 346 412
#     4  11  24  41  67  93 132 172 220 275 340 411
#     4  11  27  45  67 100 136 183 232 283 352 418
#
# _framework density 21.551804000000001
#
# number of rings (size 3 to 8) (size 9 to 14) (size 15 to 20)
#    0.000    1.250    3.750    0.750    5.250    3.500 
#    0.000    0.000    0.000    0.000    0.000    0.000 
#    0.000    0.000    0.000    0.000    0.000    0.000 
#
# Total GULP energy -178353.725108 kJ/mol
# GULP energy per Si atom -5573.553910 kJ/mol
# Density = 2.150275 g / cm^3
# Si number density = 21.551804 Si / 1000 Ang^3
#
#
#
# Elastic Constant Matrix: (Units=GPa)
#
#
# Indices 1 2 3 4 5 6 
#
# 1 37.7789 18.1438 21.0612 0.0000 0.0000 0.0000
# 2 18.1438 94.1949 2.7207 0.0000 0.0000 0.0000
# 3 21.0612 2.7207 75.3115 0.0000 0.0000 0.0000
# 4 0.0000 0.0000 0.0000 30.3425 0.0000 0.0000
# 5 0.0000 0.0000 0.0000 0.0000 23.0485 0.0000
# 6 0.0000 0.0000 0.0000 0.0000 0.0000 12.5957
#
#
#
# Elastic Compliance Matrix: (Units=1/GPa)
#
#
# Indices 1 2 3 4 5 6 
#
# 1 0.034870 -0.006442 -0.009519 0.000000 0.000000 0.000000
# 2 -0.006442 0.011817 0.001375 0.000000 0.000000 0.000000
# 3 -0.009519 0.001375 0.015891 0.000000 0.000000 0.000000
# 4 0.000000 0.000000 0.000000 0.032957 0.000000 0.000000
# 5 0.000000 0.000000 0.000000 0.000000 0.043387 0.000000
# 6 0.000000 0.000000 0.000000 0.000000 0.000000 0.079392
#
#
# Mechanical properties :
#
#
# Convention : Reuss Voigt Hill
#
# Bulk Modulus (GPa) = 29.93480 32.34852 31.14166
# Shear Modulus (GPa) = 19.33325 24.22130 21.77728
#
# Velocity S-wave (km/s) = 2.99834 3.35605 3.18222
# Velocity P-wave (km/s) = 5.08985 5.48267 5.28991
#
# Compressibility (1/GPa) = 0.03340593
#
# Stress axis : x y z
#
# Youngs Moduli (GPa) = 28.67784 84.62103 62.93065
#
# Poissons Ratio (x) = 0.54511 0.59903
# Poissons Ratio (y) = 0.18473 -0.08650
# Poissons Ratio (z) = 0.27298 -0.11631
#
# Static dielectric constant tensor:
#      x y z
#    x 1.851300 0.000000 0.000000 
#    y 0.000000 1.816860 0.000000 
#    z 0.000000 0.000000 1.834790 
# 
# From -- ./inp_files/16750.got.cif
#   From: 2010.05.17/outbox.cif.g08.bks.cpg/sg46_9_cif.got.tgz:16750.got - 2010.06.03 19:58:25.
