data_PCOD9379892
_publ_section_title
;
Structure prediction by ZEFSAII (Michael W. Deem and Ramdas Pophale) SiO2 
 PCOD9379892
Probable space group: I M A 2
;
_chemical_formula_sum "Si O2"
_cell_formula_units_Z 60
_cell_length_a 9.057154
_cell_length_b 17.431942
_cell_length_c 19.427603
_cell_angle_alpha 90.000000
_cell_angle_beta 90.000000
_cell_angle_gamma 90.000000
_cell_volume 3067.303460
_symmetry_space_group_name_H-M "I M A 2"
_symmetry_group_IT_number 46
_symmetry_cell_setting 'orthorhombic'
loop_
_space_group_symop_operation_xyz
x,y,z
-x,-y,z
1/2-x,y,z
1/2+x,-y,z
1/2+x,1/2+y,1/2+z
1/2-x,1/2-y,1/2+z
-x,1/2+y,1/2+z
x,1/2-y,1/2+z
loop_
_atom_site_type_symbol
_atom_site_label
_atom_site_fract_x
_atom_site_fract_y
_atom_site_fract_z
Si Si1 0.927456 0.380418 0.152470
Si Si2 0.500000 0.000000 0.383254
Si Si3 0.072274 0.801609 0.153085
Si Si4 0.579664 0.281093 0.375768
Si Si5 0.579958 0.117822 0.502120
Si Si6 0.578214 0.645407 0.792351
Si Si7 0.918434 0.066208 0.791183
Si Si8 0.925798 0.781576 0.010241
O O1 0.750000 0.385821 0.159327
O O2 0.960540 0.289773 0.159272
O O3 0.995553 0.422390 0.217231
O O4 0.965367 0.412644 0.077530
O O5 0.425324 0.941881 0.439264
O O6 0.570893 0.937385 0.330947
O O7 0.250000 0.811591 0.152860
O O8 0.001760 0.846861 0.217805
O O9 0.001348 0.817235 0.078139
O O10 0.750000 0.261698 0.393326
O O11 0.502218 0.207512 0.341478
O O12 0.582071 0.349434 0.321715
O O13 0.492352 0.315328 0.440554
O O14 0.750000 0.143855 0.509381
O O15 0.477540 0.192849 0.497510
O O16 0.750000 0.665694 0.784180
O O17 0.750000 0.041188 0.785056
O O18 0.000000 0.000000 0.832229
O O19 0.750000 0.785662 0.015305
#
# Coordination Sequence:
#
# PCOD9379892 Si02
#       8
#     8   4   8   8   8   8   8   8
#     4   8  16  34  57  84 117 158 205 247 292 367
#     4  12  26  38  60  92 138 180 224 272 332 386
#     4  10  20  40  67  90 118 163 213 255 315 391
#     4  11  22  40  64  88 123 169 211 254 322 398
#     4  10  21  37  57  82 123 173 214 251 307 378
#     4  12  25  40  61  94 132 169 221 278 323 376
#     4  10  21  37  58  88 121 157 202 254 312 377
#     4  11  22  38  63  95 123 151 205 271 323 377
#
# _framework density 19.561154999999999
#
# number of rings (size 3 to 8) (size 9 to 14) (size 15 to 20)
#    0.000    1.600    2.667    3.600    0.933    3.200 
#    0.000    0.667    1.467    0.000    0.000    0.000 
#    0.000    0.000    0.000    0.000    0.000    0.000 
#
# Total GULP energy -167016.551140 kJ/mol
# GULP energy per Si atom -5567.218371 kJ/mol
# Density = 1.951663 g / cm^3
# Si number density = 19.561155 Si / 1000 Ang^3
#
#
#
# Elastic Constant Matrix: (Units=GPa)
#
#
# Indices 1 2 3 4 5 6 
#
# 1 112.7119 21.6648 51.0189 0.0000 0.0000 0.0000
# 2 21.6648 58.7872 24.8077 0.0000 0.0000 0.0000
# 3 51.0189 24.8077 143.3260 0.0000 0.0000 0.0000
# 4 0.0000 0.0000 0.0000 25.7669 0.0000 0.0000
# 5 0.0000 0.0000 0.0000 0.0000 22.8808 0.0000
# 6 0.0000 0.0000 0.0000 0.0000 0.0000 16.8985
#
#
#
# Elastic Compliance Matrix: (Units=1/GPa)
#
#
# Indices 1 2 3 4 5 6 
#
# 1 0.010926 -0.002573 -0.003444 0.000000 0.000000 0.000000
# 2 -0.002573 0.018957 -0.002365 0.000000 0.000000 0.000000
# 3 -0.003444 -0.002365 0.008612 0.000000 0.000000 0.000000
# 4 0.000000 0.000000 0.000000 0.038810 0.000000 0.000000
# 5 0.000000 0.000000 0.000000 0.000000 0.043705 0.000000
# 6 0.000000 0.000000 0.000000 0.000000 0.000000 0.059177
#
#
# Mechanical properties :
#
#
# Convention : Reuss Voigt Hill
#
# Bulk Modulus (GPa) = 46.01813 56.64532 51.33173
# Shear Modulus (GPa) = 24.48656 27.59815 26.04235
#
# Velocity S-wave (km/s) = 3.54191 3.76022 3.65270
# Velocity P-wave (km/s) = 6.34848 6.91905 6.63990
#
# Compressibility (1/GPa) = 0.02173056
#
# Stress axis : x y z
#
# Youngs Moduli (GPa) = 91.52834 52.75130 116.11251
#
# Poissons Ratio (x) = 0.13574 0.39986
# Poissons Ratio (y) = 0.23552 0.27463
# Poissons Ratio (z) = 0.31520 0.12477
#
# Static dielectric constant tensor:
#      x y z
#    x 1.690470 0.000000 0.000000 
#    y 0.000000 1.708170 0.000000 
#    z 0.000000 0.000000 1.773270 
# 
# From -- ./inp_files/18384.got.cif
#   From: 2010.05.17/outbox.cif.g08.bks.cpg/sg46_10_cif.got.tgz:18384.got - 2010.06.03 19:58:25.
