data_PCOD9379382
_publ_section_title
;
Structure prediction by ZEFSAII (Michael W. Deem and Ramdas Pophale) SiO2 
 PCOD9379382
Probable space group: I M A 2
;
_chemical_formula_sum "Si O2"
_cell_formula_units_Z 48
_cell_length_a 15.015711
_cell_length_b 12.071412
_cell_length_c 12.303661
_cell_angle_alpha 90.000000
_cell_angle_beta 90.000000
_cell_angle_gamma 90.000000
_cell_volume 2230.171854
_symmetry_space_group_name_H-M "I M A 2"
_symmetry_group_IT_number 46
_symmetry_cell_setting 'orthorhombic'
loop_
_space_group_symop_operation_xyz
x,y,z
-x,-y,z
1/2-x,y,z
1/2+x,-y,z
1/2+x,1/2+y,1/2+z
1/2-x,1/2-y,1/2+z
-x,1/2+y,1/2+z
x,1/2-y,1/2+z
loop_
_atom_site_type_symbol
_atom_site_label
_atom_site_fract_x
_atom_site_fract_y
_atom_site_fract_z
Si Si1 0.142745 0.538868 0.099610
Si Si2 0.591213 0.435700 0.850257
Si Si3 0.858963 0.665935 0.243570
Si Si4 0.141263 0.018116 0.943789
Si Si5 0.351260 0.095626 0.174511
Si Si6 0.141475 0.690000 0.300128
O O1 0.250000 0.537188 0.099546
O O2 0.113081 0.422103 0.151597
O O3 0.117276 0.634879 0.184568
O O4 0.112786 0.554793 0.977300
O O5 0.500000 0.500000 0.831236
O O6 0.653022 0.505837 0.769527
O O7 0.597478 0.307848 0.818752
O O8 0.750000 0.666379 0.246606
O O9 0.886254 0.614155 0.359141
O O10 0.891203 0.789001 0.217259
O O11 0.250000 0.014681 0.943896
O O12 0.115594 0.900384 0.891646
O O13 0.108544 0.044501 0.064644
O O14 0.250000 0.125515 0.143265
O O15 0.250000 0.703221 0.303629
#
# Coordination Sequence:
#
# PCOD9379382 Si02
#       6
#     8   8   8   8   8   8
#     4   9  19  39  66  90 114 155 209 258 305 355
#     4  12  26  40  53  88 126 160 198 247 311 372
#     4   8  16  32  57  89 117 144 189 249 307 360
#     4   8  16  32  58  91 117 146 194 254 308 349
#     4  10  20  34  59  88 117 154 198 249 301 358
#     4   9  19  39  67  91 115 153 208 265 308 357
#
# _framework density 21.523005999999999
#
# number of rings (size 3 to 8) (size 9 to 14) (size 15 to 20)
#    0.000    2.667    0.000    3.500    4.667    0.000 
#    3.000    0.000    0.000    0.000    0.000    0.000 
#    0.000    0.000    0.000    0.000    0.000    0.000 
#
# Total GULP energy -133985.094374 kJ/mol
# GULP energy per Si atom -5582.712266 kJ/mol
# Density = 2.147402 g / cm^3
# Si number density = 21.523006 Si / 1000 Ang^3
#
#
#
# Elastic Constant Matrix: (Units=GPa)
#
#
# Indices 1 2 3 4 5 6 
#
# 1 48.7915 31.1621 27.5753 0.0000 0.0000 0.0000
# 2 31.1621 210.4923 100.1264 0.0000 0.0000 0.0000
# 3 27.5753 100.1264 133.4998 0.0000 0.0000 0.0000
# 4 0.0000 0.0000 0.0000 14.0987 0.0000 0.0000
# 5 0.0000 0.0000 0.0000 0.0000 -23.8256 0.0000
# 6 0.0000 0.0000 0.0000 0.0000 0.0000 32.2084
#
#
#
# Elastic Compliance Matrix: (Units=1/GPa)
#
#
# Indices 1 2 3 4 5 6 
#
# 1 0.023649 -0.001831 -0.003512 0.000000 0.000000 0.000000
# 2 -0.001831 0.007527 -0.005268 0.000000 0.000000 0.000000
# 3 -0.003512 -0.005268 0.012167 0.000000 0.000000 0.000000
# 4 0.000000 0.000000 0.000000 0.070928 0.000000 0.000000
# 5 0.000000 0.000000 0.000000 0.000000 -0.041972 0.000000
# 6 0.000000 0.000000 0.000000 0.000000 0.000000 0.031048
#
#
# Mechanical properties :
#
#
# Convention : Reuss Voigt Hill
#
# Bulk Modulus (GPa) = 45.20102 78.94567 62.07334
# Shear Modulus (GPa) = 37.89524 20.09096 28.99310
#
# Velocity S-wave (km/s) = 4.20060 3.05858 3.67423
# Velocity P-wave (km/s) = 6.67635 7.01659 6.84858
#
# Compressibility (1/GPa) = 0.02212340
#
# Stress axis : x y z
#
# Youngs Moduli (GPa) = 42.28440 132.84763 82.19095
#
# Poissons Ratio (x) = 0.24319 0.28865
# Poissons Ratio (y) = 0.07740 0.43294
# Poissons Ratio (z) = 0.14850 0.69978
#
# Static dielectric constant tensor:
#      x y z
#    x 1.879960 0.000000 0.000000 
#    y 0.000000 1.737990 0.000000 
#    z 0.000000 0.000000 1.768130 
# 
# From -- ./inp_files/11799.got.cif
#   From: 2010.05.17/outbox.cif.g08.bks.cpg/sg46_6_cif.got.tgz:11799.got - 2010.06.03 19:58:25.
