data_PCOD9379484
_publ_section_title
;
Structure prediction by ZEFSAII (Michael W. Deem and Ramdas Pophale) SiO2 
 PCOD9379484
Probable space group: I M A 2
;
_chemical_formula_sum "Si O2"
_cell_formula_units_Z 48
_cell_length_a 8.721140
_cell_length_b 28.687126
_cell_length_c 10.474281
_cell_angle_alpha 90.000000
_cell_angle_beta 90.000000
_cell_angle_gamma 90.000000
_cell_volume 2620.502148
_symmetry_space_group_name_H-M "I M A 2"
_symmetry_group_IT_number 46
_symmetry_cell_setting 'orthorhombic'
loop_
_space_group_symop_operation_xyz
x,y,z
-x,-y,z
1/2-x,y,z
1/2+x,-y,z
1/2+x,1/2+y,1/2+z
1/2-x,1/2-y,1/2+z
-x,1/2+y,1/2+z
x,1/2-y,1/2+z
loop_
_atom_site_type_symbol
_atom_site_label
_atom_site_fract_x
_atom_site_fract_y
_atom_site_fract_z
Si Si1 0.433457 0.147783 0.469300
Si Si2 0.933498 0.301609 0.218061
Si Si3 0.932704 0.855722 0.961716
Si Si4 0.933416 0.549007 0.085254
Si Si5 0.432760 0.691277 0.713013
Si Si6 0.433230 0.549915 0.370008
O O1 0.250000 0.153397 0.461833
O O2 0.496675 0.176383 0.590187
O O3 0.466574 0.093381 0.497233
O O4 0.510202 0.166317 0.341039
O O5 0.750000 0.308540 0.218563
O O6 0.965003 0.246469 0.222271
O O7 0.004546 0.326855 0.340735
O O8 0.750000 0.858738 0.954176
O O9 0.004169 0.907244 0.951887
O O10 0.984810 0.830395 0.090456
O O11 0.750000 0.545236 0.101605
O O12 0.000000 0.500000 0.036912
O O13 0.007552 0.557234 0.224621
O O14 0.250000 0.685648 0.698846
O O15 0.500000 0.500000 0.411573
O O16 0.250000 0.548849 0.370438
#
# Coordination Sequence:
#
# PCOD9379484 Si02
#       6
#     8   8   8   8   8   8
#     4  11  23  39  61  90 122 157 200 247 299 359
#     4  11  23  40  63  89 118 158 205 251 300 358
#     4  12  24  40  62  90 123 159 203 250 302 360
#     4  10  20  35  58  89 120 152 196 245 294 353
#     4  11  25  42  60  86 122 161 203 249 304 363
#     4  11  21  36  61  90 121 155 197 247 300 354
#
# _framework density 18.3171
#
# number of rings (size 3 to 8) (size 9 to 14) (size 15 to 20)
#    0.000    1.000    1.667    7.000    0.000    8.667 
#    0.000    0.833    0.000    2.000    0.000    0.000 
#    0.000    0.000    0.000    0.000    0.000    0.000 
#
# Total GULP energy -134253.827476 kJ/mol
# GULP energy per Si atom -5593.909478 kJ/mol
# Density = 1.827541 g / cm^3
# Si number density = 18.317100 Si / 1000 Ang^3
#
#
#
# Elastic Constant Matrix: (Units=GPa)
#
#
# Indices 1 2 3 4 5 6 
#
# 1 106.0987 75.5830 29.8729 -0.0153 0.0001 0.0000
# 2 75.5830 137.9783 47.0649 -0.0247 0.0000 0.0000
# 3 29.8729 47.0649 95.0921 -0.0650 0.0011 0.0001
# 4 -0.0153 -0.0247 -0.0650 488.1335 0.0127 -0.0029
# 5 0.0001 0.0000 0.0011 0.0127 40.8896 0.0000
# 6 0.0000 0.0000 0.0001 -0.0029 0.0000 35.5572
#
#
#
# Elastic Compliance Matrix: (Units=1/GPa)
#
#
# Indices 1 2 3 4 5 6 
#
# 1 0.015508 -0.008221 -0.000803 0.000000 0.000000 0.000000
# 2 -0.008221 0.013078 -0.003890 0.000000 0.000000 0.000000
# 3 -0.000803 -0.003890 0.012694 0.000001 0.000000 0.000000
# 4 0.000000 0.000000 0.000001 0.002049 -0.000001 0.000000
# 5 0.000000 0.000000 0.000000 -0.000001 0.024456 0.000000
# 6 0.000000 0.000000 0.000000 0.000000 0.000000 0.028124
#
#
# Mechanical properties :
#
#
# Convention : Reuss Voigt Hill
#
# Bulk Modulus (GPa) = 64.71941 71.57897 68.14919
# Shear Modulus (GPa) = 39.40527 125.35926 82.38226
#
# Velocity S-wave (km/s) = 4.64322 8.28172 6.71366
# Velocity P-wave (km/s) = 8.00972 11.42855 9.86832
#
# Compressibility (1/GPa) = 0.01545131
#
# Stress axis : x y z
#
# Youngs Moduli (GPa) = 64.48344 76.46458 78.77931
#
# Poissons Ratio (x) = 0.62863 0.06324
# Poissons Ratio (y) = 0.53013 0.30646
# Poissons Ratio (z) = 0.05176 0.29746
#
# Static dielectric constant tensor:
#      x y z
#    x 1.611490 0.000000 0.000000 
#    y 0.000000 1.615950 0.000000 
#    z 0.000000 0.000000 1.582040 
# 
# From -- ./inp_files/3927.got.cif
#   From: 2010.05.17/outbox.cif.g08.bks.cpg/sg46_2_cif.got.tgz:3927.got - 2010.06.03 19:58:25.
