data_PCOD9379867
_publ_section_title
;
Structure prediction by ZEFSAII (Michael W. Deem and Ramdas Pophale) SiO2 
 PCOD9379867
Probable space group: I M A 2
;
_chemical_formula_sum "Si O2"
_cell_formula_units_Z 60
_cell_length_a 19.359437
_cell_length_b 11.433721
_cell_length_c 14.922281
_cell_angle_alpha 90.000000
_cell_angle_beta 90.000000
_cell_angle_gamma 90.000000
_cell_volume 3303.052889
_symmetry_space_group_name_H-M "I M A 2"
_symmetry_group_IT_number 46
_symmetry_cell_setting 'orthorhombic'
loop_
_space_group_symop_operation_xyz
x,y,z
-x,-y,z
1/2-x,y,z
1/2+x,-y,z
1/2+x,1/2+y,1/2+z
1/2-x,1/2-y,1/2+z
-x,1/2+y,1/2+z
x,1/2-y,1/2+z
loop_
_atom_site_type_symbol
_atom_site_label
_atom_site_fract_x
_atom_site_fract_y
_atom_site_fract_z
Si Si1 0.828600 0.685631 0.442540
Si Si2 0.000000 0.500000 0.874346
Si Si3 0.917836 0.791901 0.301063
Si Si4 0.826805 0.442668 0.334105
Si Si5 0.171747 0.534884 0.120762
Si Si6 0.549186 0.333246 0.029572
Si Si7 0.470076 0.630475 0.401991
Si Si8 0.902107 0.703857 0.101848
O O1 0.750000 0.704124 0.471684
O O2 0.852619 0.776313 0.366356
O O3 0.832396 0.559646 0.394423
O O4 0.880277 0.704121 0.525372
O O5 0.950923 0.581259 0.815086
O O6 0.957996 0.415166 0.941634
O O7 0.899700 0.758628 0.200192
O O8 0.974473 0.700774 0.341548
O O9 0.750000 0.391290 0.351631
O O10 0.830006 0.470641 0.228761
O O11 0.895237 0.370813 0.355480
O O12 0.250000 0.561988 0.092819
O O13 0.116325 0.627526 0.083532
O O14 0.148660 0.406075 0.090174
O O15 0.478828 0.347036 0.085934
O O16 0.543896 0.201071 0.993439
O O17 0.500000 0.500000 0.413778
#
# Coordination Sequence:
#
# PCOD9379867 Si02
#       8
#     8   4   8   8   8   8   8   8
#     4  11  21  36  58  89 118 153 199 248 303 352
#     4  10  20  40  54  84 124 154 192 248 306 344
#     4  11  22  37  61  89 122 160 199 251 300 362
#     4  10  21  37  57  82 119 151 193 251 301 355
#     4  11  21  35  58  90 119 154 199 249 306 363
#     4  11  21  36  63  84 121 152 204 254 296 362
#     4  11  19  37  60  87 115 157 205 243 301 361
#     4  12  20  36  59  89 117 163 201 249 294 358
#
# _framework density 18.165013999999999
#
# number of rings (size 3 to 8) (size 9 to 14) (size 15 to 20)
#    0.000    1.067    6.667    1.200    0.000    1.067 
#    3.600    0.000    0.000    0.800    0.000    0.000 
#    0.000    0.000    0.000    0.000    0.000    0.000 
#
# Total GULP energy -167378.492273 kJ/mol
# GULP energy per Si atom -5579.283076 kJ/mol
# Density = 1.812367 g / cm^3
# Si number density = 18.165014 Si / 1000 Ang^3
#
#
#
# Elastic Constant Matrix: (Units=GPa)
#
#
# Indices 1 2 3 4 5 6 
#
# 1 114.1817 6.9038 23.6924 0.0000 0.0000 0.0000
# 2 6.9038 48.7364 16.0272 0.0000 0.0000 0.0000
# 3 23.6924 16.0272 92.8113 0.0000 0.0000 0.0000
# 4 0.0000 0.0000 0.0000 21.9799 0.0000 0.0000
# 5 0.0000 0.0000 0.0000 0.0000 25.6556 0.0000
# 6 0.0000 0.0000 0.0000 0.0000 0.0000 24.9109
#
#
#
# Elastic Compliance Matrix: (Units=1/GPa)
#
#
# Indices 1 2 3 4 5 6 
#
# 1 0.009263 -0.000567 -0.002267 0.000000 0.000000 0.000000
# 2 -0.000567 0.021789 -0.003618 0.000000 0.000000 0.000000
# 3 -0.002267 -0.003618 0.011978 0.000000 0.000000 0.000000
# 4 0.000000 0.000000 0.000000 0.045496 0.000000 0.000000
# 5 0.000000 0.000000 0.000000 0.000000 0.038978 0.000000
# 6 0.000000 0.000000 0.000000 0.000000 0.000000 0.040143
#
#
# Mechanical properties :
#
#
# Convention : Reuss Voigt Hill
#
# Bulk Modulus (GPa) = 33.19329 38.77514 35.98421
# Shear Modulus (GPa) = 26.23421 28.44968 27.34194
#
# Velocity S-wave (km/s) = 3.80441 3.96179 3.88390
# Velocity P-wave (km/s) = 6.13277 6.50539 6.32183
#
# Compressibility (1/GPa) = 0.03012657
#
# Stress axis : x y z
#
# Youngs Moduli (GPa) = 107.96162 45.89555 83.48691
#
# Poissons Ratio (x) = 0.02601 0.18923
# Poissons Ratio (y) = 0.06118 0.30205
# Poissons Ratio (z) = 0.24471 0.16605
#
# Static dielectric constant tensor:
#      x y z
#    x 1.643900 0.000000 0.000000 
#    y 0.000000 1.639550 0.000000 
#    z 0.000000 0.000000 1.622030 
# 
# From -- ./inp_files/12464.got.cif
#   From: 2010.05.17/outbox.cif.g08.bks.cpg/sg46_7_cif.got.tgz:12464.got - 2010.06.03 19:58:25.
