data_PCOD9379176
_publ_section_title
;
Structure prediction by ZEFSAII (Michael W. Deem and Ramdas Pophale) SiO2 
 PCOD9379176
Probable space group: I M A 2
;
_chemical_formula_sum "Si O2"
_cell_formula_units_Z 60
_cell_length_a 9.335249
_cell_length_b 14.860087
_cell_length_c 24.076994
_cell_angle_alpha 90.000000
_cell_angle_beta 90.000000
_cell_angle_gamma 90.000000
_cell_volume 3340.023504
_symmetry_space_group_name_H-M "I M A 2"
_symmetry_group_IT_number 46
_symmetry_cell_setting 'orthorhombic'
loop_
_space_group_symop_operation_xyz
x,y,z
-x,-y,z
1/2-x,y,z
1/2+x,-y,z
1/2+x,1/2+y,1/2+z
1/2-x,1/2-y,1/2+z
-x,1/2+y,1/2+z
x,1/2-y,1/2+z
loop_
_atom_site_type_symbol
_atom_site_label
_atom_site_fract_x
_atom_site_fract_y
_atom_site_fract_z
Si Si1 0.419916 0.292689 0.063740
Si Si2 0.000000 0.500000 0.338278
Si Si3 0.413201 0.164490 0.761467
Si Si4 0.081985 0.090910 0.456022
Si Si5 0.579591 0.586670 0.541049
Si Si6 0.581050 0.775326 0.366314
Si Si7 0.091445 0.874857 0.930446
Si Si8 0.421436 0.596907 0.158054
O O1 0.250000 0.307967 0.075138
O O2 0.445322 0.185461 0.067182
O O3 0.517980 0.348212 0.105691
O O4 0.448010 0.331629 0.001810
O O5 0.926529 0.575518 0.300284
O O6 0.899986 0.447787 0.381368
O O7 0.250000 0.169373 0.739879
O O8 0.439706 0.249816 0.801898
O O9 0.526054 0.150477 0.712699
O O10 0.250000 0.072072 0.459988
O O11 0.052988 0.128179 0.393949
O O12 0.000000 0.000000 0.468913
O O13 0.500000 0.500000 0.566880
O O14 0.750000 0.571240 0.538586
O O15 0.513803 0.596309 0.479465
O O16 0.750000 0.754874 0.377869
O O17 0.478869 0.709706 0.400340
O O18 0.250000 0.857472 0.952999
O O19 0.500000 0.500000 0.159529
O O20 0.250000 0.586212 0.156767
#
# Coordination Sequence:
#
# PCOD9379176 Si02
#       8
#     8   4   8   8   8   8   8   8
#     4  10  22  41  61  81 114 155 195 241 290 339
#     4  10  20  30  50  80 118 152 182 226 272 332
#     4  10  20  35  57  81 113 151 189 228 282 345
#     4  10  20  36  57  84 116 153 194 238 285 339
#     4  11  22  37  57  83 116 152 189 233 284 344
#     4   9  19  36  54  77 113 150 184 229 285 340
#     4  11  20  29  48  78 113 149 185 222 269 330
#     4  12  25  40  60  85 116 150 195 243 289 346
#
# _framework density 17.963944999999999
#
# number of rings (size 3 to 8) (size 9 to 14) (size 15 to 20)
#    0.000    1.600    2.667    2.800    0.000    6.400 
#    0.000    0.000    0.000    0.800    0.000    1.867 
#    0.000    0.000    0.000    0.000    0.000    0.000 
#
# Total GULP energy -167271.329532 kJ/mol
# GULP energy per Si atom -5575.710984 kJ/mol
# Density = 1.792306 g / cm^3
# Si number density = 17.963945 Si / 1000 Ang^3
#
#
#
# Elastic Constant Matrix: (Units=GPa)
#
#
# Indices 1 2 3 4 5 6 
#
# 1 101.9823 50.7170 43.9130 0.0000 0.0000 0.0000
# 2 50.7170 83.7409 26.8596 0.0000 0.0000 0.0000
# 3 43.9130 26.8596 69.3121 0.0000 0.0000 0.0000
# 4 0.0000 0.0000 0.0000 23.1939 0.0000 0.0000
# 5 0.0000 0.0000 0.0000 0.0000 20.6069 0.0000
# 6 0.0000 0.0000 0.0000 0.0000 0.0000 19.3682
#
#
#
# Elastic Compliance Matrix: (Units=1/GPa)
#
#
# Indices 1 2 3 4 5 6 
#
# 1 0.017043 -0.007832 -0.007763 0.000000 0.000000 0.000000
# 2 -0.007832 0.017236 -0.001717 0.000000 0.000000 0.000000
# 3 -0.007763 -0.001717 0.020011 0.000000 0.000000 0.000000
# 4 0.000000 0.000000 0.000000 0.043115 0.000000 0.000000
# 5 0.000000 0.000000 0.000000 0.000000 0.048527 0.000000
# 6 0.000000 0.000000 0.000000 0.000000 0.000000 0.051631
#
#
# Mechanical properties :
#
#
# Convention : Reuss Voigt Hill
#
# Bulk Modulus (GPa) = 50.84887 55.33496 53.09192
# Shear Modulus (GPa) = 20.94305 21.53685 21.23995
#
# Velocity S-wave (km/s) = 3.41814 3.46626 3.44228
# Velocity P-wave (km/s) = 6.62916 6.84764 6.73929
#
# Compressibility (1/GPa) = 0.01966612
#
# Stress axis : x y z
#
# Youngs Moduli (GPa) = 58.67417 58.01858 49.97250
#
# Poissons Ratio (x) = 0.45442 0.38792
# Poissons Ratio (y) = 0.45955 0.08580
# Poissons Ratio (z) = 0.45547 0.09962
#
# Static dielectric constant tensor:
#      x y z
#    x 1.617180 0.000000 0.000000 
#    y 0.000000 1.638470 0.000000 
#    z 0.000000 0.000000 1.619930 
# 
# From -- ./inp_files/23059.got.cif
#   From: 2010.05.17/outbox.cif.g08.bks.cpg/sg46_12_cif.got.tgz:23059.got - 2010.06.03 19:58:25.
