data_PCOD9379972
_publ_section_title
;
Structure prediction by ZEFSAII (Michael W. Deem and Ramdas Pophale) SiO2 
 PCOD9379972
Probable space group: I M A 2
;
_chemical_formula_sum "Si O2"
_cell_formula_units_Z 44
_cell_length_a 16.095540
_cell_length_b 11.764599
_cell_length_c 13.065386
_cell_angle_alpha 90.000000
_cell_angle_beta 90.000000
_cell_angle_gamma 90.000000
_cell_volume 2474.029794
_symmetry_space_group_name_H-M "I M A 2"
_symmetry_group_IT_number 46
_symmetry_cell_setting 'orthorhombic'
loop_
_space_group_symop_operation_xyz
x,y,z
-x,-y,z
1/2-x,y,z
1/2+x,-y,z
1/2+x,1/2+y,1/2+z
1/2-x,1/2-y,1/2+z
-x,1/2+y,1/2+z
x,1/2-y,1/2+z
loop_
_atom_site_type_symbol
_atom_site_label
_atom_site_fract_x
_atom_site_fract_y
_atom_site_fract_z
Si Si1 0.483666 0.764449 0.630120
Si Si2 0.500000 0.000000 0.739985
Si Si3 0.158930 0.535051 0.380362
Si Si4 0.156849 0.708157 0.958020
Si Si5 0.910147 0.937272 0.083447
Si Si6 0.417805 0.930816 0.280064
O O1 0.504723 0.886604 0.673608
O O2 0.413450 0.781169 0.544126
O O3 0.563351 0.693977 0.589474
O O4 0.447295 0.682418 0.719267
O O5 0.417942 0.995394 0.809428
O O6 0.250000 0.506989 0.337780
O O7 0.156053 0.669848 0.401702
O O8 0.146095 0.472509 0.489108
O O9 0.250000 0.691627 0.000398
O O10 0.135498 0.610762 0.875527
O O11 0.878454 0.988893 0.191410
O O12 0.000000 0.000000 0.067426
O O13 0.500000 0.000000 0.314460
#
# Coordination Sequence:
#
# PCOD9379972 Si02
#       6
#     8   4   8   8   8   8
#     4  10  21  35  57  81 110 160 187 226 286 347
#     4  12  22  38  58  84 122 150 184 242 296 344
#     4  11  21  35  62  89 113 145 194 246 286 339
#     4  11  21  34  55  89 119 140 186 247 294 338
#     4   9  17  38  56  79 111 150 194 224 276 345
#     4   9  19  35  56  81 112 150 188 227 280 348
#
# _framework density 17.784749000000001
#
# number of rings (size 3 to 8) (size 9 to 14) (size 15 to 20)
#    0.000    2.182    6.364    0.000    1.273    2.182 
#    0.000    0.909    0.000    5.455    0.000    0.000 
#    0.000    0.000    0.000    0.000    0.000    0.000 
#
# Total GULP energy -122632.259994 kJ/mol
# GULP energy per Si atom -5574.193636 kJ/mol
# Density = 1.774427 g / cm^3
# Si number density = 17.784749 Si / 1000 Ang^3
#
#
#
# Elastic Constant Matrix: (Units=GPa)
#
#
# Indices 1 2 3 4 5 6 
#
# 1 93.1865 49.7161 42.0538 0.0000 0.0000 0.0000
# 2 49.7161 116.5616 51.3907 0.0000 0.0000 0.0000
# 3 42.0538 51.3907 43.1508 0.0000 0.0000 0.0000
# 4 0.0000 0.0000 0.0000 22.7746 0.0000 0.0000
# 5 0.0000 0.0000 0.0000 0.0000 -5.9535 0.0000
# 6 0.0000 0.0000 0.0000 0.0000 0.0000 16.6436
#
#
#
# Elastic Compliance Matrix: (Units=1/GPa)
#
#
# Indices 1 2 3 4 5 6 
#
# 1 0.019157 0.000127 -0.018822 0.000000 0.000000 0.000000
# 2 0.000127 0.018065 -0.021639 0.000000 0.000000 0.000000
# 3 -0.018822 -0.021639 0.067289 0.000000 0.000000 0.000000
# 4 0.000000 0.000000 0.000000 0.043909 0.000000 0.000000
# 5 0.000000 0.000000 0.000000 0.000000 -0.167968 0.000000
# 6 0.000000 0.000000 0.000000 0.000000 0.000000 0.060083
#
#
# Mechanical properties :
#
#
# Convention : Reuss Voigt Hill
#
# Bulk Modulus (GPa) = 41.93855 59.91336 50.92596
# Shear Modulus (GPa) = 38.71440 14.00881 26.36161
#
# Velocity S-wave (km/s) = 4.67071 2.80962 3.85419
# Velocity P-wave (km/s) = 7.26084 6.65481 6.96442
#
# Compressibility (1/GPa) = 0.02384441
#
# Stress axis : x y z
#
# Youngs Moduli (GPa) = 52.19938 55.35502 14.86125
#
# Poissons Ratio (x) = -0.00705 0.27972
# Poissons Ratio (y) = -0.00665 0.32158
# Poissons Ratio (z) = 0.98250 1.19783
#
# Static dielectric constant tensor:
#      x y z
#    x 1.618770 0.000000 0.000000 
#    y 0.000000 1.607900 0.000000 
#    z 0.000000 0.000000 1.618910 
# 
# From -- ./inp_files/11721.got.cif
#   From: 2010.05.17/outbox.cif.g08.bks.cpg/sg46_6_cif.got.tgz:11721.got - 2010.06.03 19:58:25.
