data_PCOD9379448
_publ_section_title
;
Structure prediction by ZEFSAII (Michael W. Deem and Ramdas Pophale) SiO2 
 PCOD9379448
Probable space group: I M A 2
;
_chemical_formula_sum "Si O2"
_cell_formula_units_Z 40
_cell_length_a 8.143726
_cell_length_b 30.339407
_cell_length_c 7.448569
_cell_angle_alpha 90.000000
_cell_angle_beta 90.000000
_cell_angle_gamma 90.000000
_cell_volume 1840.361276
_symmetry_space_group_name_H-M "I M A 2"
_symmetry_group_IT_number 46
_symmetry_cell_setting 'orthorhombic'
loop_
_space_group_symop_operation_xyz
x,y,z
-x,-y,z
1/2-x,y,z
1/2+x,-y,z
1/2+x,1/2+y,1/2+z
1/2-x,1/2-y,1/2+z
-x,1/2+y,1/2+z
x,1/2-y,1/2+z
loop_
_atom_site_type_symbol
_atom_site_label
_atom_site_fract_x
_atom_site_fract_y
_atom_site_fract_z
Si Si1 0.558006 0.288937 0.305950
Si Si2 0.053804 0.395376 0.586404
Si Si3 0.553498 0.450960 0.899438
Si Si4 0.936751 0.696568 0.689101
Si Si5 0.054500 0.620853 0.179283
O O1 0.750000 0.296580 0.353378
O O2 0.441893 0.297202 0.474275
O O3 0.538183 0.238228 0.255544
O O4 0.510096 0.327006 0.162609
O O5 0.250000 0.391383 0.576153
O O6 0.993221 0.352807 0.702747
O O7 0.006214 0.437736 0.700877
O O8 0.986283 0.392786 0.384555
O O9 0.500000 0.500000 0.948991
O O10 0.750000 0.449411 0.900077
O O11 0.484863 0.414394 0.039179
O O12 0.750000 0.698988 0.756976
O O13 0.250000 0.619244 0.158615
#
# Coordination Sequence:
#
# PCOD9379448 Si02
#       5
#     8   8   8   8   8
#     4  10  20  35  56  84 115 156 203 245 295 356
#     4  10  22  40  62  89 123 162 201 248 306 363
#     4  11  24  42  65  92 121 156 204 255 308 365
#     4  10  21  36  54  84 120 158 198 244 300 356
#     4   9  21  41  62  87 120 160 203 252 304 359
#
# _framework density 21.734860999999999
#
# number of rings (size 3 to 8) (size 9 to 14) (size 15 to 20)
#    0.000    2.000    0.000    2.400    2.800    5.600 
#    0.000    2.000    0.000    0.000    0.000    0.000 
#    0.000    0.000    0.000    0.000    0.000    0.000 
#
# Total GULP energy -111603.301555 kJ/mol
# GULP energy per Si atom -5580.165078 kJ/mol
# Density = 2.168539 g / cm^3
# Si number density = 21.734861 Si / 1000 Ang^3
#
#
#
# Elastic Constant Matrix: (Units=GPa)
#
#
# Indices 1 2 3 4 5 6 
#
# 1 38.6846 3.5702 -13.0590 0.0000 0.0000 0.0000
# 2 3.5702 96.1980 25.0405 -0.0001 0.0000 0.0000
# 3 -13.0590 25.0405 37.1081 0.0000 -0.0002 0.0002
# 4 0.0000 -0.0001 0.0000 37.3956 0.0000 0.0000
# 5 0.0000 0.0000 -0.0002 0.0000 21.1606 0.0000
# 6 0.0000 0.0000 0.0002 0.0000 0.0000 29.5875
#
#
#
# Elastic Compliance Matrix: (Units=1/GPa)
#
#
# Indices 1 2 3 4 5 6 
#
# 1 0.031099 -0.004856 0.014221 0.000000 0.000000 0.000000
# 2 -0.004856 0.013368 -0.010730 0.000000 0.000000 0.000000
# 3 0.014221 -0.010730 0.039193 0.000000 0.000000 0.000000
# 4 0.000000 0.000000 0.000000 0.026741 0.000000 0.000000
# 5 0.000000 0.000000 0.000000 0.000000 0.047258 0.000000
# 6 0.000000 0.000000 0.000000 0.000000 0.000000 0.033798
#
#
# Mechanical properties :
#
#
# Convention : Reuss Voigt Hill
#
# Bulk Modulus (GPa) = 12.35619 22.56601 17.46110
# Shear Modulus (GPa) = 22.60764 28.05802 25.33283
#
# Velocity S-wave (km/s) = 3.22864 3.59684 3.41770
# Velocity P-wave (km/s) = 4.42675 5.25876 4.86059
#
# Compressibility (1/GPa) = 0.08093111
#
# Stress axis : x y z
#
# Youngs Moduli (GPa) = 32.15547 74.80304 25.51452
#
# Poissons Ratio (x) = 0.36324 -0.36284
# Poissons Ratio (y) = 0.15614 0.27377
# Poissons Ratio (z) = -0.45728 0.80263
#
# Static dielectric constant tensor:
#      x y z
#    x 1.742360 0.000000 0.000000 
#    y 0.000000 1.857540 0.000000 
#    z 0.000000 0.000000 1.808890 
# 
# From -- ./inp_files/3529.got.cif
#   From: 2010.05.17/outbox.cif.g08.bks.cpg/sg46_2_cif.got.tgz:3529.got - 2010.06.03 19:58:25.
