data_PCOD9379435
_publ_section_title
;
Structure prediction by ZEFSAII (Michael W. Deem and Ramdas Pophale) SiO2 
 PCOD9379435
Probable space group: I M A 2
;
_chemical_formula_sum "Si O2"
_cell_formula_units_Z 64
_cell_length_a 18.995634
_cell_length_b 11.924255
_cell_length_c 13.483394
_cell_angle_alpha 90.000000
_cell_angle_beta 90.000000
_cell_angle_gamma 90.000000
_cell_volume 3054.107175
_symmetry_space_group_name_H-M "I M A 2"
_symmetry_group_IT_number 46
_symmetry_cell_setting 'orthorhombic'
loop_
_space_group_symop_operation_xyz
x,y,z
-x,-y,z
1/2-x,y,z
1/2+x,-y,z
1/2+x,1/2+y,1/2+z
1/2-x,1/2-y,1/2+z
-x,1/2+y,1/2+z
x,1/2-y,1/2+z
loop_
_atom_site_type_symbol
_atom_site_label
_atom_site_fract_x
_atom_site_fract_y
_atom_site_fract_z
Si Si1 0.388518 0.871160 0.104580
Si Si2 0.174490 0.059687 0.439619
Si Si3 0.962431 0.696487 0.704059
Si Si4 0.174490 0.440313 0.706801
Si Si5 0.921494 0.953765 0.934034
Si Si6 0.537569 0.803513 0.442361
Si Si7 0.611482 0.371160 0.041840
Si Si8 0.921494 0.546235 0.212385
O O1 0.467127 0.846297 0.148811
O O2 0.361760 0.750000 0.073210
O O3 0.340839 0.929973 0.186641
O O4 0.388055 0.960157 0.013129
O O5 0.250000 0.093241 0.484486
O O6 0.177999 0.082466 0.323210
O O7 0.103756 0.121212 0.472600
O O8 0.159161 0.929973 0.459779
O O9 0.896244 0.621212 0.673820
O O10 0.975271 0.687017 0.823210
O O11 0.935922 0.823550 0.685575
O O12 0.250000 0.406759 0.661934
O O13 0.935922 0.823550 0.960845
O O14 0.888155 0.956968 0.823210
O O15 0.000000 0.000000 0.924884
O O16 0.467127 0.846296 0.497609
O O17 0.611945 0.460157 0.133291
O O18 0.000000 0.500000 0.221536
#
# Coordination Sequence:
#
# PCOD9379435 Si02
#       8
#     8   8   8   8   8   8   8   8
#     4  12  23  34  62  91 121 154 203 247 299 358
#     4  10  23  42  62  86 120 159 201 251 302 355
#     4  10  21  38  62  90 118 154 202 253 303 355
#     4  10  23  42  62  86 120 159 201 251 302 355
#     4  10  20  35  55  86 124 153 189 246 309 355
#     4  10  21  38  62  90 118 154 202 253 303 355
#     4  12  23  34  62  91 121 154 203 247 299 358
#     4  10  20  35  55  86 124 153 189 246 309 355
#
# _framework density 20.955387999999999
#
# number of rings (size 3 to 8) (size 9 to 14) (size 15 to 20)
#    0.000    1.500    2.500    3.000    0.000    3.500 
#    0.000    2.500    0.000    2.250    0.000    0.000 
#    0.000    0.000    0.000    0.000    0.000    0.000 
#
# Total GULP energy -178404.210244 kJ/mol
# GULP energy per Si atom -5575.131570 kJ/mol
# Density = 2.090769 g / cm^3
# Si number density = 20.955388 Si / 1000 Ang^3
#
#
#
# Elastic Constant Matrix: (Units=GPa)
#
#
# Indices 1 2 3 4 5 6 
#
# 1 25.5142 0.6825 -3.5056 0.0000 0.0000 0.0000
# 2 0.6825 113.5294 14.7880 0.0000 0.0000 0.0000
# 3 -3.5056 14.7880 83.5253 0.0000 0.0000 0.0000
# 4 0.0000 0.0000 0.0000 29.4852 0.0000 0.0000
# 5 0.0000 0.0000 0.0000 0.0000 10.2827 0.0000
# 6 0.0000 0.0000 0.0000 0.0000 0.0000 -7.2648
#
#
#
# Elastic Compliance Matrix: (Units=1/GPa)
#
#
# Indices 1 2 3 4 5 6 
#
# 1 0.039445 -0.000463 0.001738 0.000000 0.000000 0.000000
# 2 -0.000463 0.009022 -0.001617 0.000000 0.000000 0.000000
# 3 0.001738 -0.001617 0.012332 0.000000 0.000000 0.000000
# 4 0.000000 0.000000 0.000000 0.033915 0.000000 0.000000
# 5 0.000000 0.000000 0.000000 0.000000 0.097251 0.000000
# 6 0.000000 0.000000 0.000000 0.000000 0.000000 -0.137649
#
#
# Mechanical properties :
#
#
# Convention : Reuss Voigt Hill
#
# Bulk Modulus (GPa) = 16.63531 27.38873 22.01202
# Shear Modulus (GPa) = 66.63258 20.54086 43.58672
#
# Velocity S-wave (km/s) = 5.64503 3.13424 4.56562
# Velocity P-wave (km/s) = 7.10241 5.11824 6.19034
#
# Compressibility (1/GPa) = 0.06011311
#
# Stress axis : x y z
#
# Youngs Moduli (GPa) = 25.35172 110.84421 81.09256
#
# Poissons Ratio (x) = 0.05137 -0.14090
# Poissons Ratio (y) = 0.01175 0.13110
# Poissons Ratio (z) = -0.04405 0.17920
#
# Static dielectric constant tensor:
#      x y z
#    x 1.768350 0.000000 0.000000 
#    y 0.000000 1.834430 0.000000 
#    z 0.000000 0.000000 1.883730 
# 
# From -- ./inp_files/16788.got.cif
#   From: 2010.05.17/outbox.cif.g08.bks.cpg/sg46_9_cif.got.tgz:16788.got - 2010.06.03 19:58:25.
