data_PCOD9379844
_publ_section_title
;
Structure prediction by ZEFSAII (Michael W. Deem and Ramdas Pophale) SiO2 
 PCOD9379844
Probable space group: I M A 2
;
_chemical_formula_sum "Si O2"
_cell_formula_units_Z 56
_cell_length_a 28.231632
_cell_length_b 5.907318
_cell_length_c 13.824316
_cell_angle_alpha 90.000000
_cell_angle_beta 90.000000
_cell_angle_gamma 90.000000
_cell_volume 2305.525803
_symmetry_space_group_name_H-M "I M A 2"
_symmetry_group_IT_number 46
_symmetry_cell_setting 'orthorhombic'
loop_
_space_group_symop_operation_xyz
x,y,z
-x,-y,z
1/2-x,y,z
1/2+x,-y,z
1/2+x,1/2+y,1/2+z
1/2-x,1/2-y,1/2+z
-x,1/2+y,1/2+z
x,1/2-y,1/2+z
loop_
_atom_site_type_symbol
_atom_site_label
_atom_site_fract_x
_atom_site_fract_y
_atom_site_fract_z
Si Si1 0.561334 0.877219 0.805390
Si Si2 0.150717 0.088674 0.291726
Si Si3 0.620930 0.288548 0.438783
Si Si4 0.197994 0.385234 0.451366
Si Si5 0.091941 0.014264 0.610695
Si Si6 0.696475 0.848044 0.645478
Si Si7 0.978890 0.745516 0.495980
O O1 0.597015 0.673270 0.776758
O O2 0.523027 0.772052 0.878215
O O3 0.586913 0.050934 0.877761
O O4 0.557037 0.004935 0.702980
O O5 0.176316 0.282411 0.355003
O O6 0.182761 0.107075 0.196548
O O7 0.145575 0.873871 0.359605
O O8 0.663067 0.424890 0.486721
O O9 0.593642 0.168248 0.525380
O O10 0.250000 0.475795 0.434853
O O11 0.199386 0.191190 0.531224
O O12 0.145928 0.020918 0.654295
O O13 0.072649 0.230534 0.549067
O O14 0.750000 0.920995 0.676561
O O15 0.000000 0.500000 0.528056
O O16 0.000000 0.000000 0.516723
#
# Coordination Sequence:
#
# PCOD9379844 Si02
#       7
#     8   8   8   8   8   8   8
#     4  10  24  44  68 103 139 185 241 311 381 462
#     4  10  20  39  63  88 130 184 233 301 374 435
#     4  11  21  40  67  96 134 192 248 305 380 453
#     4  10  21  35  54  89 133 178 241 305 361 428
#     4  11  23  46  74 105 147 199 245 314 390 453
#     4  10  21  38  63  97 139 186 243 299 363 449
#     4  12  27  50  77 115 157 197 257 322 389 476
#
# _framework density 24.289470000000001
#
# number of rings (size 3 to 8) (size 9 to 14) (size 15 to 20)
#    0.000    1.429    2.857    2.143    2.000    2.857 
#    2.571    0.000    0.000    0.000    0.000    0.000 
#    0.000    0.000    0.000    0.000    0.000    0.000 
#
# Total GULP energy -155953.648163 kJ/mol
# GULP energy per Si atom -5569.773149 kJ/mol
# Density = 2.423419 g / cm^3
# Si number density = 24.289470 Si / 1000 Ang^3
#
#
#
# Elastic Constant Matrix: (Units=GPa)
#
#
# Indices 1 2 3 4 5 6 
#
# 1 104.0432 35.3836 3.1825 0.0000 0.0000 0.0000
# 2 35.3836 75.4588 19.2958 0.0000 0.0000 0.0000
# 3 3.1825 19.2958 121.4629 0.0000 0.0000 0.0000
# 4 0.0000 0.0000 0.0000 12.4403 0.0000 0.0000
# 5 0.0000 0.0000 0.0000 0.0000 24.5677 0.0000
# 6 0.0000 0.0000 0.0000 0.0000 0.0000 25.1058
#
#
#
# Elastic Compliance Matrix: (Units=1/GPa)
#
#
# Indices 1 2 3 4 5 6 
#
# 1 0.011474 -0.005528 0.000578 0.000000 0.000000 0.000000
# 2 -0.005528 0.016477 -0.002473 0.000000 0.000000 0.000000
# 3 0.000578 -0.002473 0.008611 0.000000 0.000000 0.000000
# 4 0.000000 0.000000 0.000000 0.080384 0.000000 0.000000
# 5 0.000000 0.000000 0.000000 0.000000 0.040704 0.000000
# 6 0.000000 0.000000 0.000000 0.000000 0.000000 0.039831
#
#
# Mechanical properties :
#
#
# Convention : Reuss Voigt Hill
#
# Bulk Modulus (GPa) = 46.05108 46.29873 46.17491
# Shear Modulus (GPa) = 22.77240 28.62964 25.70102
#
# Velocity S-wave (km/s) = 3.06525 3.43692 3.25639
# Velocity P-wave (km/s) = 5.61499 5.90360 5.76111
#
# Compressibility (1/GPa) = 0.02171502
#
# Stress axis : x y z
#
# Youngs Moduli (GPa) = 87.15609 60.69202 116.13533
#
# Poissons Ratio (x) = 0.33550 -0.06707
# Poissons Ratio (y) = 0.48178 0.28716
# Poissons Ratio (z) = -0.05034 0.15007
#
# Static dielectric constant tensor:
#      x y z
#    x 2.051680 0.000000 0.000000 
#    y 0.000000 1.958740 0.000000 
#    z 0.000000 0.000000 1.938720 
# 
# From -- ./inp_files/17688.got.cif
#   From: 2010.05.17/outbox.cif.g08.bks.cpg/sg46_9_cif.got.tgz:17688.got - 2010.06.03 19:58:25.
