data_PCOD9379251
_publ_section_title
;
Structure prediction by ZEFSAII (Michael W. Deem and Ramdas Pophale) SiO2 
 PCOD9379251
Probable space group: I M A 2
;
_chemical_formula_sum "Si O2"
_cell_formula_units_Z 40
_cell_length_a 8.921556
_cell_length_b 26.121393
_cell_length_c 9.873078
_cell_angle_alpha 90.000000
_cell_angle_beta 90.000000
_cell_angle_gamma 90.000000
_cell_volume 2300.856361
_symmetry_space_group_name_H-M "I M A 2"
_symmetry_group_IT_number 46
_symmetry_cell_setting 'orthorhombic'
loop_
_space_group_symop_operation_xyz
x,y,z
-x,-y,z
1/2-x,y,z
1/2+x,-y,z
1/2+x,1/2+y,1/2+z
1/2-x,1/2-y,1/2+z
-x,1/2+y,1/2+z
x,1/2-y,1/2+z
loop_
_atom_site_type_symbol
_atom_site_label
_atom_site_fract_x
_atom_site_fract_y
_atom_site_fract_z
Si Si1 0.071091 0.055764 0.684510
Si Si2 0.428717 0.167246 0.200709
Si Si3 0.928925 0.857733 0.898549
Si Si4 0.428074 0.721158 0.196385
Si Si5 0.571455 0.365950 0.977681
O O1 0.250000 0.052032 0.671684
O O2 0.036742 0.090416 0.816813
O O3 0.004893 0.087768 0.558780
O O4 0.000000 0.000000 0.693253
O O5 0.250000 0.166700 0.220096
O O6 0.486035 0.225530 0.190842
O O7 0.507404 0.141151 0.328320
O O8 0.464140 0.140852 0.057037
O O9 0.750000 0.847998 0.884213
O O10 0.016947 0.812135 0.824231
O O11 0.250000 0.730179 0.204839
O O12 0.459286 0.685632 0.065304
O O13 0.750000 0.373056 0.975578
#
# Coordination Sequence:
#
# PCOD9379251 Si02
#       5
#     8   8   8   8   8
#     4  10  20  38  61  81 102 132 173 219 267 318
#     4  11  21  33  51  77 110 144 176 214 261 311
#     4   9  20  36  54  77 105 139 178 217 260 313
#     4  10  20  33  51  76 107 143 181 217 256 308
#     4  10  21  36  54  79 108 140 179 219 261 310
#
# _framework density 17.384830000000001
#
# number of rings (size 3 to 8) (size 9 to 14) (size 15 to 20)
#    0.000    2.000    0.000    3.600    0.000    8.000 
#    0.000    1.000    0.000    2.400    0.000    0.000 
#    0.000    0.000    0.000    0.000    0.000    0.000 
#
# Total GULP energy -111714.876510 kJ/mol
# GULP energy per Si atom -5585.743825 kJ/mol
# Density = 1.734526 g / cm^3
# Si number density = 17.384830 Si / 1000 Ang^3
#
#
#
# Elastic Constant Matrix: (Units=GPa)
#
#
# Indices 1 2 3 4 5 6 
#
# 1 64.8651 57.0646 67.0432 0.0004 0.0000 -0.0002
# 2 57.0646 125.6434 69.7613 0.0003 0.0000 -0.0001
# 3 67.0432 69.7613 159.9979 0.0020 0.0002 -0.0008
# 4 0.0004 0.0003 0.0020 2.6358 0.0002 -0.0004
# 5 0.0000 0.0000 0.0002 0.0002 28.5050 0.0001
# 6 -0.0002 -0.0001 -0.0008 -0.0004 0.0001 29.6014
#
#
#
# Elastic Compliance Matrix: (Units=1/GPa)
#
#
# Indices 1 2 3 4 5 6 
#
# 1 0.034920 -0.010206 -0.010182 0.000003 0.000000 0.000000
# 2 -0.010206 0.013484 -0.001603 0.000001 0.000000 0.000000
# 3 -0.010182 -0.001603 0.011215 -0.000007 0.000000 0.000000
# 4 0.000003 0.000001 -0.000007 0.379394 -0.000003 0.000005
# 5 0.000000 0.000000 0.000000 -0.000003 0.035082 0.000000
# 6 0.000000 0.000000 0.000000 0.000005 0.000000 0.033782
#
#
# Mechanical properties :
#
#
# Convention : Reuss Voigt Hill
#
# Bulk Modulus (GPa) = 63.95001 82.02720 72.98861
# Shear Modulus (GPa) = 8.97551 22.59091 15.78321
#
# Velocity S-wave (km/s) = 2.27465 3.60871 3.01636
# Velocity P-wave (km/s) = 6.61540 8.04048 7.36250
#
# Compressibility (1/GPa) = 0.01563721
#
# Stress axis : x y z
#
# Youngs Moduli (GPa) = 28.63727 74.15992 89.16290
#
# Poissons Ratio (x) = 0.75690 0.90786
# Poissons Ratio (y) = 0.29228 0.14290
# Poissons Ratio (z) = 0.29159 0.11885
#
# Static dielectric constant tensor:
#      x y z
#    x 1.576110 0.000000 0.000000 
#    y 0.000000 1.553930 0.000000 
#    z 0.000000 0.000000 1.587610 
# 
# From -- ./inp_files/3513.got.cif
#   From: 2010.05.17/outbox.cif.g08.bks.cpg/sg46_2_cif.got.tgz:3513.got - 2010.06.03 19:58:25.
