data_PCOD9379729
_publ_section_title
;
Structure prediction by ZEFSAII (Michael W. Deem and Ramdas Pophale) SiO2 
 PCOD9379729
Probable space group: I M A 2
;
_chemical_formula_sum "Si O2"
_cell_formula_units_Z 56
_cell_length_a 14.222361
_cell_length_b 12.185559
_cell_length_c 15.386545
_cell_angle_alpha 90.000000
_cell_angle_beta 90.000000
_cell_angle_gamma 90.000000
_cell_volume 2666.602403
_symmetry_space_group_name_H-M "I M A 2"
_symmetry_group_IT_number 46
_symmetry_cell_setting 'orthorhombic'
loop_
_space_group_symop_operation_xyz
x,y,z
-x,-y,z
1/2-x,y,z
1/2+x,-y,z
1/2+x,1/2+y,1/2+z
1/2-x,1/2-y,1/2+z
-x,1/2+y,1/2+z
x,1/2-y,1/2+z
loop_
_atom_site_type_symbol
_atom_site_label
_atom_site_fract_x
_atom_site_fract_y
_atom_site_fract_z
Si Si1 0.360618 0.039395 0.904250
Si Si2 0.358347 0.751826 0.202726
Si Si3 0.545450 0.737040 0.951131
Si Si4 0.524993 0.626990 0.778298
Si Si5 0.863587 0.774939 0.641186
Si Si6 0.357286 0.828167 0.012218
Si Si7 0.638291 0.488250 0.209991
O O1 0.250000 0.070237 0.905324
O O2 0.421887 0.146972 0.911803
O O3 0.380085 0.982555 0.812458
O O4 0.377193 0.950575 0.978641
O O5 0.250000 0.745623 0.233074
O O6 0.428880 0.802850 0.271168
O O7 0.390013 0.629706 0.173977
O O8 0.362277 0.824191 0.116041
O O9 0.563867 0.648173 0.875706
O O10 0.435704 0.747548 0.974724
O O11 0.601617 0.729179 0.041813
O O12 0.500000 0.500000 0.763320
O O13 0.590809 0.681950 0.703689
O O14 0.750000 0.765736 0.645218
O O15 0.895469 0.895056 0.675677
O O16 0.250000 0.800351 0.986219
O O17 0.750000 0.493709 0.196098
#
# Coordination Sequence:
#
# PCOD9379729 Si02
#       7
#     8   8   8   8   8   8   8
#     4  10  20  37  65  98 130 170 223 283 338 405
#     4  10  22  43  68  99 135 177 225 282 351 418
#     4  12  24  42  66  99 133 183 231 284 349 422
#     4  12  28  46  67 103 144 189 236 289 358 433
#     4  11  25  46  71 102 138 182 235 295 355 423
#     4  10  22  38  62  97 137 172 222 289 342 408
#     4   9  19  40  69  98 130 169 223 279 342 413
#
# _framework density 21.000505
#
# number of rings (size 3 to 8) (size 9 to 14) (size 15 to 20)
#    0.000    1.429    2.857    1.714    2.000    4.571 
#    0.000    0.000    0.000    0.000    0.000    0.000 
#    0.000    0.000    0.000    0.000    0.000    0.000 
#
# Total GULP energy -156398.507450 kJ/mol
# GULP energy per Si atom -5585.660980 kJ/mol
# Density = 2.095271 g / cm^3
# Si number density = 21.000505 Si / 1000 Ang^3
#
#
#
# Elastic Constant Matrix: (Units=GPa)
#
#
# Indices 1 2 3 4 5 6 
#
# 1 109.9041 26.5227 22.7513 0.0000 0.0000 0.0000
# 2 26.5227 87.6673 27.3548 0.0000 0.0000 0.0000
# 3 22.7513 27.3548 77.6603 0.0000 0.0000 0.0000
# 4 0.0000 0.0000 0.0000 34.3757 0.0000 0.0000
# 5 0.0000 0.0000 0.0000 0.0000 7.8512 0.0000
# 6 0.0000 0.0000 0.0000 0.0000 0.0000 21.0611
#
#
#
# Elastic Compliance Matrix: (Units=1/GPa)
#
#
# Indices 1 2 3 4 5 6 
#
# 1 0.010116 -0.002400 -0.002118 0.000000 0.000000 0.000000
# 2 -0.002400 0.013384 -0.004012 0.000000 0.000000 0.000000
# 3 -0.002118 -0.004012 0.014910 0.000000 0.000000 0.000000
# 4 0.000000 0.000000 0.000000 0.029090 0.000000 0.000000
# 5 0.000000 0.000000 0.000000 0.000000 0.127370 0.000000
# 6 0.000000 0.000000 0.000000 0.000000 0.000000 0.047481
#
#
# Mechanical properties :
#
#
# Convention : Reuss Voigt Hill
#
# Bulk Modulus (GPa) = 46.83412 47.60994 47.22203
# Shear Modulus (GPa) = 18.75973 25.89778 22.32876
#
# Velocity S-wave (km/s) = 2.99205 3.51550 3.26429
# Velocity P-wave (km/s) = 5.85545 6.26086 6.06155
#
# Compressibility (1/GPa) = 0.02135196
#
# Stress axis : x y z
#
# Youngs Moduli (GPa) = 98.84867 74.71359 67.06802
#
# Poissons Ratio (x) = 0.17928 0.14208
# Poissons Ratio (y) = 0.23720 0.26904
# Poissons Ratio (z) = 0.20941 0.29971
#
# Static dielectric constant tensor:
#      x y z
#    x 1.796160 0.000000 0.000000 
#    y 0.000000 1.731070 0.000000 
#    z 0.000000 0.000000 1.758730 
# 
# From -- ./inp_files/15918.got.cif
#   From: 2010.05.17/outbox.cif.g08.bks.cpg/sg46_8_cif.got.tgz:15918.got - 2010.06.03 19:58:25.
