data_PCOD9379933
_publ_section_title
;
Structure prediction by ZEFSAII (Michael W. Deem and Ramdas Pophale) SiO2 
 PCOD9379933
Probable space group: I M A 2
;
_chemical_formula_sum "Si O2"
_cell_formula_units_Z 32
_cell_length_a 16.331981
_cell_length_b 13.476671
_cell_length_c 5.298092
_cell_angle_alpha 90.000000
_cell_angle_beta 90.000000
_cell_angle_gamma 90.000000
_cell_volume 1166.113942
_symmetry_space_group_name_H-M "I M A 2"
_symmetry_group_IT_number 46
_symmetry_cell_setting 'orthorhombic'
loop_
_space_group_symop_operation_xyz
x,y,z
-x,-y,z
1/2-x,y,z
1/2+x,-y,z
1/2+x,1/2+y,1/2+z
1/2-x,1/2-y,1/2+z
-x,1/2+y,1/2+z
x,1/2-y,1/2+z
loop_
_atom_site_type_symbol
_atom_site_label
_atom_site_fract_x
_atom_site_fract_y
_atom_site_fract_z
Si Si1 0.500000 0.000000 0.120150
Si Si2 0.250000 0.315238 0.197692
Si Si3 0.634960 0.300401 0.073860
Si Si4 0.542376 0.715265 0.477997
Si Si5 0.661748 0.988092 0.466502
O O1 0.581878 0.998229 0.292721
O O2 0.489029 0.101943 0.964672
O O3 0.250000 0.266215 0.473015
O O4 0.174823 0.393652 0.147331
O O5 0.664011 0.269709 0.797189
O O6 0.537641 0.282510 0.043194
O O7 0.656749 0.412451 0.132032
O O8 0.586247 0.729355 0.748137
O O9 0.750000 0.989790 0.322721
#
# Coordination Sequence:
#
# PCOD9379933 Si02
#       5
#     4   4   8   8   8
#     4  12  22  46  78 112 154 196 258 308 388 456
#     4  10  26  54  72 106 152 206 258 310 370 456
#     4  10  20  43  68 109 148 187 239 307 378 443
#     4  10  22  42  67 109 144 193 242 305 371 447
#     4  10  25  46  75 113 145 206 249 312 378 456
#
# _framework density 27.441569000000001
#
# number of rings (size 3 to 8) (size 9 to 14) (size 15 to 20)
#    0.750    1.000    5.000    0.000    0.000    6.000 
#    0.000    0.000    0.000    0.000    0.000    0.000 
#    0.000    0.000    0.000    0.000    0.000    0.000 
#
# Total GULP energy -89459.889656 kJ/mol
# GULP energy per Si atom -5591.243104 kJ/mol
# Density = 2.737911 g / cm^3
# Si number density = 27.441569 Si / 1000 Ang^3
#
#
#
# Elastic Constant Matrix: (Units=GPa)
#
#
# Indices 1 2 3 4 5 6 
#
# 1 154.2519 2.7611 1.6136 0.0000 0.0000 0.0000
# 2 2.7611 248.0560 55.5862 0.0000 0.0000 0.0000
# 3 1.6136 55.5862 138.3552 0.0000 0.0000 0.0000
# 4 0.0000 0.0000 0.0000 36.1552 0.0000 0.0000
# 5 0.0000 0.0000 0.0000 0.0000 325.3983 0.0000
# 6 0.0000 0.0000 0.0000 0.0000 0.0000 37.7743
#
#
#
# Elastic Compliance Matrix: (Units=1/GPa)
#
#
# Indices 1 2 3 4 5 6 
#
# 1 0.006485 -0.000061 -0.000051 0.000000 0.000000 0.000000
# 2 -0.000061 0.004431 -0.001779 0.000000 0.000000 0.000000
# 3 -0.000051 -0.001779 0.007943 0.000000 0.000000 0.000000
# 4 0.000000 0.000000 0.000000 0.027659 0.000000 0.000000
# 5 0.000000 0.000000 0.000000 0.000000 0.003073 0.000000
# 6 0.000000 0.000000 0.000000 0.000000 0.000000 0.026473
#
#
# Mechanical properties :
#
#
# Convention : Reuss Voigt Hill
#
# Bulk Modulus (GPa) = 66.33121 73.39833 69.86477
# Shear Modulus (GPa) = 58.91276 111.91239 85.41257
#
# Velocity S-wave (km/s) = 4.63843 6.39301 5.58505
# Velocity P-wave (km/s) = 7.27399 9.01661 8.19177
#
# Compressibility (1/GPa) = 0.01507586
#
# Stress axis : x y z
#
# Youngs Moduli (GPa) = 154.21333 225.69451 125.89261
#
# Poissons Ratio (x) = 0.01370 0.00645
# Poissons Ratio (y) = 0.00936 0.22402
# Poissons Ratio (z) = 0.00790 0.40160
#
# Static dielectric constant tensor:
#      x y z
#    x 2.329220 0.000000 0.000000 
#    y 0.000000 2.083000 0.000000 
#    z 0.000000 0.000000 2.296170 
# 
# From -- ./inp_files/1553.got.cif
#   From: 2010.05.17/outbox.cif.g08.bks.cpg/sg46_1_cif.got.tgz:1553.got - 2010.06.03 19:58:25.
