data_PCOD9379898
_publ_section_title
;
Structure prediction by ZEFSAII (Michael W. Deem and Ramdas Pophale) SiO2 
 PCOD9379898
Probable space group: I M A 2
;
_chemical_formula_sum "Si O2"
_cell_formula_units_Z 64
_cell_length_a 18.317636
_cell_length_b 11.720136
_cell_length_c 15.189734
_cell_angle_alpha 90.000000
_cell_angle_beta 90.000000
_cell_angle_gamma 90.000000
_cell_volume 3261.010856
_symmetry_space_group_name_H-M "I M A 2"
_symmetry_group_IT_number 46
_symmetry_cell_setting 'orthorhombic'
loop_
_space_group_symop_operation_xyz
x,y,z
-x,-y,z
1/2-x,y,z
1/2+x,-y,z
1/2+x,1/2+y,1/2+z
1/2-x,1/2-y,1/2+z
-x,1/2+y,1/2+z
x,1/2-y,1/2+z
loop_
_atom_site_type_symbol
_atom_site_label
_atom_site_fract_x
_atom_site_fract_y
_atom_site_fract_z
Si Si1 0.587224 0.257345 0.464250
Si Si2 0.580991 0.056987 0.323935
Si Si3 0.334170 0.175573 0.305625
Si Si4 0.598831 0.713263 0.141982
Si Si5 0.583885 0.013655 0.741915
Si Si6 0.568982 0.263308 0.670060
Si Si7 0.082743 0.192267 0.956477
Si Si8 0.665661 0.480945 0.415426
O O1 0.591680 0.139365 0.409243
O O2 0.596941 0.257844 0.569774
O O3 0.504418 0.302117 0.449285
O O4 0.643575 0.350301 0.428722
O O5 0.589274 0.135239 0.236414
O O6 0.500000 0.000000 0.327317
O O7 0.637380 0.953019 0.317709
O O8 0.250000 0.186367 0.330312
O O9 0.346560 0.221398 0.206613
O O10 0.383603 0.253549 0.368931
O O11 0.594050 0.579937 0.166111
O O12 0.518958 0.764455 0.163777
O O13 0.609311 0.733688 0.039317
O O14 0.590840 0.142892 0.711830
O O15 0.500000 0.000000 0.776006
O O16 0.643548 0.990720 0.815651
O O17 0.113444 0.065173 0.970292
O O18 0.750000 0.502335 0.433684
#
# Coordination Sequence:
#
# PCOD9379898 Si02
#       8
#     8   8   8   8   8   8   8   8
#     4  11  24  42  71  95 126 172 222 269 320 384
#     4  12  23  42  67  94 132 173 215 268 319 385
#     4  12  26  42  63  94 133 172 211 267 335 393
#     4  10  22  39  68  97 127 160 214 272 326 379
#     4  10  20  40  68  94 122 161 214 270 321 383
#     4  10  22  40  68 100 121 164 223 272 314 380
#     4  11  23  42  68  99 124 167 217 273 324 388
#     4  12  25  41  63  94 133 172 213 264 324 390
#
# _framework density 19.625816
#
# number of rings (size 3 to 8) (size 9 to 14) (size 15 to 20)
#    0.000    1.000    5.000    1.500    3.500    2.000 
#    0.000    0.625    0.000    0.000    0.000    0.000 
#    0.000    0.000    0.000    0.000    0.000    0.000 
#
# Total GULP energy -178737.161049 kJ/mol
# GULP energy per Si atom -5585.536283 kJ/mol
# Density = 1.958115 g / cm^3
# Si number density = 19.625816 Si / 1000 Ang^3
#
#
#
# Elastic Constant Matrix: (Units=GPa)
#
#
# Indices 1 2 3 4 5 6 
#
# 1 31.5857 -4.1330 -10.8561 0.0000 0.0000 0.0000
# 2 -4.1330 91.1882 9.5951 0.0000 0.0000 0.0000
# 3 -10.8561 9.5951 69.6677 0.0000 0.0000 0.0000
# 4 0.0000 0.0000 0.0000 18.5975 0.0000 0.0000
# 5 0.0000 0.0000 0.0000 0.0000-1374.2782 0.0000
# 6 0.0000 0.0000 0.0000 0.0000 0.0000 15.5554
#
#
#
# Elastic Compliance Matrix: (Units=1/GPa)
#
#
# Indices 1 2 3 4 5 6 
#
# 1 0.033538 0.000984 0.005091 0.000000 0.000000 0.000000
# 2 0.000984 0.011156 -0.001383 0.000000 0.000000 0.000000
# 3 0.005091 -0.001383 0.015338 0.000000 0.000000 0.000000
# 4 0.000000 0.000000 0.000000 0.053771 0.000000 0.000000
# 5 0.000000 0.000000 0.000000 0.000000 -0.000728 0.000000
# 6 0.000000 0.000000 0.000000 0.000000 0.000000 0.064286
#
#
# Mechanical properties :
#
#
# Convention : Reuss Voigt Hill
#
# Bulk Modulus (GPa) = 14.40585 20.18373 17.29479
# Shear Modulus (GPa) = 26.16203 -254.83600 -114.33699
#
# Velocity S-wave (km/s) = 3.65505 -11.40742 -7.64100
# Velocity P-wave (km/s) = 5.01684 12.77494 8.30754
#
# Compressibility (1/GPa) = 0.06941625
#
# Stress axis : x y z
#
# Youngs Moduli (GPa) = 29.81663 89.63398 65.19924
#
# Poissons Ratio (x) = -0.08824 -0.33190
# Poissons Ratio (y) = -0.02935 0.09018
# Poissons Ratio (z) = -0.15178 0.12398
#
# Static dielectric constant tensor:
#      x y z
#    x 1.999920 0.000000 0.000000 
#    y 0.000000 1.697990 0.000000 
#    z 0.000000 0.000000 1.743320 
# 
# From -- ./inp_files/16744.got.cif
#   From: 2010.05.17/outbox.cif.g08.bks.cpg/sg46_9_cif.got.tgz:16744.got - 2010.06.03 19:58:25.
