data_PCOD9379769
_publ_section_title
;
Structure prediction by ZEFSAII (Michael W. Deem and Ramdas Pophale) SiO2 
 PCOD9379769
Probable space group: I M A 2
;
_chemical_formula_sum "Si O2"
_cell_formula_units_Z 36
_cell_length_a 9.456582
_cell_length_b 13.307220
_cell_length_c 11.969912
_cell_angle_alpha 90.000000
_cell_angle_beta 90.000000
_cell_angle_gamma 90.000000
_cell_volume 1506.303507
_symmetry_space_group_name_H-M "I M A 2"
_symmetry_group_IT_number 46
_symmetry_cell_setting 'orthorhombic'
loop_
_space_group_symop_operation_xyz
x,y,z
-x,-y,z
1/2-x,y,z
1/2+x,-y,z
1/2+x,1/2+y,1/2+z
1/2-x,1/2-y,1/2+z
-x,1/2+y,1/2+z
x,1/2-y,1/2+z
loop_
_atom_site_type_symbol
_atom_site_label
_atom_site_fract_x
_atom_site_fract_y
_atom_site_fract_z
Si Si1 0.482999 0.369837 0.463420
Si Si2 0.095840 0.352578 0.901117
Si Si3 0.584948 0.597742 0.155470
Si Si4 0.918562 0.194911 0.201551
Si Si5 0.750000 0.038377 0.906036
O O1 0.410890 0.264020 0.436636
O O2 0.538261 0.367020 0.590863
O O3 0.372029 0.456042 0.439202
O O4 0.624965 0.377760 0.391171
O O5 0.250000 0.375358 0.850664
O O6 0.084455 0.406411 0.020471
O O7 0.972573 0.363905 0.811009
O O8 0.500000 0.500000 0.195795
O O9 0.750000 0.592490 0.194033
O O10 0.509120 0.701378 0.189223
O O11 0.750000 0.210969 0.199390
#
# Coordination Sequence:
#
# PCOD9379769 Si02
#       5
#     8   8   8   8   4
#     4  10  21  40  60  87 121 158 193 248 299 348
#     4  10  22  40  62  87 121 160 199 245 304 351
#     4  10  22  43  65  88 120 160 202 251 298 359
#     4  11  23  39  62  89 122 160 200 244 301 353
#     4  10  20  38  62  86 118 154 200 242 298 354
#
# _framework density 23.899564999999999
#
# number of rings (size 3 to 8) (size 9 to 14) (size 15 to 20)
#    0.000    1.778    2.222    1.333    4.667    1.778 
#    8.000    0.000    0.000    0.000    0.000    0.000 
#    0.000    0.000    0.000    0.000    0.000    0.000 
#
# Total GULP energy -100230.376763 kJ/mol
# GULP energy per Si atom -5568.354265 kJ/mol
# Density = 2.384517 g / cm^3
# Si number density = 23.899565 Si / 1000 Ang^3
#
#
#
# Elastic Constant Matrix: (Units=GPa)
#
#
# Indices 1 2 3 4 5 6 
#
# 1 249.8726 43.5081 45.2003 0.0000 0.0000 0.0000
# 2 43.5081 65.3340 -0.5035 0.0000 0.0000 0.0000
# 3 45.2003 -0.5035 127.8825 0.0000 0.0000 0.0000
# 4 0.0000 0.0000 0.0000 -9.7219 0.0000 0.0000
# 5 0.0000 0.0000 0.0000 0.0000 18.5275 0.0000
# 6 0.0000 0.0000 0.0000 0.0000 0.0000 51.2158
#
#
#
# Elastic Compliance Matrix: (Units=1/GPa)
#
#
# Indices 1 2 3 4 5 6 
#
# 1 0.004886 -0.003267 -0.001740 0.000000 0.000000 0.000000
# 2 -0.003267 0.017491 0.001224 0.000000 0.000000 0.000000
# 3 -0.001740 0.001224 0.008439 0.000000 0.000000 0.000000
# 4 0.000000 0.000000 0.000000 -0.102860 0.000000 0.000000
# 5 0.000000 0.000000 0.000000 0.000000 0.053974 0.000000
# 6 0.000000 0.000000 0.000000 0.000000 0.000000 0.019525
#
#
# Mechanical properties :
#
#
# Convention : Reuss Voigt Hill
#
# Bulk Modulus (GPa) = 43.01103 68.83322 55.92213
# Shear Modulus (GPa) = 298.13549 35.66321 166.89935
#
# Velocity S-wave (km/s) = 11.18105 3.86711 8.36572
# Velocity P-wave (km/s) = 13.59131 6.98591 10.80570
#
# Compressibility (1/GPa) = 0.02324985
#
# Stress axis : x y z
#
# Youngs Moduli (GPa) = 204.68461 57.17260 118.49205
#
# Poissons Ratio (x) = 0.18677 0.20614
# Poissons Ratio (y) = 0.66868 -0.14498
# Poissons Ratio (z) = 0.35608 -0.06995
#
# Static dielectric constant tensor:
#      x y z
#    x 1.846920 0.000000 0.000000 
#    y 0.000000 1.915520 0.000000 
#    z 0.000000 0.000000 2.021240 
# 
# From -- ./inp_files/13595.got.cif
#   From: 2010.05.17/outbox.cif.g08.bks.cpg/sg46_7_cif.got.tgz:13595.got - 2010.06.03 19:58:25.
