data_PCOD9379337
_publ_section_title
;
Structure prediction by ZEFSAII (Michael W. Deem and Ramdas Pophale) SiO2 
 PCOD9379337
Probable space group: I M A 2
;
_chemical_formula_sum "Si O2"
_cell_formula_units_Z 64
_cell_length_a 8.699894
_cell_length_b 25.494944
_cell_length_c 15.435111
_cell_angle_alpha 90.000000
_cell_angle_beta 90.000000
_cell_angle_gamma 90.000000
_cell_volume 3423.558715
_symmetry_space_group_name_H-M "I M A 2"
_symmetry_group_IT_number 46
_symmetry_cell_setting 'orthorhombic'
loop_
_space_group_symop_operation_xyz
x,y,z
-x,-y,z
1/2-x,y,z
1/2+x,-y,z
1/2+x,1/2+y,1/2+z
1/2-x,1/2-y,1/2+z
-x,1/2+y,1/2+z
x,1/2-y,1/2+z
loop_
_atom_site_type_symbol
_atom_site_label
_atom_site_fract_x
_atom_site_fract_y
_atom_site_fract_z
Si Si1 0.934778 0.103258 0.229220
Si Si2 0.067334 0.265722 0.499487
Si Si3 0.566601 0.363835 0.407007
Si Si4 0.065504 0.663609 0.220251
Si Si5 0.433824 0.147337 0.531143
Si Si6 0.933052 0.941768 0.050119
Si Si7 0.434160 0.556567 0.911609
Si Si8 0.433672 0.718534 0.687732
O O1 0.750000 0.097969 0.221404
O O2 0.985818 0.072177 0.314305
O O3 0.969397 0.165289 0.238520
O O4 0.007919 0.081961 0.141085
O O5 0.250000 0.270586 0.485759
O O6 0.021833 0.204648 0.493222
O O7 0.977853 0.305612 0.438610
O O8 0.025104 0.282063 0.597660
O O9 0.750000 0.370225 0.412433
O O10 0.518623 0.367350 0.306456
O O11 0.488696 0.404675 0.471936
O O12 0.250000 0.658788 0.210706
O O13 0.031821 0.725853 0.232045
O O14 0.987588 0.646520 0.131013
O O15 0.250000 0.143659 0.527741
O O16 0.508599 0.101109 0.476706
O O17 0.750000 0.943725 0.051313
O O18 0.000000 0.000000 0.040060
O O19 0.500000 0.500000 0.934897
O O20 0.250000 0.555137 0.912247
O O21 0.250000 0.717943 0.668601
#
# Coordination Sequence:
#
# PCOD9379337 Si02
#       8
#     8   8   8   8   8   8   8   8
#     4  10  21  37  60  90 122 158 199 243 294 353
#     4  10  20  34  54  86 121 157 195 237 293 350
#     4  11  22  37  60  89 122 158 200 246 295 353
#     4   9  20  37  60  88 120 159 200 246 297 353
#     4  10  22  40  61  87 121 157 199 250 302 354
#     4  12  25  41  62  86 120 160 202 247 298 355
#     4  11  24  41  63  88 118 156 203 252 301 356
#     4   9  17  33  56  84 119 157 196 236 285 348
#
# _framework density 18.693997
#
# number of rings (size 3 to 8) (size 9 to 14) (size 15 to 20)
#    0.000    1.750    1.250    3.000    1.750    4.500 
#    0.000    0.625    0.000    3.000    0.000    0.000 
#    0.000    0.000    0.000    0.000    0.000    0.000 
#
# Total GULP energy -178760.560208 kJ/mol
# GULP energy per Si atom -5586.267507 kJ/mol
# Density = 1.865145 g / cm^3
# Si number density = 18.693997 Si / 1000 Ang^3
#
#
#
# Elastic Constant Matrix: (Units=GPa)
#
#
# Indices 1 2 3 4 5 6 
#
# 1 46.0557 40.5357 33.0422 0.0000 0.0000 0.0000
# 2 40.5357 124.5142 66.7737 0.0000 0.0000 0.0000
# 3 33.0422 66.7737 101.6566 0.0000 -0.0001 0.0000
# 4 0.0000 0.0000 0.0000 25.3992 0.0000 0.0000
# 5 0.0000 0.0000 -0.0001 0.0000 -7.9450 0.0000
# 6 0.0000 0.0000 0.0000 0.0000 0.0000 29.4376
#
#
#
# Elastic Compliance Matrix: (Units=1/GPa)
#
#
# Indices 1 2 3 4 5 6 
#
# 1 0.032343 -0.007552 -0.005552 0.000000 0.000000 0.000000
# 2 -0.007552 0.014162 -0.006848 0.000000 0.000000 0.000000
# 3 -0.005552 -0.006848 0.016140 0.000000 0.000000 0.000000
# 4 0.000000 0.000000 0.000000 0.039371 0.000000 0.000000
# 5 0.000000 0.000000 0.000000 0.000000 -0.125865 0.000000
# 6 0.000000 0.000000 0.000000 0.000000 0.000000 0.033970
#
#
# Mechanical properties :
#
#
# Convention : Reuss Voigt Hill
#
# Bulk Modulus (GPa) = 43.97331 61.43664 52.70497
# Shear Modulus (GPa) = 86.79813 18.17000 52.48406
#
# Velocity S-wave (km/s) = 6.82142 3.12102 5.30437
# Velocity P-wave (km/s) = 9.25290 6.77668 8.10986
#
# Compressibility (1/GPa) = 0.02274107
#
# Stress axis : x y z
#
# Youngs Moduli (GPa) = 30.91872 70.61159 61.95885
#
# Poissons Ratio (x) = 0.53324 0.34401
# Poissons Ratio (y) = 0.23349 0.42428
# Poissons Ratio (z) = 0.17167 0.48353
#
# Static dielectric constant tensor:
#      x y z
#    x 1.627540 0.000000 0.000000 
#    y 0.000000 1.637830 0.000000 
#    z 0.000000 0.000000 1.633610 
# 
# From -- ./inp_files/14491.got.cif
#   From: 2010.05.17/outbox.cif.g08.bks.cpg/sg46_8_cif.got.tgz:14491.got - 2010.06.03 19:58:25.
