data_PCOD9379130
_publ_section_title
;
Structure prediction by ZEFSAII (Michael W. Deem and Ramdas Pophale) SiO2 
 PCOD9379130
Probable space group: I M A 2
;
_chemical_formula_sum "Si O2"
_cell_formula_units_Z 32
_cell_length_a 14.823947
_cell_length_b 9.948259
_cell_length_c 8.597137
_cell_angle_alpha 90.000000
_cell_angle_beta 90.000000
_cell_angle_gamma 90.000000
_cell_volume 1267.840978
_symmetry_space_group_name_H-M "I M A 2"
_symmetry_group_IT_number 46
_symmetry_cell_setting 'orthorhombic'
loop_
_space_group_symop_operation_xyz
x,y,z
-x,-y,z
1/2-x,y,z
1/2+x,-y,z
1/2+x,1/2+y,1/2+z
1/2-x,1/2-y,1/2+z
-x,1/2+y,1/2+z
x,1/2-y,1/2+z
loop_
_atom_site_type_symbol
_atom_site_label
_atom_site_fract_x
_atom_site_fract_y
_atom_site_fract_z
Si Si1 0.138835 0.563632 0.405340
Si Si2 0.143934 0.202505 0.071428
Si Si3 0.853356 0.184405 0.586539
Si Si4 0.903456 0.943693 0.386731
O O1 0.250000 0.561407 0.405562
O O2 0.112749 0.414977 0.454700
O O3 0.107312 0.674931 0.529484
O O4 0.106496 0.614799 0.238367
O O5 0.250000 0.233281 0.045469
O O6 0.135704 0.138982 0.242349
O O7 0.092647 0.338767 0.029937
O O8 0.750000 0.215256 0.627977
O O9 0.852742 0.075958 0.447666
O O10 0.000000 0.000000 0.341901
#
# Coordination Sequence:
#
# PCOD9379130 Si02
#       4
#     8   8   8   8
#     4   9  19  35  64  97 126 166 228 289 336 399
#     4  11  23  45  72  98 133 189 245 287 345 436
#     4  10  19  37  63  95 131 175 228 286 348 419
#     4  12  27  43  65 100 138 178 229 298 360 414
#
# _framework density 25.239758999999999
#
# number of rings (size 3 to 8) (size 9 to 14) (size 15 to 20)
#    0.000    1.500    0.000    5.250    0.000   10.000 
#    0.000    2.500    0.000    0.000    0.000    0.000 
#    0.000    0.000    0.000    0.000    0.000    0.000 
#
# Total GULP energy -89615.891092 kJ/mol
# GULP energy per Si atom -5600.993193 kJ/mol
# Density = 2.518231 g / cm^3
# Si number density = 25.239759 Si / 1000 Ang^3
#
#
#
# Elastic Constant Matrix: (Units=GPa)
#
#
# Indices 1 2 3 4 5 6 
#
# 1 50.2373 17.1376 12.1520 0.0000 0.0000 0.0000
# 2 17.1376 132.1719 6.1213 0.0000 0.0000 0.0000
# 3 12.1520 6.1213 76.1036 0.0000 0.0000 0.0000
# 4 0.0000 0.0000 0.0000 47.5934 0.0000 0.0000
# 5 0.0000 0.0000 0.0000 0.0000 37.3708 0.0000
# 6 0.0000 0.0000 0.0000 0.0000 0.0000 12.9697
#
#
#
# Elastic Compliance Matrix: (Units=1/GPa)
#
#
# Indices 1 2 3 4 5 6 
#
# 1 0.021592 -0.002650 -0.003235 0.000000 0.000000 0.000000
# 2 -0.002650 0.007919 -0.000214 0.000000 0.000000 0.000000
# 3 -0.003235 -0.000214 0.013674 0.000000 0.000000 0.000000
# 4 0.000000 0.000000 0.000000 0.021011 0.000000 0.000000
# 5 0.000000 0.000000 0.000000 0.000000 0.026759 0.000000
# 6 0.000000 0.000000 0.000000 0.000000 0.000000 0.077103
#
#
# Mechanical properties :
#
#
# Convention : Reuss Voigt Hill
#
# Bulk Modulus (GPa) = 32.27017 36.59273 34.43145
# Shear Modulus (GPa) = 26.23516 34.46024 30.34770
#
# Velocity S-wave (km/s) = 3.22753 3.69903 3.47129
# Velocity P-wave (km/s) = 5.16744 5.72479 5.45324
#
# Compressibility (1/GPa) = 0.03098837
#
# Stress axis : x y z
#
# Youngs Moduli (GPa) = 46.31369 126.27237 73.13321
#
# Poissons Ratio (x) = 0.33460 0.23656
# Poissons Ratio (y) = 0.12272 0.01564
# Poissons Ratio (z) = 0.14981 0.02701
#
# Static dielectric constant tensor:
#      x y z
#    x 1.978390 0.000000 0.000000 
#    y 0.000000 1.905730 0.000000 
#    z 0.000000 0.000000 2.017750 
# 
# From -- ./inp_files/5212.got.cif
#   From: 2010.05.17/outbox.cif.g08.bks.cpg/sg46_3_cif.got.tgz:5212.got - 2010.06.03 19:58:25.
