data_PCOD9379847
_publ_section_title
;
Structure prediction by ZEFSAII (Michael W. Deem and Ramdas Pophale) SiO2 
 PCOD9379847
Probable space group: I M A 2
;
_chemical_formula_sum "Si O2"
_cell_formula_units_Z 52
_cell_length_a 26.411482
_cell_length_b 5.142041
_cell_length_c 19.610313
_cell_angle_alpha 90.000000
_cell_angle_beta 90.000000
_cell_angle_gamma 90.000000
_cell_volume 2663.255494
_symmetry_space_group_name_H-M "I M A 2"
_symmetry_group_IT_number 46
_symmetry_cell_setting 'orthorhombic'
loop_
_space_group_symop_operation_xyz
x,y,z
-x,-y,z
1/2-x,y,z
1/2+x,-y,z
1/2+x,1/2+y,1/2+z
1/2-x,1/2-y,1/2+z
-x,1/2+y,1/2+z
x,1/2-y,1/2+z
loop_
_atom_site_type_symbol
_atom_site_label
_atom_site_fract_x
_atom_site_fract_y
_atom_site_fract_z
Si Si1 0.584918 0.648498 0.093760
Si Si2 0.557065 0.388524 0.228847
Si Si3 0.899623 0.969831 0.874508
Si Si4 0.941263 0.039780 0.444787
Si Si5 0.305758 0.788928 0.938005
Si Si6 0.500000 0.000000 0.159559
Si Si7 0.807595 0.788291 0.533482
O O1 0.586455 0.477483 0.161841
O O2 0.536235 0.833364 0.109099
O O3 0.642733 0.739666 0.080806
O O4 0.570335 0.502386 0.024185
O O5 0.500000 0.500000 0.224823
O O6 0.581245 0.476611 0.298584
O O7 0.543738 0.091506 0.213095
O O8 0.929251 0.165641 0.924583
O O9 0.843742 0.090477 0.882962
O O10 0.910280 0.677243 0.900576
O O11 0.000000 0.000000 0.430165
O O12 0.250000 0.751682 0.908399
O O13 0.317860 0.523309 0.979171
O O14 0.304897 0.016691 0.993993
O O15 0.750000 0.837741 0.561470
#
# Coordination Sequence:
#
# PCOD9379847 Si02
#       7
#     8   8   8   8   8   4   8
#     4  11  23  40  62  91 125 168 214 253 321 372
#     4  10  24  41  58  85 129 177 204 246 319 388
#     4  12  24  41  62  92 124 165 210 258 314 371
#     4  12  25  37  61  93 124 155 214 267 304 367
#     4  10  20  39  63  93 124 159 205 264 322 368
#     4  10  24  40  60  84 134 172 212 246 328 386
#     4  10  21  39  65  93 124 160 209 265 321 369
#
# _framework density 19.524975000000001
#
# number of rings (size 3 to 8) (size 9 to 14) (size 15 to 20)
#    0.000    1.231    3.077    2.769   11.846    0.000 
#    0.000    0.769    0.000    0.923    0.000    0.000 
#    0.000    0.000    0.000    0.000    0.000    0.000 
#
# Total GULP energy -144738.924182 kJ/mol
# GULP energy per Si atom -5566.881699 kJ/mol
# Density = 1.948053 g / cm^3
# Si number density = 19.524975 Si / 1000 Ang^3
#
#
#
# Elastic Constant Matrix: (Units=GPa)
#
#
# Indices 1 2 3 4 5 6 
#
# 1 125.6145 1.4094 26.1417 0.0000 0.0000 0.0000
# 2 1.4094 53.3048 6.0350 0.0000 0.0000 0.0000
# 3 26.1417 6.0350 108.5017 0.0000 0.0000 0.0000
# 4 0.0000 0.0000 0.0000 26.9267 0.0000 0.0000
# 5 0.0000 0.0000 0.0000 0.0000 23.6601 0.0000
# 6 0.0000 0.0000 0.0000 0.0000 0.0000 18.4831
#
#
#
# Elastic Compliance Matrix: (Units=1/GPa)
#
#
# Indices 1 2 3 4 5 6 
#
# 1 0.008381 0.000007 -0.002020 0.000000 0.000000 0.000000
# 2 0.000007 0.018879 -0.001052 0.000000 0.000000 0.000000
# 3 -0.002020 -0.001052 0.009762 0.000000 0.000000 0.000000
# 4 0.000000 0.000000 0.000000 0.037138 0.000000 0.000000
# 5 0.000000 0.000000 0.000000 0.000000 0.042265 0.000000
# 6 0.000000 0.000000 0.000000 0.000000 0.000000 0.054104
#
#
# Mechanical properties :
#
#
# Convention : Reuss Voigt Hill
#
# Bulk Modulus (GPa) = 32.36998 39.39924 35.88461
# Shear Modulus (GPa) = 26.74446 30.73630 28.74038
#
# Velocity S-wave (km/s) = 3.70504 3.97193 3.84080
# Velocity P-wave (km/s) = 5.90913 6.42321 6.17153
#
# Compressibility (1/GPa) = 0.03089282
#
# Stress axis : x y z
#
# Youngs Moduli (GPa) = 119.31607 52.96907 102.44266
#
# Poissons Ratio (x) = -0.00037 0.20690
# Poissons Ratio (y) = -0.00084 0.10775
# Poissons Ratio (z) = 0.24098 0.05571
#
# Static dielectric constant tensor:
#      x y z
#    x 1.770220 0.000000 0.000000 
#    y 0.000000 1.922050 0.000000 
#    z 0.000000 0.000000 1.643660 
# 
# From -- ./inp_files/20514.got.cif
#   From: 2010.05.17/outbox.cif.g08.bks.cpg/sg46_11_cif.got.tgz:20514.got - 2010.06.03 19:58:25.
