data_PCOD9379569
_publ_section_title
;
Structure prediction by ZEFSAII (Michael W. Deem and Ramdas Pophale) SiO2 
 PCOD9379569
Probable space group: I M A 2
;
_chemical_formula_sum "Si O2"
_cell_formula_units_Z 52
_cell_length_a 21.318889
_cell_length_b 8.052685
_cell_length_c 13.056876
_cell_angle_alpha 90.000000
_cell_angle_beta 90.000000
_cell_angle_gamma 90.000000
_cell_volume 2241.530017
_symmetry_space_group_name_H-M "I M A 2"
_symmetry_group_IT_number 46
_symmetry_cell_setting 'orthorhombic'
loop_
_space_group_symop_operation_xyz
x,y,z
-x,-y,z
1/2-x,y,z
1/2+x,-y,z
1/2+x,1/2+y,1/2+z
1/2-x,1/2-y,1/2+z
-x,1/2+y,1/2+z
x,1/2-y,1/2+z
loop_
_atom_site_type_symbol
_atom_site_label
_atom_site_fract_x
_atom_site_fract_y
_atom_site_fract_z
Si Si1 0.933960 0.023065 0.945410
Si Si2 0.080772 0.839669 0.160632
Si Si3 0.000000 0.000000 0.327583
Si Si4 0.316004 0.795634 0.886203
Si Si5 0.321432 0.591790 0.092052
Si Si6 0.616080 0.665647 0.943327
Si Si7 0.681207 0.545749 0.756422
O O1 0.908224 0.843392 0.975048
O O2 0.879559 0.105042 0.879462
O O3 0.000000 0.000000 0.890226
O O4 0.946469 0.135017 0.046681
O O5 0.029266 0.862363 0.249787
O O6 0.124611 0.675652 0.161032
O O7 0.127345 0.998357 0.177426
O O8 0.943380 0.938065 0.399192
O O9 0.250000 0.885571 0.867269
O O10 0.315930 0.627626 0.820354
O O11 0.315426 0.729903 0.002753
O O12 0.250000 0.568253 0.132278
O O13 0.348088 0.430403 0.033950
O O14 0.660842 0.676118 0.842835
O O15 0.750000 0.579374 0.712948
#
# Coordination Sequence:
#
# PCOD9379569 Si02
#       7
#     8   8   4   8   8   8   8
#     4  11  23  36  57  86 122 155 196 246 292 363
#     4  10  20  36  59  84 118 155 195 241 304 361
#     4  10  22  36  58  82 116 162 198 238 294 364
#     4   8  17  34  57  82 109 151 196 235 286 351
#     4   9  18  36  61  87 110 148 201 249 297 353
#     4  10  22  35  59  84 115 153 201 242 294 346
#     4   9  18  37  62  86 113 150 198 244 295 357
#
# _framework density 23.198437999999999
#
# number of rings (size 3 to 8) (size 9 to 14) (size 15 to 20)
#    0.000    2.462    0.769    1.846    8.615    1.846 
#    0.000    3.077    3.385    0.000    0.000    0.000 
#    0.000    0.000    0.000    0.000    0.000    0.000 
#
# Total GULP energy -145075.697940 kJ/mol
# GULP energy per Si atom -5579.834536 kJ/mol
# Density = 2.314564 g / cm^3
# Si number density = 23.198438 Si / 1000 Ang^3
#
#
#
# Elastic Constant Matrix: (Units=GPa)
#
#
# Indices 1 2 3 4 5 6 
#
# 1 161.6191 37.5713 12.1112 0.0000 0.0000 0.0000
# 2 37.5713 62.3015 12.2184 0.0000 0.0000 0.0000
# 3 12.1112 12.2184 62.1766 0.0000 0.0000 0.0000
# 4 0.0000 0.0000 0.0000 13.7046 0.0000 0.0000
# 5 0.0000 0.0000 0.0000 0.0000 9.7831 0.0000
# 6 0.0000 0.0000 0.0000 0.0000 0.0000 28.7797
#
#
#
# Elastic Compliance Matrix: (Units=1/GPa)
#
#
# Indices 1 2 3 4 5 6 
#
# 1 0.007216 -0.004239 -0.000572 0.000000 0.000000 0.000000
# 2 -0.004239 0.019185 -0.002944 0.000000 0.000000 0.000000
# 3 -0.000572 -0.002944 0.016773 0.000000 0.000000 0.000000
# 4 0.000000 0.000000 0.000000 0.072968 0.000000 0.000000
# 5 0.000000 0.000000 0.000000 0.000000 0.102217 0.000000
# 6 0.000000 0.000000 0.000000 0.000000 0.000000 0.034747
#
#
# Mechanical properties :
#
#
# Convention : Reuss Voigt Hill
#
# Bulk Modulus (GPa) = 36.15073 45.54433 40.84753
# Shear Modulus (GPa) = 17.99606 25.39990 21.69798
#
# Velocity S-wave (km/s) = 2.78824 3.31251 3.06162
# Velocity P-wave (km/s) = 5.09733 5.85708 5.49037
#
# Compressibility (1/GPa) = 0.02766196
#
# Stress axis : x y z
#
# Youngs Moduli (GPa) = 138.58530 52.12429 59.61851
#
# Poissons Ratio (x) = 0.22097 0.03413
# Poissons Ratio (y) = 0.58750 0.17553
# Poissons Ratio (z) = 0.07934 0.15347
#
# Static dielectric constant tensor:
#      x y z
#    x 1.923330 0.000000 0.000000 
#    y 0.000000 1.847060 0.000000 
#    z 0.000000 0.000000 1.923510 
# 
# From -- ./inp_files/17060.got.cif
#   From: 2010.05.17/outbox.cif.g08.bks.cpg/sg46_9_cif.got.tgz:17060.got - 2010.06.03 19:58:25.
