data_PCOD9379672
_publ_section_title
;
Structure prediction by ZEFSAII (Michael W. Deem and Ramdas Pophale) SiO2 
 PCOD9379672
Probable space group: I M A 2
;
_chemical_formula_sum "Si O2"
_cell_formula_units_Z 56
_cell_length_a 13.561869
_cell_length_b 27.740087
_cell_length_c 7.698523
_cell_angle_alpha 90.000000
_cell_angle_beta 90.000000
_cell_angle_gamma 90.000000
_cell_volume 2896.241521
_symmetry_space_group_name_H-M "I M A 2"
_symmetry_group_IT_number 46
_symmetry_cell_setting 'orthorhombic'
loop_
_space_group_symop_operation_xyz
x,y,z
-x,-y,z
1/2-x,y,z
1/2+x,-y,z
1/2+x,1/2+y,1/2+z
1/2-x,1/2-y,1/2+z
-x,1/2+y,1/2+z
x,1/2-y,1/2+z
loop_
_atom_site_type_symbol
_atom_site_label
_atom_site_fract_x
_atom_site_fract_y
_atom_site_fract_z
Si Si1 0.363508 0.179013 0.178280
Si Si2 0.485367 0.699751 0.380554
Si Si3 0.018251 0.698629 0.972714
Si Si4 0.636019 0.926649 0.040688
Si Si5 0.558313 0.093547 0.864092
Si Si6 0.868482 0.099637 0.478098
Si Si7 0.867276 0.470733 0.675680
O O1 0.250000 0.194179 0.183030
O O2 0.424491 0.194646 0.346309
O O3 0.420072 0.197955 0.007100
O O4 0.367287 0.120883 0.159671
O O5 0.432837 0.749934 0.426640
O O6 0.427372 0.649927 0.413132
O O7 0.509251 0.698669 0.176088
O O8 0.085748 0.652120 0.938506
O O9 0.750000 0.932905 0.983739
O O10 0.558557 0.916983 0.886484
O O11 0.601246 0.974247 0.142599
O O12 0.596285 0.085856 0.670889
O O13 0.610544 0.059568 0.002686
O O14 0.750000 0.102606 0.474425
O O15 0.904104 0.060088 0.339095
O O16 0.750000 0.473869 0.700011
#
# Coordination Sequence:
#
# PCOD9379672 Si02
#       7
#     8   8   8   8   8   8   8
#     4  10  21  38  59  84 118 155 195 237 289 353
#     4  10  21  36  56  78 113 152 191 242 290 338
#     4  11  21  38  57  81 117 154 193 249 295 344
#     4   9  19  37  60  88 118 155 194 240 294 347
#     4  10  20  37  61  84 118 158 193 242 292 351
#     4  10  22  39  60  87 117 155 199 245 295 350
#     4  10  20  37  62  88 119 153 196 243 292 349
#
# _framework density 19.335404
#
# number of rings (size 3 to 8) (size 9 to 14) (size 15 to 20)
#    0.000    2.000    1.429    2.571    0.000    1.143 
#    0.000   15.714    0.000   14.571    0.000    0.000 
#    0.000    0.000    0.000    0.000    0.000    0.000 
#
# Total GULP energy -156209.973426 kJ/mol
# GULP energy per Si atom -5578.927622 kJ/mol
# Density = 1.929140 g / cm^3
# Si number density = 19.335404 Si / 1000 Ang^3
#
#
#
# Elastic Constant Matrix: (Units=GPa)
#
#
# Indices 1 2 3 4 5 6 
#
# 1 32.7916 14.4500 12.1887 -0.0005 -0.0038 -0.0010
# 2 14.4500 121.5626 44.6939 0.0003 -0.0041 -0.0023
# 3 12.1887 44.6939 84.1143 0.0360 -0.0077 -0.0030
# 4 -0.0005 0.0003 0.0360 23.2063 -0.0053 -0.0036
# 5 -0.0038 -0.0041 -0.0077 -0.0053 24.9076 -0.0005
# 6 -0.0010 -0.0023 -0.0030 -0.0036 -0.0005 19.5974
#
#
#
# Elastic Compliance Matrix: (Units=1/GPa)
#
#
# Indices 1 2 3 4 5 6 
#
# 1 0.032921 -0.002684 -0.003345 0.000006 0.000004 0.000001
# 2 -0.002684 0.010442 -0.005160 0.000008 0.000000 0.000000
# 3 -0.003345 -0.005160 0.015115 -0.000023 0.000003 0.000002
# 4 0.000006 0.000008 -0.000023 0.043092 0.000009 0.000008
# 5 0.000004 0.000000 0.000003 0.000009 0.040148 0.000001
# 6 0.000001 0.000000 0.000002 0.000008 0.000001 0.051027
#
#
# Mechanical properties :
#
#
# Convention : Reuss Voigt Hill
#
# Bulk Modulus (GPa) = 27.69869 42.34819 35.02344
# Shear Modulus (GPa) = 22.01136 24.68467 23.34802
#
# Velocity S-wave (km/s) = 3.37767 3.57691 3.47872
# Velocity P-wave (km/s) = 5.43765 6.24568 5.85562
#
# Compressibility (1/GPa) = 0.03610279
#
# Stress axis : x y z
#
# Youngs Moduli (GPa) = 30.37539 95.76541 66.16051
#
# Poissons Ratio (x) = 0.25700 0.22128
# Poissons Ratio (y) = 0.08152 0.34136
# Poissons Ratio (z) = 0.10159 0.49411
#
# Static dielectric constant tensor:
#      x y z
#    x 1.683990 0.000000 0.000000 
#    y 0.000000 1.717530 0.000000 
#    z 0.000000 0.000000 1.636460 
# 
# From -- ./inp_files/1429.got.cif
#   From: 2010.05.17/outbox.cif.g08.bks.cpg/sg46_1_cif.got.tgz:1429.got - 2010.06.03 19:58:25.
