data_PCOD9379354
_publ_section_title
;
Structure prediction by ZEFSAII (Michael W. Deem and Ramdas Pophale) SiO2 
 PCOD9379354
Probable space group: I M A 2
;
_chemical_formula_sum "Si O2"
_cell_formula_units_Z 56
_cell_length_a 8.451841
_cell_length_b 14.424650
_cell_length_c 23.483224
_cell_angle_alpha 90.000000
_cell_angle_beta 90.000000
_cell_angle_gamma 90.000000
_cell_volume 2862.953691
_symmetry_space_group_name_H-M "I M A 2"
_symmetry_group_IT_number 46
_symmetry_cell_setting 'orthorhombic'
loop_
_space_group_symop_operation_xyz
x,y,z
-x,-y,z
1/2-x,y,z
1/2+x,-y,z
1/2+x,1/2+y,1/2+z
1/2-x,1/2-y,1/2+z
-x,1/2+y,1/2+z
x,1/2-y,1/2+z
loop_
_atom_site_type_symbol
_atom_site_label
_atom_site_fract_x
_atom_site_fract_y
_atom_site_fract_z
Si Si1 0.065733 0.597604 0.504250
Si Si2 0.432947 0.357508 0.091766
Si Si3 0.558835 0.595315 0.213022
Si Si4 0.438070 0.895314 0.359176
Si Si5 0.066224 0.832723 0.126547
Si Si6 0.439181 0.195537 0.243820
Si Si7 0.060145 0.201131 0.472477
O O1 0.250000 0.605528 0.490164
O O2 0.052134 0.598903 0.573337
O O3 0.000000 0.500000 0.482701
O O4 0.982647 0.690880 0.481852
O O5 0.250000 0.386345 0.087978
O O6 0.506013 0.403855 0.147680
O O7 0.447418 0.250089 0.110045
O O8 0.500863 0.356851 0.028057
O O9 0.500000 0.500000 0.240810
O O10 0.750000 0.593983 0.211382
O O11 0.513559 0.695014 0.239469
O O12 0.250000 0.896191 0.354262
O O13 0.510152 0.847598 0.303258
O O14 0.488809 0.838950 0.415129
O O15 0.500000 0.000000 0.363929
O O16 0.250000 0.800530 0.126374
O O17 0.019451 0.857921 0.190610
O O18 0.250000 0.190657 0.237485
O O19 0.250000 0.192751 0.471375
#
# Coordination Sequence:
#
# PCOD9379354 Si02
#       7
#     8   8   8   8   8   8   8
#     4  10  20  34  55  86 121 156 193 233 283 343
#     4   8  16  31  51  77 110 148 185 224 273 326
#     4   9  18  32  53  83 117 150 184 224 273 330
#     4  12  26  44  64  85 109 142 188 237 288 344
#     4   9  17  30  51  80 112 147 187 230 278 331
#     4  10  21  39  59  81 113 151 192 239 289 338
#     4  10  20  38  61  84 115 152 191 237 286 336
#
# _framework density 19.560217000000002
#
# number of rings (size 3 to 8) (size 9 to 14) (size 15 to 20)
#    0.000    2.286    0.000    3.857    0.000    6.286 
#    0.000    3.571    0.000    1.714    0.000    0.000 
#    0.000    0.000    0.000    0.000    0.000    0.000 
#
# Total GULP energy -156039.060303 kJ/mol
# GULP energy per Si atom -5572.823582 kJ/mol
# Density = 1.951570 g / cm^3
# Si number density = 19.560217 Si / 1000 Ang^3
#
#
#
# Elastic Constant Matrix: (Units=GPa)
#
#
# Indices 1 2 3 4 5 6 
#
# 1 56.8490 25.3802 16.9414 0.0000 0.0000 0.0000
# 2 25.3802 93.9607 35.8051 0.0000 0.0000 0.0000
# 3 16.9414 35.8051 118.1484 0.0000 0.0000 0.0000
# 4 0.0000 0.0000 0.0000 12.8197 0.0000 0.0000
# 5 0.0000 0.0000 0.0000 0.0000 25.4003 0.0000
# 6 0.0000 0.0000 0.0000 0.0000 0.0000 25.9019
#
#
#
# Elastic Compliance Matrix: (Units=1/GPa)
#
#
# Indices 1 2 3 4 5 6 
#
# 1 0.020207 -0.004923 -0.001406 0.000000 0.000000 0.000000
# 2 -0.004923 0.013231 -0.003304 0.000000 0.000000 0.000000
# 3 -0.001406 -0.003304 0.009667 0.000000 0.000000 0.000000
# 4 0.000000 0.000000 0.000000 0.078005 0.000000 0.000000
# 5 0.000000 0.000000 0.000000 0.000000 0.039370 0.000000
# 6 0.000000 0.000000 0.000000 0.000000 0.000000 0.038607
#
#
# Mechanical properties :
#
#
# Convention : Reuss Voigt Hill
#
# Bulk Modulus (GPa) = 41.94493 47.24571 44.59532
# Shear Modulus (GPa) = 22.09475 25.54648 23.82062
#
# Velocity S-wave (km/s) = 3.36456 3.61784 3.49350
# Velocity P-wave (km/s) = 6.04849 6.45431 6.25469
#
# Compressibility (1/GPa) = 0.02384078
#
# Stress axis : x y z
#
# Youngs Moduli (GPa) = 49.48770 75.57767 103.44713
#
# Poissons Ratio (x) = 0.37203 0.14542
# Poissons Ratio (y) = 0.24361 0.34179
# Poissons Ratio (z) = 0.06957 0.24971
#
# Static dielectric constant tensor:
#      x y z
#    x 1.680450 0.000000 0.000000 
#    y 0.000000 1.689880 0.000000 
#    z 0.000000 0.000000 1.705640 
# 
# From -- ./inp_files/21071.got.cif
#   From: 2010.05.17/outbox.cif.g08.bks.cpg/sg46_11_cif.got.tgz:21071.got - 2010.06.03 19:58:25.
