data_PCOD9379998
_publ_section_title
;
Structure prediction by ZEFSAII (Michael W. Deem and Ramdas Pophale) SiO2 
 PCOD9379998
Probable space group: I M A 2
;
_chemical_formula_sum "Si O2"
_cell_formula_units_Z 64
_cell_length_a 15.820217
_cell_length_b 12.428823
_cell_length_c 15.883104
_cell_angle_alpha 90.000000
_cell_angle_beta 90.000000
_cell_angle_gamma 90.000000
_cell_volume 3123.041959
_symmetry_space_group_name_H-M "I M A 2"
_symmetry_group_IT_number 46
_symmetry_cell_setting 'orthorhombic'
loop_
_space_group_symop_operation_xyz
x,y,z
-x,-y,z
1/2-x,y,z
1/2+x,-y,z
1/2+x,1/2+y,1/2+z
1/2-x,1/2-y,1/2+z
-x,1/2+y,1/2+z
x,1/2-y,1/2+z
loop_
_atom_site_type_symbol
_atom_site_label
_atom_site_fract_x
_atom_site_fract_y
_atom_site_fract_z
Si Si1 0.149188 0.006137 0.531870
Si Si2 0.656793 0.740195 0.252511
Si Si3 0.346451 0.726181 0.000445
Si Si4 0.403489 0.002184 0.720400
Si Si5 0.502314 0.122301 0.196983
Si Si6 0.154760 0.235165 0.450275
Si Si7 0.656327 0.268012 0.206932
Si Si8 0.495863 0.878910 0.995436
O O1 0.250000 0.999603 0.552319
O O2 0.099163 0.007685 0.618816
O O3 0.134259 0.117384 0.485445
O O4 0.130087 0.897536 0.480707
O O5 0.750000 0.761492 0.215570
O O6 0.639641 0.612409 0.248830
O O7 0.582497 0.808626 0.210510
O O8 0.656677 0.771056 0.349987
O O9 0.250000 0.749269 0.974036
O O10 0.346695 0.727657 0.103800
O O11 0.415325 0.809129 0.966230
O O12 0.500000 0.000000 0.749528
O O13 0.359405 0.888794 0.740188
O O14 0.581037 0.189509 0.233395
O O15 0.514431 0.114779 0.096401
O O16 0.500000 0.000000 0.229906
O O17 0.250000 0.265125 0.479233
O O18 0.082649 0.317660 0.476810
O O19 0.750000 0.230742 0.230712
O O20 0.500000 0.000000 0.961543
#
# Coordination Sequence:
#
# PCOD9379998 Si02
#       8
#     8   8   8   8   8   8   8   8
#     4   9  18  33  55  87 114 140 187 236 285 344
#     4  11  23  40  57  80 118 158 191 234 286 343
#     4   8  16  31  54  84 114 138 172 229 290 337
#     4  11  19  31  59  91 114 142 187 242 294 340
#     4  10  21  38  58  86 112 148 196 237 283 342
#     4  10  23  39  56  80 115 155 192 231 283 340
#     4   9  17  32  54  85 117 141 173 230 293 341
#     4  10  21  36  57  82 113 147 192 236 279 339
#
# _framework density 20.492840999999999
#
# number of rings (size 3 to 8) (size 9 to 14) (size 15 to 20)
#    0.000    2.250    1.250    2.625    3.500    3.000 
#    2.250    2.500    0.000    0.750    0.000    0.000 
#    0.000    0.000    0.000    0.000    0.000    0.000 
#
# Total GULP energy -178652.232833 kJ/mol
# GULP energy per Si atom -5582.882276 kJ/mol
# Density = 2.044620 g / cm^3
# Si number density = 20.492841 Si / 1000 Ang^3
#
#
#
# Elastic Constant Matrix: (Units=GPa)
#
#
# Indices 1 2 3 4 5 6 
#
# 1 144.4159 88.0324 1.0705 0.0000 0.0000 0.0000
# 2 88.0324 147.4246 8.6351 0.0000 0.0000 0.0000
# 3 1.0705 8.6351 13.5443 0.0000 0.0000 0.0000
# 4 0.0000 0.0000 0.0000 -36.5263 0.0000 0.0000
# 5 0.0000 0.0000 0.0000 0.0000 11.3752 0.0000
# 6 0.0000 0.0000 0.0000 0.0000 0.0000 15.6442
#
#
#
# Elastic Compliance Matrix: (Units=1/GPa)
#
#
# Indices 1 2 3 4 5 6 
#
# 1 0.011041 -0.006796 0.003460 0.000000 0.000000 0.000000
# 2 -0.006796 0.011229 -0.006622 0.000000 0.000000 0.000000
# 3 0.003460 -0.006622 0.077780 0.000000 0.000000 0.000000
# 4 0.000000 0.000000 0.000000 -0.027378 0.000000 0.000000
# 5 0.000000 0.000000 0.000000 0.000000 0.087910 0.000000
# 6 0.000000 0.000000 0.000000 0.000000 0.000000 0.063921
#
#
# Mechanical properties :
#
#
# Convention : Reuss Voigt Hill
#
# Bulk Modulus (GPa) = 12.47893 55.65121 34.06507
# Shear Modulus (GPa) = 18.44120 11.94175 15.19148
#
# Velocity S-wave (km/s) = 3.00306 2.41659 2.72565
# Velocity P-wave (km/s) = 4.25760 5.91624 5.15408
#
# Compressibility (1/GPa) = 0.08013509
#
# Stress axis : x y z
#
# Youngs Moduli (GPa) = 90.56832 89.05485 12.85674
#
# Poissons Ratio (x) = 0.60520 -0.04448
# Poissons Ratio (y) = 0.61549 0.08514
# Poissons Ratio (z) = -0.31336 0.58971
#
# Static dielectric constant tensor:
#      x y z
#    x 1.733660 0.000000 0.000000 
#    y 0.000000 1.730900 0.000000 
#    z 0.000000 0.000000 1.729300 
# 
# From -- ./inp_files/19652.got.cif
#   From: 2010.05.17/outbox.cif.g08.bks.cpg/sg46_10_cif.got.tgz:19652.got - 2010.06.03 19:58:25.
