data_PCOD9379457
_publ_section_title
;
Structure prediction by ZEFSAII (Michael W. Deem and Ramdas Pophale) SiO2 
 PCOD9379457
Probable space group: I M A 2
;
_chemical_formula_sum "Si O2"
_cell_formula_units_Z 48
_cell_length_a 17.476768
_cell_length_b 9.819956
_cell_length_c 14.902100
_cell_angle_alpha 90.000000
_cell_angle_beta 90.000000
_cell_angle_gamma 90.000000
_cell_volume 2557.514687
_symmetry_space_group_name_H-M "I M A 2"
_symmetry_group_IT_number 46
_symmetry_cell_setting 'orthorhombic'
loop_
_space_group_symop_operation_xyz
x,y,z
-x,-y,z
1/2-x,y,z
1/2+x,-y,z
1/2+x,1/2+y,1/2+z
1/2-x,1/2-y,1/2+z
-x,1/2+y,1/2+z
x,1/2-y,1/2+z
loop_
_atom_site_type_symbol
_atom_site_label
_atom_site_fract_x
_atom_site_fract_y
_atom_site_fract_z
Si Si1 0.335415 0.049917 0.427160
Si Si2 0.051063 0.246223 0.363535
Si Si3 0.993617 0.837850 0.681091
Si Si4 0.664051 0.756433 0.096040
Si Si5 0.580609 0.286695 0.001747
Si Si6 0.590149 0.514486 0.484591
O O1 0.250000 0.027344 0.393601
O O2 0.387934 0.125705 0.353892
O O3 0.333190 0.157578 0.509312
O O4 0.369520 0.912769 0.468994
O O5 0.088350 0.390423 0.395329
O O6 0.997766 0.271270 0.278432
O O7 0.998623 0.202694 0.446959
O O8 0.053916 0.791604 0.605348
O O9 0.906486 0.798106 0.654501
O O10 0.000000 0.000000 0.686910
O O11 0.750000 0.758332 0.135304
O O12 0.638183 0.902715 0.057516
O O13 0.616426 0.140745 0.976495
O O14 0.500000 0.500000 0.511029
#
# Coordination Sequence:
#
# PCOD9379457 Si02
#       6
#     8   8   8   8   8   8
#     4  10  20  38  60  83 118 157 194 245 304 362
#     4  10  21  36  58  86 115 150 202 246 297 363
#     4  12  20  35  63  88 115 158 203 254 300 358
#     4  10  20  35  57  84 114 152 196 241 296 359
#     4  11  19  38  59  90 115 147 206 250 297 361
#     4   9  17  35  56  80 117 146 193 248 291 362
#
# _framework density 18.768221
#
# number of rings (size 3 to 8) (size 9 to 14) (size 15 to 20)
#    0.000    1.667    6.667    2.000    0.000    1.333 
#    6.000    0.000    0.000    4.000    0.000    0.000 
#    0.000    0.000    0.000    0.000    0.000    0.000 
#
# Total GULP energy -133755.287188 kJ/mol
# GULP energy per Si atom -5573.136966 kJ/mol
# Density = 1.872550 g / cm^3
# Si number density = 18.768221 Si / 1000 Ang^3
#
#
#
# Elastic Constant Matrix: (Units=GPa)
#
#
# Indices 1 2 3 4 5 6 
#
# 1 61.2333 52.0132 1.5796 0.0000 0.0000 0.0000
# 2 52.0132 142.0673 17.4060 0.0000 0.0000 0.0000
# 3 1.5796 17.4060 56.5012 0.0000 0.0000 0.0000
# 4 0.0000 0.0000 0.0000 19.9494 0.0000 0.0000
# 5 0.0000 0.0000 0.0000 0.0000 14.7813 0.0000
# 6 0.0000 0.0000 0.0000 0.0000 0.0000 14.1962
#
#
#
# Elastic Compliance Matrix: (Units=1/GPa)
#
#
# Indices 1 2 3 4 5 6 
#
# 1 0.023942 -0.009024 0.002111 0.000000 0.000000 0.000000
# 2 -0.009024 0.010716 -0.003049 0.000000 0.000000 0.000000
# 3 0.002111 -0.003049 0.018579 0.000000 0.000000 0.000000
# 4 0.000000 0.000000 0.000000 0.050127 0.000000 0.000000
# 5 0.000000 0.000000 0.000000 0.000000 0.067653 0.000000
# 6 0.000000 0.000000 0.000000 0.000000 0.000000 0.070441
#
#
# Mechanical properties :
#
#
# Convention : Reuss Voigt Hill
#
# Bulk Modulus (GPa) = 30.01899 44.64438 37.33168
# Shear Modulus (GPa) = 18.34947 22.37225 20.36086
#
# Velocity S-wave (km/s) = 3.13019 3.45632 3.29729
# Velocity P-wave (km/s) = 5.39383 6.30611 5.86773
#
# Compressibility (1/GPa) = 0.03331225
#
# Stress axis : x y z
#
# Youngs Moduli (GPa) = 41.76783 93.31528 53.82419
#
# Poissons Ratio (x) = 0.84209 -0.11360
# Poissons Ratio (y) = 0.37692 0.16411
# Poissons Ratio (z) = -0.08816 0.28452
#
# Static dielectric constant tensor:
#      x y z
#    x 1.675920 0.000000 0.000000 
#    y 0.000000 1.673540 0.000000 
#    z 0.000000 0.000000 1.672360 
# 
# From -- ./inp_files/16536.got.cif
#   From: 2010.05.17/outbox.cif.g08.bks.cpg/sg46_9_cif.got.tgz:16536.got - 2010.06.03 19:58:25.
