data_PCOD9379758
_publ_section_title
;
Structure prediction by ZEFSAII (Michael W. Deem and Ramdas Pophale) SiO2 
 PCOD9379758
Probable space group: I M A 2
;
_chemical_formula_sum "Si O2"
_cell_formula_units_Z 60
_cell_length_a 15.423385
_cell_length_b 11.083336
_cell_length_c 18.947271
_cell_angle_alpha 90.000000
_cell_angle_beta 90.000000
_cell_angle_gamma 90.000000
_cell_volume 3238.894976
_symmetry_space_group_name_H-M "I M A 2"
_symmetry_group_IT_number 46
_symmetry_cell_setting 'orthorhombic'
loop_
_space_group_symop_operation_xyz
x,y,z
-x,-y,z
1/2-x,y,z
1/2+x,-y,z
1/2+x,1/2+y,1/2+z
1/2-x,1/2-y,1/2+z
-x,1/2+y,1/2+z
x,1/2-y,1/2+z
loop_
_atom_site_type_symbol
_atom_site_label
_atom_site_fract_x
_atom_site_fract_y
_atom_site_fract_z
Si Si1 0.555364 0.701560 0.979660
Si Si2 0.484349 0.140314 0.637905
Si Si3 0.147522 0.233932 0.754587
Si Si4 0.350089 0.392271 0.400050
Si Si5 0.500000 0.500000 0.873415
Si Si6 0.848916 0.477277 0.772729
Si Si7 0.151970 0.687356 0.635004
Si Si8 0.073543 0.912707 0.998479
O O1 0.634336 0.787653 0.958039
O O2 0.546426 0.595396 0.924034
O O3 0.554122 0.654333 0.059071
O O4 0.472688 0.790734 0.973877
O O5 0.415356 0.194549 0.692195
O O6 0.574874 0.214819 0.640409
O O7 0.500000 0.000000 0.652924
O O8 0.250000 0.207579 0.741644
O O9 0.119159 0.163320 0.825817
O O10 0.141446 0.378240 0.764569
O O11 0.250000 0.418170 0.391604
O O12 0.393581 0.511212 0.431950
O O13 0.573960 0.439873 0.824921
O O14 0.750000 0.454212 0.798339
O O15 0.858358 0.408547 0.698458
O O16 0.250000 0.737646 0.639638
O O17 0.140340 0.620341 0.559779
O O18 0.000000 0.000000 0.032279
#
# Coordination Sequence:
#
# PCOD9379758 Si02
#       8
#     8   8   8   8   4   8   8   8
#     4  10  22  37  58  88 115 152 201 236 295 360
#     4  11  24  41  60  84 119 163 199 243 301 356
#     4  10  22  39  60  89 119 152 199 247 296 355
#     4  10  20  38  61  87 118 151 193 248 296 348
#     4  12  20  38  64  80 120 158 186 246 298 344
#     4  10  22  38  60  91 117 149 197 243 298 354
#     4  10  22  39  61  91 121 154 202 251 298 354
#     4   9  20  36  60  88 120 152 198 242 298 350
#
# _framework density 18.524836000000001
#
# number of rings (size 3 to 8) (size 9 to 14) (size 15 to 20)
#    0.000    1.867    2.000    1.200    6.533    2.667 
#    0.000    3.333    0.000    0.000    0.000    0.000 
#    0.000    0.000    0.000    0.000    0.000    0.000 
#
# Total GULP energy -167327.332988 kJ/mol
# GULP energy per Si atom -5577.577766 kJ/mol
# Density = 1.848267 g / cm^3
# Si number density = 18.524836 Si / 1000 Ang^3
#
#
#
# Elastic Constant Matrix: (Units=GPa)
#
#
# Indices 1 2 3 4 5 6 
#
# 1 68.9940 7.5879 44.1697 0.0000 0.0000 0.0000
# 2 7.5879 45.8910 13.1532 0.0000 0.0000 0.0000
# 3 44.1697 13.1532 83.3883 0.0000 0.0000 0.0000
# 4 0.0000 0.0000 0.0000 23.3016 0.0000 0.0000
# 5 0.0000 0.0000 0.0000 0.0000 20.7821 0.0000
# 6 0.0000 0.0000 0.0000 0.0000 0.0000 15.1015
#
#
#
# Elastic Compliance Matrix: (Units=1/GPa)
#
#
# Indices 1 2 3 4 5 6 
#
# 1 0.021935 -0.000311 -0.011570 0.000000 0.000000 0.000000
# 2 -0.000311 0.022827 -0.003436 0.000000 0.000000 0.000000
# 3 -0.011570 -0.003436 0.018662 0.000000 0.000000 0.000000
# 4 0.000000 0.000000 0.000000 0.042916 0.000000 0.000000
# 5 0.000000 0.000000 0.000000 0.000000 0.048118 0.000000
# 6 0.000000 0.000000 0.000000 0.000000 0.000000 0.066218
#
#
# Mechanical properties :
#
#
# Convention : Reuss Voigt Hill
#
# Bulk Modulus (GPa) = 30.49573 36.45500 33.47537
# Shear Modulus (GPa) = 19.06649 20.72787 19.89718
#
# Velocity S-wave (km/s) = 3.21166 3.34866 3.28087
# Velocity P-wave (km/s) = 5.50007 5.88838 5.69754
#
# Compressibility (1/GPa) = 0.03279147
#
# Stress axis : x y z
#
# Youngs Moduli (GPa) = 45.58910 43.80779 53.58374
#
# Poissons Ratio (x) = 0.01362 0.61995
# Poissons Ratio (y) = 0.01417 0.18411
# Poissons Ratio (z) = 0.52745 0.15052
#
# Static dielectric constant tensor:
#      x y z
#    x 1.649830 0.000000 0.000000 
#    y 0.000000 1.630780 0.000000 
#    z 0.000000 0.000000 1.633540 
# 
# From -- ./inp_files/19602.got.cif
#   From: 2010.05.17/outbox.cif.g08.bks.cpg/sg46_10_cif.got.tgz:19602.got - 2010.06.03 19:58:25.
