data_PCOD9379735
_publ_section_title
;
Structure prediction by ZEFSAII (Michael W. Deem and Ramdas Pophale) SiO2 
 PCOD9379735
Probable space group: I M A 2
;
_chemical_formula_sum "Si O2"
_cell_formula_units_Z 52
_cell_length_a 15.254662
_cell_length_b 9.559616
_cell_length_c 20.446405
_cell_angle_alpha 90.000000
_cell_angle_beta 90.000000
_cell_angle_gamma 90.000000
_cell_volume 2981.672884
_symmetry_space_group_name_H-M "I M A 2"
_symmetry_group_IT_number 46
_symmetry_cell_setting 'orthorhombic'
loop_
_space_group_symop_operation_xyz
x,y,z
-x,-y,z
1/2-x,y,z
1/2+x,-y,z
1/2+x,1/2+y,1/2+z
1/2-x,1/2-y,1/2+z
-x,1/2+y,1/2+z
x,1/2-y,1/2+z
loop_
_atom_site_type_symbol
_atom_site_label
_atom_site_fract_x
_atom_site_fract_y
_atom_site_fract_z
Si Si1 0.750000 0.004116 0.529980
Si Si2 0.903961 0.538727 0.934550
Si Si3 0.598282 0.042783 0.996850
Si Si4 0.750000 0.079900 0.672196
Si Si5 0.145316 0.753438 0.881882
Si Si6 0.750000 0.185341 0.071334
Si Si7 0.351238 0.177026 0.888615
Si Si8 0.097069 0.538613 0.274599
O O1 0.750000 0.983471 0.607465
O O2 0.750000 0.175040 0.524679
O O3 0.664835 0.947345 0.493567
O O4 0.868955 0.410674 0.890722
O O5 0.906510 0.682411 0.894865
O O6 0.000000 0.500000 0.959027
O O7 0.599862 0.167956 0.943196
O O8 0.500000 0.000000 0.016982
O O9 0.635944 0.913930 0.954415
O O10 0.664424 0.094924 0.053053
O O11 0.750000 0.237841 0.641649
O O12 0.665668 0.051040 0.716241
O O13 0.250000 0.787560 0.881292
O O14 0.103677 0.819051 0.816852
O O15 0.250000 0.217209 0.882653
O O16 0.376226 0.079477 0.827781
O O17 0.000000 0.500000 0.252075
#
# Coordination Sequence:
#
# PCOD9379735 Si02
#       8
#     4   8   8   4   8   4   8   8
#     4  10  22  37  54  79 110 158 195 223 267 347
#     4  12  21  34  55  88 122 151 180 230 295 352
#     4  11  18  32  56  85 113 147 181 237 281 335
#     4  10  22  39  61  77 107 159 200 236 267 331
#     4  11  17  35  57  82 118 153 187 223 287 358
#     4  10  20  38  55  80 111 153 199 229 264 346
#     4  11  20  32  56  89 124 139 173 240 308 333
#     4  11  21  37  60  88 107 144 197 242 280 331
#
# _framework density 17.439874
#
# number of rings (size 3 to 8) (size 9 to 14) (size 15 to 20)
#    0.462    0.615    6.154    4.615    0.000    0.615 
#    0.000    0.000    0.000    6.462    0.000    0.000 
#    0.000    0.000    0.000    0.000    0.000    0.000 
#
# Total GULP energy -145026.689553 kJ/mol
# GULP energy per Si atom -5577.949598 kJ/mol
# Density = 1.740018 g / cm^3
# Si number density = 17.439874 Si / 1000 Ang^3
#
#
#
# Elastic Constant Matrix: (Units=GPa)
#
#
# Indices 1 2 3 4 5 6 
#
# 1 147.4963 14.3367 56.5103 0.0000 0.0000 0.0000
# 2 14.3367 89.7892 32.8031 0.0000 0.0000 0.0000
# 3 56.5103 32.8031 101.3914 0.0000 0.0000 0.0000
# 4 0.0000 0.0000 0.0000 19.1297 0.0000 0.0000
# 5 0.0000 0.0000 0.0000 0.0000 5.9400 0.0000
# 6 0.0000 0.0000 0.0000 0.0000 0.0000 27.3478
#
#
#
# Elastic Compliance Matrix: (Units=1/GPa)
#
#
# Indices 1 2 3 4 5 6 
#
# 1 0.008635 0.000430 -0.004952 0.000000 0.000000 0.000000
# 2 0.000430 0.012651 -0.004333 0.000000 0.000000 0.000000
# 3 -0.004952 -0.004333 0.014025 0.000000 0.000000 0.000000
# 4 0.000000 0.000000 0.000000 0.052275 0.000000 0.000000
# 5 0.000000 0.000000 0.000000 0.000000 0.168349 0.000000
# 6 0.000000 0.000000 0.000000 0.000000 0.000000 0.036566
#
#
# Mechanical properties :
#
#
# Convention : Reuss Voigt Hill
#
# Bulk Modulus (GPa) = 56.81177 60.66414 58.73795
# Shear Modulus (GPa) = 15.81887 26.15195 20.98541
#
# Velocity S-wave (km/s) = 3.01500 3.87660 3.47263
# Velocity P-wave (km/s) = 6.69080 7.40929 7.05919
#
# Compressibility (1/GPa) = 0.01760199
#
# Stress axis : x y z
#
# Youngs Moduli (GPa) = 115.80373 79.04214 71.30291
#
# Poissons Ratio (x) = -0.03402 0.35310
# Poissons Ratio (y) = -0.04984 0.30896
# Poissons Ratio (z) = 0.57347 0.34249
#
# Static dielectric constant tensor:
#      x y z
#    x 1.621120 0.000000 0.000000 
#    y 0.000000 1.612050 0.000000 
#    z 0.000000 0.000000 1.571070 
# 
# From -- ./inp_files/23597.got.cif
#   From: 2010.05.17/outbox.cif.g08.bks.cpg/sg46_12_cif.got.tgz:23597.got - 2010.06.03 19:58:25.
