data_PCOD9379425
_publ_section_title
;
Structure prediction by ZEFSAII (Michael W. Deem and Ramdas Pophale) SiO2 
 PCOD9379425
Probable space group: I M A 2
;
_chemical_formula_sum "Si O2"
_cell_formula_units_Z 64
_cell_length_a 15.826313
_cell_length_b 9.768816
_cell_length_c 21.020048
_cell_angle_alpha 90.000000
_cell_angle_beta 90.000000
_cell_angle_gamma 90.000000
_cell_volume 3249.790641
_symmetry_space_group_name_H-M "I M A 2"
_symmetry_group_IT_number 46
_symmetry_cell_setting 'orthorhombic'
loop_
_space_group_symop_operation_xyz
x,y,z
-x,-y,z
1/2-x,y,z
1/2+x,-y,z
1/2+x,1/2+y,1/2+z
1/2-x,1/2-y,1/2+z
-x,1/2+y,1/2+z
x,1/2-y,1/2+z
loop_
_atom_site_type_symbol
_atom_site_label
_atom_site_fract_x
_atom_site_fract_y
_atom_site_fract_z
Si Si1 0.146354 0.920212 0.985780
Si Si2 0.849595 0.611767 0.373718
Si Si3 0.651320 0.865239 0.092115
Si Si4 0.081320 0.408477 0.726237
Si Si5 0.594207 0.561962 0.096623
Si Si6 0.352467 0.420504 0.866068
Si Si7 0.650348 0.388061 0.978564
Si Si8 0.915815 0.587353 0.236582
O O1 0.250000 0.915308 0.986363
O O2 0.114959 0.764514 0.987364
O O3 0.116837 0.999643 0.922602
O O4 0.122378 0.014416 0.045425
O O5 0.750000 0.620189 0.386459
O O6 0.882941 0.766409 0.382648
O O7 0.862467 0.571526 0.300438
O O8 0.750000 0.834414 0.078953
O O9 0.641412 0.913915 0.164865
O O10 0.600598 0.723865 0.082278
O O11 0.120764 0.451183 0.793807
O O12 0.060157 0.247435 0.731977
O O13 0.000000 0.500000 0.713635
O O14 0.500000 0.500000 0.097669
O O15 0.627371 0.548885 0.169360
O O16 0.640331 0.477642 0.041952
O O17 0.250000 0.418483 0.867822
O O18 0.384565 0.528545 0.918025
O O19 0.750000 0.372461 0.966129
O O20 0.000000 0.500000 0.243387
#
# Coordination Sequence:
#
# PCOD9379425 Si02
#       8
#     8   8   8   8   8   8   8   8
#     4   9  19  34  53  80 108 136 176 224 270 319
#     4   9  17  33  56  78 101 134 179 224 265 318
#     4  10  20  37  60  82 109 148 190 227 271 333
#     4  10  21  35  55  81 110 141 178 228 279 328
#     4  10  21  36  55  80 110 142 180 230 281 331
#     4   9  18  34  56  79 104 140 184 226 270 325
#     4  10  20  35  55  79 109 143 183 230 276 327
#     4   9  20  36  52  75 106 138 173 215 268 329
#
# _framework density 19.693576
#
# number of rings (size 3 to 8) (size 9 to 14) (size 15 to 20)
#    0.000    2.500    0.000    1.500    0.000   10.000 
#    0.000    3.125    0.000    5.250    0.000    0.000 
#    0.000    0.000    0.000    0.000    0.000    0.000 
#
# Total GULP energy -178446.228218 kJ/mol
# GULP energy per Si atom -5576.444632 kJ/mol
# Density = 1.964875 g / cm^3
# Si number density = 19.693576 Si / 1000 Ang^3
#
#
#
# Elastic Constant Matrix: (Units=GPa)
#
#
# Indices 1 2 3 4 5 6 
#
# 1 16.4885 17.4768 5.0644 0.0000 0.0000 0.0000
# 2 17.4768 125.7176 105.8723 0.0000 0.0000 0.0000
# 3 5.0644 105.8723 137.6971 0.0000 0.0000 0.0000
# 4 0.0000 0.0000 0.0000 4.1080 0.0000 0.0000
# 5 0.0000 0.0000 0.0000 0.0000 708.2634 0.0000
# 6 0.0000 0.0000 0.0000 0.0000 0.0000 26.1320
#
#
#
# Elastic Compliance Matrix: (Units=1/GPa)
#
#
# Indices 1 2 3 4 5 6 
#
# 1 0.082379 -0.025250 0.016384 0.000000 0.000000 0.000000
# 2 -0.025250 0.030305 -0.022372 0.000000 0.000000 0.000000
# 3 0.016384 -0.022372 0.023861 0.000000 0.000000 0.000000
# 4 0.000000 0.000000 0.000000 0.243430 0.000000 0.000000
# 5 0.000000 0.000000 0.000000 0.000000 0.001412 0.000000
# 6 0.000000 0.000000 0.000000 0.000000 0.000000 0.038267
#
#
# Mechanical properties :
#
#
# Convention : Reuss Voigt Hill
#
# Bulk Modulus (GPa) = 13.50081 59.63670 36.56875
# Shear Modulus (GPa) = 9.86541 157.79998 83.83269
#
# Velocity S-wave (km/s) = 2.24061 8.96112 6.53154
# Velocity P-wave (km/s) = 3.68295 11.72249 8.68853
#
# Compressibility (1/GPa) = 0.07406966
#
# Stress axis : x y z
#
# Youngs Moduli (GPa) = 12.13898 32.99755 41.90881
#
# Poissons Ratio (x) = 0.83319 -0.68665
# Poissons Ratio (y) = 0.30651 0.93760
# Poissons Ratio (z) = -0.19889 0.73823
#
# Static dielectric constant tensor:
#      x y z
#    x 1.654000 0.000000 0.000000 
#    y 0.000000 1.681490 0.000000 
#    z 0.000000 0.000000 1.700730 
# 
# From -- ./inp_files/20221.got.cif
#   From: 2010.05.17/outbox.cif.g08.bks.cpg/sg46_11_cif.got.tgz:20221.got - 2010.06.03 19:58:25.
