data_PCOD9379593
_publ_section_title
;
Structure prediction by ZEFSAII (Michael W. Deem and Ramdas Pophale) SiO2 
 PCOD9379593
Probable space group: I M A 2
;
_chemical_formula_sum "Si O2"
_cell_formula_units_Z 48
_cell_length_a 8.881608
_cell_length_b 22.985238
_cell_length_c 11.618744
_cell_angle_alpha 90.000000
_cell_angle_beta 90.000000
_cell_angle_gamma 90.000000
_cell_volume 2371.918645
_symmetry_space_group_name_H-M "I M A 2"
_symmetry_group_IT_number 46
_symmetry_cell_setting 'orthorhombic'
loop_
_space_group_symop_operation_xyz
x,y,z
-x,-y,z
1/2-x,y,z
1/2+x,-y,z
1/2+x,1/2+y,1/2+z
1/2-x,1/2-y,1/2+z
-x,1/2+y,1/2+z
x,1/2-y,1/2+z
loop_
_atom_site_type_symbol
_atom_site_label
_atom_site_fract_x
_atom_site_fract_y
_atom_site_fract_z
Si Si1 0.578778 0.559128 0.619640
Si Si2 0.428611 0.851124 0.281347
Si Si3 0.428828 0.562964 0.221571
Si Si4 0.421080 0.353448 0.404443
Si Si5 0.571192 0.862968 0.531191
Si Si6 0.930185 0.766988 0.094244
O O1 0.500000 0.500000 0.584204
O O2 0.750000 0.549989 0.660255
O O3 0.478939 0.590456 0.715416
O O4 0.585523 0.601728 0.510935
O O5 0.250000 0.847406 0.293810
O O6 0.509124 0.852972 0.403767
O O7 0.488249 0.799687 0.198207
O O8 0.500000 0.500000 0.250402
O O9 0.250000 0.557703 0.222804
O O10 0.481441 0.613492 0.309892
O O11 0.489099 0.585362 0.098514
O O12 0.250000 0.343984 0.359921
O O13 0.475335 0.294970 0.469869
O O14 0.750000 0.873407 0.528967
O O15 0.543792 0.801508 0.595328
O O16 0.750000 0.777898 0.103823
#
# Coordination Sequence:
#
# PCOD9379593 Si02
#       6
#     8   8   8   8   8   8
#     4  10  20  36  60  89 121 159 205 251 304 362
#     4  11  23  39  60  90 125 157 200 254 308 367
#     4  12  26  43  63  92 128 170 215 263 317 377
#     4   9  19  38  63  93 124 161 206 255 306 369
#     4  11  24  43  66  90 122 166 210 256 311 377
#     4   9  21  41  66  92 122 163 208 253 310 376
#
# _framework density 20.236782000000002
#
# number of rings (size 3 to 8) (size 9 to 14) (size 15 to 20)
#    0.000    1.667    0.000    5.500    2.333    6.667 
#    0.000    3.333    0.000    0.000    0.000    0.000 
#    0.000    0.000    0.000    0.000    0.000    0.000 
#
# Total GULP energy -134119.518482 kJ/mol
# GULP energy per Si atom -5588.313270 kJ/mol
# Density = 2.019072 g / cm^3
# Si number density = 20.236782 Si / 1000 Ang^3
#
#
#
# Elastic Constant Matrix: (Units=GPa)
#
#
# Indices 1 2 3 4 5 6 
#
# 1 100.5269 27.7308 34.6308 0.0000 0.0000 0.0000
# 2 27.7308 60.8298 9.6530 0.0000 0.0000 0.0000
# 3 34.6308 9.6530 79.0114 0.0000 0.0001 0.0000
# 4 0.0000 0.0000 0.0000 12.6382 0.0000 0.0000
# 5 0.0000 0.0000 0.0001 0.0000 33.6651 0.0000
# 6 0.0000 0.0000 0.0000 0.0000 0.0000 19.4681
#
#
#
# Elastic Compliance Matrix: (Units=1/GPa)
#
#
# Indices 1 2 3 4 5 6 
#
# 1 0.013142 -0.005178 -0.005128 0.000000 0.000000 0.000000
# 2 -0.005178 0.018804 -0.000028 0.000000 0.000000 0.000000
# 3 -0.005128 -0.000028 0.014907 0.000000 0.000000 0.000000
# 4 0.000000 0.000000 0.000000 0.079125 0.000000 0.000000
# 5 0.000000 0.000000 0.000000 0.000000 0.029704 0.000000
# 6 0.000000 0.000000 0.000000 0.000000 0.000000 0.051366
#
#
# Mechanical properties :
#
#
# Convention : Reuss Voigt Hill
#
# Bulk Modulus (GPa) = 38.18673 42.71082 40.44877
# Shear Modulus (GPa) = 21.14655 24.37783 22.76219
#
# Velocity S-wave (km/s) = 3.23609 3.47454 3.35743
# Velocity P-wave (km/s) = 5.73358 6.10311 5.92123
#
# Compressibility (1/GPa) = 0.02618711
#
# Stress axis : x y z
#
# Youngs Moduli (GPa) = 76.09016 53.18000 67.08110
#
# Poissons Ratio (x) = 0.27534 0.34397
# Poissons Ratio (y) = 0.39396 0.00188
# Poissons Ratio (z) = 0.39017 0.00149
#
# Static dielectric constant tensor:
#      x y z
#    x 1.684340 0.000000 0.000000 
#    y 0.000000 1.736150 0.000000 
#    z 0.000000 0.000000 1.725440 
# 
# From -- ./inp_files/9301.got.cif
#   From: 2010.05.17/outbox.cif.g08.bks.cpg/sg46_5_cif.got.tgz:9301.got - 2010.06.03 19:58:25.
