data_PCOD9379026
_publ_section_title
;
Structure prediction by ZEFSAII (Michael W. Deem and Ramdas Pophale) SiO2 
 PCOD9379026
Probable space group: I M A 2
;
_chemical_formula_sum "Si O2"
_cell_formula_units_Z 64
_cell_length_a 8.792547
_cell_length_b 17.761487
_cell_length_c 21.155712
_cell_angle_alpha 90.000000
_cell_angle_beta 90.000000
_cell_angle_gamma 90.000000
_cell_volume 3303.860236
_symmetry_space_group_name_H-M "I M A 2"
_symmetry_group_IT_number 46
_symmetry_cell_setting 'orthorhombic'
loop_
_space_group_symop_operation_xyz
x,y,z
-x,-y,z
1/2-x,y,z
1/2+x,-y,z
1/2+x,1/2+y,1/2+z
1/2-x,1/2-y,1/2+z
-x,1/2+y,1/2+z
x,1/2-y,1/2+z
loop_
_atom_site_type_symbol
_atom_site_label
_atom_site_fract_x
_atom_site_fract_y
_atom_site_fract_z
Si Si1 0.933172 0.803100 0.020670
Si Si2 0.427712 0.195269 0.158273
Si Si3 0.930767 0.078066 0.390192
Si Si4 0.568911 0.077677 0.926709
Si Si5 0.568643 0.365777 0.290975
Si Si6 0.933123 0.875969 0.520855
Si Si7 0.926881 0.621527 0.161135
Si Si8 0.433911 0.301474 0.795775
O O1 0.750000 0.812059 0.018749
O O2 0.991796 0.828064 0.090363
O O3 0.962164 0.713881 0.014954
O O4 0.006796 0.851953 0.966080
O O5 0.250000 0.174253 0.157334
O O6 0.432701 0.286705 0.159201
O O7 0.488325 0.169995 0.226229
O O8 0.750000 0.077714 0.385601
O O9 0.982324 0.086139 0.462912
O O10 0.999765 0.147172 0.350726
O O11 0.000000 0.000000 0.365327
O O12 0.750000 0.075691 0.931104
O O13 0.526400 0.087485 0.853051
O O14 0.500000 0.000000 0.951422
O O15 0.750000 0.355726 0.289623
O O16 0.515971 0.400232 0.224135
O O17 0.490567 0.284276 0.299966
O O18 0.750000 0.886689 0.515985
O O19 0.981012 0.901997 0.591299
O O20 0.750000 0.600392 0.167889
O O21 0.250000 0.302139 0.797634
#
# Coordination Sequence:
#
# PCOD9379026 Si02
#       8
#     8   8   8   8   8   8   8   8
#     4   9  17  33  58  83 107 136 171 212 260 313
#     4   7  13  28  52  81 107 132 166 208 253 307
#     4  12  25  39  54  76 108 144 183 225 269 319
#     4  11  24  38  51  72 104 141 181 221 262 311
#     4  10  20  34  54  82 111 138 176 223 267 315
#     4   9  18  35  59  85 110 140 177 215 261 320
#     4   8  15  30  54  82 109 137 172 213 260 315
#     4  10  19  35  59  83 108 140 177 217 265 320
#
# _framework density 19.371279000000001
#
# number of rings (size 3 to 8) (size 9 to 14) (size 15 to 20)
#    0.000    2.500    0.000    5.250    0.000    5.000 
#    0.000    6.875    0.000    1.500    0.000    0.000 
#    0.000    0.000    0.000    0.000    0.000    0.000 
#
# Total GULP energy -178497.690127 kJ/mol
# GULP energy per Si atom -5578.052816 kJ/mol
# Density = 1.932719 g / cm^3
# Si number density = 19.371279 Si / 1000 Ang^3
#
#
#
# Elastic Constant Matrix: (Units=GPa)
#
#
# Indices 1 2 3 4 5 6 
#
# 1 44.8412 23.7988 33.6372 0.0000 0.0000 0.0000
# 2 23.7988 46.1995 22.8400 0.0000 0.0000 0.0000
# 3 33.6372 22.8400 110.0631 0.0000 0.0000 0.0000
# 4 0.0000 0.0000 0.0000 -14.9929 0.0000 0.0000
# 5 0.0000 0.0000 0.0000 0.0000 16.1899 0.0000
# 6 0.0000 0.0000 0.0000 0.0000 0.0000 18.5644
#
#
#
# Elastic Compliance Matrix: (Units=1/GPa)
#
#
# Indices 1 2 3 4 5 6 
#
# 1 0.036051 -0.014624 -0.007983 0.000000 0.000000 0.000000
# 2 -0.014624 0.030052 -0.001767 0.000000 0.000000 0.000000
# 3 -0.007983 -0.001767 0.011892 0.000000 0.000000 0.000000
# 4 0.000000 0.000000 0.000000 -0.066698 0.000000 0.000000
# 5 0.000000 0.000000 0.000000 0.000000 0.061767 0.000000
# 6 0.000000 0.000000 0.000000 0.000000 0.000000 0.053866
#
#
# Mechanical properties :
#
#
# Convention : Reuss Voigt Hill
#
# Bulk Modulus (GPa) = 34.19180 40.18399 37.18790
# Shear Modulus (GPa) = 26.96474 12.00748 19.48611
#
# Velocity S-wave (km/s) = 3.73499 2.49240 3.17508
# Velocity P-wave (km/s) = 6.02406 5.39184 5.71670
#
# Compressibility (1/GPa) = 0.02924678
#
# Stress axis : x y z
#
# Youngs Moduli (GPa) = 27.73858 33.27546 84.08937
#
# Poissons Ratio (x) = 0.48663 0.67128
# Poissons Ratio (y) = 0.40566 0.14858
# Poissons Ratio (z) = 0.22144 0.05879
#
# Static dielectric constant tensor:
#      x y z
#    x 1.643730 0.000000 0.000000 
#    y 0.000000 1.650770 0.000000 
#    z 0.000000 0.000000 1.722340 
# 
# From -- ./inp_files/21314.got.cif
#   From: 2010.05.17/outbox.cif.g08.bks.cpg/sg46_11_cif.got.tgz:21314.got - 2010.06.03 19:58:25.
