data_PCOD9379339
_publ_section_title
;
Structure prediction by ZEFSAII (Michael W. Deem and Ramdas Pophale) SiO2 
 PCOD9379339
Probable space group: I M A 2
;
_chemical_formula_sum "Si O2"
_cell_formula_units_Z 52
_cell_length_a 14.725917
_cell_length_b 19.519177
_cell_length_c 7.069752
_cell_angle_alpha 90.000000
_cell_angle_beta 90.000000
_cell_angle_gamma 90.000000
_cell_volume 2032.113823
_symmetry_space_group_name_H-M "I M A 2"
_symmetry_group_IT_number 46
_symmetry_cell_setting 'orthorhombic'
loop_
_space_group_symop_operation_xyz
x,y,z
-x,-y,z
1/2-x,y,z
1/2+x,-y,z
1/2+x,1/2+y,1/2+z
1/2-x,1/2-y,1/2+z
-x,1/2+y,1/2+z
x,1/2-y,1/2+z
loop_
_atom_site_type_symbol
_atom_site_label
_atom_site_fract_x
_atom_site_fract_y
_atom_site_fract_z
Si Si1 0.352519 0.319497 0.625000
Si Si2 0.750000 0.417054 0.116175
Si Si3 0.090669 0.327219 0.215995
Si Si4 0.385000 0.688892 0.163544
Si Si5 0.968704 0.568526 0.693958
Si Si6 0.649267 0.347357 0.596746
Si Si7 0.600979 0.523285 0.279593
O O1 0.250000 0.341576 0.582576
O O2 0.417727 0.322733 0.443820
O O3 0.351109 0.239726 0.674515
O O4 0.400226 0.372450 0.768353
O O5 0.671517 0.362531 0.034969
O O6 0.671260 0.467732 0.207711
O O7 0.126326 0.403427 0.189568
O O8 0.991364 0.318140 0.130590
O O9 0.356542 0.661529 0.369579
O O10 0.360000 0.768677 0.163108
O O11 0.913553 0.538159 0.507328
O O12 0.000000 0.500000 0.801432
O O13 0.063305 0.607141 0.651898
O O14 0.750000 0.376202 0.635801
O O15 0.500000 0.500000 0.225236
#
# Coordination Sequence:
#
# PCOD9379339 Si02
#       7
#     8   4   8   8   8   8   8
#     4  11  23  37  61  87 116 155 199 246 299 362
#     4  12  22  34  60  90 128 148 208 252 314 358
#     4  11  21  41  57  86 119 155 199 246 299 361
#     4  12  21  38  60  91 120 162 201 255 309 365
#     4  10  21  36  55  86 122 153 196 249 306 351
#     4  12  22  37  61  92 120 161 205 252 311 365
#     4  10  20  34  54  87 119 152 189 251 300 351
#
# _framework density 25.589117999999999
#
# number of rings (size 3 to 8) (size 9 to 14) (size 15 to 20)
#    0.000    0.923    7.692    1.385    5.385    0.615 
#    0.000    0.000    0.000    2.769    0.000    0.000 
#    0.000    0.000    0.000    0.000    0.000    0.000 
#
# Total GULP energy -144825.922533 kJ/mol
# GULP energy per Si atom -5570.227790 kJ/mol
# Density = 2.553088 g / cm^3
# Si number density = 25.589118 Si / 1000 Ang^3
#
#
#
# Elastic Constant Matrix: (Units=GPa)
#
#
# Indices 1 2 3 4 5 6 
#
# 1 190.8431 57.9355 -0.1263 0.0000 0.0000 0.0000
# 2 57.9355 220.7559 0.9286 0.0000 0.0000 0.0000
# 3 -0.1263 0.9286 46.2807 0.0000 0.0000 0.0000
# 4 0.0000 0.0000 0.0000 1.0458 0.0000 0.0000
# 5 0.0000 0.0000 0.0000 0.0000 18.7912 0.0000
# 6 0.0000 0.0000 0.0000 0.0000 0.0000 52.4438
#
#
#
# Elastic Compliance Matrix: (Units=1/GPa)
#
#
# Indices 1 2 3 4 5 6 
#
# 1 0.005694 -0.001494 0.000046 0.000000 0.000000 0.000000
# 2 -0.001494 0.004923 -0.000103 0.000000 0.000000 0.000000
# 3 0.000046 -0.000103 0.021609 0.000000 0.000000 0.000000
# 4 0.000000 0.000000 0.000000 0.956196 0.000000 0.000000
# 5 0.000000 0.000000 0.000000 0.000000 0.053217 0.000000
# 6 0.000000 0.000000 0.000000 0.000000 0.000000 0.019068
#
#
# Mechanical properties :
#
#
# Convention : Reuss Voigt Hill
#
# Bulk Modulus (GPa) = 34.33818 63.92836 49.13327
# Shear Modulus (GPa) = 4.65759 41.06561 22.86160
#
# Velocity S-wave (km/s) = 1.35059 4.01035 2.99224
# Velocity P-wave (km/s) = 3.98501 6.81768 5.58395
#
# Compressibility (1/GPa) = 0.02912210
#
# Stress axis : x y z
#
# Youngs Moduli (GPa) = 175.63550 203.14785 46.27600
#
# Poissons Ratio (x) = 0.30359 -0.00211
# Poissons Ratio (y) = 0.26248 0.00476
# Poissons Ratio (z) = -0.00800 0.02089
#
# Static dielectric constant tensor:
#      x y z
#    x 1.845740 0.000000 0.000000 
#    y 0.000000 2.108360 0.000000 
#    z 0.000000 0.000000 2.210730 
# 
# From -- ./inp_files/5858.got.cif
#   From: 2010.05.17/outbox.cif.g08.bks.cpg/sg46_3_cif.got.tgz:5858.got - 2010.06.03 19:58:25.
