data_PCOD9379643
_publ_section_title
;
Structure prediction by ZEFSAII (Michael W. Deem and Ramdas Pophale) SiO2 
 PCOD9379643
Probable space group: I M A 2
;
_chemical_formula_sum "Si O2"
_cell_formula_units_Z 48
_cell_length_a 8.579223
_cell_length_b 9.266083
_cell_length_c 31.467391
_cell_angle_alpha 90.000000
_cell_angle_beta 90.000000
_cell_angle_gamma 90.000000
_cell_volume 2501.525182
_symmetry_space_group_name_H-M "I M A 2"
_symmetry_group_IT_number 46
_symmetry_cell_setting 'orthorhombic'
loop_
_space_group_symop_operation_xyz
x,y,z
-x,-y,z
1/2-x,y,z
1/2+x,-y,z
1/2+x,1/2+y,1/2+z
1/2-x,1/2-y,1/2+z
-x,1/2+y,1/2+z
x,1/2-y,1/2+z
loop_
_atom_site_type_symbol
_atom_site_label
_atom_site_fract_x
_atom_site_fract_y
_atom_site_fract_z
Si Si1 0.436595 0.162581 0.423520
Si Si2 0.062307 0.661233 0.248306
Si Si3 0.062193 0.662573 0.664523
Si Si4 0.436554 0.162584 0.583695
Si Si5 0.062093 0.661482 0.831096
Si Si6 0.436523 0.662067 0.503052
O O1 0.250000 0.160387 0.425001
O O2 0.493830 0.207221 0.376602
O O3 0.503463 0.266280 0.459571
O O4 0.500000 0.000000 0.430612
O O5 0.250000 0.656637 0.248176
O O6 0.013940 0.758473 0.208197
O O7 0.013738 0.735407 0.292508
O O8 0.000000 0.500000 0.244330
O O9 0.250000 0.661390 0.662184
O O10 0.000000 0.500000 0.663683
O O11 0.995599 0.751223 0.624869
O O12 0.250000 0.160886 0.582779
O O13 0.500175 0.243034 0.542035
O O14 0.500000 0.000000 0.584949
O O15 0.250000 0.657426 0.833726
O O16 0.000000 0.500000 0.822769
O O17 0.500000 0.500000 0.506975
O O18 0.250000 0.661086 0.503794
#
# Coordination Sequence:
#
# PCOD9379643 Si02
#       6
#     8   8   8   8   8   8
#     4  11  22  39  62  90 121 159 201 248 300 357
#     4  10  23  39  59  86 120 157 200 247 298 355
#     4  11  23  41  63  91 122 159 201 247 299 356
#     4  12  25  43  65  92 123 159 199 246 297 354
#     4  10  20  37  59  87 118 155 200 249 299 356
#     4  12  25  43  64  90 122 159 200 247 298 356
#
# _framework density 19.188293999999999
#
# number of rings (size 3 to 8) (size 9 to 14) (size 15 to 20)
#    0.000    1.000    0.000    8.500    0.000    4.667 
#    0.000    1.667    0.000    0.000    0.000    0.000 
#    0.000    0.000    0.000    0.000    0.000    0.000 
#
# Total GULP energy -134318.686721 kJ/mol
# GULP energy per Si atom -5596.611947 kJ/mol
# Density = 1.914462 g / cm^3
# Si number density = 19.188294 Si / 1000 Ang^3
#
#
#
# Elastic Constant Matrix: (Units=GPa)
#
#
# Indices 1 2 3 4 5 6 
#
# 1 152.5122 71.3852 73.8978 0.0000 0.0000 0.0000
# 2 71.3852 187.9921 135.0489 0.0000 0.0001 0.0000
# 3 73.8978 135.0489 182.0591 0.0000 0.0000 0.0000
# 4 0.0000 0.0000 0.0000 43.6695 0.0000 0.0000
# 5 0.0000 0.0001 0.0000 0.0000 208.7152 0.0000
# 6 0.0000 0.0000 0.0000 0.0000 0.0000 40.4389
#
#
#
# Elastic Compliance Matrix: (Units=1/GPa)
#
#
# Indices 1 2 3 4 5 6 
#
# 1 0.008376 -0.001580 -0.002227 0.000000 0.000000 0.000000
# 2 -0.001580 0.011686 -0.008027 0.000000 0.000000 0.000000
# 3 -0.002227 -0.008027 0.012351 0.000000 0.000000 0.000000
# 4 0.000000 0.000000 0.000000 0.022899 0.000000 0.000000
# 5 0.000000 0.000000 0.000000 0.000000 0.004791 0.000000
# 6 0.000000 0.000000 0.000000 0.000000 0.000000 0.024729
#
#
# Mechanical properties :
#
#
# Convention : Reuss Voigt Hill
#
# Bulk Modulus (GPa) = 114.37340 120.35861 117.36600
# Shear Modulus (GPa) = 44.87694 74.71347 59.79521
#
# Velocity S-wave (km/s) = 4.84133 6.24672 5.58838
# Velocity P-wave (km/s) = 9.53868 10.71867 10.14585
#
# Compressibility (1/GPa) = 0.00874329
#
# Stress axis : x y z
#
# Youngs Moduli (GPa) = 119.39089 85.57400 80.96452
#
# Poissons Ratio (x) = 0.13524 0.18035
# Poissons Ratio (y) = 0.18868 0.64989
# Poissons Ratio (z) = 0.26594 0.68689
#
# Static dielectric constant tensor:
#      x y z
#    x 1.643340 0.000000 0.000000 
#    y 0.000000 1.623050 0.000000 
#    z 0.000000 0.000000 1.650820 
# 
# From -- ./inp_files/24972.got.cif
#   From: 2010.05.17/outbox.cif.g08.bks.cpg/sg46_13_cif.got.tgz:24972.got - 2010.06.03 19:58:25.
