data_PCOD9379132
_publ_section_title
;
Structure prediction by ZEFSAII (Michael W. Deem and Ramdas Pophale) SiO2 
 PCOD9379132
Probable space group: I M A 2
;
_chemical_formula_sum "Si O2"
_cell_formula_units_Z 64
_cell_length_a 14.624135
_cell_length_b 12.266507
_cell_length_c 16.813563
_cell_angle_alpha 90.000000
_cell_angle_beta 90.000000
_cell_angle_gamma 90.000000
_cell_volume 3016.135540
_symmetry_space_group_name_H-M "I M A 2"
_symmetry_group_IT_number 46
_symmetry_cell_setting 'orthorhombic'
loop_
_space_group_symop_operation_xyz
x,y,z
-x,-y,z
1/2-x,y,z
1/2+x,-y,z
1/2+x,1/2+y,1/2+z
1/2-x,1/2-y,1/2+z
-x,1/2+y,1/2+z
x,1/2-y,1/2+z
loop_
_atom_site_type_symbol
_atom_site_label
_atom_site_fract_x
_atom_site_fract_y
_atom_site_fract_z
Si Si1 0.107792 0.010738 0.992940
Si Si2 0.642865 0.740462 0.026375
Si Si3 0.641873 0.076296 0.156043
Si Si4 0.392762 0.526673 0.314861
Si Si5 0.639740 0.884783 0.267745
Si Si6 0.485917 0.386873 0.911347
Si Si7 0.644030 0.835519 0.697460
Si Si8 0.359289 0.782175 0.304212
O O1 0.145485 0.998559 0.903432
O O2 0.137838 0.128258 0.026611
O O3 0.000000 0.000000 0.983828
O O4 0.126185 0.922020 0.061982
O O5 0.750000 0.710843 0.010751
O O6 0.609032 0.684051 0.108435
O O7 0.573320 0.700140 0.959541
O O8 0.750000 0.080619 0.164032
O O9 0.609050 0.165103 0.219863
O O10 0.613875 0.959298 0.192604
O O11 0.500000 0.500000 0.316884
O O12 0.359880 0.449079 0.243245
O O13 0.373374 0.652865 0.299726
O O14 0.750000 0.891331 0.280628
O O15 0.582495 0.926182 0.341515
O O16 0.608780 0.760593 0.254133
O O17 0.500000 0.500000 0.958893
O O18 0.576174 0.332047 0.873370
O O19 0.750000 0.806184 0.687058
O O20 0.250000 0.804451 0.317025
#
# Coordination Sequence:
#
# PCOD9379132 Si02
#       8
#     8   8   8   8   8   8   8   8
#     4  11  23  39  67 102 136 170 223 282 336 394
#     4  11  24  43  66  98 134 170 224 287 337 399
#     4  10  21  38  64  97 132 174 219 272 333 395
#     4  11  24  43  65  95 134 179 229 277 334 405
#     4  10  19  37  64  96 128 167 218 273 332 392
#     4  12  24  39  65  95 131 175 225 271 337 399
#     4  10  21  39  66  95 127 169 219 277 341 396
#     4  11  25  44  65  95 137 180 224 273 339 412
#
# _framework density 21.219206
#
# number of rings (size 3 to 8) (size 9 to 14) (size 15 to 20)
#    0.000    1.250    2.500    4.125    1.750    5.000 
#    0.000    1.250    0.000    0.000    0.000    0.000 
#    0.000    0.000    0.000    0.000    0.000    0.000 
#
# Total GULP energy -178490.702106 kJ/mol
# GULP energy per Si atom -5577.834441 kJ/mol
# Density = 2.117091 g / cm^3
# Si number density = 21.219206 Si / 1000 Ang^3
#
#
#
# Elastic Constant Matrix: (Units=GPa)
#
#
# Indices 1 2 3 4 5 6 
#
# 1 96.9139 17.7627 22.9947 0.0000 0.0000 0.0000
# 2 17.7627 123.9365 44.8337 0.0000 0.0000 0.0000
# 3 22.9947 44.8337 113.3777 0.0000 0.0000 0.0000
# 4 0.0000 0.0000 0.0000 25.7206 0.0000 0.0000
# 5 0.0000 0.0000 0.0000 0.0000 -80.6034 0.0000
# 6 0.0000 0.0000 0.0000 0.0000 0.0000 27.1701
#
#
#
# Elastic Compliance Matrix: (Units=1/GPa)
#
#
# Indices 1 2 3 4 5 6 
#
# 1 0.010924 -0.000892 -0.001863 0.000000 0.000000 0.000000
# 2 -0.000892 0.009488 -0.003571 0.000000 0.000000 0.000000
# 3 -0.001863 -0.003571 0.010610 0.000000 0.000000 0.000000
# 4 0.000000 0.000000 0.000000 0.038879 0.000000 0.000000
# 5 0.000000 0.000000 0.000000 0.000000 -0.012406 0.000000
# 6 0.000000 0.000000 0.000000 0.000000 0.000000 0.036805
#
#
# Mechanical properties :
#
#
# Convention : Reuss Voigt Hill
#
# Bulk Modulus (GPa) = 54.43462 56.15673 55.29567
# Shear Modulus (GPa) = 44.21820 11.03325 27.62573
#
# Velocity S-wave (km/s) = 4.56990 2.28275 3.61213
# Velocity P-wave (km/s) = 7.31809 5.78536 6.59640
#
# Compressibility (1/GPa) = 0.01837066
#
# Stress axis : x y z
#
# Youngs Moduli (GPa) = 91.54253 105.39282 94.24998
#
# Poissons Ratio (x) = 0.09398 0.17558
# Poissons Ratio (y) = 0.08163 0.33658
# Poissons Ratio (z) = 0.17054 0.37638
#
# Static dielectric constant tensor:
#      x y z
#    x 1.809640 0.000000 0.000000 
#    y 0.000000 1.803140 0.000000 
#    z 0.000000 0.000000 1.811520 
# 
# From -- ./inp_files/19622.got.cif
#   From: 2010.05.17/outbox.cif.g08.bks.cpg/sg46_10_cif.got.tgz:19622.got - 2010.06.03 19:58:25.
