data_PCOD9379288
_publ_section_title
;
Structure prediction by ZEFSAII (Michael W. Deem and Ramdas Pophale) SiO2 
 PCOD9379288
Probable space group: I M A 2
;
_chemical_formula_sum "Si O2"
_cell_formula_units_Z 48
_cell_length_a 14.222258
_cell_length_b 9.580523
_cell_length_c 16.966085
_cell_angle_alpha 90.000000
_cell_angle_beta 90.000000
_cell_angle_gamma 90.000000
_cell_volume 2311.742243
_symmetry_space_group_name_H-M "I M A 2"
_symmetry_group_IT_number 46
_symmetry_cell_setting 'orthorhombic'
loop_
_space_group_symop_operation_xyz
x,y,z
-x,-y,z
1/2-x,y,z
1/2+x,-y,z
1/2+x,1/2+y,1/2+z
1/2-x,1/2-y,1/2+z
-x,1/2+y,1/2+z
x,1/2-y,1/2+z
loop_
_atom_site_type_symbol
_atom_site_label
_atom_site_fract_x
_atom_site_fract_y
_atom_site_fract_z
Si Si1 0.250000 0.153323 0.251820
Si Si2 0.250000 0.823510 0.737524
Si Si3 0.042549 0.652218 0.875971
Si Si4 0.573844 0.873940 0.960099
Si Si5 0.750000 0.579447 0.347577
Si Si6 0.074527 0.375296 0.639715
Si Si7 0.750000 0.409686 0.858357
Si Si8 0.542076 0.347957 0.220174
O O1 0.250000 0.316254 0.273355
O O2 0.341602 0.115117 0.201887
O O3 0.250000 0.071746 0.334817
O O4 0.250000 0.667982 0.772880
O O5 0.151540 0.852975 0.695562
O O6 0.250000 0.923664 0.814141
O O7 0.152228 0.633131 0.897863
O O8 0.037992 0.751690 0.798799
O O9 0.000000 0.500000 0.858592
O O10 0.981490 0.731715 0.940982
O O11 0.658158 0.893191 0.899223
O O12 0.500000 0.000000 0.950023
O O13 0.608840 0.878692 0.049880
O O14 0.000000 0.500000 0.650933
O O15 0.019876 0.231829 0.656310
O O16 0.500000 0.500000 0.236578
#
# Coordination Sequence:
#
# PCOD9379288 Si02
#       8
#     4   4   8   8   4   8   4   8
#     4  12  23  39  64  91 118 155 204 254 300 350
#     4  10  20  33  57  87 115 149 197 248 292 344
#     4  11  21  37  60  88 121 157 203 252 299 355
#     4  11  24  41  61  88 125 164 200 244 301 363
#     4  12  23  39  64  91 118 155 204 254 300 350
#     4  11  24  41  61  88 125 164 200 244 301 363
#     4  10  20  33  57  87 115 149 197 248 292 344
#     4  11  21  37  60  88 121 157 203 252 299 355
#
# _framework density 20.763559999999998
#
# number of rings (size 3 to 8) (size 9 to 14) (size 15 to 20)
#    0.000    1.000    0.000   10.500    0.000    0.667 
#    0.000    2.500    0.000    0.000    0.000    0.000 
#    0.000    0.000    0.000    0.000    0.000    0.000 
#
# Total GULP energy -134276.515621 kJ/mol
# GULP energy per Si atom -5594.854818 kJ/mol
# Density = 2.071630 g / cm^3
# Si number density = 20.763560 Si / 1000 Ang^3
#
#
#
# Elastic Constant Matrix: (Units=GPa)
#
#
# Indices 1 2 3 4 5 6 
#
# 1 113.7058 20.1736 12.0255 0.0000 0.0000 0.0000
# 2 20.1736 121.7733 7.9198 0.0000 0.0000 0.0000
# 3 12.0255 7.9198 55.1601 0.0000 0.0000 0.0000
# 4 0.0000 0.0000 0.0000 25.3074 0.0000 0.0000
# 5 0.0000 0.0000 0.0000 0.0000 19.2247 0.0000
# 6 0.0000 0.0000 0.0000 0.0000 0.0000 24.6226
#
#
#
# Elastic Compliance Matrix: (Units=1/GPa)
#
#
# Indices 1 2 3 4 5 6 
#
# 1 0.009237 -0.001412 -0.001811 0.000000 0.000000 0.000000
# 2 -0.001412 0.008505 -0.000913 0.000000 0.000000 0.000000
# 3 -0.001811 -0.000913 0.018655 0.000000 0.000000 0.000000
# 4 0.000000 0.000000 0.000000 0.039514 0.000000 0.000000
# 5 0.000000 0.000000 0.000000 0.000000 0.052016 0.000000
# 6 0.000000 0.000000 0.000000 0.000000 0.000000 0.040613
#
#
# Mechanical properties :
#
#
# Convention : Reuss Voigt Hill
#
# Bulk Modulus (GPa) = 35.55697 41.20855 38.38276
# Shear Modulus (GPa) = 26.85448 30.53229 28.69338
#
# Velocity S-wave (km/s) = 3.60021 3.83884 3.72144
# Velocity P-wave (km/s) = 5.86890 6.28797 6.08204
#
# Compressibility (1/GPa) = 0.02812388
#
# Stress axis : x y z
#
# Youngs Moduli (GPa) = 108.26333 117.57284 53.60500
#
# Poissons Ratio (x) = 0.16606 0.09707
# Poissons Ratio (y) = 0.15291 0.04896
# Poissons Ratio (z) = 0.19606 0.10737
#
# Static dielectric constant tensor:
#      x y z
#    x 1.752300 0.000000 0.000000 
#    y 0.000000 1.719010 0.000000 
#    z 0.000000 0.000000 1.723880 
# 
# From -- ./inp_files/16615.got.cif
#   From: 2010.05.17/outbox.cif.g08.bks.cpg/sg46_9_cif.got.tgz:16615.got - 2010.06.03 19:58:25.
