data_PCOD9379126
_publ_section_title
;
Structure prediction by ZEFSAII (Michael W. Deem and Ramdas Pophale) SiO2 
 PCOD9379126
Probable space group: I M A 2
;
_chemical_formula_sum "Si O2"
_cell_formula_units_Z 40
_cell_length_a 22.349356
_cell_length_b 10.564177
_cell_length_c 8.962675
_cell_angle_alpha 90.000000
_cell_angle_beta 90.000000
_cell_angle_gamma 90.000000
_cell_volume 2116.110446
_symmetry_space_group_name_H-M "I M A 2"
_symmetry_group_IT_number 46
_symmetry_cell_setting 'orthorhombic'
loop_
_space_group_symop_operation_xyz
x,y,z
-x,-y,z
1/2-x,y,z
1/2+x,-y,z
1/2+x,1/2+y,1/2+z
1/2-x,1/2-y,1/2+z
-x,1/2+y,1/2+z
x,1/2-y,1/2+z
loop_
_atom_site_type_symbol
_atom_site_label
_atom_site_fract_x
_atom_site_fract_y
_atom_site_fract_z
Si Si1 0.060899 0.080154 0.321420
Si Si2 0.314105 0.570319 0.792825
Si Si3 0.351284 0.726878 0.525347
Si Si4 0.582248 0.399668 0.265858
Si Si5 0.551997 0.839665 0.665555
O O1 0.052785 0.133819 0.489184
O O2 0.067758 0.197523 0.209256
O O3 0.122643 0.000937 0.316630
O O4 0.000000 0.000000 0.288505
O O5 0.250000 0.502094 0.814513
O O6 0.316508 0.627449 0.626688
O O7 0.315905 0.687718 0.907966
O O8 0.399803 0.650891 0.427523
O O9 0.380704 0.823517 0.642122
O O10 0.514218 0.364505 0.229115
O O11 0.590959 0.549419 0.242537
#
# Coordination Sequence:
#
# PCOD9379126 Si02
#       5
#     8   8   8   8   8
#     4  12  24  42  63  93 127 167 210 260 316 375
#     4  11  23  41  65  92 128 167 213 261 315 375
#     4  10  20  38  64  91 123 165 209 258 319 367
#     4  10  19  37  62  94 127 160 207 258 315 380
#     4  11  22  37  60  93 128 160 209 256 316 371
#
# _framework density 18.902605000000001
#
# number of rings (size 3 to 8) (size 9 to 14) (size 15 to 20)
#    0.000    1.200    4.000    4.200    2.800    0.000 
#    0.000    1.000    0.000    0.000    0.000    0.000 
#    0.000    0.000    0.000    0.000    0.000    0.000 
#
# Total GULP energy -111585.583964 kJ/mol
# GULP energy per Si atom -5579.279198 kJ/mol
# Density = 1.885958 g / cm^3
# Si number density = 18.902605 Si / 1000 Ang^3
#
#
#
# Elastic Constant Matrix: (Units=GPa)
#
#
# Indices 1 2 3 4 5 6 
#
# 1 121.8850 40.8179 35.3879 0.0000 0.0000 0.0000
# 2 40.8179 97.4856 32.7021 0.0000 0.0000 0.0000
# 3 35.3879 32.7021 93.5227 0.0000 0.0000 0.0000
# 4 0.0000 0.0000 0.0000 40.2787 0.0000 0.0000
# 5 0.0000 0.0000 0.0000 0.0000 -27.5390 0.0000
# 6 0.0000 0.0000 0.0000 0.0000 0.0000 12.8729
#
#
#
# Elastic Compliance Matrix: (Units=1/GPa)
#
#
# Indices 1 2 3 4 5 6 
#
# 1 0.010092 -0.003336 -0.002652 0.000000 0.000000 0.000000
# 2 -0.003336 0.012724 -0.003187 0.000000 0.000000 0.000000
# 3 -0.002652 -0.003187 0.012810 0.000000 0.000000 0.000000
# 4 0.000000 0.000000 0.000000 0.024827 0.000000 0.000000
# 5 0.000000 0.000000 0.000000 0.000000 -0.036312 0.000000
# 6 0.000000 0.000000 0.000000 0.000000 0.000000 0.077683
#
#
# Mechanical properties :
#
#
# Convention : Reuss Voigt Hill
#
# Bulk Modulus (GPa) = 57.88300 58.96769 58.42535
# Shear Modulus (GPa) = 39.70410 18.72155 29.21282
#
# Velocity S-wave (km/s) = 4.58805 3.15051 3.93547
# Velocity P-wave (km/s) = 7.66519 6.67065 7.18514
#
# Compressibility (1/GPa) = 0.01727623
#
# Stress axis : x y z
#
# Youngs Moduli (GPa) = 99.09261 78.59359 78.06108
#
# Poissons Ratio (x) = 0.26217 0.20703
# Poissons Ratio (y) = 0.33055 0.24877
# Poissons Ratio (z) = 0.26281 0.25047
#
# Static dielectric constant tensor:
#      x y z
#    x 1.686230 0.000000 0.000000 
#    y 0.000000 1.691890 0.000000 
#    z 0.000000 0.000000 1.658740 
# 
# From -- ./inp_files/6380.got.cif
#   From: 2010.05.17/outbox.cif.g08.bks.cpg/sg46_4_cif.got.tgz:6380.got - 2010.06.03 19:58:25.
