data_PCOD9379248
_publ_section_title
;
Structure prediction by ZEFSAII (Michael W. Deem and Ramdas Pophale) SiO2 
 PCOD9379248
Probable space group: I M A 2
;
_chemical_formula_sum "Si O2"
_cell_formula_units_Z 64
_cell_length_a 7.528833
_cell_length_b 42.489884
_cell_length_c 9.374182
_cell_angle_alpha 90.000000
_cell_angle_beta 90.000000
_cell_angle_gamma 90.000000
_cell_volume 2998.793705
_symmetry_space_group_name_H-M "I M A 2"
_symmetry_group_IT_number 46
_symmetry_cell_setting 'orthorhombic'
loop_
_space_group_symop_operation_xyz
x,y,z
-x,-y,z
1/2-x,y,z
1/2+x,-y,z
1/2+x,1/2+y,1/2+z
1/2-x,1/2-y,1/2+z
-x,1/2+y,1/2+z
x,1/2-y,1/2+z
loop_
_atom_site_type_symbol
_atom_site_label
_atom_site_fract_x
_atom_site_fract_y
_atom_site_fract_z
Si Si1 0.962858 0.464695 0.664640
Si Si2 0.037165 0.157786 0.489643
Si Si3 0.967228 0.781154 0.662940
Si Si4 0.463386 0.905050 0.666178
Si Si5 0.536614 0.405050 0.488823
Si Si6 0.532772 0.781154 0.992065
Si Si7 0.962858 0.035305 0.490358
Si Si8 0.962835 0.842214 0.165361
O O1 0.750000 0.461486 0.671695
O O2 0.030877 0.436655 0.565709
O O3 0.000000 0.500000 0.612273
O O4 0.031345 0.462117 0.827499
O O5 0.250000 0.161182 0.481197
O O6 0.972085 0.187567 0.580716
O O7 0.968420 0.157376 0.327502
O O8 0.001287 0.125398 0.571076
O O9 0.750000 0.781367 0.664010
O O10 0.021762 0.750000 0.577503
O O11 0.024395 0.780706 0.827503
O O12 0.250000 0.907761 0.674537
O O13 0.530878 0.936655 0.589291
O O14 0.531223 0.901470 0.827501
O O15 0.750000 0.407761 0.480466
O O16 0.498711 0.374602 0.583926
O O17 0.750000 0.781367 0.990996
O O18 0.472085 0.812433 0.074289
O O19 0.750000 0.038514 0.483303
O O20 0.000000 0.000000 0.542725
O O21 0.750000 0.838818 0.173808
#
# Coordination Sequence:
#
# PCOD9379248 Si02
#       8
#     8   8   8   8   8   8   8   8
#     4   9  18  33  52  73  98 129 165 204 246 294
#     4  10  20  33  51  76 103 132 170 213 254 298
#     4   9  16  27  45  70 101 134 167 206 252 299
#     4  10  21  36  53  74 102 136 171 206 249 302
#     4  10  21  36  53  74 102 136 171 206 249 302
#     4   9  16  27  45  70 101 134 167 206 252 299
#     4   9  18  33  52  73  98 129 165 204 246 294
#     4  10  20  33  51  76 103 132 170 213 254 298
#
# _framework density 21.341915
#
# number of rings (size 3 to 8) (size 9 to 14) (size 15 to 20)
#    0.000    2.500    0.000    2.250    0.000    7.500 
#    0.000    2.500    0.000    0.750    0.000    0.000 
#    0.000    0.000    0.000    0.000    0.000    0.000 
#
# Total GULP energy -178780.845576 kJ/mol
# GULP energy per Si atom -5586.901424 kJ/mol
# Density = 2.129334 g / cm^3
# Si number density = 21.341915 Si / 1000 Ang^3
#
#
#
# Elastic Constant Matrix: (Units=GPa)
#
#
# Indices 1 2 3 4 5 6 
#
# 1 54.1739 -1.9406 6.8088 0.0002 0.0000 0.0000
# 2 -1.9406 236.4244 155.8870 0.0011 0.0002 0.0001
# 3 6.8088 155.8870 226.7685 0.0017 0.0001 -0.0002
# 4 0.0002 0.0011 0.0017 42.9798 0.0000 0.0004
# 5 0.0000 0.0002 0.0001 0.0000 10.7935 0.0001
# 6 0.0000 0.0001 -0.0002 0.0004 0.0001 11.4561
#
#
#
# Elastic Compliance Matrix: (Units=1/GPa)
#
#
# Indices 1 2 3 4 5 6 
#
# 1 0.018646 0.000955 -0.001216 0.000000 0.000000 0.000000
# 2 0.000955 0.007785 -0.005380 0.000000 0.000000 0.000000
# 3 -0.001216 -0.005380 0.008145 0.000000 0.000000 0.000000
# 4 0.000000 0.000000 0.000000 0.023267 0.000000 -0.000001
# 5 0.000000 0.000000 0.000000 0.000000 0.092648 -0.000001
# 6 0.000000 0.000000 0.000000 -0.000001 -0.000001 0.087290
#
#
# Mechanical properties :
#
#
# Convention : Reuss Voigt Hill
#
# Bulk Modulus (GPa) = 42.93173 93.20859 68.07016
# Shear Modulus (GPa) = 19.46823 36.81999 28.14411
#
# Velocity S-wave (km/s) = 3.02355 4.15811 3.63536
# Velocity P-wave (km/s) = 5.68762 8.17447 7.04169
#
# Compressibility (1/GPa) = 0.02329280
#
# Stress axis : x y z
#
# Youngs Moduli (GPa) = 53.63034 128.45106 122.77605
#
# Poissons Ratio (x) = -0.12268 0.14935
# Poissons Ratio (y) = -0.05122 0.66058
# Poissons Ratio (z) = 0.06524 0.69111
#
# Static dielectric constant tensor:
#      x y z
#    x 1.870520 0.000000 0.000000 
#    y 0.000000 1.719460 0.000000 
#    z 0.000000 0.000000 1.756090 
# 
# From -- ./inp_files/5008.got.cif
#   From: 2010.05.17/outbox.cif.g08.bks.cpg/sg46_3_cif.got.tgz:5008.got - 2010.06.03 19:58:25.
