data_PCOD9379163
_publ_section_title
;
Structure prediction by ZEFSAII (Michael W. Deem and Ramdas Pophale) SiO2 
 PCOD9379163
Probable space group: I M A 2
;
_chemical_formula_sum "Si O2"
_cell_formula_units_Z 64
_cell_length_a 17.780676
_cell_length_b 15.323742
_cell_length_c 11.315928
_cell_angle_alpha 90.000000
_cell_angle_beta 90.000000
_cell_angle_gamma 90.000000
_cell_volume 3083.211201
_symmetry_space_group_name_H-M "I M A 2"
_symmetry_group_IT_number 46
_symmetry_cell_setting 'orthorhombic'
loop_
_space_group_symop_operation_xyz
x,y,z
-x,-y,z
1/2-x,y,z
1/2+x,-y,z
1/2+x,1/2+y,1/2+z
1/2-x,1/2-y,1/2+z
-x,1/2+y,1/2+z
x,1/2-y,1/2+z
loop_
_atom_site_type_symbol
_atom_site_label
_atom_site_fract_x
_atom_site_fract_y
_atom_site_fract_z
Si Si1 0.840254 0.094466 0.015230
Si Si2 0.159906 0.589868 0.784695
Si Si3 0.544048 0.361251 0.185160
Si Si4 0.337294 0.403313 0.892479
Si Si5 0.402996 0.724812 0.975801
Si Si6 0.945565 0.759093 0.883291
Si Si7 0.163459 0.089780 0.903193
Si Si8 0.388853 0.047368 0.651737
O O1 0.750000 0.095073 0.014595
O O2 0.866535 0.103116 0.150654
O O3 0.868185 0.181196 0.950389
O O4 0.862640 0.002446 0.957990
O O5 0.250000 0.603858 0.789658
O O6 0.145759 0.489033 0.815791
O O7 0.123448 0.653212 0.881729
O O8 0.501196 0.301111 0.282931
O O9 0.592431 0.450591 0.201467
O O10 0.468866 0.406093 0.131295
O O11 0.605515 0.306475 0.110422
O O12 0.250000 0.377503 0.875747
O O13 0.392354 0.323734 0.857655
O O14 0.347535 0.438154 0.027456
O O15 0.492634 0.730258 0.975808
O O16 0.892603 0.833409 0.937546
O O17 0.250000 0.104476 0.938028
O O18 0.156242 0.089058 0.760772
#
# Coordination Sequence:
#
# PCOD9379163 Si02
#       8
#     8   8   8   8   8   8   8   8
#     4  10  23  42  63  92 127 169 216 264 329 399
#     4  10  23  42  65  94 128 167 213 269 333 400
#     4  10  21  36  59  91 129 161 208 273 327 385
#     4  11  22  40  65  94 130 174 222 271 327 398
#     4  12  21  39  63  91 126 167 212 269 325 397
#     4  11  24  38  61  95 130 168 219 267 331 395
#     4  10  22  42  63  87 127 172 216 270 324 392
#     4  10  19  39  63  91 123 168 216 267 327 392
#
# _framework density 20.757579
#
# number of rings (size 3 to 8) (size 9 to 14) (size 15 to 20)
#    0.000    1.500    2.500    2.625    0.000    3.000 
#    0.000    2.500    0.000    0.000    0.000    0.000 
#    0.000    0.000    0.000    0.000    0.000    0.000 
#
# Total GULP energy -178210.987847 kJ/mol
# GULP energy per Si atom -5569.093370 kJ/mol
# Density = 2.071033 g / cm^3
# Si number density = 20.757579 Si / 1000 Ang^3
#
#
#
# Elastic Constant Matrix: (Units=GPa)
#
#
# Indices 1 2 3 4 5 6 
#
# 1 39.2470 38.4560 5.3546 0.0000 0.0000 0.0000
# 2 38.4560 122.9920 31.4641 0.0000 0.0000 0.0000
# 3 5.3546 31.4641 53.2228 0.0000 0.0000 0.0000
# 4 0.0000 0.0000 0.0000 22.9563 0.0000 0.0000
# 5 0.0000 0.0000 0.0000 0.0000 12.9184 0.0000
# 6 0.0000 0.0000 0.0000 0.0000 0.0000 34.8211
#
#
#
# Elastic Compliance Matrix: (Units=1/GPa)
#
#
# Indices 1 2 3 4 5 6 
#
# 1 0.037344 -0.012625 0.003706 0.000000 0.000000 0.000000
# 2 -0.012625 0.013847 -0.006916 0.000000 0.000000 0.000000
# 3 0.003706 -0.006916 0.022505 0.000000 0.000000 0.000000
# 4 0.000000 0.000000 0.000000 0.043561 0.000000 0.000000
# 5 0.000000 0.000000 0.000000 0.000000 0.077409 0.000000
# 6 0.000000 0.000000 0.000000 0.000000 0.000000 0.028718
#
#
# Mechanical properties :
#
#
# Convention : Reuss Voigt Hill
#
# Bulk Modulus (GPa) = 23.79400 40.66790 32.23095
# Shear Modulus (GPa) = 18.58308 23.48497 21.03403
#
# Velocity S-wave (km/s) = 2.99531 3.36727 3.18672
# Velocity P-wave (km/s) = 4.84254 5.89511 5.39456
#
# Compressibility (1/GPa) = 0.04202741
#
# Stress axis : x y z
#
# Youngs Moduli (GPa) = 26.77796 72.21662 44.43517
#
# Poissons Ratio (x) = 0.91170 -0.16469
# Poissons Ratio (y) = 0.33806 0.30732
# Poissons Ratio (z) = -0.09925 0.49945
#
# Static dielectric constant tensor:
#      x y z
#    x 1.714790 0.000000 0.000000 
#    y 0.000000 1.808810 0.000000 
#    z 0.000000 0.000000 1.786290 
# 
# From -- ./inp_files/11967.got.cif
#   From: 2010.05.17/outbox.cif.g08.bks.cpg/sg46_6_cif.got.tgz:11967.got - 2010.06.03 19:58:25.
