data_PCOD9379202
_publ_section_title
;
Structure prediction by ZEFSAII (Michael W. Deem and Ramdas Pophale) SiO2 
 PCOD9379202
Probable space group: I M A 2
;
_chemical_formula_sum "Si O2"
_cell_formula_units_Z 64
_cell_length_a 23.073861
_cell_length_b 14.737235
_cell_length_c 10.347912
_cell_angle_alpha 90.000000
_cell_angle_beta 90.000000
_cell_angle_gamma 90.000000
_cell_volume 3518.754825
_symmetry_space_group_name_H-M "I M A 2"
_symmetry_group_IT_number 46
_symmetry_cell_setting 'orthorhombic'
loop_
_space_group_symop_operation_xyz
x,y,z
-x,-y,z
1/2-x,y,z
1/2+x,-y,z
1/2+x,1/2+y,1/2+z
1/2-x,1/2-y,1/2+z
-x,1/2+y,1/2+z
x,1/2-y,1/2+z
loop_
_atom_site_type_symbol
_atom_site_label
_atom_site_fract_x
_atom_site_fract_y
_atom_site_fract_z
Si Si1 0.521644 0.846960 0.390230
Si Si2 0.514224 0.233732 0.131047
Si Si3 0.684314 0.127152 0.381410
Si Si4 0.580521 0.017646 0.475030
Si Si5 0.940084 0.047968 0.037811
Si Si6 0.815148 0.328538 0.349246
Si Si7 0.186055 0.542589 0.597416
Si Si8 0.577090 0.411942 0.240104
O O1 0.523937 0.805471 0.248114
O O2 0.516826 0.770394 0.501431
O O3 0.464043 0.910686 0.408559
O O4 0.572160 0.918950 0.416262
O O5 0.545649 0.320664 0.192876
O O6 0.556660 0.151106 0.091277
O O7 0.750000 0.130346 0.431761
O O8 0.643194 0.059690 0.456692
O O9 0.660053 0.229238 0.379755
O O10 0.685667 0.092146 0.234599
O O11 0.567159 0.015743 0.627509
O O12 0.940787 0.055868 0.882120
O O13 0.879242 0.001616 0.080964
O O14 0.000000 0.000000 0.080320
O O15 0.750000 0.315800 0.298854
O O16 0.812965 0.384871 0.481349
O O17 0.855933 0.383105 0.253559
O O18 0.250000 0.494028 0.589104
#
# Coordination Sequence:
#
# PCOD9379202 Si02
#       8
#     8   8   8   8   8   8   8   8
#     4  10  22  36  56  75 111 142 178 229 277 337
#     4  11  21  37  52  79 106 142 183 225 280 335
#     4  10  20  32  50  74 105 145 185 223 268 330
#     4  10  22  34  53  77 111 142 182 224 282 319
#     4  11  23  33  56  82 109 143 192 229 274 332
#     4   9  18  30  47  72 104 149 186 212 256 327
#     4   9  19  34  48  71 109 143 178 223 270 322
#     4  10  21  34  50  75 111 147 177 230 269 329
#
# _framework density 18.188251000000001
#
# number of rings (size 3 to 8) (size 9 to 14) (size 15 to 20)
#    0.000    2.000    1.250    2.250   14.000    0.500 
#    0.000    0.000    0.000    0.000    0.000    1.750 
#    0.000    1.000    0.000    0.000    0.000    0.000 
#
# Total GULP energy -178423.510063 kJ/mol
# GULP energy per Si atom -5575.734689 kJ/mol
# Density = 1.814685 g / cm^3
# Si number density = 18.188251 Si / 1000 Ang^3
#
#
#
# Elastic Constant Matrix: (Units=GPa)
#
#
# Indices 1 2 3 4 5 6 
#
# 1 91.0326 17.3907 9.7921 0.0000 0.0000 0.0000
# 2 17.3907 33.9357 19.6611 0.0000 0.0000 0.0000
# 3 9.7921 19.6611 77.4170 0.0000 0.0000 0.0000
# 4 0.0000 0.0000 0.0000 9.5291 0.0000 0.0000
# 5 0.0000 0.0000 0.0000 0.0000 0.7114 0.0000
# 6 0.0000 0.0000 0.0000 0.0000 0.0000 27.3493
#
#
#
# Elastic Compliance Matrix: (Units=1/GPa)
#
#
# Indices 1 2 3 4 5 6 
#
# 1 0.012177 -0.006271 0.000052 0.000000 0.000000 0.000000
# 2 -0.006271 0.037780 -0.008802 0.000000 0.000000 0.000000
# 3 0.000052 -0.008802 0.015146 0.000000 0.000000 0.000000
# 4 0.000000 0.000000 0.000000 0.104942 0.000000 0.000000
# 5 0.000000 0.000000 0.000000 0.000000 1.405624 0.000000
# 6 0.000000 0.000000 0.000000 0.000000 0.000000 0.036564
#
#
# Mechanical properties :
#
#
# Convention : Reuss Voigt Hill
#
# Bulk Modulus (GPa) = 28.51988 32.89699 30.70843
# Shear Modulus (GPa) = 3.02305 17.88740 10.45522
#
# Velocity S-wave (km/s) = 1.29062 3.13942 2.40017
# Velocity P-wave (km/s) = 4.23502 5.59173 4.95998
#
# Compressibility (1/GPa) = 0.03506326
#
# Stress axis : x y z
#
# Youngs Moduli (GPa) = 82.11940 26.46885 66.02511
#
# Poissons Ratio (x) = 0.16598 -0.00345
# Poissons Ratio (y) = 0.51494 0.58113
# Poissons Ratio (z) = -0.00429 0.23297
#
# Static dielectric constant tensor:
#      x y z
#    x 1.702790 0.000000 0.000000 
#    y 0.000000 1.610560 0.000000 
#    z 0.000000 0.000000 1.660830 
# 
# From -- ./inp_files/7976.got.cif
#   From: 2010.05.17/outbox.cif.g08.bks.cpg/sg46_4_cif.got.tgz:7976.got - 2010.06.03 19:58:25.
