data_PCOD9379315
_publ_section_title
;
Structure prediction by ZEFSAII (Michael W. Deem and Ramdas Pophale) SiO2 
 PCOD9379315
Probable space group: I M A 2
;
_chemical_formula_sum "Si O2"
_cell_formula_units_Z 64
_cell_length_a 8.963128
_cell_length_b 14.827986
_cell_length_c 24.383229
_cell_angle_alpha 90.000000
_cell_angle_beta 90.000000
_cell_angle_gamma 90.000000
_cell_volume 3240.656379
_symmetry_space_group_name_H-M "I M A 2"
_symmetry_group_IT_number 46
_symmetry_cell_setting 'orthorhombic'
loop_
_space_group_symop_operation_xyz
x,y,z
-x,-y,z
1/2-x,y,z
1/2+x,-y,z
1/2+x,1/2+y,1/2+z
1/2-x,1/2-y,1/2+z
-x,1/2+y,1/2+z
x,1/2-y,1/2+z
loop_
_atom_site_type_symbol
_atom_site_label
_atom_site_fract_x
_atom_site_fract_y
_atom_site_fract_z
Si Si1 0.927972 0.210061 0.328020
Si Si2 0.579768 0.671449 0.713354
Si Si3 0.930534 0.402762 0.602201
Si Si4 0.571402 0.401017 0.937493
Si Si5 0.920333 0.085251 0.605985
Si Si6 0.430775 0.760045 0.530358
Si Si7 0.590232 0.886253 0.706806
Si Si8 0.922328 0.593206 0.335759
O O1 0.750000 0.222215 0.320645
O O2 0.955043 0.140166 0.377241
O O3 0.998322 0.168465 0.272435
O O4 0.996372 0.309410 0.343338
O O5 0.750000 0.635032 0.715927
O O6 0.492345 0.631463 0.661296
O O7 0.590788 0.778676 0.705180
O O8 0.750000 0.403882 0.604782
O O9 0.977561 0.338367 0.551035
O O10 0.000000 0.500000 0.593147
O O11 0.500000 0.500000 0.944626
O O12 0.750000 0.410764 0.945376
O O13 0.519125 0.320782 0.978890
O O14 0.750000 0.080082 0.592379
O O15 0.977157 0.177878 0.581649
O O16 0.951695 0.085506 0.670336
O O17 0.000000 0.000000 0.580499
O O18 0.250000 0.754831 0.525551
O O19 0.750000 0.916813 0.682482
O O20 0.582168 0.914556 0.769496
O O21 0.750000 0.598309 0.354788
O O22 0.000000 0.500000 0.356117
#
# Coordination Sequence:
#
# PCOD9379315 Si02
#       8
#     8   8   8   8   8   8   8   8
#     4  10  21  37  60  88 121 163 206 252 306 361
#     4  10  20  36  58  85 120 158 200 249 299 353
#     4  11  22  39  62  89 121 158 199 244 298 363
#     4  10  22  42  66  91 119 155 199 250 305 359
#     4  11  20  30  48  76 108 147 186 228 280 337
#     4   9  20  39  60  83 116 153 191 240 296 352
#     4   9  18  31  48  74 109 148 187 231 279 336
#     4  10  20  34  53  80 116 158 200 246 297 353
#
# _framework density 19.749085999999998
#
# number of rings (size 3 to 8) (size 9 to 14) (size 15 to 20)
#    0.000    2.000    1.250    3.375    0.000    5.000 
#    0.000    3.750    0.000    1.500    0.000    0.000 
#    0.000    0.000    0.000    0.000    0.000    0.000 
#
# Total GULP energy -178258.306021 kJ/mol
# GULP energy per Si atom -5570.572063 kJ/mol
# Density = 1.970414 g / cm^3
# Si number density = 19.749086 Si / 1000 Ang^3
#
#
#
# Elastic Constant Matrix: (Units=GPa)
#
#
# Indices 1 2 3 4 5 6 
#
# 1 86.9626 51.2318 38.5440 0.0000 0.0000 0.0000
# 2 51.2318 141.0203 50.9700 0.0000 0.0000 0.0000
# 3 38.5440 50.9700 90.1144 0.0000 0.0000 0.0000
# 4 0.0000 0.0000 0.0000 19.7516 0.0000 0.0000
# 5 0.0000 0.0000 0.0000 0.0000 7.6490 0.0000
# 6 0.0000 0.0000 0.0000 0.0000 0.0000 34.5092
#
#
#
# Elastic Compliance Matrix: (Units=1/GPa)
#
#
# Indices 1 2 3 4 5 6 
#
# 1 0.015935 -0.004180 -0.004451 0.000000 0.000000 0.000000
# 2 -0.004180 0.010010 -0.003874 0.000000 0.000000 0.000000
# 3 -0.004451 -0.003874 0.015192 0.000000 0.000000 0.000000
# 4 0.000000 0.000000 0.000000 0.050629 0.000000 0.000000
# 5 0.000000 0.000000 0.000000 0.000000 0.130736 0.000000
# 6 0.000000 0.000000 0.000000 0.000000 0.000000 0.028978
#
#
# Mechanical properties :
#
#
# Convention : Reuss Voigt Hill
#
# Bulk Modulus (GPa) = 62.01102 66.62099 64.31600
# Shear Modulus (GPa) = 17.73897 24.20541 20.97219
#
# Velocity S-wave (km/s) = 3.00028 3.50472 3.26227
# Velocity P-wave (km/s) = 6.59317 7.08409 6.84303
#
# Compressibility (1/GPa) = 0.01612617
#
# Stress axis : x y z
#
# Youngs Moduli (GPa) = 62.75598 99.90076 65.82398
#
# Poissons Ratio (x) = 0.41760 0.29300
# Poissons Ratio (y) = 0.26233 0.25499
# Poissons Ratio (z) = 0.27935 0.38700
#
# Static dielectric constant tensor:
#      x y z
#    x 1.720720 0.000000 0.000000 
#    y 0.000000 1.727820 0.000000 
#    z 0.000000 0.000000 1.706510 
# 
# From -- ./inp_files/23223.got.cif
#   From: 2010.05.17/outbox.cif.g08.bks.cpg/sg46_12_cif.got.tgz:23223.got - 2010.06.03 19:58:25.
