data_PCOD9379774
_publ_section_title
;
Structure prediction by ZEFSAII (Michael W. Deem and Ramdas Pophale) SiO2 
 PCOD9379774
Probable space group: I M A 2
;
_chemical_formula_sum "Si O2"
_cell_formula_units_Z 52
_cell_length_a 25.385452
_cell_length_b 9.237907
_cell_length_c 10.652850
_cell_angle_alpha 90.000000
_cell_angle_beta 90.000000
_cell_angle_gamma 90.000000
_cell_volume 2498.183285
_symmetry_space_group_name_H-M "I M A 2"
_symmetry_group_IT_number 46
_symmetry_cell_setting 'orthorhombic'
loop_
_space_group_symop_operation_xyz
x,y,z
-x,-y,z
1/2-x,y,z
1/2+x,-y,z
1/2+x,1/2+y,1/2+z
1/2-x,1/2-y,1/2+z
-x,1/2+y,1/2+z
x,1/2-y,1/2+z
loop_
_atom_site_type_symbol
_atom_site_label
_atom_site_fract_x
_atom_site_fract_y
_atom_site_fract_z
Si Si1 0.946845 0.595001 0.533950
Si Si2 0.466760 0.292696 0.803705
Si Si3 0.328727 0.707565 0.970606
Si Si4 0.422281 0.899403 0.359730
Si Si5 0.250000 0.134117 0.063749
Si Si6 0.250000 0.476038 0.051820
Si Si7 0.655328 0.457347 0.638202
Si Si8 0.250000 0.593231 0.333863
O O1 0.948375 0.699845 0.658386
O O2 0.948928 0.668001 0.397763
O O3 0.892826 0.506668 0.548156
O O4 0.000000 0.500000 0.549514
O O5 0.530161 0.303425 0.807519
O O6 0.445800 0.440231 0.870275
O O7 0.299640 0.555741 0.988439
O O8 0.317672 0.813200 0.087410
O O9 0.391455 0.678930 0.970546
O O10 0.300512 0.803943 0.862696
O O11 0.373803 0.921412 0.265739
O O12 0.250000 0.304209 0.038398
O O13 0.198297 0.083490 0.139603
O O14 0.250000 0.037555 0.936326
O O15 0.250000 0.522485 0.197682
#
# Coordination Sequence:
#
# PCOD9379774 Si02
#       8
#     8   8   8   8   4   4   8   4
#     4  11  21  44  65  92 130 171 212 272 323 391
#     4  10  22  40  63  92 130 160 216 265 322 383
#     4  10  21  37  64  89 119 162 213 258 315 380
#     4  10  20  38  62  89 122 166 206 267 315 385
#     4  10  24  40  60  92 126 170 208 266 322 394
#     4  11  23  39  62  92 122 165 215 265 310 390
#     4  10  21  41  64  88 133 170 210 266 334 380
#     4   9  21  43  56  88 128 151 209 259 306 378
#
# _framework density 20.815127
#
# number of rings (size 3 to 8) (size 9 to 14) (size 15 to 20)
#    0.000    1.846    3.077    2.308    2.154    2.462 
#   11.077    1.538    0.000    0.000    0.000    0.000 
#    0.000    0.000    0.000    0.000    0.000    0.000 
#
# Total GULP energy -144935.301151 kJ/mol
# GULP energy per Si atom -5574.434660 kJ/mol
# Density = 2.076775 g / cm^3
# Si number density = 20.815127 Si / 1000 Ang^3
#
#
#
# Elastic Constant Matrix: (Units=GPa)
#
#
# Indices 1 2 3 4 5 6 
#
# 1 98.1801 28.8958 -1.5787 0.0000 0.0000 0.0000
# 2 28.8958 98.0739 22.6268 0.0000 0.0000 0.0000
# 3 -1.5787 22.6268 70.4346 0.0000 0.0000 0.0000
# 4 0.0000 0.0000 0.0000 27.0039 0.0000 0.0000
# 5 0.0000 0.0000 0.0000 0.0000 27.7355 0.0000
# 6 0.0000 0.0000 0.0000 0.0000 0.0000 24.3346
#
#
#
# Elastic Compliance Matrix: (Units=1/GPa)
#
#
# Indices 1 2 3 4 5 6 
#
# 1 0.011284 -0.003654 0.001427 0.000000 0.000000 0.000000
# 2 -0.003654 0.012196 -0.004000 0.000000 0.000000 0.000000
# 3 0.001427 -0.004000 0.015514 0.000000 0.000000 0.000000
# 4 0.000000 0.000000 0.000000 0.037032 0.000000 0.000000
# 5 0.000000 0.000000 0.000000 0.000000 0.036055 0.000000
# 6 0.000000 0.000000 0.000000 0.000000 0.000000 0.041094
#
#
# Mechanical properties :
#
#
# Convention : Reuss Voigt Hill
#
# Bulk Modulus (GPa) = 37.67861 40.73071 39.20466
# Shear Modulus (GPa) = 28.65752 30.26444 29.46098
#
# Velocity S-wave (km/s) = 3.71450 3.81722 3.76621
# Velocity P-wave (km/s) = 6.04463 6.24809 6.14720
#
# Compressibility (1/GPa) = 0.02654025
#
# Stress axis : x y z
#
# Youngs Moduli (GPa) = 88.62396 81.99633 64.45614
#
# Poissons Ratio (x) = 0.29959 -0.09196
# Poissons Ratio (y) = 0.32380 0.25780
# Poissons Ratio (z) = -0.12643 0.32796
#
# Static dielectric constant tensor:
#      x y z
#    x 1.825100 0.000000 0.000000 
#    y 0.000000 1.740380 0.000000 
#    z 0.000000 0.000000 1.847520 
# 
# From -- ./inp_files/13039.got.cif
#   From: 2010.05.17/outbox.cif.g08.bks.cpg/sg46_7_cif.got.tgz:13039.got - 2010.06.03 19:58:25.
