data_PCOD9379033
_publ_section_title
;
Structure prediction by ZEFSAII (Michael W. Deem and Ramdas Pophale) SiO2 
 PCOD9379033
Probable space group: I M A 2
;
_chemical_formula_sum "Si O2"
_cell_formula_units_Z 40
_cell_length_a 8.772873
_cell_length_b 14.797042
_cell_length_c 13.751987
_cell_angle_alpha 90.000000
_cell_angle_beta 90.000000
_cell_angle_gamma 90.000000
_cell_volume 1785.180778
_symmetry_space_group_name_H-M "I M A 2"
_symmetry_group_IT_number 46
_symmetry_cell_setting 'orthorhombic'
loop_
_space_group_symop_operation_xyz
x,y,z
-x,-y,z
1/2-x,y,z
1/2+x,-y,z
1/2+x,1/2+y,1/2+z
1/2-x,1/2-y,1/2+z
-x,1/2+y,1/2+z
x,1/2-y,1/2+z
loop_
_atom_site_type_symbol
_atom_site_label
_atom_site_fract_x
_atom_site_fract_y
_atom_site_fract_z
Si Si1 0.567167 0.790323 0.440350
Si Si2 0.066252 0.600827 0.757072
Si Si3 0.570997 0.265762 0.130250
Si Si4 0.579243 0.587758 0.233971
Si Si5 0.918916 0.588050 0.463166
O O1 0.750000 0.786122 0.425310
O O2 0.494990 0.848438 0.354270
O O3 0.520204 0.821525 0.547782
O O4 0.506384 0.687162 0.457292
O O5 0.250000 0.597731 0.760462
O O6 0.022890 0.665182 0.665170
O O7 0.000000 0.500000 0.751692
O O8 0.750000 0.265188 0.108600
O O9 0.531512 0.327250 0.223261
O O10 0.500000 0.500000 0.189233
O O11 0.750000 0.606260 0.197284
O O12 0.598227 0.569176 0.348327
O O13 0.750000 0.597204 0.506899
O O14 0.000000 0.500000 0.505801
#
# Coordination Sequence:
#
# PCOD9379033 Si02
#       5
#     8   8   8   8   8
#     4  11  23  41  65  94 128 168 215 267 322 385
#     4  11  25  45  69  95 131 176 222 274 330 394
#     4  11  24  41  63  94 128 168 215 266 323 386
#     4  10  19  35  59  88 120 155 196 247 306 369
#     4   9  19  34  57  87 118 153 193 242 303 364
#
# _framework density 22.406694000000002
#
# number of rings (size 3 to 8) (size 9 to 14) (size 15 to 20)
#    0.000    1.600    2.000    2.400    0.000    6.400 
#    0.000    8.000    0.000    0.000    0.000    0.000 
#    0.000    0.000    0.000    0.000    0.000    0.000 
#
# Total GULP energy -111456.248148 kJ/mol
# GULP energy per Si atom -5572.812407 kJ/mol
# Density = 2.235570 g / cm^3
# Si number density = 22.406694 Si / 1000 Ang^3
#
#
#
# Elastic Constant Matrix: (Units=GPa)
#
#
# Indices 1 2 3 4 5 6 
#
# 1 55.9685 18.0226 17.4271 0.0000 0.0000 0.0000
# 2 18.0226 121.6135 12.8990 0.0000 0.0000 0.0000
# 3 17.4271 12.8990 83.8463 0.0000 0.0000 0.0000
# 4 0.0000 0.0000 0.0000 18.0594 0.0000 0.0000
# 5 0.0000 0.0000 0.0000 0.0000 16.6802 0.0000
# 6 0.0000 0.0000 0.0000 0.0000 0.0000 30.7956
#
#
#
# Elastic Compliance Matrix: (Units=1/GPa)
#
#
# Indices 1 2 3 4 5 6 
#
# 1 0.019850 -0.002546 -0.003734 0.000000 0.000000 0.000000
# 2 -0.002546 0.008686 -0.000807 0.000000 0.000000 0.000000
# 3 -0.003734 -0.000807 0.012827 0.000000 0.000000 0.000000
# 4 0.000000 0.000000 0.000000 0.055373 0.000000 0.000000
# 5 0.000000 0.000000 0.000000 0.000000 0.059951 0.000000
# 6 0.000000 0.000000 0.000000 0.000000 0.000000 0.032472
#
#
# Mechanical properties :
#
#
# Convention : Reuss Voigt Hill
#
# Bulk Modulus (GPa) = 36.78011 39.79175 38.28593
# Shear Modulus (GPa) = 23.54106 27.31233 25.42670
#
# Velocity S-wave (km/s) = 3.24485 3.49511 3.37231
# Velocity P-wave (km/s) = 5.52170 5.83825 5.68218
#
# Compressibility (1/GPa) = 0.02718861
#
# Stress axis : x y z
#
# Youngs Moduli (GPa) = 50.37887 115.13273 77.96144
#
# Poissons Ratio (x) = 0.29308 0.29111
# Poissons Ratio (y) = 0.12824 0.06292
# Poissons Ratio (z) = 0.18812 0.09293
#
# Static dielectric constant tensor:
#      x y z
#    x 1.848030 0.000000 0.000000 
#    y 0.000000 1.882810 0.000000 
#    z 0.000000 0.000000 2.017370 
# 
# From -- ./inp_files/13649.got.cif
#   From: 2010.05.17/outbox.cif.g08.bks.cpg/sg46_7_cif.got.tgz:13649.got - 2010.06.03 19:58:25.
