data_PCOD9379201
_publ_section_title
;
Structure prediction by ZEFSAII (Michael W. Deem and Ramdas Pophale) SiO2 
 PCOD9379201
Probable space group: I M A 2
;
_chemical_formula_sum "Si O2"
_cell_formula_units_Z 64
_cell_length_a 8.695360
_cell_length_b 28.746721
_cell_length_c 14.963935
_cell_angle_alpha 90.000000
_cell_angle_beta 90.000000
_cell_angle_gamma 90.000000
_cell_volume 3740.431400
_symmetry_space_group_name_H-M "I M A 2"
_symmetry_group_IT_number 46
_symmetry_cell_setting 'orthorhombic'
loop_
_space_group_symop_operation_xyz
x,y,z
-x,-y,z
1/2-x,y,z
1/2+x,-y,z
1/2+x,1/2+y,1/2+z
1/2-x,1/2-y,1/2+z
-x,1/2+y,1/2+z
x,1/2-y,1/2+z
loop_
_atom_site_type_symbol
_atom_site_label
_atom_site_fract_x
_atom_site_fract_y
_atom_site_fract_z
Si Si1 0.434656 0.138286 0.632770
Si Si2 0.934941 0.863420 0.189641
Si Si3 0.066336 0.721667 0.014859
Si Si4 0.064102 0.050753 0.308628
Si Si5 0.434687 0.175712 0.005382
Si Si6 0.066738 0.780956 0.306517
Si Si7 0.934506 0.173497 0.810637
Si Si8 0.935312 0.949287 0.514406
O O1 0.250000 0.139928 0.632914
O O2 0.498626 0.182685 0.579042
O O3 0.496922 0.141728 0.733182
O O4 0.484809 0.091743 0.580522
O O5 0.750000 0.865078 0.190051
O O6 0.991027 0.909026 0.241961
O O7 0.985365 0.817846 0.243888
O O8 0.983805 0.857411 0.086956
O O9 0.250000 0.725347 0.027208
O O10 0.036312 0.708834 0.911076
O O11 0.992183 0.772247 0.028729
O O12 0.250000 0.049279 0.306107
O O13 0.018537 0.061246 0.411559
O O14 0.000000 0.000000 0.285874
O O15 0.250000 0.176005 0.998885
O O16 0.505098 0.162789 0.909690
O O17 0.250000 0.783781 0.292211
O O18 0.019739 0.727376 0.290785
O O19 0.750000 0.171699 0.810147
O O20 0.750000 0.951396 0.516328
O O21 0.000000 0.000000 0.537733
#
# Coordination Sequence:
#
# PCOD9379201 Si02
#       8
#     8   8   8   8   8   8   8   8
#     4  11  21  33  52  77 101 132 172 211 252 304
#     4  10  20  32  50  74 100 129 164 205 248 292
#     4  10  20  33  48  72 106 140 171 208 250 296
#     4   9  18  34  52  74 102 129 157 195 243 296
#     4  10  20  34  51  72  99 135 174 213 253 296
#     4   9  19  32  47  70 101 134 168 202 242 291
#     4  10  21  36  51  71 101 136 171 212 254 296
#     4   9  19  34  53  76 103 131 161 200 250 305
#
# _framework density 17.110326000000001
#
# number of rings (size 3 to 8) (size 9 to 14) (size 15 to 20)
#    0.000    2.250    0.000    3.750    0.000    8.500 
#    0.000    2.500    0.000    0.750    0.000    1.750 
#    0.000    0.000    0.000    0.000    0.000    0.000 
#
# Total GULP energy -178622.109197 kJ/mol
# GULP energy per Si atom -5581.940912 kJ/mol
# Density = 1.707138 g / cm^3
# Si number density = 17.110326 Si / 1000 Ang^3
#
#
#
# Elastic Constant Matrix: (Units=GPa)
#
#
# Indices 1 2 3 4 5 6 
#
# 1 28.5328 24.2817 36.8105 0.0000 0.0000 0.0000
# 2 24.2817 90.7793 98.7192 -0.0001 0.0000 0.0000
# 3 36.8105 98.7192 131.9843 -0.0002 0.0000 0.0000
# 4 0.0000 -0.0001 -0.0002 29.9516 0.0000 0.0000
# 5 0.0000 0.0000 0.0000 0.0000 21.9159 0.0000
# 6 0.0000 0.0000 0.0000 0.0000 0.0000 25.2734
#
#
#
# Elastic Compliance Matrix: (Units=1/GPa)
#
#
# Indices 1 2 3 4 5 6 
#
# 1 0.056682 0.010878 -0.023945 0.000000 0.000000 0.000000
# 2 0.010878 0.061115 -0.048746 0.000000 0.000000 0.000000
# 3 -0.023945 -0.048746 0.050715 0.000000 0.000000 0.000000
# 4 0.000000 0.000000 0.000000 0.033387 0.000000 0.000000
# 5 0.000000 0.000000 0.000000 0.000000 0.045629 0.000000
# 6 0.000000 0.000000 0.000000 0.000000 0.000000 0.039567
#
#
# Mechanical properties :
#
#
# Convention : Reuss Voigt Hill
#
# Bulk Modulus (GPa) = 22.27841 63.43546 42.85694
# Shear Modulus (GPa) = 11.74583 21.52718 16.63650
#
# Velocity S-wave (km/s) = 2.62291 3.55087 3.12157
# Velocity P-wave (km/s) = 4.71398 7.34619 6.17204
#
# Compressibility (1/GPa) = 0.04488651
#
# Stress axis : x y z
#
# Youngs Moduli (GPa) = 17.64234 16.36250 19.71810
#
# Poissons Ratio (x) = -0.17799 0.47215
# Poissons Ratio (y) = -0.19191 0.96117
# Poissons Ratio (z) = 0.42244 0.79760
#
# Static dielectric constant tensor:
#      x y z
#    x 1.576750 0.000000 0.000000 
#    y 0.000000 1.552820 0.000000 
#    z 0.000000 0.000000 1.590220 
# 
# From -- ./inp_files/14558.got.cif
#   From: 2010.05.17/outbox.cif.g08.bks.cpg/sg46_8_cif.got.tgz:14558.got - 2010.06.03 19:58:25.
