data_PCOD9379997
_publ_section_title
;
Structure prediction by ZEFSAII (Michael W. Deem and Ramdas Pophale) SiO2 
 PCOD9379997
Probable space group: I M A 2
;
_chemical_formula_sum "Si O2"
_cell_formula_units_Z 64
_cell_length_a 30.462680
_cell_length_b 5.279133
_cell_length_c 17.763678
_cell_angle_alpha 90.000000
_cell_angle_beta 90.000000
_cell_angle_gamma 90.000000
_cell_volume 2856.693220
_symmetry_space_group_name_H-M "I M A 2"
_symmetry_group_IT_number 46
_symmetry_cell_setting 'orthorhombic'
loop_
_space_group_symop_operation_xyz
x,y,z
-x,-y,z
1/2-x,y,z
1/2+x,-y,z
1/2+x,1/2+y,1/2+z
1/2-x,1/2-y,1/2+z
-x,1/2+y,1/2+z
x,1/2-y,1/2+z
loop_
_atom_site_type_symbol
_atom_site_label
_atom_site_fract_x
_atom_site_fract_y
_atom_site_fract_z
Si Si1 0.204274 0.252988 0.913300
Si Si2 0.546821 0.367389 0.175757
Si Si3 0.301244 0.597431 0.277991
Si Si4 0.915409 0.875223 0.244736
Si Si5 0.296110 0.901999 0.053200
Si Si6 0.112550 0.626090 0.042528
Si Si7 0.160177 0.282355 0.146416
Si Si8 0.371337 0.595661 0.882365
O O1 0.250000 0.395252 0.925735
O O2 0.162717 0.419921 0.927094
O O3 0.202698 0.156420 0.828337
O O4 0.204264 0.016562 0.969143
O O5 0.500000 0.500000 0.162735
O O6 0.570514 0.587068 0.226141
O O7 0.571930 0.318044 0.097327
O O8 0.551573 0.096210 0.217393
O O9 0.250000 0.696868 0.273355
O O10 0.321559 0.510317 0.198655
O O11 0.338591 0.747811 0.326786
O O12 0.869287 0.894306 0.200101
O O13 0.903542 0.933353 0.330564
O O14 0.250000 0.762878 0.065760
O O15 0.342093 0.767195 0.060966
O O16 0.299516 0.134897 0.110671
O O17 0.127372 0.353099 0.077567
O O18 0.103054 0.698990 0.955522
#
# Coordination Sequence:
#
# PCOD9379997 Si02
#       8
#     8   8   8   8   8   8   8   8
#     4  10  21  36  56  85 129 184 234 280 335 389
#     4  11  25  50  76 105 138 173 225 293 364 442
#     4  11  23  37  56  88 134 193 245 287 333 394
#     4  11  24  43  74 102 134 178 224 282 362 425
#     4  11  22  37  58  92 136 182 235 287 337 404
#     4  11  24  40  67  98 131 181 227 285 351 413
#     4  11  22  41  59  91 134 179 241 286 341 404
#     4  12  22  40  63  92 137 179 234 290 349 418
#
# _framework density 22.403524000000001
#
# number of rings (size 3 to 8) (size 9 to 14) (size 15 to 20)
#    0.000    1.000    5.000    2.625    0.000    1.500 
#    0.000    1.250    0.000    0.000    0.000    0.000 
#    0.000    0.000    0.000    0.000    0.000    0.000 
#
# Total GULP energy -178325.763444 kJ/mol
# GULP energy per Si atom -5572.680108 kJ/mol
# Density = 2.235253 g / cm^3
# Si number density = 22.403524 Si / 1000 Ang^3
#
#
#
# Elastic Constant Matrix: (Units=GPa)
#
#
# Indices 1 2 3 4 5 6 
#
# 1 84.2358 1.9756 27.0778 0.0000 0.0000 0.0000
# 2 1.9756 51.9556 18.6777 0.0000 0.0000 0.0000
# 3 27.0778 18.6777 144.3265 0.0000 0.0000 0.0000
# 4 0.0000 0.0000 0.0000 38.6235 0.0000 0.0000
# 5 0.0000 0.0000 0.0000 0.0000 13.5743 0.0000
# 6 0.0000 0.0000 0.0000 0.0000 0.0000 32.8277
#
#
#
# Elastic Compliance Matrix: (Units=1/GPa)
#
#
# Indices 1 2 3 4 5 6 
#
# 1 0.012641 0.000390 -0.002422 0.000000 0.000000 0.000000
# 2 0.000390 0.020198 -0.002687 0.000000 0.000000 0.000000
# 3 -0.002422 -0.002687 0.007731 0.000000 0.000000 0.000000
# 4 0.000000 0.000000 0.000000 0.025891 0.000000 0.000000
# 5 0.000000 0.000000 0.000000 0.000000 0.073668 0.000000
# 6 0.000000 0.000000 0.000000 0.000000 0.000000 0.030462
#
#
# Mechanical properties :
#
#
# Convention : Reuss Voigt Hill
#
# Bulk Modulus (GPa) = 32.12143 41.77557 36.94850
# Shear Modulus (GPa) = 26.25950 32.52422 29.39186
#
# Velocity S-wave (km/s) = 3.42733 3.81431 3.62599
# Velocity P-wave (km/s) = 5.48005 6.17138 5.83596
#
# Compressibility (1/GPa) = 0.03113186
#
# Stress axis : x y z
#
# Youngs Moduli (GPa) = 79.10846 49.50893 129.35099
#
# Poissons Ratio (x) = -0.01931 0.31330
# Poissons Ratio (y) = -0.03086 0.34758
# Poissons Ratio (z) = 0.19161 0.13304
#
# Static dielectric constant tensor:
#      x y z
#    x 1.820530 0.000000 0.000000 
#    y 0.000000 1.964590 0.000000 
#    z 0.000000 0.000000 1.856360 
# 
# From -- ./inp_files/20549.got.cif
#   From: 2010.05.17/outbox.cif.g08.bks.cpg/sg46_11_cif.got.tgz:20549.got - 2010.06.03 19:58:25.
