data_PCOD9379638
_publ_section_title
;
Structure prediction by ZEFSAII (Michael W. Deem and Ramdas Pophale) SiO2 
 PCOD9379638
Probable space group: I M A 2
;
_chemical_formula_sum "Si O2"
_cell_formula_units_Z 48
_cell_length_a 8.652000
_cell_length_b 9.350163
_cell_length_c 31.374936
_cell_angle_alpha 90.000000
_cell_angle_beta 90.000000
_cell_angle_gamma 90.000000
_cell_volume 2538.157345
_symmetry_space_group_name_H-M "I M A 2"
_symmetry_group_IT_number 46
_symmetry_cell_setting 'orthorhombic'
loop_
_space_group_symop_operation_xyz
x,y,z
-x,-y,z
1/2-x,y,z
1/2+x,-y,z
1/2+x,1/2+y,1/2+z
1/2-x,1/2-y,1/2+z
-x,1/2+y,1/2+z
x,1/2-y,1/2+z
loop_
_atom_site_type_symbol
_atom_site_label
_atom_site_fract_x
_atom_site_fract_y
_atom_site_fract_z
Si Si1 0.935983 0.339711 0.638240
Si Si2 0.563788 0.340086 0.054685
Si Si3 0.564075 0.840651 0.717157
Si Si4 0.064028 0.342826 0.797702
Si Si5 0.564335 0.340887 0.471999
Si Si6 0.435807 0.341524 0.895196
O O1 0.750000 0.343719 0.640189
O O2 0.982807 0.250832 0.596161
O O3 0.000000 0.500000 0.636204
O O4 0.000809 0.258526 0.679430
O O5 0.500000 0.500000 0.056175
O O6 0.750000 0.347266 0.054458
O O7 0.514628 0.257481 0.011900
O O8 0.750000 0.843441 0.715353
O O9 0.515264 0.770998 0.762280
O O10 0.500000 0.000000 0.712633
O O11 0.250000 0.350556 0.796944
O O12 0.017824 0.307568 0.846292
O O13 0.000000 0.500000 0.787247
O O14 0.500000 0.500000 0.477116
O O15 0.750000 0.345179 0.471181
O O16 0.502703 0.269619 0.428812
O O17 0.500000 0.500000 0.904868
O O18 0.250000 0.343505 0.897727
#
# Coordination Sequence:
#
# PCOD9379638 Si02
#       6
#     8   8   8   8   8   8
#     4  11  23  40  61  87 116 150 189 233 282 336
#     4  10  23  40  60  85 115 149 188 231 281 335
#     4  11  23  39  58  84 116 152 191 235 283 336
#     4   9  20  37  58  83 113 148 189 233 283 337
#     4  11  23  39  58  84 115 151 191 235 284 337
#     4  10  20  37  59  85 115 150 190 235 283 337
#
# _framework density 18.911358
#
# number of rings (size 3 to 8) (size 9 to 14) (size 15 to 20)
#    0.000    1.667    0.000    4.000    0.000    9.333 
#    0.000    1.667    0.000    0.000    0.000    0.000 
#    0.000    0.000    0.000    0.000    0.000    0.000 
#
# Total GULP energy -134165.117927 kJ/mol
# GULP energy per Si atom -5590.213247 kJ/mol
# Density = 1.886831 g / cm^3
# Si number density = 18.911358 Si / 1000 Ang^3
#
#
#
# Elastic Constant Matrix: (Units=GPa)
#
#
# Indices 1 2 3 4 5 6 
#
# 1 48.3605 46.0345 41.6638 0.0000 0.0000 0.0000
# 2 46.0345 195.7542 113.2895 0.0000 0.0000 0.0000
# 3 41.6638 113.2895 133.3988 0.0000 0.0000 0.0000
# 4 0.0000 0.0000 0.0000 42.7947 0.0000 0.0000
# 5 0.0000 0.0000 0.0000 0.0000 34.0292 0.0000
# 6 0.0000 0.0000 0.0000 0.0000 0.0000 40.2202
#
#
#
# Elastic Compliance Matrix: (Units=1/GPa)
#
#
# Indices 1 2 3 4 5 6 
#
# 1 0.029233 -0.003128 -0.006474 0.000000 0.000000 0.000000
# 2 -0.003128 0.010381 -0.007839 0.000000 0.000000 0.000000
# 3 -0.006474 -0.007839 0.016175 0.000000 0.000000 0.000000
# 4 0.000000 0.000000 0.000000 0.023367 0.000000 0.000000
# 5 0.000000 0.000000 0.000000 0.000000 0.029387 0.000000
# 6 0.000000 0.000000 0.000000 0.000000 0.000000 0.024863
#
#
# Mechanical properties :
#
#
# Convention : Reuss Voigt Hill
#
# Bulk Modulus (GPa) = 47.82905 86.60992 67.21949
# Shear Modulus (GPa) = 28.52964 35.17720 31.85342
#
# Velocity S-wave (km/s) = 3.88828 4.31758 4.10854
# Velocity P-wave (km/s) = 6.74569 8.41145 7.62420
#
# Compressibility (1/GPa) = 0.02090780
#
# Stress axis : x y z
#
# Youngs Moduli (GPa) = 34.20811 96.33297 61.82226
#
# Poissons Ratio (x) = 0.30133 0.40022
# Poissons Ratio (y) = 0.10700 0.48462
# Poissons Ratio (z) = 0.22145 0.75514
#
# Static dielectric constant tensor:
#      x y z
#    x 1.640440 0.000000 0.000000 
#    y 0.000000 1.605880 0.000000 
#    z 0.000000 0.000000 1.654850 
# 
# From -- ./inp_files/24970.got.cif
#   From: 2010.05.17/outbox.cif.g08.bks.cpg/sg46_13_cif.got.tgz:24970.got - 2010.06.03 19:58:25.
