data_PCOD9379556
_publ_section_title
;
Structure prediction by ZEFSAII (Michael W. Deem and Ramdas Pophale) SiO2 
 PCOD9379556
Probable space group: I M A 2
;
_chemical_formula_sum "Si O2"
_cell_formula_units_Z 44
_cell_length_a 24.882734
_cell_length_b 14.047874
_cell_length_c 5.336403
_cell_angle_alpha 90.000000
_cell_angle_beta 90.000000
_cell_angle_gamma 90.000000
_cell_volume 1865.337065
_symmetry_space_group_name_H-M "I M A 2"
_symmetry_group_IT_number 46
_symmetry_cell_setting 'orthorhombic'
loop_
_space_group_symop_operation_xyz
x,y,z
-x,-y,z
1/2-x,y,z
1/2+x,-y,z
1/2+x,1/2+y,1/2+z
1/2-x,1/2-y,1/2+z
-x,1/2+y,1/2+z
x,1/2-y,1/2+z
loop_
_atom_site_type_symbol
_atom_site_label
_atom_site_fract_x
_atom_site_fract_y
_atom_site_fract_z
Si Si1 0.640071 0.595640 0.136400
Si Si2 0.000000 0.500000 0.887854
Si Si3 0.968895 0.804745 0.640123
Si Si4 0.884356 0.013428 0.139407
Si Si5 0.250000 0.712035 0.129873
Si Si6 0.867781 0.228828 0.183331
Si Si7 0.250000 0.307616 0.282797
O O1 0.621425 0.524182 0.357261
O O2 0.595584 0.678083 0.129584
O O3 0.641989 0.550320 0.859400
O O4 0.697281 0.632625 0.222274
O O5 0.007140 0.406461 0.058833
O O6 0.053092 0.513885 0.719702
O O7 0.981575 0.770170 0.919510
O O8 0.857809 0.117250 0.157978
O O9 0.250000 0.798798 0.332885
O O10 0.185029 0.699434 0.182254
O O11 0.898791 0.243299 0.436772
O O12 0.250000 0.224868 0.071441
#
# Coordination Sequence:
#
# PCOD9379556 Si02
#       7
#     8   4   8   8   4   8   4
#     4  11  24  42  64  97 132 172 219 269 337 409
#     4  10  26  44  66  98 132 170 226 282 330 400
#     4  11  23  42  68  95 130 175 218 271 338 400
#     4  11  24  42  63  90 133 173 217 281 335 392
#     4   8  16  30  50  76 108 146 188 242 302 368
#     4  10  20  36  58  86 119 159 209 258 313 381
#     4  12  24  42  70 100 132 168 216 276 330 404
#
# _framework density 23.588228999999998
#
# number of rings (size 3 to 8) (size 9 to 14) (size 15 to 20)
#    0.000    1.455    0.000    5.455    0.000    9.455 
#    0.000    1.818    0.000    0.000    0.000    0.000 
#    0.000    0.000    0.000    0.000    0.000    0.000 
#
# Total GULP energy -122574.539617 kJ/mol
# GULP energy per Si atom -5571.569983 kJ/mol
# Density = 2.353454 g / cm^3
# Si number density = 23.588229 Si / 1000 Ang^3
#
#
#
# Elastic Constant Matrix: (Units=GPa)
#
#
# Indices 1 2 3 4 5 6 
#
# 1 124.9069 23.4858 -6.2449 0.0000 0.0000 0.0000
# 2 23.4858 48.5100 11.3433 0.0000 0.0000 0.0000
# 3 -6.2449 11.3433 102.5603 0.0000 0.0000 0.0000
# 4 0.0000 0.0000 0.0000 42.8128 0.0000 0.0000
# 5 0.0000 0.0000 0.0000 0.0000 1.1305 0.0000
# 6 0.0000 0.0000 0.0000 0.0000 0.0000 17.8121
#
#
#
# Elastic Compliance Matrix: (Units=1/GPa)
#
#
# Indices 1 2 3 4 5 6 
#
# 1 0.008916 -0.004562 0.001047 0.000000 0.000000 0.000000
# 2 -0.004562 0.023495 -0.002876 0.000000 0.000000 0.000000
# 3 0.001047 -0.002876 0.010132 0.000000 0.000000 0.000000
# 4 0.000000 0.000000 0.000000 0.023357 0.000000 0.000000
# 5 0.000000 0.000000 0.000000 0.000000 0.884568 0.000000
# 6 0.000000 0.000000 0.000000 0.000000 0.000000 0.056141
#
#
# Mechanical properties :
#
#
# Convention : Reuss Voigt Hill
#
# Bulk Modulus (GPa) = 33.59921 37.01619 35.30770
# Shear Modulus (GPa) = 4.85761 28.84395 16.85078
#
# Velocity S-wave (km/s) = 1.43660 3.50067 2.67567
# Velocity P-wave (km/s) = 4.12634 5.66271 4.95444
#
# Compressibility (1/GPa) = 0.02976261
#
# Stress axis : x y z
#
# Youngs Moduli (GPa) = 112.15762 42.56163 98.69461
#
# Poissons Ratio (x) = 0.19415 -0.10337
# Poissons Ratio (y) = 0.51161 0.28388
# Poissons Ratio (z) = -0.11747 0.12242
#
# Static dielectric constant tensor:
#      x y z
#    x 1.920510 0.000000 0.000000 
#    y 0.000000 1.939620 0.000000 
#    z 0.000000 0.000000 1.929200 
# 
# From -- ./inp_files/2526.got.cif
#   From: 2010.05.17/outbox.cif.g08.bks.cpg/sg46_2_cif.got.tgz:2526.got - 2010.06.03 19:58:25.
