data_PCOD9379053
_publ_section_title
;
Structure prediction by ZEFSAII (Michael W. Deem and Ramdas Pophale) SiO2 
 PCOD9379053
Probable space group: I M A 2
;
_chemical_formula_sum "Si O2"
_cell_formula_units_Z 60
_cell_length_a 15.615375
_cell_length_b 9.239918
_cell_length_c 17.991256
_cell_angle_alpha 90.000000
_cell_angle_beta 90.000000
_cell_angle_gamma 90.000000
_cell_volume 2595.864496
_symmetry_space_group_name_H-M "I M A 2"
_symmetry_group_IT_number 46
_symmetry_cell_setting 'orthorhombic'
loop_
_space_group_symop_operation_xyz
x,y,z
-x,-y,z
1/2-x,y,z
1/2+x,-y,z
1/2+x,1/2+y,1/2+z
1/2-x,1/2-y,1/2+z
-x,1/2+y,1/2+z
x,1/2-y,1/2+z
loop_
_atom_site_type_symbol
_atom_site_label
_atom_site_fract_x
_atom_site_fract_y
_atom_site_fract_z
Si Si1 0.156223 0.667897 0.579800
Si Si2 0.606868 0.755349 0.927291
Si Si3 0.341204 0.573503 0.417351
Si Si4 0.750000 0.516484 0.889461
Si Si5 0.849646 0.635046 0.661043
Si Si6 0.984081 0.670255 0.078027
Si Si7 0.910407 0.055651 0.298740
Si Si8 0.015875 0.653353 0.299478
O O1 0.250000 0.717850 0.607680
O O2 0.158859 0.671219 0.490395
O O3 0.145934 0.502229 0.605742
O O4 0.073206 0.756412 0.600190
O O5 0.675351 0.628501 0.920493
O O6 0.565459 0.788778 0.846263
O O7 0.649250 0.909095 0.945586
O O8 0.542079 0.716527 0.993765
O O9 0.250000 0.585083 0.377928
O O10 0.419061 0.608497 0.364826
O O11 0.671949 0.422203 0.850356
O O12 0.750000 0.678968 0.668823
O O13 0.909557 0.763291 0.630916
O O14 0.881608 0.561618 0.737471
O O15 0.000000 0.500000 0.080092
O O16 0.938868 0.208592 0.262905
O O17 0.000000 0.000000 0.335370
O O18 0.000000 0.500000 0.258337
#
# Coordination Sequence:
#
# PCOD9379053 Si02
#       8
#     8   8   8   4   8   8   8   8
#     4  10  21  41  68  99 135 183 243 298 358 433
#     4  11  22  41  63 101 147 189 233 297 367 441
#     4  10  19  35  64  97 138 181 229 288 363 428
#     4  12  26  40  68 104 156 190 250 294 362 440
#     4  11  25  47  76 103 136 195 254 298 362 442
#     4  12  26  42  69 106 146 193 239 307 375 430
#     4  12  25  47  72 102 141 197 248 299 352 443
#     4  10  23  41  67 101 144 184 236 291 369 429
#
# _framework density 23.113686000000001
#
# number of rings (size 3 to 8) (size 9 to 14) (size 15 to 20)
#    0.000    1.067    5.333    1.200    3.733    0.533 
#    2.400    2.667    0.000    0.000    0.000    0.000 
#    0.000    0.000    0.000    0.000    0.000    0.000 
#
# Total GULP energy -167076.833895 kJ/mol
# GULP energy per Si atom -5569.227797 kJ/mol
# Density = 2.306108 g / cm^3
# Si number density = 23.113686 Si / 1000 Ang^3
#
#
#
# Elastic Constant Matrix: (Units=GPa)
#
#
# Indices 1 2 3 4 5 6 
#
# 1 181.9100 61.4135 15.1610 0.0000 0.0000 0.0000
# 2 61.4135 117.4614 19.8595 0.0000 0.0000 0.0000
# 3 15.1610 19.8595 42.2183 0.0000 0.0000 0.0000
# 4 0.0000 0.0000 0.0000 8.4139 0.0000 0.0000
# 5 0.0000 0.0000 0.0000 0.0000 21.2024 0.0000
# 6 0.0000 0.0000 0.0000 0.0000 0.0000 37.9193
#
#
#
# Elastic Compliance Matrix: (Units=1/GPa)
#
#
# Indices 1 2 3 4 5 6 
#
# 1 0.006702 -0.003365 -0.000824 0.000000 0.000000 0.000000
# 2 -0.003365 0.010938 -0.003937 0.000000 0.000000 0.000000
# 3 -0.000824 -0.003937 0.025834 0.000000 0.000000 0.000000
# 4 0.000000 0.000000 0.000000 0.118851 0.000000 0.000000
# 5 0.000000 0.000000 0.000000 0.000000 0.047165 0.000000
# 6 0.000000 0.000000 0.000000 0.000000 0.000000 0.026372
#
#
# Mechanical properties :
#
#
# Convention : Reuss Voigt Hill
#
# Bulk Modulus (GPa) = 36.73365 59.38418 48.05892
# Shear Modulus (GPa) = 19.14333 29.85084 24.49708
#
# Velocity S-wave (km/s) = 2.88101 3.59761 3.25907
# Velocity P-wave (km/s) = 5.19558 6.55783 5.91604
#
# Compressibility (1/GPa) = 0.02722299
#
# Stress axis : x y z
#
# Youngs Moduli (GPa) = 149.21327 91.42220 38.70826
#
# Poissons Ratio (x) = 0.30761 0.03189
# Poissons Ratio (y) = 0.50205 0.15240
# Poissons Ratio (z) = 0.12294 0.35994
#
# Static dielectric constant tensor:
#      x y z
#    x 1.857140 0.000000 0.000000 
#    y 0.000000 1.914500 0.000000 
#    z 0.000000 0.000000 1.908880 
# 
# From -- ./inp_files/23631.got.cif
#   From: 2010.05.17/outbox.cif.g08.bks.cpg/sg46_12_cif.got.tgz:23631.got - 2010.06.03 19:58:25.
