data_PCOD9379970
_publ_section_title
;
Structure prediction by ZEFSAII (Michael W. Deem and Ramdas Pophale) SiO2 
 PCOD9379970
Probable space group: I M A 2
;
_chemical_formula_sum "Si O2"
_cell_formula_units_Z 64
_cell_length_a 14.317318
_cell_length_b 24.200701
_cell_length_c 9.534848
_cell_angle_alpha 90.000000
_cell_angle_beta 90.000000
_cell_angle_gamma 90.000000
_cell_volume 3303.721208
_symmetry_space_group_name_H-M "I M A 2"
_symmetry_group_IT_number 46
_symmetry_cell_setting 'orthorhombic'
loop_
_space_group_symop_operation_xyz
x,y,z
-x,-y,z
1/2-x,y,z
1/2+x,-y,z
1/2+x,1/2+y,1/2+z
1/2-x,1/2-y,1/2+z
-x,1/2+y,1/2+z
x,1/2-y,1/2+z
loop_
_atom_site_type_symbol
_atom_site_label
_atom_site_fract_x
_atom_site_fract_y
_atom_site_fract_z
Si Si1 0.852036 0.477824 0.608170
Si Si2 0.360350 0.808105 0.319196
Si Si3 0.391891 0.986106 0.432464
Si Si4 0.557929 0.129423 0.559167
Si Si5 0.643306 0.905710 0.950019
Si Si6 0.145436 0.407753 0.113472
Si Si7 0.858718 0.179189 0.819825
Si Si8 0.959415 0.368131 0.576772
O O1 0.750000 0.454655 0.569909
O O2 0.852100 0.488136 0.775613
O O3 0.864486 0.534382 0.523750
O O4 0.927840 0.431927 0.572727
O O5 0.250000 0.822856 0.302054
O O6 0.394717 0.820227 0.476300
O O7 0.371028 0.743721 0.285180
O O8 0.430836 0.845478 0.228402
O O9 0.391314 0.925335 0.499655
O O10 0.500000 0.000000 0.412956
O O11 0.354451 0.032100 0.539483
O O12 0.445585 0.122874 0.549217
O O13 0.582608 0.139509 0.719882
O O14 0.750000 0.886341 0.973001
O O15 0.630306 0.911358 0.781819
O O16 0.565543 0.867376 0.022972
O O17 0.250000 0.383710 0.090591
O O18 0.750000 0.166114 0.806403
O O19 0.894933 0.167649 0.974725
#
# Coordination Sequence:
#
# PCOD9379970 Si02
#       8
#     8   8   8   8   8   8   8   8
#     4  11  22  35  57  90 125 160 195 238 291 352
#     4  11  24  42  62  88 123 154 194 248 302 355
#     4  10  21  35  56  88 123 159 197 238 288 351
#     4  11  22  39  63  88 119 161 196 244 295 353
#     4  10  23  40  60  87 122 160 198 244 290 347
#     4  10  22  40  60  88 123 159 199 243 291 346
#     4  11  24  40  62  90 117 154 200 247 300 356
#     4  12  22  39  63  87 120 159 198 242 296 353
#
# _framework density 19.372095000000002
#
# number of rings (size 3 to 8) (size 9 to 14) (size 15 to 20)
#    0.000    1.250    2.500    3.750    3.500    4.500 
#    0.000    0.000    0.000    4.500    0.000    0.000 
#    0.000    0.000    0.000    0.000    0.000    0.000 
#
# Total GULP energy -178593.467582 kJ/mol
# GULP energy per Si atom -5581.045862 kJ/mol
# Density = 1.932800 g / cm^3
# Si number density = 19.372095 Si / 1000 Ang^3
#
#
#
# Elastic Constant Matrix: (Units=GPa)
#
#
# Indices 1 2 3 4 5 6 
#
# 1 129.4797 26.3295 17.3336 0.0000 0.0006 0.0000
# 2 26.3295 40.9426 5.2419 0.0001 -0.0013 0.0000
# 3 17.3336 5.2419 41.7300 0.0010 -0.0093 0.0001
# 4 0.0000 0.0001 0.0010 27.0381 -0.0020 0.0000
# 5 0.0006 -0.0013 -0.0093 -0.0020 -28.9211 0.0016
# 6 0.0000 0.0000 0.0001 0.0000 0.0016 14.9306
#
#
#
# Elastic Compliance Matrix: (Units=1/GPa)
#
#
# Indices 1 2 3 4 5 6 
#
# 1 0.009276 -0.005562 -0.003155 0.000000 0.000001 0.000000
# 2 -0.005562 0.028158 -0.001227 0.000000 -0.000001 0.000000
# 3 -0.003155 -0.001227 0.025428 -0.000001 -0.000008 0.000000
# 4 0.000000 0.000000 -0.000001 0.036985 -0.000003 0.000000
# 5 0.000001 -0.000001 -0.000008 -0.000003 -0.034577 0.000004
# 6 0.000000 0.000000 0.000000 0.000000 0.000004 0.066977
#
#
# Mechanical properties :
#
#
# Convention : Reuss Voigt Hill
#
# Bulk Modulus (GPa) = 23.26863 34.44027 28.85445
# Shear Modulus (GPa) = 30.03739 13.49266 21.76503
#
# Velocity S-wave (km/s) = 3.94197 2.64199 3.35554
# Velocity P-wave (km/s) = 5.72332 5.20804 5.47175
#
# Compressibility (1/GPa) = 0.04297631
#
# Stress axis : x y z
#
# Youngs Moduli (GPa) = 107.79952 35.51371 39.32669
#
# Poissons Ratio (x) = 0.19752 0.12406
# Poissons Ratio (y) = 0.59954 0.04825
# Poissons Ratio (z) = 0.34006 0.04357
#
# Static dielectric constant tensor:
#      x y z
#    x 1.903710 0.000000 0.000000 
#    y 0.000000 1.657630 0.000000 
#    z 0.000000 0.000000 1.659460 
# 
# From -- ./inp_files/6072.got.cif
#   From: 2010.05.17/outbox.cif.g08.bks.cpg/sg46_4_cif.got.tgz:6072.got - 2010.06.03 19:58:25.
