data_PCOD9379527
_publ_section_title
;
Structure prediction by ZEFSAII (Michael W. Deem and Ramdas Pophale) SiO2 
 PCOD9379527
Probable space group: I M A 2
;
_chemical_formula_sum "Si O2"
_cell_formula_units_Z 40
_cell_length_a 7.936047
_cell_length_b 30.549850
_cell_length_c 7.570739
_cell_angle_alpha 90.000000
_cell_angle_beta 90.000000
_cell_angle_gamma 90.000000
_cell_volume 1835.488161
_symmetry_space_group_name_H-M "I M A 2"
_symmetry_group_IT_number 46
_symmetry_cell_setting 'orthorhombic'
loop_
_space_group_symop_operation_xyz
x,y,z
-x,-y,z
1/2-x,y,z
1/2+x,-y,z
1/2+x,1/2+y,1/2+z
1/2-x,1/2-y,1/2+z
-x,1/2+y,1/2+z
x,1/2-y,1/2+z
loop_
_atom_site_type_symbol
_atom_site_label
_atom_site_fract_x
_atom_site_fract_y
_atom_site_fract_z
Si Si1 0.455696 0.394349 0.982510
Si Si2 0.045987 0.378824 0.578871
Si Si3 0.440275 0.709382 0.687268
Si Si4 0.439316 0.198933 0.563668
Si Si5 0.952721 0.950487 0.796054
O O1 0.250000 0.393195 0.979003
O O2 0.509273 0.392236 0.778428
O O3 0.507753 0.350021 0.086255
O O4 0.510495 0.435044 0.101317
O O5 0.250000 0.377642 0.574343
O O6 0.987303 0.414992 0.439667
O O7 0.982641 0.329104 0.549208
O O8 0.250000 0.702482 0.749794
O O9 0.459772 0.758779 0.623465
O O10 0.563887 0.702636 0.851031
O O11 0.250000 0.201601 0.637178
O O12 0.750000 0.948016 0.796657
O O13 0.000000 0.000000 0.836986
#
# Coordination Sequence:
#
# PCOD9379527 Si02
#       5
#     8   8   8   8   8
#     4   8  17  35  56  79 106 142 191 236 272 333
#     4   9  19  37  58  78 109 153 195 232 280 354
#     4  11  22  35  53  85 120 148 187 245 300 339
#     4  10  20  36  57  80 110 156 201 232 281 356
#     4  10  21  37  58  84 110 143 190 241 292 347
#
# _framework density 21.792567999999999
#
# number of rings (size 3 to 8) (size 9 to 14) (size 15 to 20)
#    0.000    2.400    0.000    3.600    2.800    1.600 
#    0.000    5.000    0.000    0.000    0.000    0.000 
#    0.000    0.000    0.000    0.000    0.000    0.000 
#
# Total GULP energy -111601.756589 kJ/mol
# GULP energy per Si atom -5580.087829 kJ/mol
# Density = 2.174297 g / cm^3
# Si number density = 21.792568 Si / 1000 Ang^3
#
#
#
# Elastic Constant Matrix: (Units=GPa)
#
#
# Indices 1 2 3 4 5 6 
#
# 1 45.2734 4.6417 2.2416 0.0000 -0.0001 0.0000
# 2 4.6417 96.7027 19.9149 -0.0002 0.0000 0.0001
# 3 2.2416 19.9149 44.2245 0.0004 -0.0003 0.0001
# 4 0.0000 -0.0002 0.0004 37.7012 0.0000 0.0000
# 5 -0.0001 0.0000 -0.0003 0.0000 7.2536 0.0001
# 6 0.0000 0.0001 0.0001 0.0000 0.0001 21.9776
#
#
#
# Elastic Compliance Matrix: (Units=1/GPa)
#
#
# Indices 1 2 3 4 5 6 
#
# 1 0.022218 -0.000920 -0.000712 0.000000 0.000000 0.000000
# 2 -0.000920 0.011436 -0.005103 0.000000 0.000000 0.000000
# 3 -0.000712 -0.005103 0.024946 0.000000 0.000001 0.000000
# 4 0.000000 0.000000 0.000000 0.026524 0.000000 0.000000
# 5 0.000000 0.000000 0.000001 0.000000 0.137863 0.000000
# 6 0.000000 0.000000 0.000000 0.000000 0.000000 0.045501
#
#
# Mechanical properties :
#
#
# Convention : Reuss Voigt Hill
#
# Bulk Modulus (GPa) = 22.15834 26.64413 24.40124
# Shear Modulus (GPa) = 16.83494 24.01329 20.42411
#
# Velocity S-wave (km/s) = 2.78242 3.32309 3.06470
# Velocity P-wave (km/s) = 4.52906 5.19391 4.87284
#
# Compressibility (1/GPa) = 0.04512972
#
# Stress axis : x y z
#
# Youngs Moduli (GPa) = 45.00940 87.44253 40.08654
#
# Poissons Ratio (x) = 0.08043 0.02854
# Poissons Ratio (y) = 0.04140 0.20457
# Poissons Ratio (z) = 0.03204 0.44624
#
# Static dielectric constant tensor:
#      x y z
#    x 1.779930 0.000000 0.000000 
#    y 0.000000 1.814970 0.000000 
#    z 0.000000 0.000000 1.817430 
# 
# From -- ./inp_files/3515.got.cif
#   From: 2010.05.17/outbox.cif.g08.bks.cpg/sg46_2_cif.got.tgz:3515.got - 2010.06.03 19:58:25.
