data_PCOD9379233
_publ_section_title
;
Structure prediction by ZEFSAII (Michael W. Deem and Ramdas Pophale) SiO2 
 PCOD9379233
Probable space group: I M A 2
;
_chemical_formula_sum "Si O2"
_cell_formula_units_Z 48
_cell_length_a 8.754611
_cell_length_b 14.114626
_cell_length_c 24.104525
_cell_angle_alpha 90.000000
_cell_angle_beta 90.000000
_cell_angle_gamma 90.000000
_cell_volume 2978.549392
_symmetry_space_group_name_H-M "I M A 2"
_symmetry_group_IT_number 46
_symmetry_cell_setting 'orthorhombic'
loop_
_space_group_symop_operation_xyz
x,y,z
-x,-y,z
1/2-x,y,z
1/2+x,-y,z
1/2+x,1/2+y,1/2+z
1/2-x,1/2-y,1/2+z
-x,1/2+y,1/2+z
x,1/2-y,1/2+z
loop_
_atom_site_type_symbol
_atom_site_label
_atom_site_fract_x
_atom_site_fract_y
_atom_site_fract_z
Si Si1 0.567555 0.396001 0.813810
Si Si2 0.932739 0.602941 0.150424
Si Si3 0.932636 0.395769 0.943106
Si Si4 0.066384 0.208919 0.211745
Si Si5 0.932859 0.103795 0.105257
Si Si6 0.933554 0.720826 0.041869
O O1 0.500000 0.500000 0.801608
O O2 0.750000 0.398184 0.806733
O O3 0.533859 0.375075 0.878395
O O4 0.493870 0.322845 0.771202
O O5 0.750000 0.595792 0.151098
O O6 0.976953 0.683964 0.194571
O O7 0.976627 0.645521 0.090290
O O8 0.000000 0.500000 0.160088
O O9 0.750000 0.398103 0.950305
O O10 0.000000 0.500000 0.955453
O O11 0.006082 0.319982 0.984257
O O12 0.250000 0.200879 0.208884
O O13 0.994791 0.141346 0.164571
O O14 0.750000 0.101584 0.105872
O O15 0.993091 0.180093 0.060577
O O16 0.000000 0.000000 0.094741
O O17 0.750000 0.729607 0.041758
#
# Coordination Sequence:
#
# PCOD9379233 Si02
#       6
#     8   8   8   8   8   8
#     4  10  20  33  50  73 100 131 166 204 247 295
#     4   9  19  32  48  71  98 127 159 197 239 287
#     4  10  20  33  50  74 102 132 166 204 248 297
#     4  10  20  34  50  72 101 131 165 204 248 295
#     4  11  21  34  52  74 101 132 165 202 247 296
#     4  10  20  34  51  74 102 131 165 203 245 294
#
# _framework density 16.115227000000001
#
# number of rings (size 3 to 8) (size 9 to 14) (size 15 to 20)
#    0.000    2.000    0.000    5.500    0.000    7.333 
#    0.000    0.000    0.000    1.000    0.000    2.333 
#    0.000    0.000    0.000    0.000    0.000    0.000 
#
# Total GULP energy -133987.647641 kJ/mol
# GULP energy per Si atom -5582.818652 kJ/mol
# Density = 1.607855 g / cm^3
# Si number density = 16.115227 Si / 1000 Ang^3
#
#
#
# Elastic Constant Matrix: (Units=GPa)
#
#
# Indices 1 2 3 4 5 6 
#
# 1 86.9104 61.4966 52.8753 0.0000 0.0000 0.0000
# 2 61.4966 147.1384 78.7895 0.0000 0.0000 0.0000
# 3 52.8753 78.7895 91.8349 0.0000 0.0000 0.0000
# 4 0.0000 0.0000 0.0000 22.1124 0.0000 0.0000
# 5 0.0000 0.0000 0.0000 0.0000 27.7841 0.0000
# 6 0.0000 0.0000 0.0000 0.0000 0.0000 32.2050
#
#
#
# Elastic Compliance Matrix: (Units=1/GPa)
#
#
# Indices 1 2 3 4 5 6 
#
# 1 0.018799 -0.003813 -0.007553 0.000000 0.000000 0.000000
# 2 -0.003813 0.013345 -0.009254 0.000000 0.000000 0.000000
# 3 -0.007553 -0.009254 0.023177 0.000000 0.000000 0.000000
# 4 0.000000 0.000000 0.000000 0.045223 0.000000 0.000000
# 5 0.000000 0.000000 0.000000 0.000000 0.035992 0.000000
# 6 0.000000 0.000000 0.000000 0.000000 0.000000 0.031051
#
#
# Mechanical properties :
#
#
# Convention : Reuss Voigt Hill
#
# Bulk Modulus (GPa) = 71.01164 79.13406 75.07285
# Shear Modulus (GPa) = 23.41685 25.26846 24.34265
#
# Velocity S-wave (km/s) = 3.81607 3.96408 3.89078
# Velocity P-wave (km/s) = 7.97353 8.37637 8.17743
#
# Compressibility (1/GPa) = 0.01408220
#
# Stress axis : x y z
#
# Youngs Moduli (GPa) = 53.19473 74.93220 43.14552
#
# Poissons Ratio (x) = 0.28570 0.32586
# Poissons Ratio (y) = 0.20282 0.39929
# Poissons Ratio (z) = 0.40176 0.69345
#
# Static dielectric constant tensor:
#      x y z
#    x 1.538420 0.000000 0.000000 
#    y 0.000000 1.518430 0.000000 
#    z 0.000000 0.000000 1.531760 
# 
# From -- ./inp_files/20915.got.cif
#   From: 2010.05.17/outbox.cif.g08.bks.cpg/sg46_11_cif.got.tgz:20915.got - 2010.06.03 19:58:25.
