data_PCOD9379219
_publ_section_title
;
Structure prediction by ZEFSAII (Michael W. Deem and Ramdas Pophale) SiO2 
 PCOD9379219
Probable space group: I M A 2
;
_chemical_formula_sum "Si O2"
_cell_formula_units_Z 44
_cell_length_a 17.512003
_cell_length_b 8.209992
_cell_length_c 13.672519
_cell_angle_alpha 90.000000
_cell_angle_beta 90.000000
_cell_angle_gamma 90.000000
_cell_volume 1965.744605
_symmetry_space_group_name_H-M "I M A 2"
_symmetry_group_IT_number 46
_symmetry_cell_setting 'orthorhombic'
loop_
_space_group_symop_operation_xyz
x,y,z
-x,-y,z
1/2-x,y,z
1/2+x,-y,z
1/2+x,1/2+y,1/2+z
1/2-x,1/2-y,1/2+z
-x,1/2+y,1/2+z
x,1/2-y,1/2+z
loop_
_atom_site_type_symbol
_atom_site_label
_atom_site_fract_x
_atom_site_fract_y
_atom_site_fract_z
Si Si1 0.377368 0.360126 0.839550
Si Si2 0.250000 0.074754 0.808369
Si Si3 0.992521 0.174900 0.947566
Si Si4 0.667195 0.168208 0.465142
Si Si5 0.618676 0.421787 0.183671
Si Si6 0.030237 0.234793 0.168559
O O1 0.316879 0.212601 0.836815
O O2 0.452168 0.304710 0.899039
O O3 0.341250 0.514675 0.892780
O O4 0.415381 0.381702 0.732446
O O5 0.182669 0.953627 0.763908
O O6 0.904751 0.220125 0.945629
O O7 0.000000 0.000000 0.898443
O O8 0.020191 0.170385 0.059574
O O9 0.750000 0.248128 0.452762
O O10 0.657285 0.115002 0.578387
O O11 0.554684 0.284266 0.205767
O O12 0.574549 0.592735 0.167166
#
# Coordination Sequence:
#
# PCOD9379219 Si02
#       6
#     8   4   8   8   8   8
#     4  11  22  39  67  98 127 173 220 270 330 403
#     4  10  20  32  62 102 130 164 220 270 322 380
#     4  11  25  42  63  93 132 177 222 273 329 396
#     4  11  21  42  68  96 130 169 222 276 333 397
#     4   9  17  35  62  97 129 173 216 265 325 398
#     4   9  20  37  64  90 131 176 221 264 325 396
#
# _framework density 22.383375999999998
#
# number of rings (size 3 to 8) (size 9 to 14) (size 15 to 20)
#    0.000    1.818    3.636    0.545    5.091    1.455 
#    1.636    0.000    0.000    2.182    0.000    0.000 
#    0.000    0.000    0.000    0.000    0.000    0.000 
#
# Total GULP energy -122471.670957 kJ/mol
# GULP energy per Si atom -5566.894134 kJ/mol
# Density = 2.233243 g / cm^3
# Si number density = 22.383376 Si / 1000 Ang^3
#
#
#
# Elastic Constant Matrix: (Units=GPa)
#
#
# Indices 1 2 3 4 5 6 
#
# 1 152.6253 -4.0541 21.7767 0.0000 0.0000 0.0000
# 2 -4.0541 22.0191 -7.8363 0.0000 0.0000 0.0000
# 3 21.7767 -7.8363 78.7583 0.0000 0.0000 0.0000
# 4 0.0000 0.0000 0.0000 21.1638 0.0000 0.0000
# 5 0.0000 0.0000 0.0000 0.0000 13.6465 0.0000
# 6 0.0000 0.0000 0.0000 0.0000 0.0000 25.1809
#
#
#
# Elastic Compliance Matrix: (Units=1/GPa)
#
#
# Indices 1 2 3 4 5 6 
#
# 1 0.006829 0.000607 -0.001828 0.000000 0.000000 0.000000
# 2 0.000607 0.047136 0.004522 0.000000 0.000000 0.000000
# 3 -0.001828 0.004522 0.013652 0.000000 0.000000 0.000000
# 4 0.000000 0.000000 0.000000 0.047251 0.000000 0.000000
# 5 0.000000 0.000000 0.000000 0.000000 0.073279 0.000000
# 6 0.000000 0.000000 0.000000 0.000000 0.000000 0.039713
#
#
# Mechanical properties :
#
#
# Convention : Reuss Voigt Hill
#
# Bulk Modulus (GPa) = 13.47347 30.35282 21.91314
# Shear Modulus (GPa) = 20.32545 28.23267 24.27906
#
# Velocity S-wave (km/s) = 3.01667 3.55536 3.29704
# Velocity P-wave (km/s) = 4.26219 5.51761 4.93002
#
# Compressibility (1/GPa) = 0.07421995
#
# Stress axis : x y z
#
# Youngs Moduli (GPa) = 146.43626 21.21509 73.24712
#
# Poissons Ratio (x) = -0.01287 0.13388
# Poissons Ratio (y) = -0.08886 -0.33124
# Poissons Ratio (z) = 0.26766 -0.09594
#
# Static dielectric constant tensor:
#      x y z
#    x 1.786010 0.000000 0.000000 
#    y 0.000000 1.811250 0.000000 
#    z 0.000000 0.000000 1.884980 
# 
# From -- ./inp_files/16444.got.cif
#   From: 2010.05.17/outbox.cif.g08.bks.cpg/sg46_9_cif.got.tgz:16444.got - 2010.06.03 19:58:25.
