data_PCOD9379410
_publ_section_title
;
Structure prediction by ZEFSAII (Michael W. Deem and Ramdas Pophale) SiO2 
 PCOD9379410
Probable space group: I M A 2
;
_chemical_formula_sum "Si O2"
_cell_formula_units_Z 64
_cell_length_a 8.774156
_cell_length_b 23.505441
_cell_length_c 19.458152
_cell_angle_alpha 90.000000
_cell_angle_beta 90.000000
_cell_angle_gamma 90.000000
_cell_volume 4013.057172
_symmetry_space_group_name_H-M "I M A 2"
_symmetry_group_IT_number 46
_symmetry_cell_setting 'orthorhombic'
loop_
_space_group_symop_operation_xyz
x,y,z
-x,-y,z
1/2-x,y,z
1/2+x,-y,z
1/2+x,1/2+y,1/2+z
1/2-x,1/2-y,1/2+z
-x,1/2+y,1/2+z
x,1/2-y,1/2+z
loop_
_atom_site_type_symbol
_atom_site_label
_atom_site_fract_x
_atom_site_fract_y
_atom_site_fract_z
Si Si1 0.068255 0.937150 0.722830
Si Si2 0.431020 0.062222 0.444474
Si Si3 0.930965 0.341277 0.856629
Si Si4 0.567944 0.664000 0.306409
Si Si5 0.567848 0.276735 0.435838
Si Si6 0.431914 0.248668 0.080048
Si Si7 0.931940 0.375593 0.077324
Si Si8 0.067408 0.770617 0.223888
O O1 0.250000 0.938650 0.732819
O O2 0.039204 0.909250 0.647970
O O3 0.992352 0.895858 0.778646
O O4 0.000000 0.000000 0.725174
O O5 0.250000 0.058807 0.452066
O O6 0.476167 0.105256 0.383523
O O7 0.503381 0.089178 0.513356
O O8 0.500000 0.000000 0.433212
O O9 0.750000 0.353145 0.861809
O O10 0.962733 0.286689 0.905424
O O11 0.964636 0.319807 0.779626
O O12 0.750000 0.666254 0.304866
O O13 0.506007 0.680014 0.381701
O O14 0.500524 0.712745 0.256121
O O15 0.750000 0.283909 0.437005
O O16 0.498243 0.279655 0.511360
O O17 0.250000 0.247852 0.079380
O O18 0.490687 0.313901 0.080280
O O19 0.496111 0.220628 0.149427
O O20 0.750000 0.367907 0.069211
O O21 0.250000 0.763983 0.218937
#
# Coordination Sequence:
#
# PCOD9379410 Si02
#       8
#     8   8   8   8   8   8   8   8
#     4  11  23  37  54  74 103 142 184 222 265 312
#     4  12  24  36  53  74 104 140 182 222 262 309
#     4   9  19  35  54  74 100 135 176 217 262 310
#     4  11  21  34  53  77 105 135 177 223 263 310
#     4  10  20  35  55  75 105 140 173 214 266 319
#     4  12  22  32  52  81 109 139 177 217 261 313
#     4  11  22  36  52  72 106 143 181 219 258 308
#     4  10  20  35  54  75 104 140 174 213 266 318
#
# _framework density 15.947941
#
# number of rings (size 3 to 8) (size 9 to 14) (size 15 to 20)
#    0.000    1.250    2.500    6.000    0.000    5.000 
#    0.000    0.000    0.000    0.000    0.000    0.875 
#    0.000    4.000    0.000    0.000    0.000    0.000 
#
# Total GULP energy -178850.149758 kJ/mol
# GULP energy per Si atom -5589.067180 kJ/mol
# Density = 1.591164 g / cm^3
# Si number density = 15.947941 Si / 1000 Ang^3
#
#
#
# Elastic Constant Matrix: (Units=GPa)
#
#
# Indices 1 2 3 4 5 6 
#
# 1 109.9055 52.4433 70.3647 0.0000 0.0000 0.0000
# 2 52.4433 71.7727 51.6838 0.0000 0.0000 0.0000
# 3 70.3647 51.6838 142.4021 0.0000 0.0000 0.0000
# 4 0.0000 0.0000 0.0000 16.2652 0.0000 0.0000
# 5 0.0000 0.0000 0.0000 0.0000 25.3562 0.0000
# 6 0.0000 0.0000 0.0000 0.0000 0.0000 25.9655
#
#
#
# Elastic Compliance Matrix: (Units=1/GPa)
#
#
# Indices 1 2 3 4 5 6 
#
# 1 0.016265 -0.008254 -0.005041 0.000000 0.000000 0.000000
# 2 -0.008254 0.023052 -0.004288 0.000000 0.000000 0.000000
# 3 -0.005041 -0.004288 0.011069 0.000000 0.000000 0.000000
# 4 0.000000 0.000000 0.000000 0.061481 0.000000 0.000000
# 5 0.000000 0.000000 0.000000 0.000000 0.039438 0.000000
# 6 0.000000 0.000000 0.000000 0.000000 0.000000 0.038513
#
#
# Mechanical properties :
#
#
# Convention : Reuss Voigt Hill
#
# Bulk Modulus (GPa) = 65.70396 74.78491 70.24444
# Shear Modulus (GPa) = 21.73365 23.48993 22.61179
#
# Velocity S-wave (km/s) = 3.69560 3.84202 3.76952
# Velocity P-wave (km/s) = 7.71352 8.16556 7.94276
#
# Compressibility (1/GPa) = 0.01521978
#
# Stress axis : x y z
#
# Youngs Moduli (GPa) = 61.48208 43.38026 90.33836
#
# Poissons Ratio (x) = 0.35808 0.45540
# Poissons Ratio (y) = 0.50750 0.38735
# Poissons Ratio (z) = 0.30993 0.18601
#
# Static dielectric constant tensor:
#      x y z
#    x 1.527360 0.000000 0.000000 
#    y 0.000000 1.504440 0.000000 
#    z 0.000000 0.000000 1.537030 
# 
# From -- ./inp_files/18582.got.cif
#   From: 2010.05.17/outbox.cif.g08.bks.cpg/sg46_10_cif.got.tgz:18582.got - 2010.06.03 19:58:25.
