data_PCOD9379833
_publ_section_title
;
Structure prediction by ZEFSAII (Michael W. Deem and Ramdas Pophale) SiO2 
 PCOD9379833
Probable space group: I M A 2
;
_chemical_formula_sum "Si O2"
_cell_formula_units_Z 36
_cell_length_a 10.874685
_cell_length_b 28.687821
_cell_length_c 5.070559
_cell_angle_alpha 90.000000
_cell_angle_beta 90.000000
_cell_angle_gamma 90.000000
_cell_volume 1581.867447
_symmetry_space_group_name_H-M "I M A 2"
_symmetry_group_IT_number 46
_symmetry_cell_setting 'orthorhombic'
loop_
_space_group_symop_operation_xyz
x,y,z
-x,-y,z
1/2-x,y,z
1/2+x,-y,z
1/2+x,1/2+y,1/2+z
1/2-x,1/2-y,1/2+z
-x,1/2+y,1/2+z
x,1/2-y,1/2+z
loop_
_atom_site_type_symbol
_atom_site_label
_atom_site_fract_x
_atom_site_fract_y
_atom_site_fract_z
Si Si1 0.750000 0.914752 0.497780
Si Si2 0.250000 0.284448 0.729400
Si Si3 0.006734 0.603672 0.191271
Si Si4 0.016062 0.838786 0.211391
Si Si5 0.000000 0.000000 0.858450
Si Si6 0.250000 0.777503 0.195118
Si Si7 0.750000 0.971665 0.000127
O O1 0.631482 0.888446 0.590510
O O2 0.750000 0.960363 0.686924
O O3 0.750000 0.927473 0.192787
O O4 0.250000 0.248104 0.487390
O O5 0.379792 0.314094 0.720968
O O6 0.014885 0.621654 0.486528
O O7 0.022163 0.547669 0.194514
O O8 0.070125 0.636039 0.975534
O O9 0.122216 0.802989 0.129452
O O10 0.879494 0.995734 0.040013
O O11 0.250000 0.766953 0.504844
#
# Coordination Sequence:
#
# PCOD9379833 Si02
#       7
#     4   4   8   8   4   4   4
#     4  10  20  39  61  88 126 171 212 270 332 372
#     4  12  24  44  72 101 128 163 218 278 341 412
#     4  11  23  41  65  97 136 177 226 271 322 383
#     4  12  25  42  69 101 133 171 221 277 328 397
#     4  10  24  42  64  94 136 186 226 270 324 384
#     4  12  26  48  70  95 136 177 212 267 352 413
#     4  10  22  37  61  88 120 171 230 269 313 371
#
# _framework density 22.757914
#
# number of rings (size 3 to 8) (size 9 to 14) (size 15 to 20)
#    0.000    0.889    0.000    8.000    0.000    9.778 
#    0.000    0.000    0.000    1.333    0.000    0.000 
#    0.000    0.000    0.000    0.000    0.000    0.000 
#
# Total GULP energy -100363.956894 kJ/mol
# GULP energy per Si atom -5575.775383 kJ/mol
# Density = 2.270612 g / cm^3
# Si number density = 22.757914 Si / 1000 Ang^3
#
#
#
# Elastic Constant Matrix: (Units=GPa)
#
#
# Indices 1 2 3 4 5 6 
#
# 1 122.7416 29.9290 6.9249 0.0111 -0.0137 0.0049
# 2 29.9290 111.4812 45.7911 0.0056 -0.0017 -0.0089
# 3 6.9249 45.7911 87.3569 0.0041 -0.0114 -0.0173
# 4 0.0111 0.0056 0.0041 39.9500 0.0029 -0.0113
# 5 -0.0137 -0.0017 -0.0114 0.0029 25.3291 0.0006
# 6 0.0049 -0.0089 -0.0173 -0.0113 0.0006 32.3985
#
#
#
# Elastic Compliance Matrix: (Units=1/GPa)
#
#
# Indices 1 2 3 4 5 6 
#
# 1 0.008750 -0.002631 0.000685 -0.000002 0.000005 -0.000002
# 2 -0.002631 0.012222 -0.006198 0.000000 -0.000003 0.000000
# 3 0.000685 -0.006198 0.014642 -0.000001 0.000007 0.000006
# 4 -0.000002 0.000000 -0.000001 0.025031 -0.000003 0.000009
# 5 0.000005 -0.000003 0.000007 -0.000003 0.039480 -0.000001
# 6 -0.000002 0.000000 0.000006 0.000009 -0.000001 0.030866
#
#
# Mechanical properties :
#
#
# Convention : Reuss Voigt Hill
#
# Bulk Modulus (GPa) = 51.74042 54.09665 52.91853
# Shear Modulus (GPa) = 32.52652 35.46451 33.99552
#
# Velocity S-wave (km/s) = 3.78463 3.95186 3.86915
# Velocity P-wave (km/s) = 6.47166 6.68169 6.57752
#
# Compressibility (1/GPa) = 0.01932725
#
# Stress axis : x y z
#
# Youngs Moduli (GPa) = 114.28617 81.81792 68.29681
#
# Poissons Ratio (x) = 0.21523 -0.04680
# Poissons Ratio (y) = 0.30064 0.42332
# Poissons Ratio (z) = -0.07832 0.50712
#
# Static dielectric constant tensor:
#      x y z
#    x 1.857530 0.000050 -0.000040 
#    y 0.000050 1.905240 0.000000 
#    z -0.000040 0.000000 1.872190 
# 
# From -- ./inp_files/779.got.cif
#   From: 2010.05.17/outbox.cif.g08.bks.cpg/sg46_1_cif.got.tgz:779.got - 2010.06.03 19:58:25.
