data_PCOD9379008
_publ_section_title
;
Structure prediction by ZEFSAII (Michael W. Deem and Ramdas Pophale) SiO2 
 PCOD9379008
Probable space group: I M A 2
;
_chemical_formula_sum "Si O2"
_cell_formula_units_Z 40
_cell_length_a 10.174965
_cell_length_b 22.523723
_cell_length_c 8.501078
_cell_angle_alpha 90.000000
_cell_angle_beta 90.000000
_cell_angle_gamma 90.000000
_cell_volume 1948.260846
_symmetry_space_group_name_H-M "I M A 2"
_symmetry_group_IT_number 46
_symmetry_cell_setting 'orthorhombic'
loop_
_space_group_symop_operation_xyz
x,y,z
-x,-y,z
1/2-x,y,z
1/2+x,-y,z
1/2+x,1/2+y,1/2+z
1/2-x,1/2-y,1/2+z
-x,1/2+y,1/2+z
x,1/2-y,1/2+z
loop_
_atom_site_type_symbol
_atom_site_label
_atom_site_fract_x
_atom_site_fract_y
_atom_site_fract_z
Si Si1 0.896763 0.820254 0.328700
Si Si2 0.092464 0.442534 0.267077
Si Si3 0.400119 0.051203 0.388378
Si Si4 0.108857 0.656329 0.368200
Si Si5 0.965034 0.246072 0.599830
O O1 0.750000 0.819896 0.394164
O O2 0.926891 0.888519 0.293861
O O3 0.995559 0.796240 0.458127
O O4 0.909594 0.775509 0.184643
O O5 0.250000 0.447082 0.306848
O O6 0.000000 0.500000 0.302890
O O7 0.015954 0.386775 0.344861
O O8 0.086834 0.435355 0.076029
O O9 0.250000 0.032567 0.361329
O O10 0.500000 0.000000 0.346356
O O11 0.250000 0.624132 0.359341
O O12 0.103687 0.696367 0.525111
O O13 0.103881 0.704907 0.227798
#
# Coordination Sequence:
#
# PCOD9379008 Si02
#       5
#     8   8   8   8   8
#     4  10  19  35  57  85 116 148 191 241 290 346
#     4  10  20  36  59  87 116 150 194 241 290 344
#     4   9  18  34  54  83 112 144 186 232 280 338
#     4  11  22  39  59  85 119 156 196 241 289 345
#     4  10  22  36  56  84 116 156 194 237 291 345
#
# _framework density 20.531131999999999
#
# number of rings (size 3 to 8) (size 9 to 14) (size 15 to 20)
#    0.000    2.000    2.000    1.800    0.000    4.800 
#    0.000    3.000    0.000    2.400    0.000    0.000 
#    0.000    0.000    0.000    0.000    0.000    0.000 
#
# Total GULP energy -111447.453777 kJ/mol
# GULP energy per Si atom -5572.372689 kJ/mol
# Density = 2.048440 g / cm^3
# Si number density = 20.531132 Si / 1000 Ang^3
#
#
#
# Elastic Constant Matrix: (Units=GPa)
#
#
# Indices 1 2 3 4 5 6 
#
# 1 130.6608 65.4908 3.6429 0.0001 0.0000 0.0000
# 2 65.4908 97.4686 2.4635 -0.0001 0.0000 0.0000
# 3 3.6429 2.4635 15.7854 0.0002 -0.0001 -0.0001
# 4 0.0001 -0.0001 0.0002 22.7061 0.0000 0.0000
# 5 0.0000 0.0000 -0.0001 0.0000 7.7798 0.0000
# 6 0.0000 0.0000 -0.0001 0.0000 0.0000 26.8901
#
#
#
# Elastic Compliance Matrix: (Units=1/GPa)
#
#
# Indices 1 2 3 4 5 6 
#
# 1 0.011573 -0.007739 -0.001463 0.000000 0.000000 0.000000
# 2 -0.007739 0.015476 -0.000629 0.000000 0.000000 0.000000
# 3 -0.001463 -0.000629 0.063786 -0.000001 0.000001 0.000000
# 4 0.000000 0.000000 -0.000001 0.044041 0.000000 0.000000
# 5 0.000000 0.000000 0.000001 0.000000 0.128538 0.000000
# 6 0.000000 0.000000 0.000000 0.000000 0.000000 0.037188
#
#
# Mechanical properties :
#
#
# Convention : Reuss Voigt Hill
#
# Bulk Modulus (GPa) = 14.05051 43.01210 28.53131
# Shear Modulus (GPa) = 14.53532 22.96303 18.74918
#
# Velocity S-wave (km/s) = 2.66365 3.34795 3.02521
# Velocity P-wave (km/s) = 4.03960 5.99502 5.11168
#
# Compressibility (1/GPa) = 0.07117179
#
# Stress axis : x y z
#
# Youngs Moduli (GPa) = 86.40521 64.61691 15.67752
#
# Poissons Ratio (x) = 0.50009 0.02294
# Poissons Ratio (y) = 0.66872 0.00986
# Poissons Ratio (z) = 0.12641 0.04065
#
# Static dielectric constant tensor:
#      x y z
#    x 1.761960 0.000000 0.000000 
#    y 0.000000 1.725530 0.000000 
#    z 0.000000 0.000000 1.732420 
# 
# From -- ./inp_files/3527.got.cif
#   From: 2010.05.17/outbox.cif.g08.bks.cpg/sg46_2_cif.got.tgz:3527.got - 2010.06.03 19:58:25.
