data_PCOD9379818
_publ_section_title
;
Structure prediction by ZEFSAII (Michael W. Deem and Ramdas Pophale) SiO2 
 PCOD9379818
Probable space group: I M A 2
;
_chemical_formula_sum "Si O2"
_cell_formula_units_Z 64
_cell_length_a 13.627423
_cell_length_b 18.323337
_cell_length_c 12.169580
_cell_angle_alpha 90.000000
_cell_angle_beta 90.000000
_cell_angle_gamma 90.000000
_cell_volume 3038.742472
_symmetry_space_group_name_H-M "I M A 2"
_symmetry_group_IT_number 46
_symmetry_cell_setting 'orthorhombic'
loop_
_space_group_symop_operation_xyz
x,y,z
-x,-y,z
1/2-x,y,z
1/2+x,-y,z
1/2+x,1/2+y,1/2+z
1/2-x,1/2-y,1/2+z
-x,1/2+y,1/2+z
x,1/2-y,1/2+z
loop_
_atom_site_type_symbol
_atom_site_label
_atom_site_fract_x
_atom_site_fract_y
_atom_site_fract_z
Si Si1 0.535197 0.277161 0.489400
Si Si2 0.132394 0.298094 0.635320
Si Si3 0.367282 0.595309 0.141181
Si Si4 0.130941 0.888777 0.158631
Si Si5 0.520681 0.681645 0.256758
Si Si6 0.132531 0.629350 0.908924
Si Si7 0.631369 0.541026 0.550321
Si Si8 0.867440 0.540712 0.294999
O O1 0.425600 0.260192 0.534149
O O2 0.589915 0.324097 0.582454
O O3 0.520252 0.323107 0.379131
O O4 0.593846 0.207386 0.448141
O O5 0.250000 0.288994 0.636276
O O6 0.079491 0.256649 0.735987
O O7 0.109044 0.383903 0.615415
O O8 0.250000 0.607807 0.149516
O O9 0.428512 0.666304 0.177874
O O10 0.394771 0.530951 0.225499
O O11 0.391296 0.577943 0.013721
O O12 0.250000 0.884501 0.156358
O O13 0.097440 0.886029 0.285633
O O14 0.100337 0.966193 0.107317
O O15 0.593670 0.614199 0.239532
O O16 0.250000 0.630851 0.902000
O O17 0.750000 0.539498 0.548361
O O18 0.600801 0.540473 0.422596
O O19 0.750000 0.542724 0.295047
#
# Coordination Sequence:
#
# PCOD9379818 Si02
#       8
#     8   8   8   8   8   8   8   8
#     4  12  23  40  64  95 128 169 217 269 325 385
#     4  11  24  42  63  92 129 169 216 273 328 387
#     4  10  22  39  62  95 133 168 209 266 330 390
#     4  10  22  41  68  98 131 171 214 267 332 394
#     4  12  23  39  66  93 132 167 220 267 333 389
#     4  10  22  41  64  94 135 170 208 264 324 401
#     4   9  19  40  66  95 127 165 218 273 326 385
#     4  10  20  38  66  96 127 167 218 276 327 386
#
# _framework density 21.061343000000001
#
# number of rings (size 3 to 8) (size 9 to 14) (size 15 to 20)
#    0.000    1.500    2.500    2.625    0.000    3.000 
#    0.000    1.250    2.750    3.000    0.000    0.000 
#    0.000    0.000    0.000    0.000    0.000    0.000 
#
# Total GULP energy -178626.680131 kJ/mol
# GULP energy per Si atom -5582.083754 kJ/mol
# Density = 2.101341 g / cm^3
# Si number density = 21.061343 Si / 1000 Ang^3
#
#
#
# Elastic Constant Matrix: (Units=GPa)
#
#
# Indices 1 2 3 4 5 6 
#
# 1 63.7439 27.2998 41.4491 0.0000 0.0000 0.0000
# 2 27.2998 122.0420 68.0619 0.0000 0.0000 0.0000
# 3 41.4491 68.0619 158.4970 0.0000 0.0000 0.0000
# 4 0.0000 0.0000 0.0000 35.4219 0.0000 0.0000
# 5 0.0000 0.0000 0.0000 0.0000 20.5828 0.0000
# 6 0.0000 0.0000 0.0000 0.0000 0.0000 33.1643
#
#
#
# Elastic Compliance Matrix: (Units=1/GPa)
#
#
# Indices 1 2 3 4 5 6 
#
# 1 0.019256 -0.001971 -0.004189 0.000000 0.000000 0.000000
# 2 -0.001971 0.010976 -0.004198 0.000000 0.000000 0.000000
# 3 -0.004189 -0.004198 0.009207 0.000000 0.000000 0.000000
# 4 0.000000 0.000000 0.000000 0.028231 0.000000 0.000000
# 5 0.000000 0.000000 0.000000 0.000000 0.048584 0.000000
# 6 0.000000 0.000000 0.000000 0.000000 0.000000 0.030153
#
#
# Mechanical properties :
#
#
# Convention : Reuss Voigt Hill
#
# Bulk Modulus (GPa) = 53.41025 68.65604 61.03314
# Shear Modulus (GPa) = 28.84089 31.66529 30.25309
#
# Velocity S-wave (km/s) = 3.70452 3.88168 3.79413
# Velocity P-wave (km/s) = 6.61154 7.26353 6.94519
#
# Compressibility (1/GPa) = 0.01872300
#
# Stress axis : x y z
#
# Youngs Moduli (GPa) = 51.93189 91.10867 108.60769
#
# Poissons Ratio (x) = 0.17958 0.45499
# Poissons Ratio (y) = 0.10236 0.45592
# Poissons Ratio (z) = 0.21756 0.38246
#
# Static dielectric constant tensor:
#      x y z
#    x 1.775430 0.000000 0.000000 
#    y 0.000000 1.758130 0.000000 
#    z 0.000000 0.000000 1.800410 
# 
# From -- ./inp_files/11304.got.cif
#   From: 2010.05.17/outbox.cif.g08.bks.cpg/sg46_6_cif.got.tgz:11304.got - 2010.06.03 19:58:25.
