data_PCOD9379873
_publ_section_title
;
Structure prediction by ZEFSAII (Michael W. Deem and Ramdas Pophale) SiO2 
 PCOD9379873
Probable space group: I M A 2
;
_chemical_formula_sum "Si O2"
_cell_formula_units_Z 44
_cell_length_a 18.087368
_cell_length_b 12.908725
_cell_length_c 8.676603
_cell_angle_alpha 90.000000
_cell_angle_beta 90.000000
_cell_angle_gamma 90.000000
_cell_volume 2025.855432
_symmetry_space_group_name_H-M "I M A 2"
_symmetry_group_IT_number 46
_symmetry_cell_setting 'orthorhombic'
loop_
_space_group_symop_operation_xyz
x,y,z
-x,-y,z
1/2-x,y,z
1/2+x,-y,z
1/2+x,1/2+y,1/2+z
1/2-x,1/2-y,1/2+z
-x,1/2+y,1/2+z
x,1/2-y,1/2+z
loop_
_atom_site_type_symbol
_atom_site_label
_atom_site_fract_x
_atom_site_fract_y
_atom_site_fract_z
Si Si1 0.833238 0.363241 0.270610
Si Si2 0.504126 0.853284 0.344258
Si Si3 0.364857 0.397864 0.230449
Si Si4 0.000000 0.000000 0.594347
Si Si5 0.076404 0.704754 0.553050
Si Si6 0.333415 0.299901 0.903907
O O1 0.750000 0.324060 0.264005
O O2 0.834044 0.485713 0.233785
O O3 0.865776 0.351103 0.442108
O O4 0.881539 0.292832 0.154369
O O5 0.462146 0.929380 0.463934
O O6 0.484622 0.747483 0.433439
O O7 0.466467 0.861437 0.180157
O O8 0.593257 0.856290 0.334492
O O9 0.450912 0.424175 0.195925
O O10 0.346386 0.322375 0.371175
O O11 0.337616 0.333224 0.082253
O O12 0.250000 0.326156 0.848264
#
# Coordination Sequence:
#
# PCOD9379873 Si02
#       6
#     8   8   8   4   8   8
#     4  11  22  42  67  94 133 173 219 276 334 397
#     4  10  20  40  62  93 131 168 224 273 325 397
#     4  11  24  43  68  96 135 175 227 268 338 394
#     4  10  20  40  66  96 124 176 216 276 320 396
#     4  10  22  39  64  97 128 172 219 275 333 393
#     4  11  23  41  67  97 136 178 220 275 335 396
#
# _framework density 21.719218000000001
#
# number of rings (size 3 to 8) (size 9 to 14) (size 15 to 20)
#    0.000    1.455    1.818    4.364    2.545    0.000 
#    9.818    0.000    0.000    0.000    0.000    0.000 
#    0.000    0.000    0.000    0.000    0.000    0.000 
#
# Total GULP energy -122517.157101 kJ/mol
# GULP energy per Si atom -5568.961686 kJ/mol
# Density = 2.166978 g / cm^3
# Si number density = 21.719218 Si / 1000 Ang^3
#
#
#
# Elastic Constant Matrix: (Units=GPa)
#
#
# Indices 1 2 3 4 5 6 
#
# 1 135.1530 35.2390 57.0677 0.0000 0.0000 0.0000
# 2 35.2390 84.1662 41.5199 0.0000 0.0000 0.0000
# 3 57.0677 41.5199 105.7395 0.0000 0.0000 0.0000
# 4 0.0000 0.0000 0.0000 39.0320 0.0000 0.0000
# 5 0.0000 0.0000 0.0000 0.0000 13.0306 0.0000
# 6 0.0000 0.0000 0.0000 0.0000 0.0000 20.0546
#
#
#
# Elastic Compliance Matrix: (Units=1/GPa)
#
#
# Indices 1 2 3 4 5 6 
#
# 1 0.009811 -0.001855 -0.004567 0.000000 0.000000 0.000000
# 2 -0.001855 0.015086 -0.004923 0.000000 0.000000 0.000000
# 3 -0.004567 -0.004923 0.013855 0.000000 0.000000 0.000000
# 4 0.000000 0.000000 0.000000 0.025620 0.000000 0.000000
# 5 0.000000 0.000000 0.000000 0.000000 0.076743 0.000000
# 6 0.000000 0.000000 0.000000 0.000000 0.000000 0.049864
#
#
# Mechanical properties :
#
#
# Convention : Reuss Voigt Hill
#
# Bulk Modulus (GPa) = 62.25297 65.85690 64.05493
# Shear Modulus (GPa) = 22.82883 27.17223 25.00053
#
# Velocity S-wave (km/s) = 3.24557 3.54088 3.39644
# Velocity P-wave (km/s) = 6.53986 6.86330 6.70353
#
# Compressibility (1/GPa) = 0.01606349
#
# Stress axis : x y z
#
# Youngs Moduli (GPa) = 101.92759 66.28532 72.17736
#
# Poissons Ratio (x) = 0.12295 0.32960
# Poissons Ratio (y) = 0.18907 0.35531
# Poissons Ratio (z) = 0.46546 0.32630
#
# Static dielectric constant tensor:
#      x y z
#    x 1.860500 0.000000 0.000000 
#    y 0.000000 1.921310 0.000000 
#    z 0.000000 0.000000 1.766940 
# 
# From -- ./inp_files/6521.got.cif
#   From: 2010.05.17/outbox.cif.g08.bks.cpg/sg46_4_cif.got.tgz:6521.got - 2010.06.03 19:58:25.
