data_PCOD9379479
_publ_section_title
;
Structure prediction by ZEFSAII (Michael W. Deem and Ramdas Pophale) SiO2 
 PCOD9379479
Probable space group: I M A 2
;
_chemical_formula_sum "Si O2"
_cell_formula_units_Z 64
_cell_length_a 16.298144
_cell_length_b 8.605065
_cell_length_c 24.405935
_cell_angle_alpha 90.000000
_cell_angle_beta 90.000000
_cell_angle_gamma 90.000000
_cell_volume 3422.849123
_symmetry_space_group_name_H-M "I M A 2"
_symmetry_group_IT_number 46
_symmetry_cell_setting 'orthorhombic'
loop_
_space_group_symop_operation_xyz
x,y,z
-x,-y,z
1/2-x,y,z
1/2+x,-y,z
1/2+x,1/2+y,1/2+z
1/2-x,1/2-y,1/2+z
-x,1/2+y,1/2+z
x,1/2-y,1/2+z
loop_
_atom_site_type_symbol
_atom_site_label
_atom_site_fract_x
_atom_site_fract_y
_atom_site_fract_z
Si Si1 0.592797 0.807050 0.411900
Si Si2 0.658217 0.296095 0.531285
Si Si3 0.841326 0.304714 0.298913
Si Si4 0.842457 0.819470 0.798086
Si Si5 0.490326 0.815151 0.602614
Si Si6 0.918112 0.606017 0.517828
Si Si7 0.500294 0.310544 0.228868
Si Si8 0.396657 0.670094 0.913474
O O1 0.636619 0.742163 0.358337
O O2 0.608525 0.700830 0.464585
O O3 0.493979 0.803814 0.404868
O O4 0.617194 0.986095 0.419796
O O5 0.750000 0.242928 0.540569
O O6 0.596178 0.224498 0.574890
O O7 0.648959 0.481494 0.535289
O O8 0.630979 0.250053 0.469741
O O9 0.750000 0.260865 0.278524
O O10 0.844711 0.492602 0.300553
O O11 0.852920 0.238171 0.359969
O O12 0.919081 0.255489 0.261946
O O13 0.750000 0.773336 0.781698
O O14 0.915566 0.763587 0.758354
O O15 0.556095 0.725576 0.565119
O O16 0.495771 0.763378 0.665542
O O17 0.500000 0.000000 0.599894
O O18 0.000000 0.500000 0.506390
O O19 0.500000 0.500000 0.229864
#
# Coordination Sequence:
#
# PCOD9379479 Si02
#       8
#     8   8   8   8   8   8   8   8
#     4  11  21  34  58  86 116 152 190 237 293 348
#     4  11  23  38  59  87 118 152 194 242 289 346
#     4  10  20  35  58  86 116 153 194 232 280 349
#     4  10  21  36  58  87 116 149 194 239 285 345
#     4  10  20  39  63  87 110 152 199 241 293 348
#     4  10  20  36  59  81 113 151 191 230 282 350
#     4   9  19  36  60  84 113 151 193 240 292 335
#     4  11  21  35  56  87 119 153 190 235 293 348
#
# _framework density 18.697873000000001
#
# number of rings (size 3 to 8) (size 9 to 14) (size 15 to 20)
#    0.000    1.750    3.750    1.875    0.000    3.000 
#    0.000    8.125    0.000    0.000    0.000    0.000 
#    0.000    0.000    0.000    0.000    0.000    0.000 
#
# Total GULP energy -178634.061539 kJ/mol
# GULP energy per Si atom -5582.314423 kJ/mol
# Density = 1.865532 g / cm^3
# Si number density = 18.697873 Si / 1000 Ang^3
#
#
#
# Elastic Constant Matrix: (Units=GPa)
#
#
# Indices 1 2 3 4 5 6 
#
# 1 124.0506 32.8166 72.9117 0.0000 0.0000 0.0000
# 2 32.8166 51.9833 37.3637 0.0000 0.0000 0.0000
# 3 72.9117 37.3637 152.4661 0.0000 0.0000 0.0000
# 4 0.0000 0.0000 0.0000 26.1616 0.0000 0.0000
# 5 0.0000 0.0000 0.0000 0.0000 5.0333 0.0000
# 6 0.0000 0.0000 0.0000 0.0000 0.0000 13.3565
#
#
#
# Elastic Compliance Matrix: (Units=1/GPa)
#
#
# Indices 1 2 3 4 5 6 
#
# 1 0.011910 -0.004157 -0.004677 0.000000 0.000000 0.000000
# 2 -0.004157 0.024801 -0.004090 0.000000 0.000000 0.000000
# 3 -0.004677 -0.004090 0.009798 0.000000 0.000000 0.000000
# 4 0.000000 0.000000 0.000000 0.038224 0.000000 0.000000
# 5 0.000000 0.000000 0.000000 0.000000 0.198678 0.000000
# 6 0.000000 0.000000 0.000000 0.000000 0.000000 0.074870
#
#
# Mechanical properties :
#
#
# Convention : Reuss Voigt Hill
#
# Bulk Modulus (GPa) = 48.40023 68.29822 58.34922
# Shear Modulus (GPa) = 12.78725 21.27079 17.02902
#
# Velocity S-wave (km/s) = 2.61796 3.37650 3.02113
# Velocity P-wave (km/s) = 5.92283 7.19775 6.59119
#
# Compressibility (1/GPa) = 0.02066106
#
# Stress axis : x y z
#
# Youngs Moduli (GPa) = 83.96524 40.32122 102.06651
#
# Poissons Ratio (x) = 0.16762 0.47733
# Poissons Ratio (y) = 0.34905 0.41743
# Poissons Ratio (z) = 0.39268 0.16490
#
# Static dielectric constant tensor:
#      x y z
#    x 1.678920 0.000000 0.000000 
#    y 0.000000 1.648440 0.000000 
#    z 0.000000 0.000000 1.610930 
# 
# From -- ./inp_files/23654.got.cif
#   From: 2010.05.17/outbox.cif.g08.bks.cpg/sg46_12_cif.got.tgz:23654.got - 2010.06.03 19:58:25.
