data_PCOD9379980
_publ_section_title
;
Structure prediction by ZEFSAII (Michael W. Deem and Ramdas Pophale) SiO2 
 PCOD9379980
Probable space group: I M A 2
;
_chemical_formula_sum "Si O2"
_cell_formula_units_Z 56
_cell_length_a 16.830382
_cell_length_b 9.953578
_cell_length_c 14.279895
_cell_angle_alpha 90.000000
_cell_angle_beta 90.000000
_cell_angle_gamma 90.000000
_cell_volume 2392.203996
_symmetry_space_group_name_H-M "I M A 2"
_symmetry_group_IT_number 46
_symmetry_cell_setting 'orthorhombic'
loop_
_space_group_symop_operation_xyz
x,y,z
-x,-y,z
1/2-x,y,z
1/2+x,-y,z
1/2+x,1/2+y,1/2+z
1/2-x,1/2-y,1/2+z
-x,1/2+y,1/2+z
x,1/2-y,1/2+z
loop_
_atom_site_type_symbol
_atom_site_label
_atom_site_fract_x
_atom_site_fract_y
_atom_site_fract_z
Si Si1 0.633156 0.727508 0.918600
Si Si2 0.654692 0.355907 0.360236
Si Si3 0.963249 0.359930 0.870047
Si Si4 0.340428 0.494683 0.536899
Si Si5 0.337481 0.543044 0.018108
Si Si6 0.341564 0.182226 0.202173
Si Si7 0.592586 0.530196 0.203353
O O1 0.538171 0.725966 0.903977
O O2 0.661023 0.677652 0.815375
O O3 0.658584 0.864635 0.968232
O O4 0.661589 0.612561 0.988827
O O5 0.750000 0.335013 0.355132
O O6 0.600187 0.235816 0.318193
O O7 0.628530 0.388111 0.467986
O O8 0.631499 0.486709 0.300502
O O9 0.000000 0.500000 0.829061
O O10 0.910076 0.403777 0.957593
O O11 0.250000 0.535836 0.556332
O O12 0.371964 0.441149 0.637375
O O13 0.250000 0.599285 0.997335
O O14 0.359595 0.552535 0.125720
O O15 0.250000 0.206357 0.172614
O O16 0.394212 0.313046 0.184429
O O17 0.500000 0.500000 0.201644
#
# Coordination Sequence:
#
# PCOD9379980 Si02
#       7
#     8   8   8   8   8   8   8
#     4  11  20  37  64  93 131 176 227 281 343 412
#     4  11  23  42  66  98 139 182 230 289 356 421
#     4  10  24  43  63  88 125 173 230 290 356 415
#     4  10  21  35  60  97 136 174 223 283 343 409
#     4  11  22  40  65  91 125 174 230 287 347 422
#     4  11  21  36  61  98 136 176 230 281 341 421
#     4  12  23  36  62  99 136 177 230 290 343 412
#
# _framework density 23.409374
#
# number of rings (size 3 to 8) (size 9 to 14) (size 15 to 20)
#    0.000    1.143    2.857    5.143    0.000    0.000 
#    0.000    2.857    3.143    3.429    0.000    0.000 
#    0.000    0.000    0.000    0.000    0.000    0.000 
#
# Total GULP energy -156195.708035 kJ/mol
# GULP energy per Si atom -5578.418144 kJ/mol
# Density = 2.335609 g / cm^3
# Si number density = 23.409374 Si / 1000 Ang^3
#
#
#
# Elastic Constant Matrix: (Units=GPa)
#
#
# Indices 1 2 3 4 5 6 
#
# 1 149.4792 16.3161 12.6437 0.0000 0.0000 0.0000
# 2 16.3161 66.5420 4.4463 0.0000 0.0000 0.0000
# 3 12.6437 4.4463 104.9470 0.0000 0.0000 0.0000
# 4 0.0000 0.0000 0.0000 24.5157 0.0000 0.0000
# 5 0.0000 0.0000 0.0000 0.0000 19.0714 0.0000
# 6 0.0000 0.0000 0.0000 0.0000 0.0000 22.1055
#
#
#
# Elastic Compliance Matrix: (Units=1/GPa)
#
#
# Indices 1 2 3 4 5 6 
#
# 1 0.006935 -0.001649 -0.000766 0.000000 0.000000 0.000000
# 2 -0.001649 0.015463 -0.000456 0.000000 0.000000 0.000000
# 3 -0.000766 -0.000456 0.009640 0.000000 0.000000 0.000000
# 4 0.000000 0.000000 0.000000 0.040790 0.000000 0.000000
# 5 0.000000 0.000000 0.000000 0.000000 0.052434 0.000000
# 6 0.000000 0.000000 0.000000 0.000000 0.000000 0.045238
#
#
# Mechanical properties :
#
#
# Convention : Reuss Voigt Hill
#
# Bulk Modulus (GPa) = 38.02952 43.08671 40.55812
# Shear Modulus (GPa) = 27.02590 32.30933 29.66762
#
# Velocity S-wave (km/s) = 3.40147 3.71912 3.56383
# Velocity P-wave (km/s) = 5.63092 6.07356 5.85643
#
# Compressibility (1/GPa) = 0.02629536
#
# Stress axis : x y z
#
# Youngs Moduli (GPa) = 144.20299 64.67054 103.73232
#
# Poissons Ratio (x) = 0.10666 0.07942
# Poissons Ratio (y) = 0.23782 0.04735
# Poissons Ratio (z) = 0.11040 0.02952
#
# Static dielectric constant tensor:
#      x y z
#    x 1.849410 0.000000 0.000000 
#    y 0.000000 1.976340 0.000000 
#    z 0.000000 0.000000 1.907110 
# 
# From -- ./inp_files/15979.got.cif
#   From: 2010.05.17/outbox.cif.g08.bks.cpg/sg46_8_cif.got.tgz:15979.got - 2010.06.03 19:58:25.
