data_PCOD9379312
_publ_section_title
;
Structure prediction by ZEFSAII (Michael W. Deem and Ramdas Pophale) SiO2 
 PCOD9379312
Probable space group: I M A 2
;
_chemical_formula_sum "Si O2"
_cell_formula_units_Z 64
_cell_length_a 14.891656
_cell_length_b 12.987124
_cell_length_c 14.780531
_cell_angle_alpha 90.000000
_cell_angle_beta 90.000000
_cell_angle_gamma 90.000000
_cell_volume 2858.551489
_symmetry_space_group_name_H-M "I M A 2"
_symmetry_group_IT_number 46
_symmetry_cell_setting 'orthorhombic'
loop_
_space_group_symop_operation_xyz
x,y,z
-x,-y,z
1/2-x,y,z
1/2+x,-y,z
1/2+x,1/2+y,1/2+z
1/2-x,1/2-y,1/2+z
-x,1/2+y,1/2+z
x,1/2-y,1/2+z
loop_
_atom_site_type_symbol
_atom_site_label
_atom_site_fract_x
_atom_site_fract_y
_atom_site_fract_z
Si Si1 0.916324 0.211670 0.145100
Si Si2 0.140526 0.452447 0.961889
Si Si3 0.142557 0.928940 0.290156
Si Si4 0.856351 0.535652 0.328928
Si Si5 0.359279 0.942281 0.641485
Si Si6 0.609617 0.624036 0.672157
Si Si7 0.892950 0.478182 0.525571
Si Si8 0.351918 0.259834 0.850563
O O1 0.883444 0.178753 0.245761
O O2 0.893516 0.327708 0.123289
O O3 0.021338 0.186175 0.145177
O O4 0.872444 0.128171 0.077049
O O5 0.250000 0.446722 0.961767
O O6 0.117307 0.545116 0.892744
O O7 0.106923 0.346956 0.915713
O O8 0.112022 0.479316 0.062547
O O9 0.250000 0.943268 0.281558
O O10 0.097119 0.017840 0.228975
O O11 0.750000 0.550848 0.312012
O O12 0.890806 0.480819 0.239336
O O13 0.867191 0.474471 0.421565
O O14 0.897465 0.648943 0.346058
O O15 0.250000 0.937897 0.640545
O O16 0.649191 0.575796 0.579904
O O17 0.654091 0.694888 0.748678
O O18 0.000000 0.500000 0.531428
O O19 0.250000 0.245201 0.884103
#
# Coordination Sequence:
#
# PCOD9379312 Si02
#       8
#     8   8   8   8   8   8   8   8
#     4  10  20  34  53  79 113 151 184 220 273 331
#     4   8  16  32  54  77 105 138 177 222 270 323
#     4   9  16  30  55  84 107 138 185 233 274 320
#     4  10  22  36  54  81 109 139 184 232 278 329
#     4  10  21  36  52  79 116 149 181 224 274 334
#     4   9  18  34  56  81 107 137 179 228 273 323
#     4   9  20  37  55  76 106 143 185 225 265 321
#     4   9  18  35  59  85 107 135 176 230 289 333
#
# _framework density 22.388961999999999
#
# number of rings (size 3 to 8) (size 9 to 14) (size 15 to 20)
#    0.000    2.750    0.000    2.625    0.000    6.000 
#    0.000    6.250    0.000    6.000    0.000    0.000 
#    0.000    0.000    0.000    0.000    0.000    0.000 
#
# Total GULP energy -178501.689139 kJ/mol
# GULP energy per Si atom -5578.177786 kJ/mol
# Density = 2.233800 g / cm^3
# Si number density = 22.388962 Si / 1000 Ang^3
#
#
#
# Elastic Constant Matrix: (Units=GPa)
#
#
# Indices 1 2 3 4 5 6 
#
# 1 54.0784 13.6913 1.7518 0.0000 0.0000 0.0000
# 2 13.6913 116.3782 62.6057 0.0000 0.0000 0.0000
# 3 1.7518 62.6057 159.5327 0.0000 0.0000 0.0000
# 4 0.0000 0.0000 0.0000 19.0619 0.0000 0.0000
# 5 0.0000 0.0000 0.0000 0.0000 34.7302 0.0000
# 6 0.0000 0.0000 0.0000 0.0000 0.0000 13.8408
#
#
#
# Elastic Compliance Matrix: (Units=1/GPa)
#
#
# Indices 1 2 3 4 5 6 
#
# 1 0.019151 -0.002713 0.000854 0.000000 0.000000 0.000000
# 2 -0.002713 0.011276 -0.004395 0.000000 0.000000 0.000000
# 3 0.000854 -0.004395 0.007984 0.000000 0.000000 0.000000
# 4 0.000000 0.000000 0.000000 0.052461 0.000000 0.000000
# 5 0.000000 0.000000 0.000000 0.000000 0.028793 0.000000
# 6 0.000000 0.000000 0.000000 0.000000 0.000000 0.072250
#
#
# Mechanical properties :
#
#
# Convention : Reuss Voigt Hill
#
# Bulk Modulus (GPa) = 38.60491 54.00967 46.30729
# Shear Modulus (GPa) = 23.46789 30.32260 26.89525
#
# Velocity S-wave (km/s) = 3.24109 3.68415 3.46970
# Velocity P-wave (km/s) = 5.59343 6.50177 6.06463
#
# Compressibility (1/GPa) = 0.02590344
#
# Stress axis : x y z
#
# Youngs Moduli (GPa) = 52.21726 88.68162 125.25335
#
# Poissons Ratio (x) = 0.24055 -0.10699
# Poissons Ratio (y) = 0.14164 0.55054
# Poissons Ratio (z) = -0.04460 0.38979
#
# Static dielectric constant tensor:
#      x y z
#    x 1.883130 0.000000 0.000000 
#    y 0.000000 1.822990 0.000000 
#    z 0.000000 0.000000 1.847680 
# 
# From -- ./inp_files/16805.got.cif
#   From: 2010.05.17/outbox.cif.g08.bks.cpg/sg46_9_cif.got.tgz:16805.got - 2010.06.03 19:58:25.
