data_PCOD9379986
_publ_section_title
;
Structure prediction by ZEFSAII (Michael W. Deem and Ramdas Pophale) SiO2 
 PCOD9379986
Probable space group: I M A 2
;
_chemical_formula_sum "Si O2"
_cell_formula_units_Z 32
_cell_length_a 33.042133
_cell_length_b 8.213911
_cell_length_c 5.238990
_cell_angle_alpha 90.000000
_cell_angle_beta 90.000000
_cell_angle_gamma 90.000000
_cell_volume 1421.888813
_symmetry_space_group_name_H-M "I M A 2"
_symmetry_group_IT_number 46
_symmetry_cell_setting 'orthorhombic'
loop_
_space_group_symop_operation_xyz
x,y,z
-x,-y,z
1/2-x,y,z
1/2+x,-y,z
1/2+x,1/2+y,1/2+z
1/2-x,1/2-y,1/2+z
-x,1/2+y,1/2+z
x,1/2-y,1/2+z
loop_
_atom_site_type_symbol
_atom_site_label
_atom_site_fract_x
_atom_site_fract_y
_atom_site_fract_z
Si Si1 0.688616 0.337732 0.337760
Si Si2 0.965311 0.862003 0.807420
Si Si3 0.703282 0.812634 0.609816
Si Si4 0.408809 0.653182 0.341422
O O1 0.701745 0.292658 0.622937
O O2 0.702442 0.510100 0.231362
O O3 0.639823 0.343064 0.340470
O O4 0.967883 0.755170 0.551879
O O5 0.924603 0.970243 0.816959
O O6 0.000000 0.000000 0.813286
O O7 0.750000 0.763424 0.562920
O O8 0.684096 0.801181 0.329046
O O9 0.423124 0.738732 0.601714
#
# Coordination Sequence:
#
# PCOD9379986 Si02
#       4
#     8   8   8   8
#     4  10  21  36  57  82 109 143 181 225 273 321
#     4  12  24  39  60  85 112 146 184 223 270 321
#     4  10  21  36  54  78 110 145 181 225 273 321
#     4  10  21  39  58  81 113 144 179 225 273 321
#
# _framework density 22.505275000000001
#
# number of rings (size 3 to 8) (size 9 to 14) (size 15 to 20)
#    0.000    1.500    0.000    5.250    0.000    3.000 
#    0.000    0.000    0.000    0.000    0.000    0.000 
#    0.000    0.000    0.000    0.000    0.000    0.000 
#
# Total GULP energy -89463.359861 kJ/mol
# GULP energy per Si atom -5591.459991 kJ/mol
# Density = 2.245405 g / cm^3
# Si number density = 22.505275 Si / 1000 Ang^3
#
#
#
# Elastic Constant Matrix: (Units=GPa)
#
#
# Indices 1 2 3 4 5 6 
#
# 1 40.1783 0.9246 4.9565 0.0000 0.0000 0.0000
# 2 0.9246 86.1560 5.1292 -0.0001 0.0000 -0.0001
# 3 4.9565 5.1292 101.0817 -0.0001 -0.0001 -0.0001
# 4 0.0000 -0.0001 -0.0001 58.0463 0.0000 0.0000
# 5 0.0000 0.0000 -0.0001 0.0000 8.0383 0.0000
# 6 0.0000 -0.0001 -0.0001 0.0000 0.0000 43.2296
#
#
#
# Elastic Compliance Matrix: (Units=1/GPa)
#
#
# Indices 1 2 3 4 5 6 
#
# 1 0.025044 -0.000196 -0.001218 0.000000 0.000000 0.000000
# 2 -0.000196 0.011644 -0.000581 0.000000 0.000000 0.000000
# 3 -0.001218 -0.000581 0.009982 0.000000 0.000000 0.000000
# 4 0.000000 0.000000 0.000000 0.017228 0.000000 0.000000
# 5 0.000000 0.000000 0.000000 0.000000 0.124405 0.000000
# 6 0.000000 0.000000 0.000000 0.000000 0.000000 0.023132
#
#
# Mechanical properties :
#
#
# Convention : Reuss Voigt Hill
#
# Bulk Modulus (GPa) = 23.43096 27.71518 25.57307
# Shear Modulus (GPa) = 21.77209 36.28988 29.03098
#
# Velocity S-wave (km/s) = 3.11371 4.01996 3.59550
# Velocity P-wave (km/s) = 4.83331 5.82138 5.35020
#
# Compressibility (1/GPa) = 0.04267857
#
# Stress axis : x y z
#
# Youngs Moduli (GPa) = 39.92997 85.88436 100.17826
#
# Poissons Ratio (x) = 0.01685 0.12202
# Poissons Ratio (y) = 0.00784 0.05822
# Poissons Ratio (z) = 0.04864 0.04992
#
# Static dielectric constant tensor:
#      x y z
#    x 1.584640 0.000000 0.000000 
#    y 0.000000 1.804460 0.000000 
#    z 0.000000 0.000000 1.871300 
# 
# From -- ./inp_files/2660.got.cif
#   From: 2010.05.17/outbox.cif.g08.bks.cpg/sg46_2_cif.got.tgz:2660.got - 2010.06.03 19:58:25.
