data_PCOD9379109
_publ_section_title
;
Structure prediction by ZEFSAII (Michael W. Deem and Ramdas Pophale) SiO2 
 PCOD9379109
Probable space group: I M A 2
;
_chemical_formula_sum "Si O2"
_cell_formula_units_Z 48
_cell_length_a 14.046351
_cell_length_b 21.650239
_cell_length_c 7.362760
_cell_angle_alpha 90.000000
_cell_angle_beta 90.000000
_cell_angle_gamma 90.000000
_cell_volume 2239.065797
_symmetry_space_group_name_H-M "I M A 2"
_symmetry_group_IT_number 46
_symmetry_cell_setting 'orthorhombic'
loop_
_space_group_symop_operation_xyz
x,y,z
-x,-y,z
1/2-x,y,z
1/2+x,-y,z
1/2+x,1/2+y,1/2+z
1/2-x,1/2-y,1/2+z
-x,1/2+y,1/2+z
x,1/2-y,1/2+z
loop_
_atom_site_type_symbol
_atom_site_label
_atom_site_fract_x
_atom_site_fract_y
_atom_site_fract_z
Si Si1 0.115781 0.439085 0.459730
Si Si2 0.438010 0.883507 0.462675
Si Si3 0.750000 0.188777 0.495109
Si Si4 0.750000 0.331872 0.425600
Si Si5 0.600059 0.074274 0.873266
Si Si6 0.644036 0.996532 0.336016
Si Si7 0.356380 0.383774 0.084907
O O1 0.144924 0.506971 0.389759
O O2 0.142203 0.447098 0.670564
O O3 0.144515 0.389366 0.305414
O O4 0.003221 0.431805 0.456564
O O5 0.350255 0.837484 0.415887
O O6 0.413532 0.908693 0.663884
O O7 0.545655 0.856482 0.494769
O O8 0.428125 0.945725 0.340644
O O9 0.750000 0.262648 0.491629
O O10 0.750000 0.170922 0.706670
O O11 0.840758 0.373061 0.472723
O O12 0.750000 0.024891 0.337158
O O13 0.634340 0.954155 0.512978
O O14 0.250000 0.361048 0.029408
#
# Coordination Sequence:
#
# PCOD9379109 Si02
#       7
#     8   8   4   4   8   8   8
#     4  10  20  34  52  80 112 156 188 226 289 356
#     4  10  19  37  54  76 114 154 190 245 290 347
#     4  10  22  40  60  82 114 158 202 249 300 345
#     4  10  22  38  58  82 116 154 202 247 302 347
#     4   9  20  34  52  74 114 150 188 234 290 349
#     4  11  21  31  51  81 112 151 193 231 285 351
#     4  10  21  34  52  79 117 150 189 235 288 352
#
# _framework density 21.437512000000002
#
# number of rings (size 3 to 8) (size 9 to 14) (size 15 to 20)
#    0.000    2.000    2.500    1.000    7.000    1.333 
#    0.000    0.000    0.000    0.000    0.000   11.667 
#    0.000    0.000    0.000    0.000    0.000    0.000 
#
# Total GULP energy -133615.107153 kJ/mol
# GULP energy per Si atom -5567.296131 kJ/mol
# Density = 2.138872 g / cm^3
# Si number density = 21.437512 Si / 1000 Ang^3
#
#
#
# Elastic Constant Matrix: (Units=GPa)
#
#
# Indices 1 2 3 4 5 6 
#
# 1 180.1631 43.9940 9.7116 0.0000 0.0000 0.0000
# 2 43.9940 62.4241 0.7098 0.0000 0.0000 0.0000
# 3 9.7116 0.7098 78.3745 0.0001 0.0001 0.0000
# 4 0.0000 0.0000 0.0001 14.5403 0.0000 0.0000
# 5 0.0000 0.0000 0.0001 0.0000 15.5775 0.0000
# 6 0.0000 0.0000 0.0000 0.0000 0.0000 15.5550
#
#
#
# Elastic Compliance Matrix: (Units=1/GPa)
#
#
# Indices 1 2 3 4 5 6 
#
# 1 0.006753 -0.004750 -0.000794 0.000000 0.000000 0.000000
# 2 -0.004750 0.019363 0.000413 0.000000 0.000000 0.000000
# 3 -0.000794 0.000413 0.012854 0.000000 0.000000 0.000000
# 4 0.000000 0.000000 0.000000 0.068774 0.000000 0.000000
# 5 0.000000 0.000000 0.000000 0.000000 0.064195 0.000000
# 6 0.000000 0.000000 0.000000 0.000000 0.000000 0.064288
#
#
# Mechanical properties :
#
#
# Convention : Reuss Voigt Hill
#
# Bulk Modulus (GPa) = 34.83353 47.75470 41.29411
# Shear Modulus (GPa) = 19.52678 26.90432 23.21555
#
# Velocity S-wave (km/s) = 3.02134 3.54646 3.29438
# Velocity P-wave (km/s) = 5.33436 6.25255 5.81162
#
# Compressibility (1/GPa) = 0.02870797
#
# Stress axis : x y z
#
# Youngs Moduli (GPa) = 148.07519 51.64571 77.79753
#
# Poissons Ratio (x) = 0.24534 0.06176
# Poissons Ratio (y) = 0.70342 -0.03215
# Poissons Ratio (z) = 0.11754 -0.02134
#
# Static dielectric constant tensor:
#      x y z
#    x 2.022140 0.000000 0.000000 
#    y 0.000000 1.728470 0.000000 
#    z 0.000000 0.000000 1.845880 
# 
# From -- ./inp_files/5841.got.cif
#   From: 2010.05.17/outbox.cif.g08.bks.cpg/sg46_3_cif.got.tgz:5841.got - 2010.06.03 19:58:25.
