data_PCOD9379495
_publ_section_title
;
Structure prediction by ZEFSAII (Michael W. Deem and Ramdas Pophale) SiO2 
 PCOD9379495
Probable space group: I M A 2
;
_chemical_formula_sum "Si O2"
_cell_formula_units_Z 64
_cell_length_a 14.815426
_cell_length_b 9.179487
_cell_length_c 21.875819
_cell_angle_alpha 90.000000
_cell_angle_beta 90.000000
_cell_angle_gamma 90.000000
_cell_volume 2975.067859
_symmetry_space_group_name_H-M "I M A 2"
_symmetry_group_IT_number 46
_symmetry_cell_setting 'orthorhombic'
loop_
_space_group_symop_operation_xyz
x,y,z
-x,-y,z
1/2-x,y,z
1/2+x,-y,z
1/2+x,1/2+y,1/2+z
1/2-x,1/2-y,1/2+z
-x,1/2+y,1/2+z
x,1/2-y,1/2+z
loop_
_atom_site_type_symbol
_atom_site_label
_atom_site_fract_x
_atom_site_fract_y
_atom_site_fract_z
Si Si1 0.909203 0.089849 0.641240
Si Si2 0.355967 0.890480 0.426809
Si Si3 0.853437 0.850907 0.338918
Si Si4 0.146089 0.742196 0.258766
Si Si5 0.975170 0.657282 0.588524
Si Si6 0.852311 0.891131 0.532857
Si Si7 0.644064 0.940139 0.204193
Si Si8 0.478040 0.833277 0.874626
O O1 0.858697 0.129060 0.702946
O O2 0.941664 0.239009 0.608057
O O3 0.856258 0.988082 0.594276
O O4 0.000000 0.000000 0.656084
O O5 0.250000 0.857606 0.434892
O O6 0.416184 0.748032 0.424155
O O7 0.366752 0.984644 0.364400
O O8 0.384304 0.001904 0.479519
O O9 0.750000 0.812258 0.354236
O O10 0.864394 0.846470 0.265971
O O11 0.927948 0.751257 0.368897
O O12 0.250000 0.754859 0.280993
O O13 0.078837 0.690339 0.311682
O O14 0.120105 0.897158 0.227730
O O15 0.914735 0.753304 0.543675
O O16 0.917135 0.619690 0.649850
O O17 0.000000 0.500000 0.562668
O O18 0.750000 0.847569 0.519263
O O19 0.750000 0.942105 0.185959
O O20 0.500000 0.000000 0.885593
#
# Coordination Sequence:
#
# PCOD9379495 Si02
#       8
#     8   8   8   8   8   8   8   8
#     4  10  21  36  57  89 131 179 223 263 325 397
#     4  10  22  45  72  93 123 175 231 274 325 401
#     4  10  22  40  65  94 126 176 226 267 323 396
#     4  11  21  36  60  94 136 178 222 267 327 402
#     4  11  21  36  61  95 132 165 214 277 334 396
#     4  10  23  44  66  91 127 175 225 274 331 398
#     4  10  20  35  60  93 131 174 218 263 325 395
#     4  12  25  39  64 100 134 171 213 280 342 393
#
# _framework density 21.512114
#
# number of rings (size 3 to 8) (size 9 to 14) (size 15 to 20)
#    0.000    1.500    2.500    2.625    0.000    5.000 
#    0.000    5.000    0.000    3.000    0.000    0.875 
#    0.000    0.000    0.000    0.000    0.000    0.000 
#
# Total GULP energy -179023.830155 kJ/mol
# GULP energy per Si atom -5594.494692 kJ/mol
# Density = 2.146315 g / cm^3
# Si number density = 21.512114 Si / 1000 Ang^3
#
#
#
# Elastic Constant Matrix: (Units=GPa)
#
#
# Indices 1 2 3 4 5 6 
#
# 1 98.4391 71.7858 24.9069 0.0000 0.0000 0.0000
# 2 71.7858 153.9057 30.4369 0.0000 0.0000 0.0000
# 3 24.9069 30.4369 65.8714 0.0000 0.0000 0.0000
# 4 0.0000 0.0000 0.0000 28.6087 0.0000 0.0000
# 5 0.0000 0.0000 0.0000 0.0000 21.8537 0.0000
# 6 0.0000 0.0000 0.0000 0.0000 0.0000 15.7886
#
#
#
# Elastic Compliance Matrix: (Units=1/GPa)
#
#
# Indices 1 2 3 4 5 6 
#
# 1 0.015863 -0.006838 -0.002839 0.000000 0.000000 0.000000
# 2 -0.006838 0.010098 -0.002081 0.000000 0.000000 0.000000
# 3 -0.002839 -0.002081 0.017216 0.000000 0.000000 0.000000
# 4 0.000000 0.000000 0.000000 0.034954 0.000000 0.000000
# 5 0.000000 0.000000 0.000000 0.000000 0.045759 0.000000
# 6 0.000000 0.000000 0.000000 0.000000 0.000000 0.063337
#
#
# Mechanical properties :
#
#
# Convention : Reuss Voigt Hill
#
# Bulk Modulus (GPa) = 50.85601 63.60836 57.23218
# Shear Modulus (GPa) = 23.01018 25.98931 24.49974
#
# Velocity S-wave (km/s) = 3.27408 3.47958 3.37839
# Velocity P-wave (km/s) = 6.16318 6.76580 6.47151
#
# Compressibility (1/GPa) = 0.01966336
#
# Stress axis : x y z
#
# Youngs Moduli (GPa) = 63.03964 99.02762 58.08612
#
# Poissons Ratio (x) = 0.67711 0.16488
# Poissons Ratio (y) = 0.43104 0.12086
# Poissons Ratio (z) = 0.17895 0.20604
#
# Static dielectric constant tensor:
#      x y z
#    x 1.781110 0.000000 0.000000 
#    y 0.000000 1.764340 0.000000 
#    z 0.000000 0.000000 1.810350 
# 
# From -- ./inp_files/23645.got.cif
#   From: 2010.05.17/outbox.cif.g08.bks.cpg/sg46_12_cif.got.tgz:23645.got - 2010.06.03 19:58:25.
