data_PCOD9379407
_publ_section_title
;
Structure prediction by ZEFSAII (Michael W. Deem and Ramdas Pophale) SiO2 
 PCOD9379407
Probable space group: I M A 2
;
_chemical_formula_sum "Si O2"
_cell_formula_units_Z 64
_cell_length_a 27.074925
_cell_length_b 24.872040
_cell_length_c 5.242930
_cell_angle_alpha 90.000000
_cell_angle_beta 90.000000
_cell_angle_gamma 90.000000
_cell_volume 3530.634243
_symmetry_space_group_name_H-M "I M A 2"
_symmetry_group_IT_number 46
_symmetry_cell_setting 'orthorhombic'
loop_
_space_group_symop_operation_xyz
x,y,z
-x,-y,z
1/2-x,y,z
1/2+x,-y,z
1/2+x,1/2+y,1/2+z
1/2-x,1/2-y,1/2+z
-x,1/2+y,1/2+z
x,1/2-y,1/2+z
loop_
_atom_site_type_symbol
_atom_site_label
_atom_site_fract_x
_atom_site_fract_y
_atom_site_fract_z
Si Si1 0.625370 0.282403 0.976280
Si Si2 0.956104 0.438721 0.639600
Si Si3 0.637511 0.059173 0.857248
Si Si4 0.905435 0.520814 0.958378
Si Si5 0.507083 0.282482 0.014755
Si Si6 0.305859 0.500338 0.734470
Si Si7 0.985889 0.901058 0.637333
Si Si8 0.193846 0.620428 0.980734
O O1 0.637102 0.238241 0.760511
O O2 0.566379 0.292281 0.994794
O O3 0.656250 0.334291 0.893961
O O4 0.901410 0.418653 0.561526
O O5 0.940653 0.499488 0.726892
O O6 0.989353 0.424530 0.394547
O O7 0.980648 0.414347 0.889629
O O8 0.672835 0.105291 0.758309
O O9 0.603521 0.030281 0.644389
O O10 0.673691 0.011959 0.952942
O O11 0.850139 0.532854 0.862608
O O12 0.934464 0.567996 0.095357
O O13 0.495137 0.237222 0.228318
O O14 0.482800 0.336859 0.122088
O O15 0.250000 0.480439 0.750609
O O16 0.306796 0.561625 0.846630
O O17 0.250000 0.639489 0.979432
#
# Coordination Sequence:
#
# PCOD9379407 Si02
#       8
#     8   8   8   8   8   8   8   8
#     4  10  23  38  54  72  99 133 184 240 287 333
#     4  11  23  34  53  85 120 154 183 222 287 342
#     4  10  20  35  53  80 112 145 189 223 270 348
#     4  10  23  35  54  88 121 147 194 227 279 355
#     4  10  22  42  57  79 106 148 196 235 283 344
#     4   9  20  37  57  80 115 153 188 230 276 344
#     4  12  24  36  60  83 119 155 183 238 287 341
#     4  10  21  36  55  77 101 139 187 237 291 330
#
# _framework density 18.127053
#
# number of rings (size 3 to 8) (size 9 to 14) (size 15 to 20)
#    0.000    1.750    1.250    2.250   10.500    2.000 
#    0.000    0.000    0.000    0.000    0.000    0.000 
#    0.000    1.000    0.000    0.000    0.000    0.000 
#
# Total GULP energy -178289.297828 kJ/mol
# GULP energy per Si atom -5571.540557 kJ/mol
# Density = 1.808580 g / cm^3
# Si number density = 18.127053 Si / 1000 Ang^3
#
#
#
# Elastic Constant Matrix: (Units=GPa)
#
#
# Indices 1 2 3 4 5 6 
#
# 1 79.0150 36.0770 26.7100 0.0000 0.0000 0.0000
# 2 36.0770 48.9009 18.4590 0.0000 0.0000 0.0000
# 3 26.7100 18.4590 86.3115 0.0000 0.0000 0.0000
# 4 0.0000 0.0000 0.0000 16.5319 0.0000 0.0000
# 5 0.0000 0.0000 0.0000 0.0000 17.5992 0.0000
# 6 0.0000 0.0000 0.0000 0.0000 0.0000 21.9393
#
#
#
# Elastic Compliance Matrix: (Units=1/GPa)
#
#
# Indices 1 2 3 4 5 6 
#
# 1 0.019905 -0.013445 -0.003284 0.000000 0.000000 0.000000
# 2 -0.013445 0.031327 -0.002539 0.000000 0.000000 0.000000
# 3 -0.003284 -0.002539 0.013145 0.000000 0.000000 0.000000
# 4 0.000000 0.000000 0.000000 0.060489 0.000000 0.000000
# 5 0.000000 0.000000 0.000000 0.000000 0.056821 0.000000
# 6 0.000000 0.000000 0.000000 0.000000 0.000000 0.045580
#
#
# Mechanical properties :
#
#
# Convention : Reuss Voigt Hill
#
# Bulk Modulus (GPa) = 38.69920 41.85771 40.27846
# Shear Modulus (GPa) = 18.22035 20.07950 19.14993
#
# Velocity S-wave (km/s) = 3.17384 3.33184 3.25380
# Velocity P-wave (km/s) = 5.90138 6.15978 6.03197
#
# Compressibility (1/GPa) = 0.02584032
#
# Stress axis : x y z
#
# Youngs Moduli (GPa) = 50.23876 31.92102 76.07267
#
# Poissons Ratio (x) = 0.42919 0.24985
# Poissons Ratio (y) = 0.67547 0.19315
# Poissons Ratio (z) = 0.16500 0.08105
#
# Static dielectric constant tensor:
#      x y z
#    x 1.632460 0.000000 0.000000 
#    y 0.000000 1.651550 0.000000 
#    z 0.000000 0.000000 1.754940 
# 
# From -- ./inp_files/2636.got.cif
#   From: 2010.05.17/outbox.cif.g08.bks.cpg/sg46_2_cif.got.tgz:2636.got - 2010.06.03 19:58:25.
