data_PCOD9379803
_publ_section_title
;
Structure prediction by ZEFSAII (Michael W. Deem and Ramdas Pophale) SiO2 
 PCOD9379803
Probable space group: I M A 2
;
_chemical_formula_sum "Si O2"
_cell_formula_units_Z 44
_cell_length_a 16.722300
_cell_length_b 24.120791
_cell_length_c 4.911658
_cell_angle_alpha 90.000000
_cell_angle_beta 90.000000
_cell_angle_gamma 90.000000
_cell_volume 1981.142320
_symmetry_space_group_name_H-M "I M A 2"
_symmetry_group_IT_number 46
_symmetry_cell_setting 'orthorhombic'
loop_
_space_group_symop_operation_xyz
x,y,z
-x,-y,z
1/2-x,y,z
1/2+x,-y,z
1/2+x,1/2+y,1/2+z
1/2-x,1/2-y,1/2+z
-x,1/2+y,1/2+z
x,1/2-y,1/2+z
loop_
_atom_site_type_symbol
_atom_site_label
_atom_site_fract_x
_atom_site_fract_y
_atom_site_fract_z
Si Si1 0.083086 0.426757 0.824040
Si Si2 0.905351 0.096514 0.118060
Si Si3 0.750000 0.716993 0.559442
Si Si4 0.342590 0.534842 0.094880
Si Si5 0.661243 0.622093 0.311915
Si Si6 0.844696 0.287709 0.423257
O O1 0.107056 0.484189 0.967589
O O2 0.137242 0.418021 0.557659
O O3 0.993796 0.418583 0.719414
O O4 0.102100 0.382077 0.060514
O O5 0.880063 0.055672 0.875112
O O6 0.894880 0.158704 0.008707
O O7 0.849249 0.084473 0.376376
O O8 0.750000 0.727598 0.878770
O O9 0.674442 0.681368 0.456355
O O10 0.250000 0.519973 0.131583
O O11 0.750000 0.607600 0.206053
O O12 0.750000 0.302227 0.446172
O O13 0.859949 0.236027 0.624304
#
# Coordination Sequence:
#
# PCOD9379803 Si02
#       6
#     8   8   4   8   8   8
#     4  12  24  43  64 100 136 184 218 289 356 416
#     4  12  26  44  67 103 142 175 228 291 352 409
#     4  10  20  38  64  94 128 172 240 302 336 386
#     4  12  25  43  70  98 136 182 234 278 338 425
#     4  10  22  39  66  89 130 175 238 278 337 417
#     4  10  21  41  69  96 130 175 222 274 337 408
#
# _framework density 22.209409999999998
#
# number of rings (size 3 to 8) (size 9 to 14) (size 15 to 20)
#    0.545    0.364    0.000    8.182    0.000    2.909 
#    0.000    5.455    0.000    0.000    0.000    0.000 
#    0.000    0.000    0.000    0.000    0.000    0.000 
#
# Total GULP energy -123073.369592 kJ/mol
# GULP energy per Si atom -5594.244072 kJ/mol
# Density = 2.215886 g / cm^3
# Si number density = 22.209410 Si / 1000 Ang^3
#
#
#
# Elastic Constant Matrix: (Units=GPa)
#
#
# Indices 1 2 3 4 5 6 
#
# 1 110.4519 43.1468 32.8746 0.0000 0.0000 0.0000
# 2 43.1468 75.3817 5.9644 0.0000 0.0000 0.0000
# 3 32.8746 5.9644 115.7443 0.0000 0.0000 0.0000
# 4 0.0000 0.0000 0.0000 35.9137 0.0000 0.0000
# 5 0.0000 0.0000 0.0000 0.0000 32.8964 0.0000
# 6 0.0000 0.0000 0.0000 0.0000 0.0000 -70.9846
#
#
#
# Elastic Compliance Matrix: (Units=1/GPa)
#
#
# Indices 1 2 3 4 5 6 
#
# 1 0.012783 -0.007058 -0.003267 0.000000 0.000000 0.000000
# 2 -0.007058 0.017218 0.001118 0.000000 0.000000 0.000000
# 3 -0.003267 0.001118 0.009510 0.000000 0.000000 0.000000
# 4 0.000000 0.000000 0.000000 0.027845 0.000000 0.000000
# 5 0.000000 0.000000 0.000000 0.000000 0.030398 0.000000
# 6 0.000000 0.000000 0.000000 0.000000 0.000000 -0.014088
#
#
# Mechanical properties :
#
#
# Convention : Reuss Voigt Hill
#
# Bulk Modulus (GPa) = 47.40457 51.72773 49.56615
# Shear Modulus (GPa) = 45.82353 14.20457 30.01405
#
# Velocity S-wave (km/s) = 4.54723 2.53172 3.68014
# Velocity P-wave (km/s) = 6.99717 5.64691 6.35799
#
# Compressibility (1/GPa) = 0.02109501
#
# Stress axis : x y z
#
# Youngs Moduli (GPa) = 78.22613 58.08039 105.15138
#
# Poissons Ratio (x) = 0.40996 0.34354
# Poissons Ratio (y) = 0.55216 -0.11751
# Poissons Ratio (z) = 0.25557 -0.06491
#
# Static dielectric constant tensor:
#      x y z
#    x 1.715260 0.000000 0.000000 
#    y 0.000000 1.877470 0.000000 
#    z 0.000000 0.000000 1.781530 
# 
# From -- ./inp_files/1676.got.cif
#   From: 2010.05.17/outbox.cif.g08.bks.cpg/sg46_1_cif.got.tgz:1676.got - 2010.06.03 19:58:25.
