data_PCOD9379835
_publ_section_title
;
Structure prediction by ZEFSAII (Michael W. Deem and Ramdas Pophale) SiO2 
 PCOD9379835
Probable space group: I M A 2
;
_chemical_formula_sum "Si O2"
_cell_formula_units_Z 64
_cell_length_a 27.849744
_cell_length_b 9.787877
_cell_length_c 9.682513
_cell_angle_alpha 90.000000
_cell_angle_beta 90.000000
_cell_angle_gamma 90.000000
_cell_volume 2639.354948
_symmetry_space_group_name_H-M "I M A 2"
_symmetry_group_IT_number 46
_symmetry_cell_setting 'orthorhombic'
loop_
_space_group_symop_operation_xyz
x,y,z
-x,-y,z
1/2-x,y,z
1/2+x,-y,z
1/2+x,1/2+y,1/2+z
1/2-x,1/2-y,1/2+z
-x,1/2+y,1/2+z
x,1/2-y,1/2+z
loop_
_atom_site_type_symbol
_atom_site_label
_atom_site_fract_x
_atom_site_fract_y
_atom_site_fract_z
Si Si1 0.567440 0.460165 0.303730
Si Si2 0.544285 0.745809 0.154133
Si Si3 0.980995 0.195992 0.392010
Si Si4 0.659186 0.112080 0.948696
Si Si5 0.697443 0.998192 0.690132
Si Si6 0.111289 0.890960 0.528330
Si Si7 0.147883 0.383059 0.638260
Si Si8 0.195271 0.231088 0.385645
O O1 0.553994 0.606487 0.242062
O O2 0.534267 0.357319 0.388781
O O3 0.614116 0.478268 0.395378
O O4 0.582289 0.368990 0.171283
O O5 0.506830 0.829876 0.247139
O O6 0.592455 0.832848 0.130374
O O7 0.519744 0.690997 0.014675
O O8 0.933600 0.103996 0.421406
O O9 0.641380 0.261197 0.981816
O O10 0.668810 0.029639 0.088133
O O11 0.692186 0.110141 0.813595
O O12 0.750000 0.013649 0.625793
O O13 0.652838 0.006340 0.583855
O O14 0.696110 0.862347 0.783246
O O15 0.175986 0.283034 0.531749
O O16 0.161834 0.369126 0.798758
O O17 0.250000 0.183793 0.397254
#
# Coordination Sequence:
#
# PCOD9379835 Si02
#       8
#     8   8   8   8   8   8   8   8
#     4  10  21  43  65  86 128 176 219 273 332 400
#     4  12  23  40  68  97 129 177 227 281 335 401
#     4  11  23  38  64  93 127 176 222 268 340 402
#     4   9  20  37  62  88 128 174 209 273 342 403
#     4   9  19  38  64  92 122 172 224 266 335 411
#     4  10  20  39  62  88 125 174 215 269 337 398
#     4  11  21  39  62  97 129 169 221 275 335 402
#     4  10  21  40  67  95 130 173 219 276 346 408
#
# _framework density 24.248348
#
# number of rings (size 3 to 8) (size 9 to 14) (size 15 to 20)
#    0.000    1.750    1.250    4.500    0.000    2.000 
#    0.000   12.500    5.500    0.000    0.000    0.000 
#    0.000    0.000    0.000    0.000    0.000    0.000 
#
# Total GULP energy -178521.472208 kJ/mol
# GULP energy per Si atom -5578.796006 kJ/mol
# Density = 2.419316 g / cm^3
# Si number density = 24.248348 Si / 1000 Ang^3
#
#
#
# Elastic Constant Matrix: (Units=GPa)
#
#
# Indices 1 2 3 4 5 6 
#
# 1 124.1362 13.4975 25.6156 0.0000 0.0000 0.0000
# 2 13.4975 58.8717 20.7453 0.0000 0.0000 0.0000
# 3 25.6156 20.7453 89.2228 0.0000 0.0000 0.0000
# 4 0.0000 0.0000 0.0000 40.8937 0.0000 0.0000
# 5 0.0000 0.0000 0.0000 0.0000 32.6783 0.0000
# 6 0.0000 0.0000 0.0000 0.0000 0.0000 10.3981
#
#
#
# Elastic Compliance Matrix: (Units=1/GPa)
#
#
# Indices 1 2 3 4 5 6 
#
# 1 0.008641 -0.001206 -0.002200 0.000000 0.000000 0.000000
# 2 -0.001206 0.018670 -0.003995 0.000000 0.000000 0.000000
# 3 -0.002200 -0.003995 0.012768 0.000000 0.000000 0.000000
# 4 0.000000 0.000000 0.000000 0.024454 0.000000 0.000000
# 5 0.000000 0.000000 0.000000 0.000000 0.030601 0.000000
# 6 0.000000 0.000000 0.000000 0.000000 0.000000 0.096171
#
#
# Mechanical properties :
#
#
# Convention : Reuss Voigt Hill
#
# Bulk Modulus (GPa) = 39.56077 43.54971 41.55524
# Shear Modulus (GPa) = 23.30636 30.95218 27.12927
#
# Velocity S-wave (km/s) = 3.10361 3.57664 3.34849
# Velocity P-wave (km/s) = 5.40310 5.92076 5.66784
#
# Compressibility (1/GPa) = 0.02527756
#
# Stress axis : x y z
#
# Youngs Moduli (GPa) = 115.72976 53.56114 78.31779
#
# Poissons Ratio (x) = 0.06458 0.17233
# Poissons Ratio (y) = 0.13953 0.31287
# Poissons Ratio (z) = 0.25465 0.21397
#
# Static dielectric constant tensor:
#      x y z
#    x 2.018690 0.000000 0.000000 
#    y 0.000000 1.988360 0.000000 
#    z 0.000000 0.000000 1.951340 
# 
# From -- ./inp_files/8506.got.cif
#   From: 2010.05.17/outbox.cif.g08.bks.cpg/sg46_5_cif.got.tgz:8506.got - 2010.06.03 19:58:25.
