data_PCOD9379746
_publ_section_title
;
Structure prediction by ZEFSAII (Michael W. Deem and Ramdas Pophale) SiO2 
 PCOD9379746
Probable space group: I M A 2
;
_chemical_formula_sum "Si O2"
_cell_formula_units_Z 48
_cell_length_a 28.895385
_cell_length_b 6.663312
_cell_length_c 10.037162
_cell_angle_alpha 90.000000
_cell_angle_beta 90.000000
_cell_angle_gamma 90.000000
_cell_volume 1932.544789
_symmetry_space_group_name_H-M "I M A 2"
_symmetry_group_IT_number 46
_symmetry_cell_setting 'orthorhombic'
loop_
_space_group_symop_operation_xyz
x,y,z
-x,-y,z
1/2-x,y,z
1/2+x,-y,z
1/2+x,1/2+y,1/2+z
1/2-x,1/2-y,1/2+z
-x,1/2+y,1/2+z
x,1/2-y,1/2+z
loop_
_atom_site_type_symbol
_atom_site_label
_atom_site_fract_x
_atom_site_fract_y
_atom_site_fract_z
Si Si1 0.198804 0.168819 0.982370
Si Si2 0.696966 0.291653 0.059304
Si Si3 0.138771 0.854321 0.292300
Si Si4 0.857154 0.824842 0.716119
Si Si5 0.453300 0.363241 0.112405
Si Si6 0.051572 0.461755 0.826113
O O1 0.250000 0.232746 0.937317
O O2 0.166597 0.135146 0.856139
O O3 0.177778 0.321848 0.090589
O O4 0.202566 0.950639 0.046945
O O5 0.750000 0.364362 0.077086
O O6 0.663284 0.294547 0.188057
O O7 0.671122 0.352500 0.922584
O O8 0.134009 0.081707 0.234063
O O9 0.084185 0.841191 0.326056
O O10 0.906065 0.930038 0.687892
O O11 0.500000 0.500000 0.133360
O O12 0.458362 0.151410 0.187333
O O13 0.434560 0.336991 0.960070
O O14 0.000000 0.500000 0.871733
#
# Coordination Sequence:
#
# PCOD9379746 Si02
#       6
#     8   8   8   8   8   8
#     4  10  21  36  58  88 122 161 206 255 316 386
#     4  10  22  39  59  87 123 164 209 260 320 385
#     4  10  22  39  59  86 123 163 208 259 313 377
#     4  10  20  38  60  85 121 161 203 256 314 375
#     4  10  22  41  63  89 122 161 208 260 317 378
#     4  10  23  41  63  93 124 162 210 262 320 379
#
# _framework density 24.837714999999999
#
# number of rings (size 3 to 8) (size 9 to 14) (size 15 to 20)
#    0.000    2.000    0.000    3.000    0.000    9.333 
#    0.000    0.000    0.000    0.000    0.000    0.000 
#    0.000    0.000    0.000    0.000    0.000    0.000 
#
# Total GULP energy -133680.706822 kJ/mol
# GULP energy per Si atom -5570.029451 kJ/mol
# Density = 2.478118 g / cm^3
# Si number density = 24.837715 Si / 1000 Ang^3
#
#
#
# Elastic Constant Matrix: (Units=GPa)
#
#
# Indices 1 2 3 4 5 6 
#
# 1 207.4318 24.4164 51.7510 0.0000 0.0000 0.0000
# 2 24.4164 29.8040 14.7340 0.0000 0.0000 0.0000
# 3 51.7510 14.7340 136.6027 0.0000 0.0000 0.0000
# 4 0.0000 0.0000 0.0000 288.0964 0.0000 0.0000
# 5 0.0000 0.0000 0.0000 0.0000 31.2391 0.0000
# 6 0.0000 0.0000 0.0000 0.0000 0.0000 20.5587
#
#
#
# Elastic Compliance Matrix: (Units=1/GPa)
#
#
# Indices 1 2 3 4 5 6 
#
# 1 0.005706 -0.003809 -0.001751 0.000000 0.000000 0.000000
# 2 -0.003809 0.037985 -0.002654 0.000000 0.000000 0.000000
# 3 -0.001751 -0.002654 0.008270 0.000000 0.000000 0.000000
# 4 0.000000 0.000000 0.000000 0.003471 0.000000 0.000000
# 5 0.000000 0.000000 0.000000 0.000000 0.032011 0.000000
# 6 0.000000 0.000000 0.000000 0.000000 0.000000 0.048641
#
#
# Mechanical properties :
#
#
# Convention : Reuss Voigt Hill
#
# Bulk Modulus (GPa) = 28.14263 61.73791 44.94027
# Shear Modulus (GPa) = 30.42163 86.84131 58.63147
#
# Velocity S-wave (km/s) = 3.50353 5.91941 4.86385
# Velocity P-wave (km/s) = 5.26512 8.46343 7.04809
#
# Compressibility (1/GPa) = 0.03553328
#
# Stress axis : x y z
#
# Youngs Moduli (GPa) = 175.25347 26.32619 120.91802
#
# Poissons Ratio (x) = 0.10028 0.21171
# Poissons Ratio (y) = 0.66754 0.32092
# Poissons Ratio (z) = 0.30684 0.06987
#
# Static dielectric constant tensor:
#      x y z
#    x 2.304170 0.000000 0.000000 
#    y 0.000000 2.139390 0.000000 
#    z 0.000000 0.000000 1.931420 
# 
# From -- ./inp_files/8405.got.cif
#   From: 2010.05.17/outbox.cif.g08.bks.cpg/sg46_5_cif.got.tgz:8405.got - 2010.06.03 19:58:25.
