data_PCOD9379688
_publ_section_title
;
Structure prediction by ZEFSAII (Michael W. Deem and Ramdas Pophale) SiO2 
 PCOD9379688
Probable space group: I M A 2
;
_chemical_formula_sum "Si O2"
_cell_formula_units_Z 40
_cell_length_a 8.007530
_cell_length_b 17.753287
_cell_length_c 13.188889
_cell_angle_alpha 90.000000
_cell_angle_beta 90.000000
_cell_angle_gamma 90.000000
_cell_volume 1874.932173
_symmetry_space_group_name_H-M "I M A 2"
_symmetry_group_IT_number 46
_symmetry_cell_setting 'orthorhombic'
loop_
_space_group_symop_operation_xyz
x,y,z
-x,-y,z
1/2-x,y,z
1/2+x,-y,z
1/2+x,1/2+y,1/2+z
1/2-x,1/2-y,1/2+z
-x,1/2+y,1/2+z
x,1/2-y,1/2+z
loop_
_atom_site_type_symbol
_atom_site_label
_atom_site_fract_x
_atom_site_fract_y
_atom_site_fract_z
Si Si1 0.058427 0.319308 0.168970
Si Si2 0.549358 0.413350 0.349651
Si Si3 0.946560 0.588803 0.975578
Si Si4 0.447152 0.664623 0.765778
Si Si5 0.950881 0.413446 0.566347
O O1 0.250000 0.296291 0.148689
O O2 0.048602 0.382436 0.254718
O O3 0.969917 0.250056 0.226898
O O4 0.983877 0.358297 0.067439
O O5 0.500000 0.500000 0.357917
O O6 0.750000 0.405173 0.336464
O O7 0.499173 0.377426 0.458486
O O8 0.750000 0.585362 0.994763
O O9 0.000000 0.500000 0.972734
O O10 0.977624 0.632970 0.870045
O O11 0.250000 0.650192 0.775930
O O12 0.519781 0.620250 0.669294
O O13 0.750000 0.407172 0.569158
O O14 0.000000 0.500000 0.565230
#
# Coordination Sequence:
#
# PCOD9379688 Si02
#       5
#     8   8   8   8   8
#     4  11  25  42  62  92 128 167 212 265 322 379
#     4  10  20  37  61  90 122 160 203 252 309 373
#     4  11  25  45  68  96 131 174 222 271 324 388
#     4  11  24  41  64  93 128 167 211 265 322 381
#     4   9  20  37  59  89 120 156 199 247 305 367
#
# _framework density 21.334105000000001
#
# number of rings (size 3 to 8) (size 9 to 14) (size 15 to 20)
#    0.000    1.600    0.000    3.600    2.800    8.800 
#    0.000    0.000    0.000    0.000    0.000    0.000 
#    0.000    0.000    0.000    0.000    0.000    0.000 
#
# Total GULP energy -111476.567346 kJ/mol
# GULP energy per Si atom -5573.828367 kJ/mol
# Density = 2.128555 g / cm^3
# Si number density = 21.334105 Si / 1000 Ang^3
#
#
#
# Elastic Constant Matrix: (Units=GPa)
#
#
# Indices 1 2 3 4 5 6 
#
# 1 29.3303 -11.3289 -6.0472 0.0000 0.0000 0.0000
# 2 -11.3289 79.2136 50.1181 0.0000 0.0000 0.0000
# 3 -6.0472 50.1181 176.2612 -0.0001 0.0000 0.0000
# 4 0.0000 0.0000 -0.0001 57.4203 0.0000 0.0000
# 5 0.0000 0.0000 0.0000 0.0000 34.8121 0.0000
# 6 0.0000 0.0000 0.0000 0.0000 0.0000 28.8539
#
#
#
# Elastic Compliance Matrix: (Units=1/GPa)
#
#
# Indices 1 2 3 4 5 6 
#
# 1 0.036099 0.005340 -0.000280 0.000000 0.000000 0.000000
# 2 0.005340 0.016183 -0.004418 0.000000 0.000000 0.000000
# 3 -0.000280 -0.004418 0.006920 0.000000 0.000000 0.000000
# 4 0.000000 0.000000 0.000000 0.017415 0.000000 0.000000
# 5 0.000000 0.000000 0.000000 0.000000 0.028726 0.000000
# 6 0.000000 0.000000 0.000000 0.000000 0.000000 0.034657
#
#
# Mechanical properties :
#
#
# Convention : Reuss Voigt Hill
#
# Bulk Modulus (GPa) = 16.53274 38.92100 27.72687
# Shear Modulus (GPa) = 31.47035 41.02147 36.24591
#
# Velocity S-wave (km/s) = 3.84489 4.38974 4.12632
# Velocity P-wave (km/s) = 5.24187 6.63146 5.97719
#
# Compressibility (1/GPa) = 0.06048604
#
# Stress axis : x y z
#
# Youngs Moduli (GPa) = 27.70138 61.79223 144.50638
#
# Poissons Ratio (x) = -0.32996 0.04044
# Poissons Ratio (y) = -0.14792 0.63848
# Poissons Ratio (z) = 0.00775 0.27302
#
# Static dielectric constant tensor:
#      x y z
#    x 1.767270 0.000000 0.000000 
#    y 0.000000 1.584960 0.000000 
#    z 0.000000 0.000000 1.835400 
# 
# From -- ./inp_files/9036.got.cif
#   From: 2010.05.17/outbox.cif.g08.bks.cpg/sg46_5_cif.got.tgz:9036.got - 2010.06.03 19:58:25.
