data_PCOD9379131
_publ_section_title
;
Structure prediction by ZEFSAII (Michael W. Deem and Ramdas Pophale) SiO2 
 PCOD9379131
Probable space group: I M A 2
;
_chemical_formula_sum "Si O2"
_cell_formula_units_Z 60
_cell_length_a 9.383856
_cell_length_b 17.438061
_cell_length_c 19.344535
_cell_angle_alpha 90.000000
_cell_angle_beta 90.000000
_cell_angle_gamma 90.000000
_cell_volume 3165.467230
_symmetry_space_group_name_H-M "I M A 2"
_symmetry_group_IT_number 46
_symmetry_cell_setting 'orthorhombic'
loop_
_space_group_symop_operation_xyz
x,y,z
-x,-y,z
1/2-x,y,z
1/2+x,-y,z
1/2+x,1/2+y,1/2+z
1/2-x,1/2-y,1/2+z
-x,1/2+y,1/2+z
x,1/2-y,1/2+z
loop_
_atom_site_type_symbol
_atom_site_label
_atom_site_fract_x
_atom_site_fract_y
_atom_site_fract_z
Si Si1 0.907530 0.386946 0.161510
Si Si2 0.500000 0.000000 0.389017
Si Si3 0.083878 0.799228 0.162511
Si Si4 0.422282 0.288820 0.376021
Si Si5 0.591869 0.121126 0.503668
Si Si6 0.583524 0.640643 0.795393
Si Si7 0.917632 0.928280 0.784472
Si Si8 0.920161 0.774152 0.025177
O O1 0.750000 0.408653 0.189328
O O2 0.918796 0.294151 0.168481
O O3 0.035677 0.420391 0.205270
O O4 0.912074 0.411592 0.081666
O O5 0.423826 0.942014 0.443660
O O6 0.573801 0.940177 0.335800
O O7 0.250000 0.821375 0.158530
O O8 0.007687 0.843046 0.226120
O O9 0.999801 0.809687 0.090600
O O10 0.250000 0.285718 0.376264
O O11 0.468585 0.205430 0.349902
O O12 0.468707 0.351131 0.321150
O O13 0.461847 0.313259 0.452949
O O14 0.750000 0.157584 0.496442
O O15 0.472150 0.186946 0.508905
O O16 0.750000 0.654464 0.778447
O O17 0.750000 0.935199 0.792343
O O18 0.000000 0.000000 0.815005
O O19 0.750000 0.775092 0.035864
#
# Coordination Sequence:
#
# PCOD9379131 Si02
#       8
#     8   4   8   8   8   8   8   8
#     4   9  19  36  55  82 119 156 195 239 290 357
#     4  12  24  38  60  92 128 170 216 264 312 370
#     4  10  21  38  61  91 120 152 201 256 306 362
#     4   9  19  37  60  87 116 151 198 248 300 368
#     4  10  22  37  53  83 124 161 198 247 301 355
#     4  11  22  40  62  88 123 167 215 255 304 375
#     4  11  22  37  57  84 116 150 191 244 304 364
#     4  10  19  37  64  89 113 152 201 251 305 368
#
# _framework density 18.954549
#
# number of rings (size 3 to 8) (size 9 to 14) (size 15 to 20)
#    0.000    1.867    2.667    2.400    0.933    3.733 
#    0.000    2.667    1.467    0.000    0.000    0.000 
#    0.000    0.000    0.000    0.000    0.000    0.000 
#
# Total GULP energy -167058.737142 kJ/mol
# GULP energy per Si atom -5568.624571 kJ/mol
# Density = 1.891141 g / cm^3
# Si number density = 18.954549 Si / 1000 Ang^3
#
#
#
# Elastic Constant Matrix: (Units=GPa)
#
#
# Indices 1 2 3 4 5 6 
#
# 1 93.7774 19.2421 53.1085 0.0000 0.0000 0.0000
# 2 19.2421 56.6054 31.3658 0.0000 0.0000 0.0000
# 3 53.1085 31.3658 147.2277 0.0000 0.0000 0.0000
# 4 0.0000 0.0000 0.0000 31.8617 0.0000 0.0000
# 5 0.0000 0.0000 0.0000 0.0000 12.2748 0.0000
# 6 0.0000 0.0000 0.0000 0.0000 0.0000 19.7739
#
#
#
# Elastic Compliance Matrix: (Units=1/GPa)
#
#
# Indices 1 2 3 4 5 6 
#
# 1 0.013631 -0.002165 -0.004456 0.000000 0.000000 0.000000
# 2 -0.002165 0.020375 -0.003560 0.000000 0.000000 0.000000
# 3 -0.004456 -0.003560 0.009158 0.000000 0.000000 0.000000
# 4 0.000000 0.000000 0.000000 0.031386 0.000000 0.000000
# 5 0.000000 0.000000 0.000000 0.000000 0.081468 0.000000
# 6 0.000000 0.000000 0.000000 0.000000 0.000000 0.050572
#
#
# Mechanical properties :
#
#
# Convention : Reuss Voigt Hill
#
# Bulk Modulus (GPa) = 43.85400 56.11592 49.98496
# Shear Modulus (GPa) = 21.31735 25.70835 23.51285
#
# Velocity S-wave (km/s) = 3.35723 3.68681 3.52587
# Velocity P-wave (km/s) = 6.18180 6.91327 6.55774
#
# Compressibility (1/GPa) = 0.02280294
#
# Stress axis : x y z
#
# Youngs Moduli (GPa) = 73.36100 49.08094 109.19468
#
# Poissons Ratio (x) = 0.10624 0.48657
# Poissons Ratio (y) = 0.15880 0.38871
# Poissons Ratio (z) = 0.32689 0.17472
#
# Static dielectric constant tensor:
#      x y z
#    x 1.663900 0.000000 0.000000 
#    y 0.000000 1.681250 0.000000 
#    z 0.000000 0.000000 1.692820 
# 
# From -- ./inp_files/18385.got.cif
#   From: 2010.05.17/outbox.cif.g08.bks.cpg/sg46_10_cif.got.tgz:18385.got - 2010.06.03 19:58:25.
