data_PCOD9379882
_publ_section_title
;
Structure prediction by ZEFSAII (Michael W. Deem and Ramdas Pophale) SiO2 
 PCOD9379882
Probable space group: I M A 2
;
_chemical_formula_sum "Si O2"
_cell_formula_units_Z 64
_cell_length_a 18.765733
_cell_length_b 12.631580
_cell_length_c 14.787982
_cell_angle_alpha 90.000000
_cell_angle_beta 90.000000
_cell_angle_gamma 90.000000
_cell_volume 3505.355936
_symmetry_space_group_name_H-M "I M A 2"
_symmetry_group_IT_number 46
_symmetry_cell_setting 'orthorhombic'
loop_
_space_group_symop_operation_xyz
x,y,z
-x,-y,z
1/2-x,y,z
1/2+x,-y,z
1/2+x,1/2+y,1/2+z
1/2-x,1/2-y,1/2+z
-x,1/2+y,1/2+z
x,1/2-y,1/2+z
loop_
_atom_site_type_symbol
_atom_site_label
_atom_site_fract_x
_atom_site_fract_y
_atom_site_fract_z
Si Si1 0.581441 0.028587 0.211810
Si Si2 0.442902 0.273435 0.477468
Si Si3 0.948370 0.243013 0.643558
Si Si4 0.418423 0.464637 0.920439
Si Si5 0.475886 0.620384 0.310864
Si Si6 0.666130 0.949431 0.042753
Si Si7 0.331165 0.856214 0.903781
Si Si8 0.832689 0.143239 0.520796
O O1 0.582332 0.154592 0.195782
O O2 0.500000 0.000000 0.187279
O O3 0.593643 0.988198 0.313747
O O4 0.635172 0.976067 0.141351
O O5 0.499060 0.270743 0.560587
O O6 0.414911 0.157111 0.450849
O O7 0.485325 0.318035 0.391407
O O8 0.379660 0.353671 0.502143
O O9 0.991671 0.174705 0.715835
O O10 0.882949 0.177138 0.603047
O O11 0.500000 0.500000 0.939047
O O12 0.364955 0.538869 0.975451
O O13 0.500000 0.500000 0.312596
O O14 0.391597 0.629081 0.329619
O O15 0.750000 0.926316 0.045635
O O16 0.656102 0.054199 0.980582
O O17 0.250000 0.868343 0.870972
O O18 0.337925 0.741241 0.950040
O O19 0.750000 0.131312 0.545135
#
# Coordination Sequence:
#
# PCOD9379882 Si02
#       8
#     8   8   8   8   8   8   8   8
#     4  11  21  38  67  99 125 163 224 272 314 379
#     4  12  24  43  68  93 131 172 216 261 318 389
#     4  12  24  38  66  98 127 166 216 272 320 378
#     4  11  23  41  65  95 132 171 216 267 323 388
#     4  12  24  40  66  99 125 168 218 268 324 381
#     4  11  23  40  66  97 128 170 217 268 322 377
#     4  10  20  40  64  92 128 164 208 262 321 381
#     4  11  23  40  64  94 130 172 210 261 329 381
#
# _framework density 18.257774999999999
#
# number of rings (size 3 to 8) (size 9 to 14) (size 15 to 20)
#    0.000    0.750    6.250    2.250    1.750    1.500 
#    0.000    0.000    0.000    0.000    0.000    0.000 
#    0.000    0.000    0.000    0.000    0.000    0.000 
#
# Total GULP energy -178838.199762 kJ/mol
# GULP energy per Si atom -5588.693743 kJ/mol
# Density = 1.821622 g / cm^3
# Si number density = 18.257775 Si / 1000 Ang^3
#
#
#
# Elastic Constant Matrix: (Units=GPa)
#
#
# Indices 1 2 3 4 5 6 
#
# 1 86.3827 37.2500 25.4990 0.0000 0.0000 0.0000
# 2 37.2500 142.4693 33.4530 0.0000 0.0000 0.0000
# 3 25.4990 33.4530 51.6833 0.0000 0.0000 0.0000
# 4 0.0000 0.0000 0.0000 30.0433 0.0000 0.0000
# 5 0.0000 0.0000 0.0000 0.0000 8.0277 0.0000
# 6 0.0000 0.0000 0.0000 0.0000 0.0000 25.0593
#
#
#
# Elastic Compliance Matrix: (Units=1/GPa)
#
#
# Indices 1 2 3 4 5 6 
#
# 1 0.014237 -0.002445 -0.005442 0.000000 0.000000 0.000000
# 2 -0.002445 0.008697 -0.004423 0.000000 0.000000 0.000000
# 3 -0.005442 -0.004423 0.024896 0.000000 0.000000 0.000000
# 4 0.000000 0.000000 0.000000 0.033285 0.000000 0.000000
# 5 0.000000 0.000000 0.000000 0.000000 0.124568 0.000000
# 6 0.000000 0.000000 0.000000 0.000000 0.000000 0.039905
#
#
# Mechanical properties :
#
#
# Convention : Reuss Voigt Hill
#
# Bulk Modulus (GPa) = 43.08268 52.54881 47.81575
# Shear Modulus (GPa) = 17.98918 24.91495 21.45206
#
# Velocity S-wave (km/s) = 3.14234 3.69809 3.43148
# Velocity P-wave (km/s) = 6.06744 6.86138 6.47659
#
# Compressibility (1/GPa) = 0.02321118
#
# Stress axis : x y z
#
# Youngs Moduli (GPa) = 70.24013 114.98477 40.16655
#
# Poissons Ratio (x) = 0.28109 0.21858
# Poissons Ratio (y) = 0.17171 0.17766
# Poissons Ratio (z) = 0.38223 0.50859
#
# Static dielectric constant tensor:
#      x y z
#    x 1.604920 0.000000 0.000000 
#    y 0.000000 1.633560 0.000000 
#    z 0.000000 0.000000 1.625210 
# 
# From -- ./inp_files/16741.got.cif
#   From: 2010.05.17/outbox.cif.g08.bks.cpg/sg46_9_cif.got.tgz:16741.got - 2010.06.03 19:58:25.
