data_PCOD9379211
_publ_section_title
;
Structure prediction by ZEFSAII (Michael W. Deem and Ramdas Pophale) SiO2 
 PCOD9379211
Probable space group: I M A 2
;
_chemical_formula_sum "Si O2"
_cell_formula_units_Z 48
_cell_length_a 14.483711
_cell_length_b 18.113569
_cell_length_c 9.139186
_cell_angle_alpha 90.000000
_cell_angle_beta 90.000000
_cell_angle_gamma 90.000000
_cell_volume 2397.680971
_symmetry_space_group_name_H-M "I M A 2"
_symmetry_group_IT_number 46
_symmetry_cell_setting 'orthorhombic'
loop_
_space_group_symop_operation_xyz
x,y,z
-x,-y,z
1/2-x,y,z
1/2+x,-y,z
1/2+x,1/2+y,1/2+z
1/2-x,1/2-y,1/2+z
-x,1/2+y,1/2+z
x,1/2-y,1/2+z
loop_
_atom_site_type_symbol
_atom_site_label
_atom_site_fract_x
_atom_site_fract_y
_atom_site_fract_z
Si Si1 0.646550 0.460011 0.458430
Si Si2 0.453538 0.118812 0.506047
Si Si3 0.750000 0.853673 0.475839
Si Si4 0.952402 0.079223 0.220686
Si Si5 0.250000 0.255812 0.709517
Si Si6 0.937658 0.709411 0.555799
Si Si7 0.043316 0.096595 0.835327
O O1 0.750000 0.449369 0.403593
O O2 0.640450 0.434506 0.628216
O O3 0.611742 0.543154 0.425644
O O4 0.563483 0.416323 0.379198
O O5 0.348581 0.109090 0.444011
O O6 0.530637 0.091555 0.392719
O O7 0.468335 0.205926 0.539478
O O8 0.450959 0.082084 0.664495
O O9 0.750000 0.827965 0.646603
O O10 0.750000 0.779115 0.377971
O O11 0.999406 0.151353 0.145630
O O12 0.000000 0.000000 0.189836
O O13 0.159037 0.290676 0.638758
O O14 0.931089 0.677697 0.391048
#
# Coordination Sequence:
#
# PCOD9379211 Si02
#       7
#     8   8   4   8   4   8   8
#     4  10  22  43  64  85 117 164 213 257 319 377
#     4  11  23  36  61  91 134 164 209 254 315 373
#     4  10  22  34  52  94 134 174 200 249 300 397
#     4  11  21  40  60  89 122 161 210 257 304 367
#     4  10  20  32  52  88 132 164 212 233 302 383
#     4  10  20  37  59  86 127 170 200 246 313 385
#     4  10  22  39  61  91 122 164 204 256 314 381
#
# _framework density 20.019345000000001
#
# number of rings (size 3 to 8) (size 9 to 14) (size 15 to 20)
#    0.000    1.667    5.000    1.000   11.667    0.000 
#    1.500    0.833    0.000   16.000    0.000    0.000 
#    0.000    0.000    0.000    0.000    0.000    0.000 
#
# Total GULP energy -133626.603727 kJ/mol
# GULP energy per Si atom -5567.775155 kJ/mol
# Density = 1.997378 g / cm^3
# Si number density = 20.019345 Si / 1000 Ang^3
#
#
#
# Elastic Constant Matrix: (Units=GPa)
#
#
# Indices 1 2 3 4 5 6 
#
# 1 93.3675 15.0251 11.5130 0.0000 0.0000 0.0000
# 2 15.0251 65.0118 1.1090 0.0000 0.0000 0.0000
# 3 11.5130 1.1090 105.3238 0.0000 0.0000 0.0000
# 4 0.0000 0.0000 0.0000 22.9682 0.0000 0.0000
# 5 0.0000 0.0000 0.0000 0.0000 19.2813 0.0000
# 6 0.0000 0.0000 0.0000 0.0000 0.0000 0.3001
#
#
#
# Elastic Compliance Matrix: (Units=1/GPa)
#
#
# Indices 1 2 3 4 5 6 
#
# 1 0.011275 -0.002585 -0.001205 0.000000 0.000000 0.000000
# 2 -0.002585 0.015977 0.000114 0.000000 0.000000 0.000000
# 3 -0.001205 0.000114 0.009625 0.000000 0.000000 0.000000
# 4 0.000000 0.000000 0.000000 0.043538 0.000000 0.000000
# 5 0.000000 0.000000 0.000000 0.000000 0.051864 0.000000
# 6 0.000000 0.000000 0.000000 0.000000 0.000000 3.332194
#
#
# Mechanical properties :
#
#
# Convention : Reuss Voigt Hill
#
# Bulk Modulus (GPa) = 33.86941 35.44413 34.65677
# Shear Modulus (GPa) = 1.43609 24.24699 12.84154
#
# Velocity S-wave (km/s) = 0.84789 3.48397 2.53545
# Velocity P-wave (km/s) = 4.23245 5.82473 5.09122
#
# Compressibility (1/GPa) = 0.02952516
#
# Stress axis : x y z
#
# Youngs Moduli (GPa) = 88.69170 62.58858 103.89534
#
# Poissons Ratio (x) = 0.16181 0.12522
# Poissons Ratio (y) = 0.22929 -0.01188
# Poissons Ratio (z) = 0.10690 -0.00716
#
# Static dielectric constant tensor:
#      x y z
#    x 1.701550 0.000000 0.000000 
#    y 0.000000 1.763930 0.000000 
#    z 0.000000 0.000000 1.801640 
# 
# From -- ./inp_files/5834.got.cif
#   From: 2010.05.17/outbox.cif.g08.bks.cpg/sg46_3_cif.got.tgz:5834.got - 2010.06.03 19:58:25.
