data_PCOD9379203
_publ_section_title
;
Structure prediction by ZEFSAII (Michael W. Deem and Ramdas Pophale) SiO2 
 PCOD9379203
Probable space group: I M A 2
;
_chemical_formula_sum "Si O2"
_cell_formula_units_Z 64
_cell_length_a 8.723385
_cell_length_b 14.584218
_cell_length_c 28.632705
_cell_angle_alpha 90.000000
_cell_angle_beta 90.000000
_cell_angle_gamma 90.000000
_cell_volume 3642.760061
_symmetry_space_group_name_H-M "I M A 2"
_symmetry_group_IT_number 46
_symmetry_cell_setting 'orthorhombic'
loop_
_space_group_symop_operation_xyz
x,y,z
-x,-y,z
1/2-x,y,z
1/2+x,-y,z
1/2+x,1/2+y,1/2+z
1/2-x,1/2-y,1/2+z
-x,1/2+y,1/2+z
x,1/2-y,1/2+z
loop_
_atom_site_type_symbol
_atom_site_label
_atom_site_fract_x
_atom_site_fract_y
_atom_site_fract_z
Si Si1 0.575692 0.643072 0.497880
Si Si2 0.934083 0.602037 0.680999
Si Si3 0.076886 0.143880 0.466891
Si Si4 0.569782 0.406377 0.060850
Si Si5 0.568175 0.095243 0.901763
Si Si6 0.934972 0.296136 0.592228
Si Si7 0.564895 0.788295 0.368402
Si Si8 0.065994 0.897941 0.281873
O O1 0.750000 0.606610 0.499065
O O2 0.585597 0.749599 0.482320
O O3 0.476897 0.599486 0.456632
O O4 0.498291 0.644679 0.548530
O O5 0.750000 0.599306 0.682104
O O6 0.000000 0.500000 0.672508
O O7 0.994698 0.666203 0.639783
O O8 0.999633 0.630798 0.731456
O O9 0.250000 0.105818 0.469214
O O10 0.022463 0.148803 0.413522
O O11 0.971878 0.099224 0.505927
O O12 0.500000 0.500000 0.080322
O O13 0.750000 0.410349 0.066330
O O14 0.517075 0.309943 0.083191
O O15 0.750000 0.097684 0.896553
O O16 0.494493 0.185599 0.878501
O O17 0.500000 0.000000 0.882908
O O18 0.750000 0.300615 0.592761
O O19 0.750000 0.787187 0.366319
O O20 0.492624 0.831093 0.322311
O O21 0.250000 0.901403 0.280314
O O22 0.000000 0.000000 0.290851
#
# Coordination Sequence:
#
# PCOD9379203 Si02
#       8
#     8   8   8   8   8   8   8   8
#     4   9  17  31  49  72 101 136 175 217 260 306
#     4  11  22  38  59  82 107 136 169 214 267 322
#     4   8  16  30  48  69  99 134 171 212 254 299
#     4  10  20  32  50  74 106 143 180 218 257 304
#     4  11  21  34  52  77 109 147 185 223 265 314
#     4  10  20  35  54  79 107 139 178 221 266 318
#     4  10  20  36  56  80 108 141 180 223 268 319
#     4  11  22  38  59  83 109 138 172 216 267 322
#
# _framework density 17.569095000000001
#
# number of rings (size 3 to 8) (size 9 to 14) (size 15 to 20)
#    0.000    2.000    0.000    6.375    0.000    6.000 
#    0.000    2.500    0.000    0.750    0.000    3.500 
#    0.000    0.000    0.000    0.000    0.000    0.000 
#
# Total GULP energy -178588.085445 kJ/mol
# GULP energy per Si atom -5580.877670 kJ/mol
# Density = 1.752911 g / cm^3
# Si number density = 17.569095 Si / 1000 Ang^3
#
#
#
# Elastic Constant Matrix: (Units=GPa)
#
#
# Indices 1 2 3 4 5 6 
#
# 1 113.6150 36.1943 54.0861 0.0000 0.0000 0.0000
# 2 36.1943 73.7385 65.2356 0.0000 0.0000 0.0000
# 3 54.0861 65.2356 138.8071 0.0000 0.0000 0.0000
# 4 0.0000 0.0000 0.0000 20.8254 0.0000 0.0000
# 5 0.0000 0.0000 0.0000 0.0000 28.4813 0.0000
# 6 0.0000 0.0000 0.0000 0.0000 0.0000 27.3419
#
#
#
# Elastic Compliance Matrix: (Units=1/GPa)
#
#
# Indices 1 2 3 4 5 6 
#
# 1 0.011130 -0.002784 -0.003029 0.000000 0.000000 0.000000
# 2 -0.002784 0.023909 -0.010152 0.000000 0.000000 0.000000
# 3 -0.003029 -0.010152 0.013155 0.000000 0.000000 0.000000
# 4 0.000000 0.000000 0.000000 0.048018 0.000000 0.000000
# 5 0.000000 0.000000 0.000000 0.000000 0.035111 0.000000
# 6 0.000000 0.000000 0.000000 0.000000 0.000000 0.036574
#
#
# Mechanical properties :
#
#
# Convention : Reuss Voigt Hill
#
# Bulk Modulus (GPa) = 61.47746 70.79917 66.13831
# Shear Modulus (GPa) = 24.36068 26.70602 25.53335
#
# Velocity S-wave (km/s) = 3.72770 3.90302 3.81637
# Velocity P-wave (km/s) = 7.32089 7.79079 7.55949
#
# Compressibility (1/GPa) = 0.01626612
#
# Stress axis : x y z
#
# Youngs Moduli (GPa) = 89.84518 41.82482 76.01422
#
# Poissons Ratio (x) = 0.11644 0.23021
# Poissons Ratio (y) = 0.25013 0.77169
# Poissons Ratio (z) = 0.27210 0.42460
#
# Static dielectric constant tensor:
#      x y z
#    x 1.593520 0.000000 0.000000 
#    y 0.000000 1.622650 0.000000 
#    z 0.000000 0.000000 1.582550 
# 
# From -- ./inp_files/25272.got.cif
#   From: 2010.05.17/outbox.cif.g08.bks.cpg/sg46_13_cif.got.tgz:25272.got - 2010.06.03 19:58:25.
