data_PCOD9379530
_publ_section_title
;
Structure prediction by ZEFSAII (Michael W. Deem and Ramdas Pophale) SiO2 
 PCOD9379530
Probable space group: I M A 2
;
_chemical_formula_sum "Si O2"
_cell_formula_units_Z 60
_cell_length_a 19.172529
_cell_length_b 5.247735
_cell_length_c 30.997740
_cell_angle_alpha 90.000000
_cell_angle_beta 90.000000
_cell_angle_gamma 90.000000
_cell_volume 3118.755512
_symmetry_space_group_name_H-M "I M A 2"
_symmetry_group_IT_number 46
_symmetry_cell_setting 'orthorhombic'
loop_
_space_group_symop_operation_xyz
x,y,z
-x,-y,z
1/2-x,y,z
1/2+x,-y,z
1/2+x,1/2+y,1/2+z
1/2-x,1/2-y,1/2+z
-x,1/2+y,1/2+z
x,1/2-y,1/2+z
loop_
_atom_site_type_symbol
_atom_site_label
_atom_site_fract_x
_atom_site_fract_y
_atom_site_fract_z
Si Si1 0.611028 0.902792 0.156400
Si Si2 0.577116 0.120134 0.538965
Si Si3 0.584444 0.494280 0.941676
Si Si4 0.830443 0.984099 0.802830
Si Si5 0.829867 0.075230 0.616788
Si Si6 0.415444 0.002057 0.890200
Si Si7 0.500000 0.500000 0.592782
Si Si8 0.668606 0.020624 0.245265
O O1 0.661387 0.664189 0.148321
O O2 0.614203 0.961769 0.207045
O O3 0.636237 0.170719 0.136424
O O4 0.541729 0.830644 0.128515
O O5 0.631407 0.006220 0.572474
O O6 0.558217 0.395343 0.559387
O O7 0.500000 0.000000 0.541673
O O8 0.603361 0.081277 0.490585
O O9 0.500000 0.500000 0.941905
O O10 0.606785 0.266661 0.910541
O O11 0.605515 0.767076 0.922349
O O12 0.750000 0.023998 0.817050
O O13 0.880672 0.970279 0.843776
O O14 0.847357 0.219543 0.770944
O O15 0.833450 0.719024 0.777236
O O16 0.750000 0.129647 0.608386
O O17 0.500000 0.000000 0.886811
O O18 0.750000 0.042451 0.228933
#
# Coordination Sequence:
#
# PCOD9379530 Si02
#       8
#     8   8   8   8   8   8   4   8
#     4  11  22  38  57  84 117 150 197 239 281 342
#     4  10  20  36  57  82 114 152 193 234 280 343
#     4   9  20  32  59  82 109 142 186 226 273 333
#     4  10  21  38  59  81 110 146 185 226 281 342
#     4  11  22  36  57  82 115 154 190 239 287 334
#     4  10  20  38  55  84 108 139 182 230 279 333
#     4  10  22  36  58  86 118 154 196 236 294 330
#     4  10  20  36  58  82 108 148 189 226 274 342
#
# _framework density 19.238443
#
# number of rings (size 3 to 8) (size 9 to 14) (size 15 to 20)
#    0.000    1.867    1.333    2.800    4.667    1.067 
#    2.400    1.333    0.000    0.000    0.000    0.000 
#    0.000    0.000    0.000    0.000    0.000    0.000 
#
# Total GULP energy -167113.883174 kJ/mol
# GULP energy per Si atom -5570.462772 kJ/mol
# Density = 1.919466 g / cm^3
# Si number density = 19.238443 Si / 1000 Ang^3
#
#
#
# Elastic Constant Matrix: (Units=GPa)
#
#
# Indices 1 2 3 4 5 6 
#
# 1 28.6054 3.9089 27.9358 0.0000 0.0000 0.0000
# 2 3.9089 84.7917 18.4104 0.0000 0.0000 0.0000
# 3 27.9358 18.4104 86.6456 0.0000 0.0000 0.0000
# 4 0.0000 0.0000 0.0000 27.5545 0.0000 0.0000
# 5 0.0000 0.0000 0.0000 0.0000 11.4933 0.0000
# 6 0.0000 0.0000 0.0000 0.0000 0.0000 34.2096
#
#
#
# Elastic Compliance Matrix: (Units=1/GPa)
#
#
# Indices 1 2 3 4 5 6 
#
# 1 0.051157 0.001282 -0.016766 0.000000 0.000000 0.000000
# 2 0.001282 0.012396 -0.003047 0.000000 0.000000 0.000000
# 3 -0.016766 -0.003047 0.017594 0.000000 0.000000 0.000000
# 4 0.000000 0.000000 0.000000 0.036292 0.000000 0.000000
# 5 0.000000 0.000000 0.000000 0.000000 0.087007 0.000000
# 6 0.000000 0.000000 0.000000 0.000000 0.000000 0.029232
#
#
# Mechanical properties :
#
#
# Convention : Reuss Voigt Hill
#
# Bulk Modulus (GPa) = 22.68359 33.39475 28.03917
# Shear Modulus (GPa) = 17.51711 24.63733 21.07722
#
# Velocity S-wave (km/s) = 3.02077 3.58247 3.31354
# Velocity P-wave (km/s) = 4.89725 5.87437 5.40792
#
# Compressibility (1/GPa) = 0.04408474
#
# Stress axis : x y z
#
# Youngs Moduli (GPa) = 19.54769 80.67029 56.83633
#
# Poissons Ratio (x) = -0.10342 0.95292
# Poissons Ratio (y) = -0.02506 0.17320
# Poissons Ratio (z) = 0.32774 0.24582
#
# Static dielectric constant tensor:
#      x y z
#    x 1.703490 0.000000 0.000000 
#    y 0.000000 1.882330 0.000000 
#    z 0.000000 0.000000 1.665780 
# 
# From -- ./inp_files/24706.got.cif
#   From: 2010.05.17/outbox.cif.g08.bks.cpg/sg46_13_cif.got.tgz:24706.got - 2010.06.03 19:58:25.
