data_PCOD9379137
_publ_section_title
;
Structure prediction by ZEFSAII (Michael W. Deem and Ramdas Pophale) SiO2 
 PCOD9379137
Probable space group: I M A 2
;
_chemical_formula_sum "Si O2"
_cell_formula_units_Z 64
_cell_length_a 23.389930
_cell_length_b 14.519746
_cell_length_c 8.050916
_cell_angle_alpha 90.000000
_cell_angle_beta 90.000000
_cell_angle_gamma 90.000000
_cell_volume 2734.218621
_symmetry_space_group_name_H-M "I M A 2"
_symmetry_group_IT_number 46
_symmetry_cell_setting 'orthorhombic'
loop_
_space_group_symop_operation_xyz
x,y,z
-x,-y,z
1/2-x,y,z
1/2+x,-y,z
1/2+x,1/2+y,1/2+z
1/2-x,1/2-y,1/2+z
-x,1/2+y,1/2+z
x,1/2-y,1/2+z
loop_
_atom_site_type_symbol
_atom_site_label
_atom_site_fract_x
_atom_site_fract_y
_atom_site_fract_z
Si Si1 0.960415 0.898437 0.956930
Si Si2 0.497543 0.105948 0.587205
Si Si3 0.609921 0.204909 0.512416
Si Si4 0.813539 0.826918 0.174059
Si Si5 0.611666 0.787009 0.469194
Si Si6 0.684994 0.173435 0.809415
Si Si7 0.428198 0.912857 0.102369
Si Si8 0.312801 0.533300 0.619583
O O1 0.998709 0.887734 0.789311
O O2 0.917961 0.812967 0.949282
O O3 0.003171 0.897142 0.116789
O O4 0.930330 0.998020 0.976017
O O5 0.549560 0.154619 0.490305
O O6 0.436828 0.150139 0.545756
O O7 0.500000 0.000000 0.541740
O O8 0.642119 0.151932 0.660152
O O9 0.658756 0.231323 0.380478
O O10 0.589635 0.308892 0.557196
O O11 0.750000 0.815130 0.244527
O O12 0.864669 0.832647 0.304641
O O13 0.831642 0.737305 0.071971
O O14 0.812757 0.924594 0.080424
O O15 0.750000 0.186698 0.752191
O O16 0.685533 0.096525 0.954001
O O17 0.373073 0.944353 0.211855
O O18 0.250000 0.551733 0.699623
#
# Coordination Sequence:
#
# PCOD9379137 Si02
#       8
#     8   8   8   8   8   8   8   8
#     4  11  21  40  69  97 133 177 229 281 344 422
#     4  12  25  42  64  97 142 180 229 289 348 414
#     4  11  23  40  70  99 137 177 231 281 350 411
#     4  11  24  44  71  99 137 180 231 287 340 413
#     4  12  24  43  68 102 135 182 232 282 356 412
#     4  10  22  42  70 101 139 181 229 282 344 419
#     4  10  19  37  67  97 124 175 222 278 339 412
#     4   9  19  37  64  97 129 173 222 272 334 407
#
# _framework density 23.407052
#
# number of rings (size 3 to 8) (size 9 to 14) (size 15 to 20)
#    0.000    1.250    5.000    2.250    0.000    0.500 
#    4.500    0.000    0.000    1.500    0.000    0.000 
#    0.000    0.000    0.000    0.000    0.000    0.000 
#
# Total GULP energy -178178.799686 kJ/mol
# GULP energy per Si atom -5568.087490 kJ/mol
# Density = 2.335378 g / cm^3
# Si number density = 23.407052 Si / 1000 Ang^3
#
#
#
# Elastic Constant Matrix: (Units=GPa)
#
#
# Indices 1 2 3 4 5 6 
#
# 1 161.1459 48.3670 22.2042 0.0000 0.0000 0.0000
# 2 48.3670 125.5328 11.1321 0.0000 0.0000 0.0000
# 3 22.2042 11.1321 40.0278 0.0000 0.0000 0.0000
# 4 0.0000 0.0000 0.0000 21.1036 0.0000 0.0000
# 5 0.0000 0.0000 0.0000 0.0000 31.9447 0.0000
# 6 0.0000 0.0000 0.0000 0.0000 0.0000 38.9082
#
#
#
# Elastic Compliance Matrix: (Units=1/GPa)
#
#
# Indices 1 2 3 4 5 6 
#
# 1 0.007447 -0.002566 -0.003417 0.000000 0.000000 0.000000
# 2 -0.002566 0.009052 -0.001094 0.000000 0.000000 0.000000
# 3 -0.003417 -0.001094 0.027182 0.000000 0.000000 0.000000
# 4 0.000000 0.000000 0.000000 0.047385 0.000000 0.000000
# 5 0.000000 0.000000 0.000000 0.000000 0.031304 0.000000
# 6 0.000000 0.000000 0.000000 0.000000 0.000000 0.025702
#
#
# Mechanical properties :
#
#
# Convention : Reuss Voigt Hill
#
# Bulk Modulus (GPa) = 33.86789 54.45701 44.16245
# Shear Modulus (GPa) = 29.05826 34.72484 31.89155
#
# Velocity S-wave (km/s) = 3.52722 3.85583 3.69518
# Velocity P-wave (km/s) = 5.57574 6.56802 6.09212
#
# Compressibility (1/GPa) = 0.02952649
#
# Stress axis : x y z
#
# Youngs Moduli (GPa) = 134.28948 110.47579 36.78851
#
# Poissons Ratio (x) = 0.28349 0.12571
# Poissons Ratio (y) = 0.34460 0.04024
# Poissons Ratio (z) = 0.45888 0.12085
#
# Static dielectric constant tensor:
#      x y z
#    x 1.942680 0.000000 0.000000 
#    y 0.000000 1.847440 0.000000 
#    z 0.000000 0.000000 2.090530 
# 
# From -- ./inp_files/7971.got.cif
#   From: 2010.05.17/outbox.cif.g08.bks.cpg/sg46_4_cif.got.tgz:7971.got - 2010.06.03 19:58:25.
