data_PCOD9379842
_publ_section_title
;
Structure prediction by ZEFSAII (Michael W. Deem and Ramdas Pophale) SiO2 
 PCOD9379842
Probable space group: I M A 2
;
_chemical_formula_sum "Si O2"
_cell_formula_units_Z 48
_cell_length_a 8.579631
_cell_length_b 18.755871
_cell_length_c 15.194250
_cell_angle_alpha 90.000000
_cell_angle_beta 90.000000
_cell_angle_gamma 90.000000
_cell_volume 2445.035193
_symmetry_space_group_name_H-M "I M A 2"
_symmetry_group_IT_number 46
_symmetry_cell_setting 'orthorhombic'
loop_
_space_group_symop_operation_xyz
x,y,z
-x,-y,z
1/2-x,y,z
1/2+x,-y,z
1/2+x,1/2+y,1/2+z
1/2-x,1/2-y,1/2+z
-x,1/2+y,1/2+z
x,1/2-y,1/2+z
loop_
_atom_site_type_symbol
_atom_site_label
_atom_site_fract_x
_atom_site_fract_y
_atom_site_fract_z
Si Si1 0.437432 0.924330 0.244450
Si Si2 0.438539 0.698561 0.612689
Si Si3 0.064778 0.076202 0.787386
Si Si4 0.437329 0.799175 0.910859
Si Si5 0.935766 0.640799 0.918382
Si Si6 0.062542 0.861978 0.612540
O O1 0.250000 0.924566 0.245781
O O2 0.493499 0.860133 0.181438
O O3 0.500903 0.909576 0.341843
O O4 0.500000 0.000000 0.212123
O O5 0.250000 0.698852 0.616720
O O6 0.480088 0.681656 0.511744
O O7 0.487150 0.779770 0.631798
O O8 0.250000 0.076684 0.792925
O O9 0.995906 0.140779 0.844845
O O10 0.010810 0.089090 0.687090
O O11 0.000000 0.000000 0.818040
O O12 0.250000 0.792863 0.904616
O O13 0.509116 0.721207 0.894741
O O14 0.750000 0.637985 0.923073
O O15 0.007248 0.622515 0.013620
O O16 0.250000 0.865920 0.616669
#
# Coordination Sequence:
#
# PCOD9379842 Si02
#       6
#     8   8   8   8   8   8
#     4  11  22  38  57  83 117 155 194 238 290 348
#     4   8  18  36  61  86 112 147 190 234 284 340
#     4  12  25  40  58  86 120 157 196 241 294 353
#     4  10  20  39  63  88 117 154 195 240 290 345
#     4  11  22  38  60  89 118 151 195 244 291 344
#     4  10  20  39  64  88 113 150 194 241 292 348
#
# _framework density 19.631620000000002
#
# number of rings (size 3 to 8) (size 9 to 14) (size 15 to 20)
#    0.000    1.667    0.000    6.500    0.000    2.667 
#    0.000   14.167    0.000    0.000    0.000    0.000 
#    0.000    0.000    0.000    0.000    0.000    0.000 
#
# Total GULP energy -134173.552929 kJ/mol
# GULP energy per Si atom -5590.564705 kJ/mol
# Density = 1.958694 g / cm^3
# Si number density = 19.631620 Si / 1000 Ang^3
#
#
#
# Elastic Constant Matrix: (Units=GPa)
#
#
# Indices 1 2 3 4 5 6 
#
# 1 87.3663 8.2277 5.7766 0.0000 0.0000 0.0000
# 2 8.2277 29.4526 19.2634 0.0000 0.0000 0.0000
# 3 5.7766 19.2634 43.3633 0.0000 0.0000 0.0000
# 4 0.0000 0.0000 0.0000 -1.0110 0.0000 0.0000
# 5 0.0000 0.0000 0.0000 0.0000 25.2905 0.0000
# 6 0.0000 0.0000 0.0000 0.0000 0.0000 31.5329
#
#
#
# Elastic Compliance Matrix: (Units=1/GPa)
#
#
# Indices 1 2 3 4 5 6 
#
# 1 0.011756 -0.003185 -0.000151 0.000000 0.000000 0.000000
# 2 -0.003185 0.048721 -0.021219 0.000000 0.000000 0.000000
# 3 -0.000151 -0.021219 0.032507 -0.000001 0.000000 0.000000
# 4 0.000000 0.000000 -0.000001 -0.989100 0.000000 0.000000
# 5 0.000000 0.000000 0.000000 0.000000 0.039540 0.000000
# 6 0.000000 0.000000 0.000000 0.000000 0.000000 0.031713
#
#
# Mechanical properties :
#
#
# Convention : Reuss Voigt Hill
#
# Bulk Modulus (GPa) = 22.79288 25.19087 23.99188
# Shear Modulus (GPa) = -6.56921 19.62345 6.52712
#
# Velocity S-wave (km/s) = -1.83126 3.16505 1.82538
# Velocity P-wave (km/s) = 2.67659 5.12019 4.08537
#
# Compressibility (1/GPa) = 0.04387334
#
# Stress axis : x y z
#
# Youngs Moduli (GPa) = 85.06281 20.52501 30.76228
#
# Poissons Ratio (x) = 0.06538 0.00465
# Poissons Ratio (y) = 0.27095 0.65275
# Poissons Ratio (z) = 0.01285 0.43552
#
# Static dielectric constant tensor:
#      x y z
#    x 1.659230 0.000000 0.000000 
#    y 0.000000 1.689040 0.000000 
#    z 0.000000 0.000000 1.679750 
# 
# From -- ./inp_files/13894.got.cif
#   From: 2010.05.17/outbox.cif.g08.bks.cpg/sg46_7_cif.got.tgz:13894.got - 2010.06.03 19:58:25.
