data_PCOD9379728
_publ_section_title
;
Structure prediction by ZEFSAII (Michael W. Deem and Ramdas Pophale) SiO2 
 PCOD9379728
Probable space group: I M A 2
;
_chemical_formula_sum "Si O2"
_cell_formula_units_Z 48
_cell_length_a 17.878060
_cell_length_b 13.898850
_cell_length_c 9.501239
_cell_angle_alpha 90.000000
_cell_angle_beta 90.000000
_cell_angle_gamma 90.000000
_cell_volume 2360.910377
_symmetry_space_group_name_H-M "I M A 2"
_symmetry_group_IT_number 46
_symmetry_cell_setting 'orthorhombic'
loop_
_space_group_symop_operation_xyz
x,y,z
-x,-y,z
1/2-x,y,z
1/2+x,-y,z
1/2+x,1/2+y,1/2+z
1/2-x,1/2-y,1/2+z
-x,1/2+y,1/2+z
x,1/2-y,1/2+z
loop_
_atom_site_type_symbol
_atom_site_label
_atom_site_fract_x
_atom_site_fract_y
_atom_site_fract_z
Si Si1 0.076274 0.462070 0.608620
Si Si2 0.553925 0.311351 0.113771
Si Si3 0.835857 0.361766 0.678931
Si Si4 0.335206 0.543108 0.991155
Si Si5 0.541159 0.694937 0.389289
Si Si6 0.837925 0.653876 0.845202
O O1 0.128234 0.554116 0.583952
O O2 0.050125 0.403632 0.473591
O O3 0.120344 0.389359 0.709159
O O4 0.000000 0.500000 0.681656
O O5 0.614463 0.232239 0.163542
O O6 0.493609 0.321357 0.236711
O O7 0.600006 0.407418 0.080127
O O8 0.513132 0.266301 0.977491
O O9 0.750000 0.343146 0.641917
O O10 0.838147 0.405156 0.837184
O O11 0.250000 0.557572 0.044885
O O12 0.346699 0.429995 0.962271
O O13 0.620509 0.748621 0.382972
O O14 0.750000 0.665297 0.819179
#
# Coordination Sequence:
#
# PCOD9379728 Si02
#       6
#     8   8   8   8   8   8
#     4  11  21  41  66  90 126 165 220 262 315 382
#     4  12  22  41  63  97 132 167 215 264 323 385
#     4  10  20  37  65  95 128 170 213 264 322 388
#     4   9  20  39  66  94 126 168 214 264 320 385
#     4  12  24  41  65  94 131 173 213 268 318 382
#     4  10  23  43  67  94 126 171 219 265 322 387
#
# _framework density 20.331140999999999
#
# number of rings (size 3 to 8) (size 9 to 14) (size 15 to 20)
#    0.000    1.333    5.000    2.000    2.333    1.333 
#    3.000    0.000    0.000    0.000    0.000    0.000 
#    0.000    0.000    0.000    0.000    0.000    0.000 
#
# Total GULP energy -134152.674141 kJ/mol
# GULP energy per Si atom -5589.694756 kJ/mol
# Density = 2.028487 g / cm^3
# Si number density = 20.331141 Si / 1000 Ang^3
#
#
#
# Elastic Constant Matrix: (Units=GPa)
#
#
# Indices 1 2 3 4 5 6 
#
# 1 121.3116 42.4334 27.8205 0.0000 0.0000 0.0000
# 2 42.4334 54.9903 11.9414 0.0000 0.0000 0.0000
# 3 27.8205 11.9414 52.3894 0.0000 0.0000 0.0000
# 4 0.0000 0.0000 0.0000 22.9292 0.0000 0.0000
# 5 0.0000 0.0000 0.0000 0.0000 17.7291 0.0000
# 6 0.0000 0.0000 0.0000 0.0000 0.0000 40.2455
#
#
#
# Elastic Compliance Matrix: (Units=1/GPa)
#
#
# Indices 1 2 3 4 5 6 
#
# 1 0.012253 -0.008461 -0.004578 0.000000 0.000000 0.000000
# 2 -0.008461 0.024974 -0.001200 0.000000 0.000000 0.000000
# 3 -0.004578 -0.001200 0.021792 0.000000 0.000000 0.000000
# 4 0.000000 0.000000 0.000000 0.043612 0.000000 0.000000
# 5 0.000000 0.000000 0.000000 0.000000 0.056404 0.000000
# 6 0.000000 0.000000 0.000000 0.000000 0.000000 0.024847
#
#
# Mechanical properties :
#
#
# Convention : Reuss Voigt Hill
#
# Bulk Modulus (GPa) = 32.74126 43.67577 38.20852
# Shear Modulus (GPa) = 22.46782 25.94718 24.20750
#
# Velocity S-wave (km/s) = 3.32790 3.57631 3.45434
# Velocity P-wave (km/s) = 5.55927 6.21145 5.89439
#
# Compressibility (1/GPa) = 0.03054250
#
# Stress axis : x y z
#
# Youngs Moduli (GPa) = 81.61597 40.04146 45.88767
#
# Poissons Ratio (x) = 0.33877 0.21007
# Poissons Ratio (y) = 0.69051 0.05505
# Poissons Ratio (z) = 0.37364 0.04804
#
# Static dielectric constant tensor:
#      x y z
#    x 1.717200 0.000000 0.000000 
#    y 0.000000 1.702590 0.000000 
#    z 0.000000 0.000000 1.718520 
# 
# From -- ./inp_files/6614.got.cif
#   From: 2010.05.17/outbox.cif.g08.bks.cpg/sg46_4_cif.got.tgz:6614.got - 2010.06.03 19:58:25.
