data_PCOD9379037
_publ_section_title
;
Structure prediction by ZEFSAII (Michael W. Deem and Ramdas Pophale) SiO2 
 PCOD9379037
Probable space group: I M A 2
;
_chemical_formula_sum "Si O2"
_cell_formula_units_Z 64
_cell_length_a 7.824117
_cell_length_b 27.261680
_cell_length_c 13.460270
_cell_angle_alpha 90.000000
_cell_angle_beta 90.000000
_cell_angle_gamma 90.000000
_cell_volume 2871.056396
_symmetry_space_group_name_H-M "I M A 2"
_symmetry_group_IT_number 46
_symmetry_cell_setting 'orthorhombic'
loop_
_space_group_symop_operation_xyz
x,y,z
-x,-y,z
1/2-x,y,z
1/2+x,-y,z
1/2+x,1/2+y,1/2+z
1/2-x,1/2-y,1/2+z
-x,1/2+y,1/2+z
x,1/2-y,1/2+z
loop_
_atom_site_type_symbol
_atom_site_label
_atom_site_fract_x
_atom_site_fract_y
_atom_site_fract_z
Si Si1 0.960339 0.368752 0.009030
Si Si2 0.959595 0.097560 0.135584
Si Si3 0.446598 0.742691 0.997035
Si Si4 0.043596 0.942787 0.922765
Si Si5 0.555478 0.113265 0.729613
Si Si6 0.445553 0.704120 0.703390
Si Si7 0.045184 0.945330 0.341562
Si Si8 0.563134 0.708266 0.319395
O O1 0.750000 0.367462 0.011382
O O2 0.018686 0.386717 0.118331
O O3 0.015338 0.312532 0.992034
O O4 0.015309 0.404409 0.920027
O O5 0.750000 0.097755 0.131523
O O6 0.013970 0.152130 0.167675
O O7 0.014634 0.063840 0.228347
O O8 0.018724 0.080792 0.026770
O O9 0.250000 0.742581 0.960896
O O10 0.537525 0.785699 0.936091
O O11 0.445194 0.759539 0.110134
O O12 0.250000 0.936851 0.922563
O O13 0.977417 0.916857 0.821937
O O14 0.000000 0.000000 0.922186
O O15 0.750000 0.095145 0.718451
O O16 0.559201 0.169570 0.767620
O O17 0.250000 0.695736 0.736924
O O18 0.539544 0.735649 0.785505
O O19 0.250000 0.940803 0.339363
O O20 0.000000 0.000000 0.374121
O O21 0.750000 0.690628 0.292430
#
# Coordination Sequence:
#
# PCOD9379037 Si02
#       8
#     8   8   8   8   8   8   8   8
#     4   9  18  35  59  83 105 141 192 246 281 319
#     4   9  18  34  57  85 112 143 187 239 284 339
#     4  10  19  35  60  83 107 147 196 238 278 336
#     4  10  21  37  60  86 113 147 190 243 297 347
#     4  10  20  39  61  81 109 151 203 241 276 342
#     4  10  19  36  62  85 106 145 200 239 274 333
#     4  10  20  35  55  79 110 143 184 232 285 338
#     4  12  24  35  52  84 124 155 181 230 298 352
#
# _framework density 22.291446000000001
#
# number of rings (size 3 to 8) (size 9 to 14) (size 15 to 20)
#    0.000    2.000    1.250    3.000    0.000    5.500 
#    0.000    3.750    0.000    0.000    0.000    0.000 
#    0.000    0.000    0.000    0.000    0.000    0.000 
#
# Total GULP energy -178642.690641 kJ/mol
# GULP energy per Si atom -5582.584083 kJ/mol
# Density = 2.224071 g / cm^3
# Si number density = 22.291446 Si / 1000 Ang^3
#
#
#
# Elastic Constant Matrix: (Units=GPa)
#
#
# Indices 1 2 3 4 5 6 
#
# 1 30.4030 -9.2051 1.0186 0.0000 0.0000 0.0000
# 2 -9.2051 95.4010 21.1342 0.0000 -0.0001 0.0000
# 3 1.0186 21.1342 115.8933 -0.0001 -0.0002 -0.0001
# 4 0.0000 0.0000 -0.0001 36.5810 -0.0001 0.0000
# 5 0.0000 -0.0001 -0.0002 -0.0001 -10.1584 0.0000
# 6 0.0000 0.0000 -0.0001 0.0000 0.0000 18.1420
#
#
#
# Elastic Compliance Matrix: (Units=1/GPa)
#
#
# Indices 1 2 3 4 5 6 
#
# 1 0.033978 0.003485 -0.000934 0.000000 0.000000 0.000000
# 2 0.003485 0.011281 -0.002088 0.000000 0.000000 0.000000
# 3 -0.000934 -0.002088 0.009018 0.000000 0.000000 0.000000
# 4 0.000000 0.000000 0.000000 0.027337 0.000000 0.000000
# 5 0.000000 0.000000 0.000000 0.000000 -0.098440 0.000000
# 6 0.000000 0.000000 0.000000 0.000000 0.000000 0.055121
#
#
# Mechanical properties :
#
#
# Convention : Reuss Voigt Hill
#
# Bulk Modulus (GPa) = 18.11483 29.73251 23.92367
# Shear Modulus (GPa) = 89.65781 24.16289 56.91035
#
# Velocity S-wave (km/s) = 6.34886 3.29592 5.05822
# Velocity P-wave (km/s) = 7.86690 5.27742 6.69848
#
# Compressibility (1/GPa) = 0.05520339
#
# Stress axis : x y z
#
# Youngs Moduli (GPa) = 29.43071 88.64545 110.89459
#
# Poissons Ratio (x) = -0.30897 0.10360
# Poissons Ratio (y) = -0.10258 0.23153
# Poissons Ratio (z) = 0.02750 0.18507
#
# Static dielectric constant tensor:
#      x y z
#    x 1.862700 0.000000 0.000000 
#    y 0.000000 1.783290 0.000000 
#    z 0.000000 0.000000 1.846440 
# 
# From -- ./inp_files/9709.got.cif
#   From: 2010.05.17/outbox.cif.g08.bks.cpg/sg46_5_cif.got.tgz:9709.got - 2010.06.03 19:58:25.
