data_PCOD9379444
_publ_section_title
;
Structure prediction by ZEFSAII (Michael W. Deem and Ramdas Pophale) SiO2 
 PCOD9379444
Probable space group: I M A 2
;
_chemical_formula_sum "Si O2"
_cell_formula_units_Z 48
_cell_length_a 8.689372
_cell_length_b 9.439142
_cell_length_c 32.032059
_cell_angle_alpha 90.000000
_cell_angle_beta 90.000000
_cell_angle_gamma 90.000000
_cell_volume 2627.276404
_symmetry_space_group_name_H-M "I M A 2"
_symmetry_group_IT_number 46
_symmetry_cell_setting 'orthorhombic'
loop_
_space_group_symop_operation_xyz
x,y,z
-x,-y,z
1/2-x,y,z
1/2+x,-y,z
1/2+x,1/2+y,1/2+z
1/2-x,1/2-y,1/2+z
-x,1/2+y,1/2+z
x,1/2-y,1/2+z
loop_
_atom_site_type_symbol
_atom_site_label
_atom_site_fract_x
_atom_site_fract_y
_atom_site_fract_z
Si Si1 0.065673 0.159778 0.628170
Si Si2 0.433676 0.841865 0.960499
Si Si3 0.434688 0.341843 0.790584
Si Si4 0.066297 0.660034 0.214426
Si Si5 0.434652 0.159216 0.535826
Si Si6 0.934444 0.657902 0.371942
O O1 0.250000 0.155614 0.632997
O O2 0.029390 0.220217 0.582256
O O3 0.991175 0.221944 0.669920
O O4 0.000000 0.000000 0.626742
O O5 0.250000 0.846012 0.959744
O O6 0.495914 0.789291 0.915706
O O7 0.500000 0.000000 0.965209
O O8 0.493177 0.748705 0.998700
O O9 0.500000 0.500000 0.791353
O O10 0.250000 0.345176 0.786587
O O11 0.504776 0.254414 0.752147
O O12 0.473062 0.259173 0.833381
O O13 0.250000 0.652503 0.214752
O O14 0.000000 0.500000 0.218426
O O15 0.250000 0.154840 0.531878
O O16 0.500000 0.000000 0.533906
O O17 0.750000 0.648474 0.375817
O O18 0.000000 0.500000 0.364450
#
# Coordination Sequence:
#
# PCOD9379444 Si02
#       6
#     8   8   8   8   8   8
#     4   9  17  31  53  80 110 143 183 229 272 319
#     4  11  22  37  58  82 112 147 184 228 275 326
#     4  11  24  40  58  82 113 146 181 225 277 330
#     4  11  21  35  58  84 112 146 186 229 271 323
#     4  10  20  35  56  83 114 147 185 228 274 325
#     4  10  21  38  60  83 108 141 184 229 272 325
#
# _framework density 18.269870999999998
#
# number of rings (size 3 to 8) (size 9 to 14) (size 15 to 20)
#    0.000    1.667    0.000    7.500    0.000    6.667 
#    0.000    2.500    0.000    4.000    0.000    0.000 
#    0.000    0.000    0.000    0.000    0.000    0.000 
#
# Total GULP energy -134029.366071 kJ/mol
# GULP energy per Si atom -5584.556920 kJ/mol
# Density = 1.822829 g / cm^3
# Si number density = 18.269871 Si / 1000 Ang^3
#
#
#
# Elastic Constant Matrix: (Units=GPa)
#
#
# Indices 1 2 3 4 5 6 
#
# 1 125.7037 48.0839 99.6640 0.0000 0.0000 0.0000
# 2 48.0839 71.2571 91.1150 0.0000 0.0000 0.0000
# 3 99.6640 91.1150 225.1515 0.0000 0.0000 0.0000
# 4 0.0000 0.0000 0.0000 29.7866 0.0000 0.0000
# 5 0.0000 0.0000 0.0000 0.0000 55.8732 0.0000
# 6 0.0000 0.0000 0.0000 0.0000 0.0000 30.2839
#
#
#
# Elastic Compliance Matrix: (Units=1/GPa)
#
#
# Indices 1 2 3 4 5 6 
#
# 1 0.012525 -0.002824 -0.004402 0.000000 0.000000 0.000000
# 2 -0.002824 0.029720 -0.010777 0.000000 0.000000 0.000000
# 3 -0.004402 -0.010777 0.010751 0.000000 0.000000 0.000000
# 4 0.000000 0.000000 0.000000 0.033572 0.000000 0.000000
# 5 0.000000 0.000000 0.000000 0.000000 0.017898 0.000000
# 6 0.000000 0.000000 0.000000 0.000000 0.000000 0.033021
#
#
# Mechanical properties :
#
#
# Convention : Reuss Voigt Hill
#
# Bulk Modulus (GPa) = 58.85433 99.98201 79.41817
# Shear Modulus (GPa) = 27.90882 35.40535 31.65708
#
# Velocity S-wave (km/s) = 3.91268 4.40694 4.16714
# Velocity P-wave (km/s) = 7.25919 8.98548 8.16807
#
# Compressibility (1/GPa) = 0.01699110
#
# Stress axis : x y z
#
# Youngs Moduli (GPa) = 79.83963 33.64793 93.01338
#
# Poissons Ratio (x) = 0.09501 0.40941
# Poissons Ratio (y) = 0.22544 1.00241
# Poissons Ratio (z) = 0.35142 0.36263
#
# Static dielectric constant tensor:
#      x y z
#    x 1.606900 0.000000 0.000000 
#    y 0.000000 1.598130 0.000000 
#    z 0.000000 0.000000 1.654070 
# 
# From -- ./inp_files/25011.got.cif
#   From: 2010.05.17/outbox.cif.g08.bks.cpg/sg46_13_cif.got.tgz:25011.got - 2010.06.03 19:58:25.
