data_PCOD9379034
_publ_section_title
;
Structure prediction by ZEFSAII (Michael W. Deem and Ramdas Pophale) SiO2 
 PCOD9379034
Probable space group: I M A 2
;
_chemical_formula_sum "Si O2"
_cell_formula_units_Z 48
_cell_length_a 8.745281
_cell_length_b 28.784592
_cell_length_c 10.456550
_cell_angle_alpha 90.000000
_cell_angle_beta 90.000000
_cell_angle_gamma 90.000000
_cell_volume 2632.220488
_symmetry_space_group_name_H-M "I M A 2"
_symmetry_group_IT_number 46
_symmetry_cell_setting 'orthorhombic'
loop_
_space_group_symop_operation_xyz
x,y,z
-x,-y,z
1/2-x,y,z
1/2+x,-y,z
1/2+x,1/2+y,1/2+z
1/2-x,1/2-y,1/2+z
-x,1/2+y,1/2+z
x,1/2-y,1/2+z
loop_
_atom_site_type_symbol
_atom_site_label
_atom_site_fract_x
_atom_site_fract_y
_atom_site_fract_z
Si Si1 0.432398 0.549256 0.317060
Si Si2 0.569002 0.192612 0.161100
Si Si3 0.066502 0.451114 0.031741
Si Si4 0.567158 0.642465 0.414673
Si Si5 0.566542 0.704838 0.167992
Si Si6 0.433279 0.353387 0.911990
O O1 0.500000 0.500000 0.362221
O O2 0.250000 0.546816 0.312222
O O3 0.497667 0.556376 0.173340
O O4 0.488227 0.592574 0.400085
O O5 0.750000 0.190036 0.143394
O O6 0.516366 0.245988 0.171168
O O7 0.519189 0.166419 0.290000
O O8 0.486008 0.168973 0.040877
O O9 0.250000 0.454054 0.043820
O O10 0.000000 0.500000 0.983814
O O11 0.029338 0.406765 0.945036
O O12 0.750000 0.636462 0.414585
O O13 0.526510 0.673419 0.290359
O O14 0.750000 0.712672 0.171550
O O15 0.531532 0.677046 0.038024
O O16 0.250000 0.350186 0.890662
#
# Coordination Sequence:
#
# PCOD9379034 Si02
#       6
#     8   8   8   8   8   8
#     4  11  21  35  59  90 122 153 192 242 294 348
#     4  12  26  39  55  87 124 156 195 244 301 355
#     4  10  19  35  59  89 118 150 195 241 289 347
#     4  11  22  41  64  87 117 157 202 246 294 350
#     4  10  21  40  64  86 112 154 204 245 290 351
#     4  10  21  40  62  85 115 156 201 238 286 353
#
# _framework density 18.235555000000002
#
# number of rings (size 3 to 8) (size 9 to 14) (size 15 to 20)
#    0.000    1.333    1.667    6.000    0.000    7.333 
#    0.000    0.833    0.000    2.000    0.000    0.000 
#    0.000    0.000    0.000    0.000    0.000    0.000 
#
# Total GULP energy -134183.141606 kJ/mol
# GULP energy per Si atom -5590.964234 kJ/mol
# Density = 1.819405 g / cm^3
# Si number density = 18.235555 Si / 1000 Ang^3
#
#
#
# Elastic Constant Matrix: (Units=GPa)
#
#
# Indices 1 2 3 4 5 6 
#
# 1 81.5913 60.7068 36.7136 -0.0017 0.0000 0.0001
# 2 60.7068 148.6091 41.5989 -0.0019 0.0001 0.0002
# 3 36.7136 41.5989 83.8282 -0.0044 0.0000 0.0005
# 4 -0.0017 -0.0019 -0.0044 67.4795 0.0005 -0.0005
# 5 0.0000 0.0001 0.0000 0.0005 23.9756 0.0000
# 6 0.0001 0.0002 0.0005 -0.0005 0.0000 34.8050
#
#
#
# Elastic Compliance Matrix: (Units=1/GPa)
#
#
# Indices 1 2 3 4 5 6 
#
# 1 0.019453 -0.006459 -0.005315 0.000000 0.000000 0.000000
# 2 -0.006459 0.009959 -0.002113 0.000000 0.000000 0.000000
# 3 -0.005315 -0.002113 0.015305 0.000001 0.000000 0.000000
# 4 0.000000 0.000000 0.000001 0.014819 0.000000 0.000000
# 5 0.000000 0.000000 0.000000 0.000000 0.041709 0.000000
# 6 0.000000 0.000000 0.000000 0.000000 0.000000 0.028731
#
#
# Mechanical properties :
#
#
# Convention : Reuss Voigt Hill
#
# Bulk Modulus (GPa) = 59.01770 65.78524 62.40147
# Shear Modulus (GPa) = 30.59978 36.91930 33.75954
#
# Velocity S-wave (km/s) = 4.10082 4.50441 4.30735
# Velocity P-wave (km/s) = 7.40653 7.95025 7.68320
#
# Compressibility (1/GPa) = 0.01694407
#
# Stress axis : x y z
#
# Youngs Moduli (GPa) = 51.40496 100.41041 65.33604
#
# Poissons Ratio (x) = 0.64855 0.34724
# Poissons Ratio (y) = 0.33203 0.13807
# Poissons Ratio (z) = 0.27320 0.21220
#
# Static dielectric constant tensor:
#      x y z
#    x 1.607680 0.000000 0.000000 
#    y 0.000000 1.613660 0.000000 
#    z 0.000000 0.000000 1.593160 
# 
# From -- ./inp_files/3916.got.cif
#   From: 2010.05.17/outbox.cif.g08.bks.cpg/sg46_2_cif.got.tgz:3916.got - 2010.06.03 19:58:25.
