data_PCOD9379765
_publ_section_title
;
Structure prediction by ZEFSAII (Michael W. Deem and Ramdas Pophale) SiO2 
 PCOD9379765
Probable space group: I M A 2
;
_chemical_formula_sum "Si O2"
_cell_formula_units_Z 64
_cell_length_a 9.025141
_cell_length_b 31.318277
_cell_length_c 12.141541
_cell_angle_alpha 90.000000
_cell_angle_beta 90.000000
_cell_angle_gamma 90.000000
_cell_volume 3431.829217
_symmetry_space_group_name_H-M "I M A 2"
_symmetry_group_IT_number 46
_symmetry_cell_setting 'orthorhombic'
loop_
_space_group_symop_operation_xyz
x,y,z
-x,-y,z
1/2-x,y,z
1/2+x,-y,z
1/2+x,1/2+y,1/2+z
1/2-x,1/2-y,1/2+z
-x,1/2+y,1/2+z
x,1/2-y,1/2+z
loop_
_atom_site_type_symbol
_atom_site_label
_atom_site_fract_x
_atom_site_fract_y
_atom_site_fract_z
Si Si1 0.428000 0.874005 0.181270
Si Si2 0.072038 0.372101 0.442181
Si Si3 0.076125 0.067673 0.555418
Si Si4 0.428332 0.043764 0.802561
Si Si5 0.572920 0.297528 0.846055
Si Si6 0.073362 0.800791 0.791390
Si Si7 0.426597 0.543416 0.828395
Si Si8 0.576862 0.829895 0.567143
O O1 0.250000 0.874315 0.163502
O O2 0.464871 0.831463 0.250653
O O3 0.466379 0.915320 0.255198
O O4 0.510210 0.874824 0.065306
O O5 0.250000 0.369149 0.441895
O O6 0.030019 0.414742 0.373644
O O7 0.004193 0.331341 0.380147
O O8 0.250000 0.056670 0.539764
O O9 0.027333 0.050851 0.674886
O O10 0.064051 0.118909 0.559097
O O11 0.984023 0.050777 0.452529
O O12 0.250000 0.040524 0.805089
O O13 0.500000 0.000000 0.843672
O O14 0.750000 0.301491 0.865981
O O15 0.541269 0.248977 0.812742
O O16 0.486948 0.309835 0.956174
O O17 0.250000 0.806787 0.797109
O O18 0.013400 0.813838 0.672088
O O19 0.500000 0.500000 0.785379
O O20 0.250000 0.539324 0.828684
O O21 0.750000 0.819540 0.581354
#
# Coordination Sequence:
#
# PCOD9379765 Si02
#       8
#     8   8   8   8   8   8   8   8
#     4  10  23  43  63  87 120 161 207 251 302 367
#     4  11  24  43  63  88 124 161 204 257 308 360
#     4  10  20  38  61  89 126 158 195 248 304 360
#     4  10  22  40  60  87 121 156 197 249 302 361
#     4  10  23  43  64  90 124 161 207 252 297 362
#     4  11  24  41  65  92 125 166 205 250 302 361
#     4  11  23  39  62  90 122 159 203 251 302 364
#     4  11  22  39  65  95 128 159 199 254 307 360
#
# _framework density 18.648948000000001
#
# number of rings (size 3 to 8) (size 9 to 14) (size 15 to 20)
#    0.000    1.500    2.500    1.875    1.750    6.000 
#    0.000    2.500    0.000    0.000    0.000    0.000 
#    0.000    0.000    0.000    0.000    0.000    0.000 
#
# Total GULP energy -178884.247200 kJ/mol
# GULP energy per Si atom -5590.132725 kJ/mol
# Density = 1.860650 g / cm^3
# Si number density = 18.648948 Si / 1000 Ang^3
#
#
#
# Elastic Constant Matrix: (Units=GPa)
#
#
# Indices 1 2 3 4 5 6 
#
# 1 52.4611 68.4524 58.3225 -0.0006 0.0000 0.0000
# 2 68.4524 159.9692 79.7463 -0.0010 0.0000 0.0000
# 3 58.3225 79.7463 139.1994 -0.0042 0.0002 0.0000
# 4 -0.0006 -0.0010 -0.0042 45.5918 0.0002 -0.0001
# 5 0.0000 0.0000 0.0002 0.0002 36.9825 0.0000
# 6 0.0000 0.0000 0.0000 -0.0001 0.0000 32.7821
#
#
#
# Elastic Compliance Matrix: (Units=1/GPa)
#
#
# Indices 1 2 3 4 5 6 
#
# 1 0.057866 -0.017742 -0.014081 -0.000001 0.000000 0.000000
# 2 -0.017742 0.014190 -0.000696 0.000000 0.000000 0.000000
# 3 -0.014081 -0.000696 0.013482 0.000001 0.000000 0.000000
# 4 -0.000001 0.000000 0.000001 0.021934 0.000000 0.000000
# 5 0.000000 0.000000 0.000000 0.000000 0.027040 0.000000
# 6 0.000000 0.000000 0.000000 0.000000 0.000000 0.030504
#
#
# Mechanical properties :
#
#
# Convention : Reuss Voigt Hill
#
# Bulk Modulus (GPa) = 48.77783 84.96357 66.87070
# Shear Modulus (GPa) = 21.10722 32.74518 26.92620
#
# Velocity S-wave (km/s) = 3.36790 4.19486 3.80392
# Velocity P-wave (km/s) = 6.42933 8.31389 7.43159
#
# Compressibility (1/GPa) = 0.02050112
#
# Stress axis : x y z
#
# Youngs Moduli (GPa) = 17.28144 70.47234 74.17252
#
# Poissons Ratio (x) = 1.25031 1.04439
# Poissons Ratio (y) = 0.30661 0.05160
# Poissons Ratio (z) = 0.24333 0.04903
#
# Static dielectric constant tensor:
#      x y z
#    x 1.623020 0.000000 0.000000 
#    y 0.000000 1.636690 0.000000 
#    z 0.000000 0.000000 1.606850 
# 
# From -- ./inp_files/9685.got.cif
#   From: 2010.05.17/outbox.cif.g08.bks.cpg/sg46_5_cif.got.tgz:9685.got - 2010.06.03 19:58:25.
