data_PCOD9379172
_publ_section_title
;
Structure prediction by ZEFSAII (Michael W. Deem and Ramdas Pophale) SiO2 
 PCOD9379172
Probable space group: I M A 2
;
_chemical_formula_sum "Si O2"
_cell_formula_units_Z 40
_cell_length_a 29.508202
_cell_length_b 7.670984
_cell_length_c 9.264493
_cell_angle_alpha 90.000000
_cell_angle_beta 90.000000
_cell_angle_gamma 90.000000
_cell_volume 2097.082336
_symmetry_space_group_name_H-M "I M A 2"
_symmetry_group_IT_number 46
_symmetry_cell_setting 'orthorhombic'
loop_
_space_group_symop_operation_xyz
x,y,z
-x,-y,z
1/2-x,y,z
1/2+x,-y,z
1/2+x,1/2+y,1/2+z
1/2-x,1/2-y,1/2+z
-x,1/2+y,1/2+z
x,1/2-y,1/2+z
loop_
_atom_site_type_symbol
_atom_site_label
_atom_site_fract_x
_atom_site_fract_y
_atom_site_fract_z
Si Si1 0.349743 0.570451 0.770710
Si Si2 0.447543 0.039282 0.240114
Si Si3 0.409034 0.306029 0.460787
Si Si4 0.348943 0.161125 0.707173
Si Si5 0.302819 0.651157 0.072072
O O1 0.404699 0.583886 0.782111
O O2 0.339151 0.366445 0.734388
O O3 0.330873 0.696208 0.648258
O O4 0.323837 0.619093 0.915551
O O5 0.438836 0.203508 0.345064
O O6 0.500000 0.000000 0.257303
O O7 0.437236 0.079617 0.072170
O O8 0.382782 0.172866 0.568832
O O9 0.372836 0.399943 0.356053
O O10 0.310328 0.027537 0.662869
O O11 0.250000 0.694427 0.064220
#
# Coordination Sequence:
#
# PCOD9379172 Si02
#       5
#     8   8   8   8   8
#     4  10  25  42  62  94 133 165 213 275 318 380
#     4  10  20  39  63  93 126 167 220 263 326 388
#     4   8  18  38  61  84 123 166 209 260 318 379
#     4  10  19  44  64  83 125 178 206 263 324 370
#     4  12  25  41  65  95 128 172 219 264 327 396
#
# _framework density 19.074121999999999
#
# number of rings (size 3 to 8) (size 9 to 14) (size 15 to 20)
#    0.000    2.400    4.000    0.600    5.600    3.200 
#    0.000    2.000    0.000    0.000    0.000    0.000 
#    0.000    0.000    0.000    0.000    0.000    0.000 
#
# Total GULP energy -111361.577889 kJ/mol
# GULP energy per Si atom -5568.078894 kJ/mol
# Density = 1.903071 g / cm^3
# Si number density = 19.074122 Si / 1000 Ang^3
#
#
#
# Elastic Constant Matrix: (Units=GPa)
#
#
# Indices 1 2 3 4 5 6 
#
# 1 126.6506 20.2085 22.4681 0.0000 0.0000 0.0000
# 2 20.2085 56.8646 15.8339 0.0000 0.0000 0.0000
# 3 22.4681 15.8339 118.1560 0.0000 0.0000 0.0000
# 4 0.0000 0.0000 0.0000 47.8389 0.0000 0.0000
# 5 0.0000 0.0000 0.0000 0.0000 20.3539 0.0000
# 6 0.0000 0.0000 0.0000 0.0000 0.0000 21.1210
#
#
#
# Elastic Compliance Matrix: (Units=1/GPa)
#
#
# Indices 1 2 3 4 5 6 
#
# 1 0.008549 -0.002686 -0.001266 0.000000 0.000000 0.000000
# 2 -0.002686 0.019111 -0.002050 0.000000 0.000000 0.000000
# 3 -0.001266 -0.002050 0.008979 0.000000 0.000000 0.000000
# 4 0.000000 0.000000 0.000000 0.020903 0.000000 0.000000
# 5 0.000000 0.000000 0.000000 0.000000 0.049131 0.000000
# 6 0.000000 0.000000 0.000000 0.000000 0.000000 0.047346
#
#
# Mechanical properties :
#
#
# Convention : Reuss Voigt Hill
#
# Bulk Modulus (GPa) = 40.59228 46.52136 43.55682
# Shear Modulus (GPa) = 28.69702 34.07348 31.38525
#
# Velocity S-wave (km/s) = 3.88300 4.23113 4.06080
# Velocity P-wave (km/s) = 6.43670 6.95074 6.69865
#
# Compressibility (1/GPa) = 0.02463523
#
# Stress axis : x y z
#
# Youngs Moduli (GPa) = 116.97548 52.32598 111.37305
#
# Poissons Ratio (x) = 0.14053 0.14097
# Poissons Ratio (y) = 0.31415 0.22835
# Poissons Ratio (z) = 0.14806 0.10729
#
# Static dielectric constant tensor:
#      x y z
#    x 1.677210 0.000000 0.000000 
#    y 0.000000 1.678190 0.000000 
#    z 0.000000 0.000000 1.674360 
# 
# From -- ./inp_files/8095.got.cif
#   From: 2010.05.17/outbox.cif.g08.bks.cpg/sg46_5_cif.got.tgz:8095.got - 2010.06.03 19:58:25.
