data_PCOD9379646
_publ_section_title
;
Structure prediction by ZEFSAII (Michael W. Deem and Ramdas Pophale) SiO2 
 PCOD9379646
Probable space group: I M A 2
;
_chemical_formula_sum "Si O2"
_cell_formula_units_Z 60
_cell_length_a 9.268882
_cell_length_b 17.294586
_cell_length_c 19.247514
_cell_angle_alpha 90.000000
_cell_angle_beta 90.000000
_cell_angle_gamma 90.000000
_cell_volume 3085.404920
_symmetry_space_group_name_H-M "I M A 2"
_symmetry_group_IT_number 46
_symmetry_cell_setting 'orthorhombic'
loop_
_space_group_symop_operation_xyz
x,y,z
-x,-y,z
1/2-x,y,z
1/2+x,-y,z
1/2+x,1/2+y,1/2+z
1/2-x,1/2-y,1/2+z
-x,1/2+y,1/2+z
x,1/2-y,1/2+z
loop_
_atom_site_type_symbol
_atom_site_label
_atom_site_fract_x
_atom_site_fract_y
_atom_site_fract_z
Si Si1 0.500000 0.500000 0.441440
Si Si2 0.923270 0.798608 0.459345
Si Si3 0.092271 0.895313 0.815257
Si Si4 0.578884 0.075708 0.550901
Si Si5 0.418301 0.356141 0.532850
Si Si6 0.415528 0.791458 0.321204
Si Si7 0.085655 0.113829 0.684358
Si Si8 0.418616 0.301267 0.681608
O O1 0.581295 0.443987 0.386265
O O2 0.431638 0.437874 0.494455
O O3 0.750000 0.806683 0.462970
O O4 0.966934 0.711339 0.480748
O O5 0.004198 0.852522 0.513551
O O6 0.982543 0.817737 0.383544
O O7 0.250000 0.911761 0.783694
O O8 0.084798 0.802560 0.825064
O O9 0.962454 0.910514 0.761605
O O10 0.750000 0.073921 0.542512
O O11 0.531226 0.082287 0.630915
O O12 0.500000 0.000000 0.521930
O O13 0.250000 0.340823 0.543253
O O14 0.476899 0.341090 0.610731
O O15 0.250000 0.816851 0.329489
O O16 0.482399 0.817494 0.248060
O O17 0.250000 0.089450 0.668501
O O18 0.081182 0.207400 0.676072
O O19 0.250000 0.323151 0.693803
#
# Coordination Sequence:
#
# PCOD9379646 Si02
#       8
#     4   8   8   8   8   8   8   8
#     4  12  22  38  58  90 130 176 214 264 322 382
#     4  11  21  40  65  91 121 161 206 256 317 383
#     4  10  22  36  52  83 126 166 207 254 307 370
#     4  12  25  41  62  91 124 158 198 252 314 380
#     4  10  21  38  61  88 123 167 215 261 313 379
#     4  10  20  37  59  90 120 154 203 260 317 374
#     4  10  20  37  61  87 120 164 208 252 306 370
#     4   9  18  37  62  88 114 156 210 257 307 373
#
# _framework density 19.446396
#
# number of rings (size 3 to 8) (size 9 to 14) (size 15 to 20)
#    0.000    1.600    2.667    2.800    0.933    2.133 
#    0.000    1.333    1.467    0.000    0.000    0.000 
#    0.000    0.000    0.000    0.000    0.000    0.000 
#
# Total GULP energy -167270.670991 kJ/mol
# GULP energy per Si atom -5575.689033 kJ/mol
# Density = 1.940214 g / cm^3
# Si number density = 19.446396 Si / 1000 Ang^3
#
#
#
# Elastic Constant Matrix: (Units=GPa)
#
#
# Indices 1 2 3 4 5 6 
#
# 1 119.2829 17.3506 47.9140 0.0000 0.0000 0.0000
# 2 17.3506 42.3192 22.6038 0.0000 0.0000 0.0000
# 3 47.9140 22.6038 134.1052 0.0000 0.0000 0.0000
# 4 0.0000 0.0000 0.0000 31.7233 0.0000 0.0000
# 5 0.0000 0.0000 0.0000 0.0000 30.1151 0.0000
# 6 0.0000 0.0000 0.0000 0.0000 0.0000 19.5946
#
#
#
# Elastic Compliance Matrix: (Units=1/GPa)
#
#
# Indices 1 2 3 4 5 6 
#
# 1 0.010007 -0.002410 -0.003169 0.000000 0.000000 0.000000
# 2 -0.002410 0.026548 -0.003614 0.000000 0.000000 0.000000
# 3 -0.003169 -0.003614 0.009198 0.000000 0.000000 0.000000
# 4 0.000000 0.000000 0.000000 0.031523 0.000000 0.000000
# 5 0.000000 0.000000 0.000000 0.000000 0.033206 0.000000
# 6 0.000000 0.000000 0.000000 0.000000 0.000000 0.051034
#
#
# Mechanical properties :
#
#
# Convention : Reuss Voigt Hill
#
# Bulk Modulus (GPa) = 36.53956 52.38270 44.46113
# Shear Modulus (GPa) = 26.45156 30.14251 28.29704
#
# Velocity S-wave (km/s) = 3.69213 3.94131 3.81876
# Velocity P-wave (km/s) = 6.08329 6.90705 6.50822
#
# Compressibility (1/GPa) = 0.02736760
#
# Stress axis : x y z
#
# Youngs Moduli (GPa) = 99.93018 37.66732 108.71662
#
# Poissons Ratio (x) = 0.09078 0.34454
# Poissons Ratio (y) = 0.24084 0.39287
# Poissons Ratio (z) = 0.31669 0.13612
#
# Static dielectric constant tensor:
#      x y z
#    x 1.670870 0.000000 0.000000 
#    y 0.000000 1.726510 0.000000 
#    z 0.000000 0.000000 1.708840 
# 
# From -- ./inp_files/18374.got.cif
#   From: 2010.05.17/outbox.cif.g08.bks.cpg/sg46_10_cif.got.tgz:18374.got - 2010.06.03 19:58:25.
