data_PCOD9379976
_publ_section_title
;
Structure prediction by ZEFSAII (Michael W. Deem and Ramdas Pophale) SiO2 
 PCOD9379976
Probable space group: I M A 2
;
_chemical_formula_sum "Si O2"
_cell_formula_units_Z 52
_cell_length_a 11.866699
_cell_length_b 30.369665
_cell_length_c 7.393167
_cell_angle_alpha 90.000000
_cell_angle_beta 90.000000
_cell_angle_gamma 90.000000
_cell_volume 2664.406253
_symmetry_space_group_name_H-M "I M A 2"
_symmetry_group_IT_number 46
_symmetry_cell_setting 'orthorhombic'
loop_
_space_group_symop_operation_xyz
x,y,z
-x,-y,z
1/2-x,y,z
1/2+x,-y,z
1/2+x,1/2+y,1/2+z
1/2-x,1/2-y,1/2+z
-x,1/2+y,1/2+z
x,1/2-y,1/2+z
loop_
_atom_site_type_symbol
_atom_site_label
_atom_site_fract_x
_atom_site_fract_y
_atom_site_fract_z
Si Si1 0.116638 0.387855 0.333290
Si Si2 0.616643 0.887687 0.266890
Si Si3 0.494820 0.701397 0.764118
Si Si4 0.250000 0.672953 0.330662
Si Si5 0.992479 0.052317 0.549945
Si Si6 0.250000 0.904722 0.550007
Si Si7 0.750000 0.173112 0.269421
Si Si8 0.505163 0.298768 0.335114
O O1 0.250000 0.389092 0.299082
O O2 0.099232 0.392169 0.550111
O O3 0.053377 0.425701 0.223090
O O4 0.065941 0.340673 0.270875
O O5 0.750000 0.888848 0.301073
O O6 0.565871 0.840481 0.328824
O O7 0.553552 0.925525 0.377361
O O8 0.365094 0.697325 0.826777
O O9 0.491550 0.696767 0.549651
O O10 0.540559 0.750095 0.799324
O O11 0.250000 0.626653 0.226711
O O12 0.250000 0.668100 0.550056
O O13 0.365074 0.697101 0.272727
O O14 0.862867 0.067048 0.549766
O O15 0.000000 0.000000 0.549598
O O16 0.250000 0.873113 0.373976
#
# Coordination Sequence:
#
# PCOD9379976 Si02
#       8
#     8   8   8   4   8   4   4   8
#     4  10  23  45  66  90 131 174 214 266 320 382
#     4  10  23  45  66  90 131 174 214 266 320 382
#     4  10  21  35  58  90 127 169 216 261 315 376
#     4  10  21  39  58  88 130 174 210 264 317 380
#     4  12  27  44  71 100 128 163 218 273 332 388
#     4  12  24  40  72  94 130 170 206 270 330 380
#     4  10  21  39  58  88 130 174 210 264 317 380
#     4  10  21  35  58  90 127 169 216 261 315 376
#
# _framework density 19.516544
#
# number of rings (size 3 to 8) (size 9 to 14) (size 15 to 20)
#    0.000    1.538    3.077    0.923    6.462    1.231 
#    0.000    0.000    0.000    0.000    0.000    0.000 
#    0.000    0.000    0.000    0.000    0.000    0.000 
#
# Total GULP energy -145223.980966 kJ/mol
# GULP energy per Si atom -5585.537729 kJ/mol
# Density = 1.947212 g / cm^3
# Si number density = 19.516544 Si / 1000 Ang^3
#
#
#
# Elastic Constant Matrix: (Units=GPa)
#
#
# Indices 1 2 3 4 5 6 
#
# 1 133.7662 80.9376 45.0987 0.0006 -0.0011 0.0009
# 2 80.9376 199.0714 42.8399 0.0023 -0.0029 0.0008
# 3 45.0987 42.8399 82.2170 0.0037 -0.0004 0.0010
# 4 0.0006 0.0023 0.0037 25.1282 0.0016 -0.0003
# 5 -0.0011 -0.0029 -0.0004 0.0016 -1.0788 -0.0071
# 6 0.0009 0.0008 0.0010 -0.0003 -0.0071 -26.6787
#
#
#
# Elastic Compliance Matrix: (Units=1/GPa)
#
#
# Indices 1 2 3 4 5 6 
#
# 1 0.011067 -0.003596 -0.004196 0.000001 0.000000 0.000000
# 2 -0.003596 0.006826 -0.001584 0.000000 -0.000014 0.000000
# 3 -0.004196 -0.001584 0.015290 -0.000002 0.000003 0.000000
# 4 0.000001 0.000000 -0.000002 0.039796 0.000060 -0.000001
# 5 0.000000 -0.000014 0.000003 0.000060 -0.926995 0.000247
# 6 0.000000 0.000000 0.000000 -0.000001 0.000247 -0.037483
#
#
# Mechanical properties :
#
#
# Convention : Reuss Voigt Hill
#
# Bulk Modulus (GPa) = 69.30394 83.64521 76.47458
# Shear Modulus (GPa) = -5.76080 15.88605 5.06262
#
# Velocity S-wave (km/s) = -1.71993 2.85613 1.61234
# Velocity P-wave (km/s) = 5.62523 7.33678 6.53726
#
# Compressibility (1/GPa) = 0.01442919
#
# Stress axis : x y z
#
# Youngs Moduli (GPa) = 90.36213 146.48940 65.40074
#
# Poissons Ratio (x) = 0.52682 0.27445
# Poissons Ratio (y) = 0.32497 0.10361
# Poissons Ratio (z) = 0.37920 0.23208
#
# Static dielectric constant tensor:
#      x y z
#    x 1.685600 0.000000 0.000000 
#    y 0.000000 1.662860 0.000020 
#    z 0.000000 0.000020 1.778520 
# 
# From -- ./inp_files/4889.got.cif
#   From: 2010.05.17/outbox.cif.g08.bks.cpg/sg46_3_cif.got.tgz:4889.got - 2010.06.03 19:58:25.
