data_PCOD9379232
_publ_section_title
;
Structure prediction by ZEFSAII (Michael W. Deem and Ramdas Pophale) SiO2 
 PCOD9379232
Probable space group: I M A 2
;
_chemical_formula_sum "Si O2"
_cell_formula_units_Z 64
_cell_length_a 28.141058
_cell_length_b 15.258225
_cell_length_c 8.612629
_cell_angle_alpha 90.000000
_cell_angle_beta 90.000000
_cell_angle_gamma 90.000000
_cell_volume 3698.112987
_symmetry_space_group_name_H-M "I M A 2"
_symmetry_group_IT_number 46
_symmetry_cell_setting 'orthorhombic'
loop_
_space_group_symop_operation_xyz
x,y,z
-x,-y,z
1/2-x,y,z
1/2+x,-y,z
1/2+x,1/2+y,1/2+z
1/2-x,1/2-y,1/2+z
-x,1/2+y,1/2+z
x,1/2-y,1/2+z
loop_
_atom_site_type_symbol
_atom_site_label
_atom_site_fract_x
_atom_site_fract_y
_atom_site_fract_z
Si Si1 0.610871 0.970463 0.279090
Si Si2 0.575976 0.343590 0.780672
Si Si3 0.304472 0.345630 0.154150
Si Si4 0.075977 0.843589 0.652817
Si Si5 0.530430 0.655373 0.281426
Si Si6 0.195528 0.154372 0.279347
Si Si7 0.469570 0.155376 0.152064
Si Si8 0.110871 0.470466 0.154404
O O1 0.658389 0.919658 0.229082
O O2 0.565978 0.918901 0.210468
O O3 0.608024 0.965502 0.466747
O O4 0.607368 0.072503 0.236045
O O5 0.592701 0.250001 0.716743
O O6 0.522748 0.358519 0.716038
O O7 0.573118 0.338589 0.966744
O O8 0.250000 0.362402 0.203937
O O9 0.318590 0.250002 0.216750
O O10 0.341611 0.419660 0.204413
O O11 0.305046 0.342344 0.966748
O O12 0.022748 0.858519 0.717453
O O13 0.107370 0.927494 0.697445
O O14 0.546609 0.749998 0.216742
O O15 0.529211 0.658101 0.466745
O O16 0.565977 0.581094 0.223026
O O17 0.250000 0.137602 0.229558
#
# Coordination Sequence:
#
# PCOD9379232 Si02
#       8
#     8   8   8   8   8   8   8   8
#     4  10  20  33  50  72  97 127 162 199 240 285
#     4  10  20  34  50  68  95 129 164 202 240 280
#     4   9  18  33  52  74  99 125 154 190 235 286
#     4  10  20  34  50  68  95 129 164 202 240 280
#     4  11  21  32  48  71 100 131 162 197 237 284
#     4   9  18  33  52  74  99 125 154 190 235 286
#     4  11  21  32  48  71 100 131 162 197 237 284
#     4  10  20  33  50  72  97 127 162 199 240 285
#
# _framework density 17.306122999999999
#
# number of rings (size 3 to 8) (size 9 to 14) (size 15 to 20)
#    0.000    2.000    0.000    6.000    0.000    8.000 
#    0.000    0.000    0.000    0.750    0.000    0.000 
#    0.000    0.000    0.000    0.000    0.000    1.000 
#
# Total GULP energy -178663.591642 kJ/mol
# GULP energy per Si atom -5583.237239 kJ/mol
# Density = 1.726673 g / cm^3
# Si number density = 17.306123 Si / 1000 Ang^3
#
#
#
# Elastic Constant Matrix: (Units=GPa)
#
#
# Indices 1 2 3 4 5 6 
#
# 1 73.0615 88.7627 25.2633 0.0000 0.0000 0.0000
# 2 88.7627 182.5068 43.2809 0.0000 0.0000 0.0000
# 3 25.2633 43.2809 38.3973 0.0000 0.0000 0.0000
# 4 0.0000 0.0000 0.0000 28.0270 0.0000 0.0000
# 5 0.0000 0.0000 0.0000 0.0000 6.5526 0.0000
# 6 0.0000 0.0000 0.0000 0.0000 0.0000 35.0828
#
#
#
# Elastic Compliance Matrix: (Units=1/GPa)
#
#
# Indices 1 2 3 4 5 6 
#
# 1 0.034176 -0.015408 -0.005119 0.000000 0.000000 0.000000
# 2 -0.015408 0.014425 -0.006122 0.000000 0.000000 0.000000
# 3 -0.005119 -0.006122 0.036312 0.000000 0.000000 0.000000
# 4 0.000000 0.000000 0.000000 0.035680 0.000000 0.000000
# 5 0.000000 0.000000 0.000000 0.000000 0.152611 0.000000
# 6 0.000000 0.000000 0.000000 0.000000 0.000000 0.028504
#
#
# Mechanical properties :
#
#
# Convention : Reuss Voigt Hill
#
# Bulk Modulus (GPa) = 31.62950 67.61995 49.62472
# Shear Modulus (GPa) = 13.67834 23.04306 18.36070
#
# Velocity S-wave (km/s) = 2.81441 3.65293 3.26074
# Velocity P-wave (km/s) = 5.37377 7.54649 6.55084
#
# Compressibility (1/GPa) = 0.03161606
#
# Stress axis : x y z
#
# Youngs Moduli (GPa) = 29.26038 69.32608 27.53945
#
# Poissons Ratio (x) = 1.06816 0.14096
# Poissons Ratio (y) = 0.45084 0.16859
# Poissons Ratio (z) = 0.14977 0.42440
#
# Static dielectric constant tensor:
#      x y z
#    x 1.574730 0.000000 0.000000 
#    y 0.000000 1.598690 0.000000 
#    z 0.000000 0.000000 1.586030 
# 
# From -- ./inp_files/7974.got.cif
#   From: 2010.05.17/outbox.cif.g08.bks.cpg/sg46_4_cif.got.tgz:7974.got - 2010.06.03 19:58:25.
