data_PCOD9379999
_publ_section_title
;
Structure prediction by ZEFSAII (Michael W. Deem and Ramdas Pophale) SiO2 
 PCOD9379999
Probable space group: I M A 2
;
_chemical_formula_sum "Si O2"
_cell_formula_units_Z 56
_cell_length_a 21.456042
_cell_length_b 14.980739
_cell_length_c 9.811597
_cell_angle_alpha 90.000000
_cell_angle_beta 90.000000
_cell_angle_gamma 90.000000
_cell_volume 3153.715772
_symmetry_space_group_name_H-M "I M A 2"
_symmetry_group_IT_number 46
_symmetry_cell_setting 'orthorhombic'
loop_
_space_group_symop_operation_xyz
x,y,z
-x,-y,z
1/2-x,y,z
1/2+x,-y,z
1/2+x,1/2+y,1/2+z
1/2-x,1/2-y,1/2+z
-x,1/2+y,1/2+z
x,1/2-y,1/2+z
loop_
_atom_site_type_symbol
_atom_site_label
_atom_site_fract_x
_atom_site_fract_y
_atom_site_fract_z
Si Si1 0.399492 0.015306 0.308930
Si Si2 0.750000 0.794601 0.663392
Si Si3 0.437589 0.053234 0.721178
Si Si4 0.181109 0.044006 0.557409
Si Si5 0.250000 0.358342 0.460646
Si Si6 0.484892 0.646977 0.843231
Si Si7 0.886239 0.588702 0.509491
Si Si8 0.467043 0.245325 0.594372
O O1 0.339830 0.037051 0.401118
O O2 0.454126 0.083259 0.354910
O O3 0.391166 0.032877 0.148657
O O4 0.425455 0.916995 0.339767
O O5 0.807050 0.853766 0.605376
O O6 0.750000 0.698878 0.598031
O O7 0.750000 0.796726 0.825818
O O8 0.377130 0.011603 0.646597
O O9 0.444445 0.155123 0.668981
O O10 0.500000 0.000000 0.684948
O O11 0.426794 0.053790 0.883292
O O12 0.250000 0.002755 0.579981
O O13 0.185162 0.410283 0.459613
O O14 0.493235 0.698449 0.702086
O O15 0.491371 0.714998 0.967080
O O16 0.911626 0.688621 0.544562
#
# Coordination Sequence:
#
# PCOD9379999 Si02
#       8
#     8   4   8   8   4   8   8   8
#     4  10  22  37  56  81 116 162 196 240 288 344
#     4  10  24  34  56  78 122 156 197 227 281 351
#     4  12  23  39  59  84 118 159 194 245 294 344
#     4  10  21  39  55  81 116 152 202 230 283 354
#     4  12  24  36  52  84 122 160 195 233 283 353
#     4  10  21  36  57  82 119 149 200 244 288 346
#     4  11  25  36  56  81 125 158 195 235 288 351
#     4  11  21  36  55  85 115 154 193 240 293 346
#
# _framework density 17.756831999999999
#
# number of rings (size 3 to 8) (size 9 to 14) (size 15 to 20)
#    0.429    0.857    4.286    1.714    7.000    0.000 
#    0.000    0.000    0.000    0.000    0.000    4.000 
#    0.000    0.000    0.000    0.000    0.000    0.000 
#
# Total GULP energy -156187.330127 kJ/mol
# GULP energy per Si atom -5578.118933 kJ/mol
# Density = 1.771642 g / cm^3
# Si number density = 17.756832 Si / 1000 Ang^3
#
#
#
# Elastic Constant Matrix: (Units=GPa)
#
#
# Indices 1 2 3 4 5 6 
#
# 1 92.7725 27.1124 20.8036 0.0000 0.0000 0.0000
# 2 27.1124 46.4419 18.8074 0.0000 0.0000 0.0000
# 3 20.8036 18.8074 101.3160 0.0000 0.0000 0.0000
# 4 0.0000 0.0000 0.0000 20.0522 0.0000 0.0000
# 5 0.0000 0.0000 0.0000 0.0000 21.9570 0.0000
# 6 0.0000 0.0000 0.0000 0.0000 0.0000 16.8347
#
#
#
# Elastic Compliance Matrix: (Units=1/GPa)
#
#
# Indices 1 2 3 4 5 6 
#
# 1 0.013173 -0.007131 -0.001381 0.000000 0.000000 0.000000
# 2 -0.007131 0.027143 -0.003574 0.000000 0.000000 0.000000
# 3 -0.001381 -0.003574 0.010817 0.000000 0.000000 0.000000
# 4 0.000000 0.000000 0.000000 0.049870 0.000000 0.000000
# 5 0.000000 0.000000 0.000000 0.000000 0.045543 0.000000
# 6 0.000000 0.000000 0.000000 0.000000 0.000000 0.059401
#
#
# Mechanical properties :
#
#
# Convention : Reuss Voigt Hill
#
# Bulk Modulus (GPa) = 37.09186 41.55301 39.32244
# Shear Modulus (GPa) = 20.91120 23.35591 22.13356
#
# Velocity S-wave (km/s) = 3.43540 3.63067 3.53438
# Velocity P-wave (km/s) = 6.05559 6.40528 6.23289
#
# Compressibility (1/GPa) = 0.02696010
#
# Stress axis : x y z
#
# Youngs Moduli (GPa) = 75.91456 36.84238 92.44534
#
# Poissons Ratio (x) = 0.26272 0.12768
# Poissons Ratio (y) = 0.54133 0.33043
# Poissons Ratio (z) = 0.10485 0.13169
#
# Static dielectric constant tensor:
#      x y z
#    x 1.629700 0.000000 0.000000 
#    y 0.000000 1.599780 0.000000 
#    z 0.000000 0.000000 1.636150 
# 
# From -- ./inp_files/7462.got.cif
#   From: 2010.05.17/outbox.cif.g08.bks.cpg/sg46_4_cif.got.tgz:7462.got - 2010.06.03 19:58:25.
