data_PCOD9379097
_publ_section_title
;
Structure prediction by ZEFSAII (Michael W. Deem and Ramdas Pophale) SiO2 
 PCOD9379097
Probable space group: I M A 2
;
_chemical_formula_sum "Si O2"
_cell_formula_units_Z 40
_cell_length_a 20.237360
_cell_length_b 11.256751
_cell_length_c 9.087309
_cell_angle_alpha 90.000000
_cell_angle_beta 90.000000
_cell_angle_gamma 90.000000
_cell_volume 2070.151896
_symmetry_space_group_name_H-M "I M A 2"
_symmetry_group_IT_number 46
_symmetry_cell_setting 'orthorhombic'
loop_
_space_group_symop_operation_xyz
x,y,z
-x,-y,z
1/2-x,y,z
1/2+x,-y,z
1/2+x,1/2+y,1/2+z
1/2-x,1/2-y,1/2+z
-x,1/2+y,1/2+z
x,1/2-y,1/2+z
loop_
_atom_site_type_symbol
_atom_site_label
_atom_site_fract_x
_atom_site_fract_y
_atom_site_fract_z
Si Si1 0.171542 0.403005 0.556320
Si Si2 0.329950 0.651608 0.432314
Si Si3 0.896028 0.749140 0.308511
Si Si4 0.829596 0.105580 0.590063
Si Si5 0.938412 0.914240 0.554691
O O1 0.250000 0.406415 0.575131
O O2 0.146973 0.537392 0.525771
O O3 0.153720 0.325339 0.412069
O O4 0.139927 0.338882 0.696551
O O5 0.250000 0.651101 0.441945
O O6 0.350172 0.778961 0.495904
O O7 0.345614 0.632305 0.261057
O O8 0.940616 0.823005 0.420263
O O9 0.935137 0.658014 0.206192
O O10 0.750000 0.087975 0.576874
O O11 0.870732 0.990458 0.543238
O O12 0.000000 0.000000 0.552477
#
# Coordination Sequence:
#
# PCOD9379097 Si02
#       5
#     8   8   8   8   8
#     4  10  19  36  62  94 130 161 199 257 310 366
#     4   9  19  34  56  90 124 159 203 249 302 357
#     4  10  23  41  60  91 122 161 213 245 312 383
#     4  10  21  38  61  90 125 160 206 257 304 359
#     4  11  25  45  64  89 125 164 208 256 312 372
#
# _framework density 19.322254999999998
#
# number of rings (size 3 to 8) (size 9 to 14) (size 15 to 20)
#    0.000    2.000    2.000    0.600    2.800    5.600 
#    0.000    2.000    0.000    0.000    0.000    0.000 
#    0.000    0.000    0.000    0.000    0.000    0.000 
#
# Total GULP energy -111675.195711 kJ/mol
# GULP energy per Si atom -5583.759786 kJ/mol
# Density = 1.927828 g / cm^3
# Si number density = 19.322255 Si / 1000 Ang^3
#
#
#
# Elastic Constant Matrix: (Units=GPa)
#
#
# Indices 1 2 3 4 5 6 
#
# 1 44.8677 19.9915 7.9145 0.0000 0.0000 0.0000
# 2 19.9915 96.3761 20.1729 0.0000 0.0000 0.0000
# 3 7.9145 20.1729 55.9248 0.0000 0.0000 0.0000
# 4 0.0000 0.0000 0.0000 36.0700 0.0000 0.0000
# 5 0.0000 0.0000 0.0000 0.0000 1.3764 0.0000
# 6 0.0000 0.0000 0.0000 0.0000 0.0000 32.6950
#
#
#
# Elastic Compliance Matrix: (Units=1/GPa)
#
#
# Indices 1 2 3 4 5 6 
#
# 1 0.024721 -0.004755 -0.001783 0.000000 0.000000 0.000000
# 2 -0.004755 0.012138 -0.003705 0.000000 0.000000 0.000000
# 3 -0.001783 -0.003705 0.019470 0.000000 0.000000 0.000000
# 4 0.000000 0.000000 0.000000 0.027724 0.000000 0.000000
# 5 0.000000 0.000000 0.000000 0.000000 0.726516 0.000000
# 6 0.000000 0.000000 0.000000 0.000000 0.000000 0.030586
#
#
# Mechanical properties :
#
#
# Convention : Reuss Voigt Hill
#
# Bulk Modulus (GPa) = 27.90033 32.59183 30.24608
# Shear Modulus (GPa) = 5.72352 23.96760 14.84556
#
# Velocity S-wave (km/s) = 1.72295 3.52577 2.77485
# Velocity P-wave (km/s) = 4.29289 5.78609 5.09450
#
# Compressibility (1/GPa) = 0.03584187
#
# Stress axis : x y z
#
# Youngs Moduli (GPa) = 40.45170 82.38674 51.36068
#
# Poissons Ratio (x) = 0.39172 0.09160
# Poissons Ratio (y) = 0.19233 0.19031
# Poissons Ratio (z) = 0.07214 0.30528
#
# Static dielectric constant tensor:
#      x y z
#    x 1.643470 0.000000 0.000000 
#    y 0.000000 1.683960 0.000000 
#    z 0.000000 0.000000 1.656740 
# 
# From -- ./inp_files/6369.got.cif
#   From: 2010.05.17/outbox.cif.g08.bks.cpg/sg46_4_cif.got.tgz:6369.got - 2010.06.03 19:58:25.
