data_PCOD9379218
_publ_section_title
;
Structure prediction by ZEFSAII (Michael W. Deem and Ramdas Pophale) SiO2 
 PCOD9379218
Probable space group: I M A 2
;
_chemical_formula_sum "Si O2"
_cell_formula_units_Z 56
_cell_length_a 19.157116
_cell_length_b 15.871122
_cell_length_c 9.118906
_cell_angle_alpha 90.000000
_cell_angle_beta 90.000000
_cell_angle_gamma 90.000000
_cell_volume 2772.557093
_symmetry_space_group_name_H-M "I M A 2"
_symmetry_group_IT_number 46
_symmetry_cell_setting 'orthorhombic'
loop_
_space_group_symop_operation_xyz
x,y,z
-x,-y,z
1/2-x,y,z
1/2+x,-y,z
1/2+x,1/2+y,1/2+z
1/2-x,1/2-y,1/2+z
-x,1/2+y,1/2+z
x,1/2-y,1/2+z
loop_
_atom_site_type_symbol
_atom_site_label
_atom_site_fract_x
_atom_site_fract_y
_atom_site_fract_z
Si Si1 0.459356 0.205127 0.247620
Si Si2 0.515534 0.909607 0.496378
Si Si3 0.377295 0.033867 0.739792
Si Si4 0.390686 0.328800 0.446061
Si Si5 0.250000 0.367485 0.087948
Si Si6 0.590262 0.245066 0.571138
Si Si7 0.750000 0.742299 0.836969
Si Si8 0.332471 0.655752 0.311888
O O1 0.440881 0.138360 0.372511
O O2 0.449437 0.291226 0.336956
O O3 0.535502 0.203650 0.173490
O O4 0.408586 0.194281 0.110724
O O5 0.556505 0.938643 0.641734
O O6 0.454247 0.840030 0.525336
O O7 0.500000 0.000000 0.426344
O O8 0.383933 0.074654 0.900907
O O9 0.315371 0.080295 0.650293
O O10 0.361282 0.936180 0.764275
O O11 0.319890 0.284474 0.398325
O O12 0.250000 0.275420 0.169090
O O13 0.250000 0.349688 0.913506
O O14 0.621007 0.301570 0.440354
O O15 0.653914 0.214164 0.670746
O O16 0.250000 0.650340 0.347863
#
# Coordination Sequence:
#
# PCOD9379218 Si02
#       8
#     8   8   8   8   4   8   4   8
#     4  12  22  40  65  98 134 179 225 275 346 422
#     4  12  24  40  66  98 132 168 226 290 351 410
#     4  11  23  40  67  98 134 179 227 286 339 414
#     4  11  21  37  62  95 140 179 223 274 339 421
#     4  10  20  38  58  94 132 176 226 268 336 414
#     4  12  24  45  72  99 134 178 236 287 353 427
#     4  10  20  32  58  88 132 182 214 258 338 412
#     4  12  26  48  74  99 134 187 241 293 352 421
#
# _framework density 20.197959999999998
#
# number of rings (size 3 to 8) (size 9 to 14) (size 15 to 20)
#    0.000    0.571    6.429    3.000    0.000    1.143 
#    0.000    0.000    0.000    0.000    0.000    0.000 
#    0.000    0.000    0.000    0.000    0.000    0.000 
#
# Total GULP energy -156056.697674 kJ/mol
# GULP energy per Si atom -5573.453488 kJ/mol
# Density = 2.015199 g / cm^3
# Si number density = 20.197960 Si / 1000 Ang^3
#
#
#
# Elastic Constant Matrix: (Units=GPa)
#
#
# Indices 1 2 3 4 5 6 
#
# 1 90.6971 32.1991 32.4275 0.0000 0.0000 0.0000
# 2 32.1991 109.8883 39.8698 0.0000 0.0000 0.0000
# 3 32.4275 39.8698 89.8338 0.0000 0.0000 0.0000
# 4 0.0000 0.0000 0.0000 35.0428 0.0000 0.0000
# 5 0.0000 0.0000 0.0000 0.0000 35.6708 0.0000
# 6 0.0000 0.0000 0.0000 0.0000 0.0000 22.0753
#
#
#
# Elastic Compliance Matrix: (Units=1/GPa)
#
#
# Indices 1 2 3 4 5 6 
#
# 1 0.013236 -0.002557 -0.003643 0.000000 0.000000 0.000000
# 2 -0.002557 0.011341 -0.004110 0.000000 0.000000 0.000000
# 3 -0.003643 -0.004110 0.014271 0.000000 0.000000 0.000000
# 4 0.000000 0.000000 0.000000 0.028537 0.000000 0.000000
# 5 0.000000 0.000000 0.000000 0.000000 0.028034 0.000000
# 6 0.000000 0.000000 0.000000 0.000000 0.000000 0.045300
#
#
# Mechanical properties :
#
#
# Convention : Reuss Voigt Hill
#
# Bulk Modulus (GPa) = 54.86232 55.49023 55.17627
# Shear Modulus (GPa) = 29.86621 30.95265 30.40943
#
# Velocity S-wave (km/s) = 3.84953 3.91892 3.88438
# Velocity P-wave (km/s) = 6.85418 6.92893 6.89165
#
# Compressibility (1/GPa) = 0.01822745
#
# Stress axis : x y z
#
# Youngs Moduli (GPa) = 75.55229 88.17909 70.07235
#
# Poissons Ratio (x) = 0.22543 0.25528
# Poissons Ratio (y) = 0.19315 0.28802
# Poissons Ratio (z) = 0.27525 0.36244
#
# Static dielectric constant tensor:
#      x y z
#    x 1.780760 0.000000 0.000000 
#    y 0.000000 1.799850 0.000000 
#    z 0.000000 0.000000 1.732450 
# 
# From -- ./inp_files/7453.got.cif
#   From: 2010.05.17/outbox.cif.g08.bks.cpg/sg46_4_cif.got.tgz:7453.got - 2010.06.03 19:58:25.
