data_PCOD9379221
_publ_section_title
;
Structure prediction by ZEFSAII (Michael W. Deem and Ramdas Pophale) SiO2 
 PCOD9379221
Probable space group: I M A 2
;
_chemical_formula_sum "Si O2"
_cell_formula_units_Z 52
_cell_length_a 24.371215
_cell_length_b 11.070695
_cell_length_c 7.855421
_cell_angle_alpha 90.000000
_cell_angle_beta 90.000000
_cell_angle_gamma 90.000000
_cell_volume 2119.441981
_symmetry_space_group_name_H-M "I M A 2"
_symmetry_group_IT_number 46
_symmetry_cell_setting 'orthorhombic'
loop_
_space_group_symop_operation_xyz
x,y,z
-x,-y,z
1/2-x,y,z
1/2+x,-y,z
1/2+x,1/2+y,1/2+z
1/2-x,1/2-y,1/2+z
-x,1/2+y,1/2+z
x,1/2-y,1/2+z
loop_
_atom_site_type_symbol
_atom_site_label
_atom_site_fract_x
_atom_site_fract_y
_atom_site_fract_z
Si Si1 0.554503 0.669110 0.173560
Si Si2 0.750000 0.660357 0.223322
Si Si3 0.349005 0.150846 0.224699
Si Si4 0.812907 0.084553 0.046585
Si Si5 0.013988 0.632987 0.850021
Si Si6 0.145661 0.016138 0.587901
Si Si7 0.138950 0.702602 0.869191
O O1 0.601834 0.772270 0.142276
O O2 0.518378 0.745647 0.301048
O O3 0.594005 0.554964 0.202861
O O4 0.509685 0.625312 0.039230
O O5 0.701835 0.762063 0.266890
O O6 0.701478 0.566688 0.163024
O O7 0.364770 0.083110 0.401565
O O8 0.329678 0.052140 0.087539
O O9 0.750000 0.086348 0.990658
O O10 0.850353 0.159779 0.918478
O O11 0.820015 0.151903 0.227560
O O12 0.000000 0.500000 0.770450
O O13 0.077178 0.665358 0.820641
O O14 0.148870 0.877057 0.538784
#
# Coordination Sequence:
#
# PCOD9379221 Si02
#       7
#     8   4   8   8   8   8   8
#     4  11  22  42  71  95 130 171 223 276 338 395
#     4  10  20  32  66  96 126 172 220 272 332 390
#     4  10  20  41  64  98 130 174 217 274 338 395
#     4  11  23  43  67  95 135 177 218 268 331 403
#     4  12  23  45  69  99 136 179 220 288 339 395
#     4  10  21  40  67  96 131 174 220 274 337 399
#     4  11  24  43  66  96 131 178 226 263 335 399
#
# _framework density 24.534761
#
# number of rings (size 3 to 8) (size 9 to 14) (size 15 to 20)
#    0.000    1.231    3.846    2.769    4.308    0.000 
#    2.769    0.769    0.000    0.000    0.000    0.000 
#    0.000    0.000    0.000    0.000    0.000    0.000 
#
# Total GULP energy -144756.474795 kJ/mol
# GULP energy per Si atom -5567.556723 kJ/mol
# Density = 2.447892 g / cm^3
# Si number density = 24.534761 Si / 1000 Ang^3
#
#
#
# Elastic Constant Matrix: (Units=GPa)
#
#
# Indices 1 2 3 4 5 6 
#
# 1 122.6170 14.3480 3.5754 0.0000 0.0000 0.0000
# 2 14.3480 81.8710 21.8044 0.0000 0.0000 0.0000
# 3 3.5754 21.8044 46.5264 0.0000 0.0000 0.0000
# 4 0.0000 0.0000 0.0000 1344.3052 0.0000 0.0000
# 5 0.0000 0.0000 0.0000 0.0000 19.1378 0.0000
# 6 0.0000 0.0000 0.0000 0.0000 0.0000 10.0895
#
#
#
# Elastic Compliance Matrix: (Units=1/GPa)
#
#
# Indices 1 2 3 4 5 6 
#
# 1 0.008326 -0.001473 0.000050 0.000000 0.000000 0.000000
# 2 -0.001473 0.014217 -0.006549 0.000000 0.000000 0.000000
# 3 0.000050 -0.006549 0.024559 0.000000 0.000000 0.000000
# 4 0.000000 0.000000 0.000000 0.000744 0.000000 0.000000
# 5 0.000000 0.000000 0.000000 0.000000 0.052252 0.000000
# 6 0.000000 0.000000 0.000000 0.000000 0.000000 0.099113
#
#
# Mechanical properties :
#
#
# Convention : Reuss Voigt Hill
#
# Bulk Modulus (GPa) = 32.09428 36.71890 34.40659
# Shear Modulus (GPa) = 22.16891 288.79227 155.48059
#
# Velocity S-wave (km/s) = 3.00921 10.86107 7.96926
# Velocity P-wave (km/s) = 5.01830 13.12564 9.93644
#
# Compressibility (1/GPa) = 0.03115820
#
# Stress axis : x y z
#
# Youngs Moduli (GPa) = 120.10096 70.33977 40.71876
#
# Poissons Ratio (x) = 0.10358 -0.00205
# Poissons Ratio (y) = 0.17686 0.26669
# Poissons Ratio (z) = -0.00604 0.46069
#
# Static dielectric constant tensor:
#      x y z
#    x 1.923630 0.000000 0.000000 
#    y 0.000000 -5.051310 0.000000 
#    z 0.000000 0.000000 2.031700 
# 
# From -- ./inp_files/8187.got.cif
#   From: 2010.05.17/outbox.cif.g08.bks.cpg/sg46_5_cif.got.tgz:8187.got - 2010.06.03 19:58:25.
