data_PCOD9379841
_publ_section_title
;
Structure prediction by ZEFSAII (Michael W. Deem and Ramdas Pophale) SiO2 
 PCOD9379841
Probable space group: I M A 2
;
_chemical_formula_sum "Si O2"
_cell_formula_units_Z 56
_cell_length_a 15.978188
_cell_length_b 4.962758
_cell_length_c 31.201596
_cell_angle_alpha 90.000000
_cell_angle_beta 90.000000
_cell_angle_gamma 90.000000
_cell_volume 2474.158022
_symmetry_space_group_name_H-M "I M A 2"
_symmetry_group_IT_number 46
_symmetry_cell_setting 'orthorhombic'
loop_
_space_group_symop_operation_xyz
x,y,z
-x,-y,z
1/2-x,y,z
1/2+x,-y,z
1/2+x,1/2+y,1/2+z
1/2-x,1/2-y,1/2+z
-x,1/2+y,1/2+z
x,1/2-y,1/2+z
loop_
_atom_site_type_symbol
_atom_site_label
_atom_site_fract_x
_atom_site_fract_y
_atom_site_fract_z
Si Si1 0.654546 0.938893 0.376120
Si Si2 0.054522 0.762668 0.300491
Si Si3 0.407492 0.600210 0.529749
Si Si4 0.150066 0.899380 0.717026
Si Si5 0.655257 0.621891 0.078531
Si Si6 0.845977 0.453565 0.435211
Si Si7 0.851383 0.596686 0.664350
O O1 0.750000 0.877441 0.360885
O O2 0.600920 0.075169 0.338534
O O3 0.658718 0.170515 0.411465
O O4 0.621091 0.675043 0.401048
O O5 0.116189 0.661641 0.263761
O O6 0.000000 0.500000 0.314020
O O7 0.000000 0.000000 0.279840
O O8 0.500000 0.500000 0.540069
O O9 0.344491 0.374252 0.546772
O O10 0.395889 0.598538 0.478650
O O11 0.390175 0.878506 0.554312
O O12 0.250000 0.869547 0.717727
O O13 0.118576 0.694737 0.679842
O O14 0.130630 0.201079 0.703062
O O15 0.750000 0.527132 0.088281
O O16 0.617299 0.754731 0.121582
O O17 0.750000 0.539920 0.445568
O O18 0.750000 0.578479 0.658308
#
# Coordination Sequence:
#
# PCOD9379841 Si02
#       7
#     8   8   8   8   8   8   8
#     4  10  22  41  64  88 115 153 202 251 299 356
#     4  12  25  40  59  89 125 159 197 243 306 371
#     4  12  25  40  60  93 131 164 201 253 318 380
#     4  10  20  39  63  87 117 155 202 251 299 354
#     4  11  22  41  66  90 121 164 213 258 306 371
#     4  10  21  39  64  90 116 154 204 250 298 360
#     4   9  19  36  63  91 113 151 207 256 295 348
#
# _framework density 22.633960999999999
#
# number of rings (size 3 to 8) (size 9 to 14) (size 15 to 20)
#    0.000    1.429    0.000    5.571    0.000    5.143 
#    0.000   12.857    0.000    0.000    0.000    0.000 
#    0.000    0.000    0.000    0.000    0.000    0.000 
#
# Total GULP energy -156445.066998 kJ/mol
# GULP energy per Si atom -5587.323821 kJ/mol
# Density = 2.258245 g / cm^3
# Si number density = 22.633961 Si / 1000 Ang^3
#
#
#
# Elastic Constant Matrix: (Units=GPa)
#
#
# Indices 1 2 3 4 5 6 
#
# 1 38.0612 13.9905 20.9549 0.0000 0.0000 0.0000
# 2 13.9905 88.4131 -6.7372 0.0000 0.0000 0.0000
# 3 20.9549 -6.7372 63.4450 0.0000 0.0000 0.0000
# 4 0.0000 0.0000 0.0000 -18.0015 0.0000 0.0000
# 5 0.0000 0.0000 0.0000 0.0000 -158.4693 0.0000
# 6 0.0000 0.0000 0.0000 0.0000 0.0000 2.0675
#
#
#
# Elastic Compliance Matrix: (Units=1/GPa)
#
#
# Indices 1 2 3 4 5 6 
#
# 1 0.035534 -0.006570 -0.012434 0.000000 0.000000 0.000000
# 2 -0.006570 0.012618 0.003510 0.000000 0.000000 0.000000
# 3 -0.012434 0.003510 0.020241 0.000000 0.000000 0.000000
# 4 0.000000 0.000000 0.000000 -0.055551 0.000000 0.000000
# 5 0.000000 0.000000 0.000000 0.000000 -0.006310 0.000000
# 6 0.000000 0.000000 0.000000 0.000000 0.000000 0.483687
#
#
# Mechanical properties :
#
#
# Convention : Reuss Voigt Hill
#
# Bulk Modulus (GPa) = 26.73509 27.37063 27.05286
# Shear Modulus (GPa) = 9.36897 -24.09993 -7.36548
#
# Velocity S-wave (km/s) = 2.03674 -3.26662 -1.80589
# Velocity P-wave (km/s) = 4.16758 1.45216 2.76224
#
# Compressibility (1/GPa) = 0.03740403
#
# Stress axis : x y z
#
# Youngs Moduli (GPa) = 28.14180 79.25364 49.40412
#
# Poissons Ratio (x) = 0.52073 0.61430
# Poissons Ratio (y) = 0.18490 -0.17341
# Poissons Ratio (z) = 0.34992 -0.27818
#
# Static dielectric constant tensor:
#      x y z
#    x 2.026880 0.000000 0.000000 
#    y 0.000000 2.368150 0.000000 
#    z 0.000000 0.000000 1.841740 
# 
# From -- ./inp_files/25382.got.cif
#   From: 2010.05.17/outbox.cif.g08.bks.cpg/sg46_13_cif.got.tgz:25382.got - 2010.06.03 19:58:25.
