data_PCOD9379885
_publ_section_title
;
Structure prediction by ZEFSAII (Michael W. Deem and Ramdas Pophale) SiO2 
 PCOD9379885
Probable space group: I M A 2
;
_chemical_formula_sum "Si O2"
_cell_formula_units_Z 32
_cell_length_a 16.949993
_cell_length_b 15.944400
_cell_length_c 5.196843
_cell_angle_alpha 90.000000
_cell_angle_beta 90.000000
_cell_angle_gamma 90.000000
_cell_volume 1404.485633
_symmetry_space_group_name_H-M "I M A 2"
_symmetry_group_IT_number 46
_symmetry_cell_setting 'orthorhombic'
loop_
_space_group_symop_operation_xyz
x,y,z
-x,-y,z
1/2-x,y,z
1/2+x,-y,z
1/2+x,1/2+y,1/2+z
1/2-x,1/2-y,1/2+z
-x,1/2+y,1/2+z
x,1/2-y,1/2+z
loop_
_atom_site_type_symbol
_atom_site_label
_atom_site_fract_x
_atom_site_fract_y
_atom_site_fract_z
Si Si1 0.425724 0.364239 0.031230
Si Si2 0.837830 0.486824 0.868398
Si Si3 0.102494 0.695559 0.940776
Si Si4 0.838662 0.633806 0.533229
O O1 0.401686 0.342625 0.319582
O O2 0.407900 0.464234 0.013131
O O3 0.511066 0.333971 0.949151
O O4 0.363436 0.333258 0.814906
O O5 0.750000 0.508961 0.970151
O O6 0.849494 0.388604 0.880557
O O7 0.840945 0.532689 0.589606
O O8 0.117856 0.762575 0.716449
O O9 0.750000 0.657133 0.462488
#
# Coordination Sequence:
#
# PCOD9379885 Si02
#       4
#     8   8   8   8
#     4  10  20  40  65  91 124 166 218 265 306 375
#     4   9  22  42  69  95 121 165 222 269 311 371
#     4  12  27  42  60  95 139 175 204 254 331 399
#     4   9  18  35  68  96 116 150 212 276 312 351
#
# _framework density 22.784141000000002
#
# number of rings (size 3 to 8) (size 9 to 14) (size 15 to 20)
#    1.500    0.500    0.000    3.750    3.500    1.000 
#    4.500    0.000    0.000   25.500    0.000    0.000 
#    0.000    0.000    0.000    0.000    0.000    0.000 
#
# Total GULP energy -89222.594555 kJ/mol
# GULP energy per Si atom -5576.412160 kJ/mol
# Density = 2.273228 g / cm^3
# Si number density = 22.784141 Si / 1000 Ang^3
#
#
#
# Elastic Constant Matrix: (Units=GPa)
#
#
# Indices 1 2 3 4 5 6 
#
# 1 51.0857 11.8894 12.4603 0.0000 0.0000 0.0000
# 2 11.8894 115.6702 5.4908 0.0000 0.0000 0.0000
# 3 12.4603 5.4908 105.9736 0.0000 0.0000 0.0000
# 4 0.0000 0.0000 0.0000 37.8626 0.0000 0.0000
# 5 0.0000 0.0000 0.0000 0.0000 16.6581 0.0000
# 6 0.0000 0.0000 0.0000 0.0000 0.0000 20.6699
#
#
#
# Elastic Compliance Matrix: (Units=1/GPa)
#
#
# Indices 1 2 3 4 5 6 
#
# 1 0.020608 -0.002008 -0.002319 0.000000 0.000000 0.000000
# 2 -0.002008 0.008862 -0.000223 0.000000 0.000000 0.000000
# 3 -0.002319 -0.000223 0.009721 0.000000 0.000000 0.000000
# 4 0.000000 0.000000 0.000000 0.026411 0.000000 0.000000
# 5 0.000000 0.000000 0.000000 0.000000 0.060031 0.000000
# 6 0.000000 0.000000 0.000000 0.000000 0.000000 0.048380
#
#
# Mechanical properties :
#
#
# Convention : Reuss Voigt Hill
#
# Bulk Modulus (GPa) = 33.23332 36.93452 35.08392
# Shear Modulus (GPa) = 25.88755 31.23071 28.55913
#
# Velocity S-wave (km/s) = 3.37443 3.70634 3.54427
# Velocity P-wave (km/s) = 5.45895 5.87893 5.67283
#
# Compressibility (1/GPa) = 0.03009028
#
# Stress axis : x y z
#
# Youngs Moduli (GPa) = 48.52492 112.83788 102.87496
#
# Poissons Ratio (x) = 0.22660 0.23857
# Poissons Ratio (y) = 0.09745 0.02295
# Poissons Ratio (z) = 0.11253 0.02517
#
# Static dielectric constant tensor:
#      x y z
#    x 1.796760 0.000000 0.000000 
#    y 0.000000 1.943030 0.000000 
#    z 0.000000 0.000000 1.822520 
# 
# From -- ./inp_files/1544.got.cif
#   From: 2010.05.17/outbox.cif.g08.bks.cpg/sg46_1_cif.got.tgz:1544.got - 2010.06.03 19:58:25.
