data_PCOD9379365
_publ_section_title
;
Structure prediction by ZEFSAII (Michael W. Deem and Ramdas Pophale) SiO2 
 PCOD9379365
Probable space group: I M A 2
;
_chemical_formula_sum "Si O2"
_cell_formula_units_Z 64
_cell_length_a 8.166303
_cell_length_b 28.912047
_cell_length_c 12.873756
_cell_angle_alpha 90.000000
_cell_angle_beta 90.000000
_cell_angle_gamma 90.000000
_cell_volume 3039.552189
_symmetry_space_group_name_H-M "I M A 2"
_symmetry_group_IT_number 46
_symmetry_cell_setting 'orthorhombic'
loop_
_space_group_symop_operation_xyz
x,y,z
-x,-y,z
1/2-x,y,z
1/2+x,-y,z
1/2+x,1/2+y,1/2+z
1/2-x,1/2-y,1/2+z
-x,1/2+y,1/2+z
x,1/2-y,1/2+z
loop_
_atom_site_type_symbol
_atom_site_label
_atom_site_fract_x
_atom_site_fract_y
_atom_site_fract_z
Si Si1 0.055640 0.376802 0.689950
Si Si2 0.448056 0.047505 0.349673
Si Si3 0.554678 0.913769 0.793287
Si Si4 0.943830 0.164648 0.516620
Si Si5 0.941738 0.447500 0.516252
Si Si6 0.061544 0.433788 0.070557
Si Si7 0.943422 0.310373 0.245987
Si Si8 0.553493 0.210485 0.300937
O O1 0.250000 0.373476 0.698587
O O2 0.992129 0.408575 0.785441
O O3 0.017670 0.407086 0.588127
O O4 0.989117 0.325341 0.708882
O O5 0.250000 0.049758 0.354497
O O6 0.518931 0.046538 0.466492
O O7 0.500000 0.000000 0.296156
O O8 0.750000 0.920627 0.796776
O O9 0.478977 0.934895 0.896615
O O10 0.489390 0.937136 0.686007
O O11 0.521504 0.858697 0.782516
O O12 0.750000 0.151406 0.507108
O O13 0.955726 0.194476 0.621185
O O14 0.997792 0.188637 0.410901
O O15 0.052939 0.120358 0.542279
O O16 0.750000 0.446294 0.535447
O O17 0.000000 0.500000 0.537303
O O18 0.250000 0.449547 0.076244
O O19 0.750000 0.314737 0.271074
O O20 0.011400 0.262598 0.290988
O O21 0.750000 0.214153 0.302896
#
# Coordination Sequence:
#
# PCOD9379365 Si02
#       8
#     8   8   8   8   8   8   8   8
#     4  11  23  40  61  86 119 157 206 257 308 368
#     4  10  21  35  54  82 114 147 183 233 290 349
#     4  10  21  39  63  89 121 158 206 256 307 367
#     4   9  17  31  52  77 109 150 193 240 294 354
#     4  12  26  45  67  90 123 164 210 260 319 382
#     4   9  18  35  56  81 112 148 186 235 294 349
#     4   9  19  35  55  85 123 164 210 257 309 364
#     4  10  20  34  56  86 120 162 211 258 310 367
#
# _framework density 21.055731999999999
#
# number of rings (size 3 to 8) (size 9 to 14) (size 15 to 20)
#    0.000    2.000    1.250    2.250    0.000    5.000 
#    0.000    3.750    0.000    0.000    0.000    0.000 
#    0.000    0.000    0.000    0.000    0.000    0.000 
#
# Total GULP energy -178505.128011 kJ/mol
# GULP energy per Si atom -5578.285250 kJ/mol
# Density = 2.100781 g / cm^3
# Si number density = 21.055732 Si / 1000 Ang^3
#
#
#
# Elastic Constant Matrix: (Units=GPa)
#
#
# Indices 1 2 3 4 5 6 
#
# 1 16.2498 -1.0247 -5.9509 0.0001 0.0000 0.0000
# 2 -1.0247 57.6644 6.0678 0.0000 0.0000 0.0000
# 3 -5.9509 6.0678 81.9580 0.0008 -0.0001 0.0000
# 4 0.0001 0.0000 0.0008 7.5047 -0.0001 0.0000
# 5 0.0000 0.0000 -0.0001 -0.0001 5.6287 0.0000
# 6 0.0000 0.0000 0.0000 0.0000 0.0000 25.1330
#
#
#
# Elastic Compliance Matrix: (Units=1/GPa)
#
#
# Indices 1 2 3 4 5 6 
#
# 1 0.063244 0.000646 0.004544 -0.000001 0.000000 0.000000
# 2 0.000646 0.017484 -0.001248 0.000000 0.000000 0.000000
# 3 0.004544 -0.001248 0.012624 -0.000001 0.000000 0.000000
# 4 -0.000001 0.000000 -0.000001 0.133249 0.000002 0.000000
# 5 0.000000 0.000000 0.000000 0.000002 0.177662 0.000000
# 6 0.000000 0.000000 0.000000 0.000000 0.000000 0.039788
#
#
# Mechanical properties :
#
#
# Convention : Reuss Voigt Hill
#
# Bulk Modulus (GPa) = 9.87782 17.11740 13.49761
# Shear Modulus (GPa) = 10.64027 18.10528 14.37278
#
# Velocity S-wave (km/s) = 2.25041 2.93554 2.61551
# Velocity P-wave (km/s) = 3.38437 4.43138 3.94278
#
# Compressibility (1/GPa) = 0.10123692
#
# Stress axis : x y z
#
# Youngs Moduli (GPa) = 15.81177 57.19356 79.21608
#
# Poissons Ratio (x) = -0.03693 -0.35998
# Poissons Ratio (y) = -0.01021 0.09883
# Poissons Ratio (z) = -0.07185 0.07135
#
# Static dielectric constant tensor:
#      x y z
#    x 1.739790 0.000000 0.000000 
#    y 0.000000 1.816330 0.000000 
#    z 0.000000 0.000000 1.791910 
# 
# From -- ./inp_files/9760.got.cif
#   From: 2010.05.17/outbox.cif.g08.bks.cpg/sg46_5_cif.got.tgz:9760.got - 2010.06.03 19:58:25.
