data_PCOD9379306
_publ_section_title
;
Structure prediction by ZEFSAII (Michael W. Deem and Ramdas Pophale) SiO2 
 PCOD9379306
Probable space group: I M A 2
;
_chemical_formula_sum "Si O2"
_cell_formula_units_Z 56
_cell_length_a 25.357186
_cell_length_b 13.359583
_cell_length_c 8.215055
_cell_angle_alpha 90.000000
_cell_angle_beta 90.000000
_cell_angle_gamma 90.000000
_cell_volume 2782.943788
_symmetry_space_group_name_H-M "I M A 2"
_symmetry_group_IT_number 46
_symmetry_cell_setting 'orthorhombic'
loop_
_space_group_symop_operation_xyz
x,y,z
-x,-y,z
1/2-x,y,z
1/2+x,-y,z
1/2+x,1/2+y,1/2+z
1/2-x,1/2-y,1/2+z
-x,1/2+y,1/2+z
x,1/2-y,1/2+z
loop_
_atom_site_type_symbol
_atom_site_label
_atom_site_fract_x
_atom_site_fract_y
_atom_site_fract_z
Si Si1 0.453626 0.414175 0.695300
Si Si2 0.250000 0.740035 0.728982
Si Si3 0.134358 0.977010 0.014770
Si Si4 0.968636 0.716272 0.025832
Si Si5 0.635881 0.207811 0.220486
Si Si6 0.750000 0.083836 0.937883
Si Si7 0.082194 0.859437 0.534790
Si Si8 0.558452 0.960024 0.726890
O O1 0.500000 0.500000 0.694429
O O2 0.395870 0.463756 0.661729
O O3 0.459295 0.334134 0.545809
O O4 0.459398 0.343932 0.856468
O O5 0.194308 0.699501 0.792889
O O6 0.250000 0.859830 0.762015
O O7 0.250000 0.685000 0.551806
O O8 0.127803 0.860818 0.062436
O O9 0.197286 0.979723 0.979254
O O10 0.100807 0.009476 0.859952
O O11 0.938819 0.653112 0.165683
O O12 0.029384 0.700401 0.073537
O O13 0.596767 0.168153 0.354168
O O14 0.625690 0.319137 0.159581
O O15 0.070628 0.974086 0.565922
O O16 0.500000 0.000000 0.776706
#
# Coordination Sequence:
#
# PCOD9379306 Si02
#       8
#     8   4   8   8   8   4   8   8
#     4  12  24  41  64  92 128 166 205 256 313 371
#     4  10  20  34  52  80 116 158 204 248 304 366
#     4  11  22  37  57  83 118 159 204 251 307 368
#     4  11  23  39  61  90 122 160 205 254 313 372
#     4  11  21  33  53  81 119 163 203 252 306 365
#     4  10  22  38  58  86 120 162 206 254 308 370
#     4  11  20  33  53  83 120 157 201 250 304 371
#     4  10  21  36  57  85 119 159 203 250 307 372
#
# _framework density 20.122575999999999
#
# number of rings (size 3 to 8) (size 9 to 14) (size 15 to 20)
#    0.000    1.143    0.000    9.429    0.000    3.429 
#    0.000    0.714    0.000    3.429    0.000    0.000 
#    0.000    0.000    0.000    0.000    0.000    0.000 
#
# Total GULP energy -156088.446384 kJ/mol
# GULP energy per Si atom -5574.587371 kJ/mol
# Density = 2.007678 g / cm^3
# Si number density = 20.122576 Si / 1000 Ang^3
#
#
#
# Elastic Constant Matrix: (Units=GPa)
#
#
# Indices 1 2 3 4 5 6 
#
# 1 108.5642 47.3032 35.1439 0.0000 0.0000 0.0000
# 2 47.3032 117.8223 28.6104 0.0000 0.0000 0.0000
# 3 35.1439 28.6104 82.0119 0.0000 0.0000 0.0000
# 4 0.0000 0.0000 0.0000 44.5138 0.0000 0.0000
# 5 0.0000 0.0000 0.0000 0.0000 21.8857 0.0000
# 6 0.0000 0.0000 0.0000 0.0000 0.0000 22.5342
#
#
#
# Elastic Compliance Matrix: (Units=1/GPa)
#
#
# Indices 1 2 3 4 5 6 
#
# 1 0.012178 -0.003957 -0.003838 0.000000 0.000000 0.000000
# 2 -0.003957 0.010559 -0.001988 0.000000 0.000000 0.000000
# 3 -0.003838 -0.001988 0.014531 0.000000 0.000000 0.000000
# 4 0.000000 0.000000 0.000000 0.022465 0.000000 0.000000
# 5 0.000000 0.000000 0.000000 0.000000 0.045692 0.000000
# 6 0.000000 0.000000 0.000000 0.000000 0.000000 0.044377
#
#
# Mechanical properties :
#
#
# Convention : Reuss Voigt Hill
#
# Bulk Modulus (GPa) = 56.49014 58.94593 57.71804
# Shear Modulus (GPa) = 28.52768 30.94279 29.73523
#
# Velocity S-wave (km/s) = 3.76931 3.92563 3.84826
# Velocity P-wave (km/s) = 6.86131 7.06430 6.96355
#
# Compressibility (1/GPa) = 0.01770220
#
# Stress axis : x y z
#
# Youngs Moduli (GPa) = 82.11703 94.70813 68.81628
#
# Poissons Ratio (x) = 0.37477 0.26411
# Poissons Ratio (y) = 0.32495 0.13679
# Poissons Ratio (z) = 0.31516 0.18826
#
# Static dielectric constant tensor:
#      x y z
#    x 1.711530 0.000000 0.000000 
#    y 0.000000 1.753340 0.000000 
#    z 0.000000 0.000000 1.822270 
# 
# From -- ./inp_files/8217.got.cif
#   From: 2010.05.17/outbox.cif.g08.bks.cpg/sg46_5_cif.got.tgz:8217.got - 2010.06.03 19:58:25.
