data_PCOD9379336
_publ_section_title
;
Structure prediction by ZEFSAII (Michael W. Deem and Ramdas Pophale) SiO2 
 PCOD9379336
Probable space group: I M A 2
;
_chemical_formula_sum "Si O2"
_cell_formula_units_Z 64
_cell_length_a 8.691012
_cell_length_b 25.503464
_cell_length_c 15.325753
_cell_angle_alpha 90.000000
_cell_angle_beta 90.000000
_cell_angle_gamma 90.000000
_cell_volume 3396.967124
_symmetry_space_group_name_H-M "I M A 2"
_symmetry_group_IT_number 46
_symmetry_cell_setting 'orthorhombic'
loop_
_space_group_symop_operation_xyz
x,y,z
-x,-y,z
1/2-x,y,z
1/2+x,-y,z
1/2+x,1/2+y,1/2+z
1/2-x,1/2-y,1/2+z
-x,1/2+y,1/2+z
x,1/2-y,1/2+z
loop_
_atom_site_type_symbol
_atom_site_label
_atom_site_fract_x
_atom_site_fract_y
_atom_site_fract_z
Si Si1 0.933650 0.607797 0.198870
Si Si2 0.065825 0.835995 0.196511
Si Si3 0.435376 0.150231 0.004553
Si Si4 0.066533 0.558571 0.022808
Si Si5 0.932964 0.283046 0.176862
Si Si6 0.933820 0.868263 0.372894
Si Si7 0.564336 0.943480 0.878918
Si Si8 0.565280 0.768152 0.485656
O O1 0.750000 0.604948 0.188329
O O2 0.981325 0.571992 0.280403
O O3 0.011012 0.588763 0.109669
O O4 0.981114 0.667657 0.218138
O O5 0.250000 0.838536 0.196525
O O6 0.020678 0.774672 0.209808
O O7 0.003943 0.851965 0.101581
O O8 0.998048 0.869598 0.275300
O O9 0.250000 0.147928 0.011085
O O10 0.487566 0.102645 0.943836
O O11 0.473757 0.207724 0.965531
O O12 0.250000 0.557036 0.021352
O O13 0.000000 0.500000 0.025129
O O14 0.004693 0.589330 0.938340
O O15 0.750000 0.289165 0.186433
O O16 0.978579 0.282790 0.074660
O O17 0.750000 0.873761 0.372478
O O18 0.972701 0.811010 0.413210
O O19 0.750000 0.944782 0.881038
O O20 0.500000 0.000000 0.902922
O O21 0.750000 0.771078 0.501677
#
# Coordination Sequence:
#
# PCOD9379336 Si02
#       8
#     8   8   8   8   8   8   8   8
#     4  11  22  37  59  88 121 160 202 245 295 357
#     4  10  22  38  57  87 124 160 197 246 304 359
#     4   9  19  39  61  85 114 153 200 250 299 354
#     4  12  25  42  63  87 122 161 201 250 298 357
#     4  10  20  34  54  84 122 160 195 237 295 353
#     4  11  22  37  61  91 120 159 203 246 299 357
#     4  10  23  40  61  86 116 152 199 250 297 349
#     4   9  18  33  57  84 115 151 194 240 290 353
#
# _framework density 18.840336000000001
#
# number of rings (size 3 to 8) (size 9 to 14) (size 15 to 20)
#    0.000    1.750    1.250    3.000    1.750    4.500 
#    0.000    0.625    0.000    1.500    0.000    0.000 
#    0.000    0.000    0.000    0.000    0.000    0.000 
#
# Total GULP energy -178789.603566 kJ/mol
# GULP energy per Si atom -5587.175111 kJ/mol
# Density = 1.879745 g / cm^3
# Si number density = 18.840336 Si / 1000 Ang^3
#
#
#
# Elastic Constant Matrix: (Units=GPa)
#
#
# Indices 1 2 3 4 5 6 
#
# 1 42.1506 29.8752 23.0958 0.0000 0.0000 0.0000
# 2 29.8752 107.8057 41.4825 0.0001 0.0000 0.0000
# 3 23.0958 41.4825 68.9276 0.0002 0.0000 0.0000
# 4 0.0000 0.0001 0.0002 30.8766 0.0000 0.0000
# 5 0.0000 0.0000 0.0000 0.0000 10.8564 0.0000
# 6 0.0000 0.0000 0.0000 0.0000 0.0000 31.8212
#
#
#
# Elastic Compliance Matrix: (Units=1/GPa)
#
#
# Indices 1 2 3 4 5 6 
#
# 1 0.031917 -0.006155 -0.006990 0.000000 0.000000 0.000000
# 2 -0.006155 0.013258 -0.005917 0.000000 0.000000 0.000000
# 3 -0.006990 -0.005917 0.020411 0.000000 0.000000 0.000000
# 4 0.000000 0.000000 0.000000 0.032387 0.000000 0.000000
# 5 0.000000 0.000000 0.000000 0.000000 0.092112 0.000000
# 6 0.000000 0.000000 0.000000 0.000000 0.000000 0.031426
#
#
# Mechanical properties :
#
#
# Convention : Reuss Voigt Hill
#
# Bulk Modulus (GPa) = 36.41358 45.31010 40.86184
# Shear Modulus (GPa) = 18.60188 23.00620 20.80404
#
# Velocity S-wave (km/s) = 3.14561 3.49824 3.32660
# Velocity P-wave (km/s) = 5.70636 6.35756 6.04074
#
# Compressibility (1/GPa) = 0.02746228
#
# Stress axis : x y z
#
# Youngs Moduli (GPa) = 31.33094 75.42389 48.99279
#
# Poissons Ratio (x) = 0.46425 0.34248
# Poissons Ratio (y) = 0.19285 0.28988
# Poissons Ratio (z) = 0.21901 0.44627
#
# Static dielectric constant tensor:
#      x y z
#    x 1.629810 0.000000 0.000000 
#    y 0.000000 1.651230 0.000000 
#    z 0.000000 0.000000 1.632650 
# 
# From -- ./inp_files/14462.got.cif
#   From: 2010.05.17/outbox.cif.g08.bks.cpg/sg46_8_cif.got.tgz:14462.got - 2010.06.03 19:58:25.
