data_PCOD9379010
_publ_section_title
;
Structure prediction by ZEFSAII (Michael W. Deem and Ramdas Pophale) SiO2 
 PCOD9379010
Probable space group: I M A 2
;
_chemical_formula_sum "Si O2"
_cell_formula_units_Z 64
_cell_length_a 8.579628
_cell_length_b 33.496460
_cell_length_c 12.134129
_cell_angle_alpha 90.000000
_cell_angle_beta 90.000000
_cell_angle_gamma 90.000000
_cell_volume 3487.192947
_symmetry_space_group_name_H-M "I M A 2"
_symmetry_group_IT_number 46
_symmetry_cell_setting 'orthorhombic'
loop_
_space_group_symop_operation_xyz
x,y,z
-x,-y,z
1/2-x,y,z
1/2+x,-y,z
1/2+x,1/2+y,1/2+z
1/2-x,1/2-y,1/2+z
-x,1/2+y,1/2+z
x,1/2-y,1/2+z
loop_
_atom_site_type_symbol
_atom_site_label
_atom_site_fract_x
_atom_site_fract_y
_atom_site_fract_z
Si Si1 0.071380 0.682323 0.067330
Si Si2 0.437596 0.879462 0.989356
Si Si3 0.060517 0.722852 0.855089
Si Si4 0.934920 0.853549 0.226666
Si Si5 0.927398 0.101059 0.428684
Si Si6 0.437451 0.454750 0.361648
Si Si7 0.063841 0.044534 0.613265
Si Si8 0.060095 0.685604 0.310364
O O1 0.250000 0.696291 0.086228
O O2 0.001533 0.676238 0.187295
O O3 0.000617 0.712313 0.978099
O O4 0.076708 0.640949 0.002739
O O5 0.250000 0.880474 0.989313
O O6 0.498981 0.922326 0.947573
O O7 0.493474 0.845808 0.901754
O O8 0.494700 0.866579 0.109960
O O9 0.250000 0.719449 0.854929
O O10 0.019044 0.768269 0.830175
O O11 0.999862 0.689088 0.771116
O O12 0.750000 0.850847 0.218621
O O13 0.981707 0.886322 0.319033
O O14 0.750000 0.090180 0.399768
O O15 0.001056 0.068917 0.509780
O O16 0.500000 0.500000 0.378146
O O17 0.250000 0.455893 0.366746
O O18 0.484671 0.441345 0.236632
O O19 0.250000 0.044790 0.610705
O O20 0.000000 0.000000 0.604779
O O21 0.250000 0.682919 0.313027
#
# Coordination Sequence:
#
# PCOD9379010 Si02
#       8
#     8   8   8   8   8   8   8   8
#     4   8  15  28  48  77 106 134 173 224 276 322
#     4  11  22  37  59  87 114 151 200 247 293 349
#     4   9  18  33  55  80 107 143 188 236 284 338
#     4  11  23  39  56  77 112 154 192 237 294 353
#     4  10  19  35  58  80 107 144 188 235 280 335
#     4  10  21  38  60  88 123 159 194 237 289 345
#     4  10  20  34  56  87 120 152 186 228 283 340
#     4   9  18  30  53  84 111 141 184 236 283 336
#
# _framework density 18.352872000000001
#
# number of rings (size 3 to 8) (size 9 to 14) (size 15 to 20)
#    0.000    2.250    0.000    4.125    1.750    2.500 
#    0.000    1.875    0.000    1.500    0.000    0.000 
#    0.000    0.000    0.000    0.000    0.000    0.000 
#
# Total GULP energy -178429.639410 kJ/mol
# GULP energy per Si atom -5575.926232 kJ/mol
# Density = 1.831110 g / cm^3
# Si number density = 18.352872 Si / 1000 Ang^3
#
#
#
# Elastic Constant Matrix: (Units=GPa)
#
#
# Indices 1 2 3 4 5 6 
#
# 1 59.5679 27.5230 32.7220 0.0000 0.0000 0.0000
# 2 27.5230 84.5533 71.7326 0.0000 0.0000 0.0000
# 3 32.7220 71.7326 163.6083 0.0000 0.0001 0.0000
# 4 0.0000 0.0000 0.0000 19.6061 0.0001 0.0000
# 5 0.0000 0.0000 0.0001 0.0001 19.4758 0.0000
# 6 0.0000 0.0000 0.0000 0.0000 0.0000 20.9508
#
#
#
# Elastic Compliance Matrix: (Units=1/GPa)
#
#
# Indices 1 2 3 4 5 6 
#
# 1 0.020099 -0.004987 -0.001833 0.000000 0.000000 0.000000
# 2 -0.004987 0.020069 -0.007802 0.000000 0.000000 0.000000
# 3 -0.001833 -0.007802 0.009899 0.000000 0.000000 0.000000
# 4 0.000000 0.000000 0.000000 0.051005 0.000000 0.000000
# 5 0.000000 0.000000 0.000000 0.000000 0.051346 0.000000
# 6 0.000000 0.000000 0.000000 0.000000 0.000000 0.047731
#
#
# Mechanical properties :
#
#
# Convention : Reuss Voigt Hill
#
# Bulk Modulus (GPa) = 48.02337 63.52051 55.77194
# Shear Modulus (GPa) = 21.15656 23.72333 22.43994
#
# Velocity S-wave (km/s) = 3.39892 3.59921 3.50050
# Velocity P-wave (km/s) = 6.45190 7.20820 6.84051
#
# Compressibility (1/GPa) = 0.02082320
#
# Stress axis : x y z
#
# Youngs Moduli (GPa) = 49.75400 49.82843 101.01674
#
# Poissons Ratio (x) = 0.24850 0.18519
# Poissons Ratio (y) = 0.24813 0.78809
# Poissons Ratio (z) = 0.09121 0.38874
#
# Static dielectric constant tensor:
#      x y z
#    x 1.636780 0.000000 0.000000 
#    y 0.000000 1.624960 0.000000 
#    z 0.000000 0.000000 1.647600 
# 
# From -- ./inp_files/9667.got.cif
#   From: 2010.05.17/outbox.cif.g08.bks.cpg/sg46_5_cif.got.tgz:9667.got - 2010.06.03 19:58:25.
