data_PCOD9379914
_publ_section_title
;
Structure prediction by ZEFSAII (Michael W. Deem and Ramdas Pophale) SiO2 
 PCOD9379914
Probable space group: I M A 2
;
_chemical_formula_sum "Si O2"
_cell_formula_units_Z 48
_cell_length_a 16.336590
_cell_length_b 14.246916
_cell_length_c 9.666642
_cell_angle_alpha 90.000000
_cell_angle_beta 90.000000
_cell_angle_gamma 90.000000
_cell_volume 2249.872505
_symmetry_space_group_name_H-M "I M A 2"
_symmetry_group_IT_number 46
_symmetry_cell_setting 'orthorhombic'
loop_
_space_group_symop_operation_xyz
x,y,z
-x,-y,z
1/2-x,y,z
1/2+x,-y,z
1/2+x,1/2+y,1/2+z
1/2-x,1/2-y,1/2+z
-x,1/2+y,1/2+z
x,1/2-y,1/2+z
loop_
_atom_site_type_symbol
_atom_site_label
_atom_site_fract_x
_atom_site_fract_y
_atom_site_fract_z
Si Si1 0.438170 0.416316 0.004270
Si Si2 0.552397 0.264841 0.447103
Si Si3 0.099549 0.508378 0.734986
Si Si4 0.100217 0.356175 0.535935
Si Si5 0.654570 0.808613 0.730065
Si Si6 0.655027 0.222019 0.203916
O O1 0.500000 0.500000 0.036556
O O2 0.387542 0.389333 0.139338
O O3 0.493178 0.326346 0.957553
O O4 0.381851 0.452062 0.877058
O O5 0.495994 0.349728 0.499886
O O6 0.589321 0.277830 0.296474
O O7 0.629463 0.255696 0.547791
O O8 0.128270 0.454723 0.597386
O O9 0.134316 0.612921 0.737115
O O10 0.000000 0.500000 0.732910
O O11 0.115592 0.284561 0.662587
O O12 0.141337 0.322791 0.393423
O O13 0.750000 0.804835 0.701298
O O14 0.750000 0.241476 0.230506
#
# Coordination Sequence:
#
# PCOD9379914 Si02
#       6
#     8   8   8   8   8   8
#     4  10  20  41  69  90 120 166 220 259 311 382
#     4  11  20  42  65  91 122 167 220 249 309 389
#     4  11  21  43  67  94 121 164 219 262 314 382
#     4  11  22  40  70  91 127 171 213 262 312 390
#     4  11  24  39  62  97 130 164 207 266 326 374
#     4  12  25  40  64  96 132 167 207 268 326 378
#
# _framework density 21.334543
#
# number of rings (size 3 to 8) (size 9 to 14) (size 15 to 20)
#    0.000    1.000    5.000    5.000    0.000    2.667 
#    3.000    0.000    0.000    0.000    0.000    0.000 
#    0.000    0.000    0.000    0.000    0.000    0.000 
#
# Total GULP energy -134059.032290 kJ/mol
# GULP energy per Si atom -5585.793012 kJ/mol
# Density = 2.128598 g / cm^3
# Si number density = 21.334543 Si / 1000 Ang^3
#
#
#
# Elastic Constant Matrix: (Units=GPa)
#
#
# Indices 1 2 3 4 5 6 
#
# 1 71.9438 -7.3331 -3.4538 0.0000 0.0000 0.0000
# 2 -7.3331 33.4128 8.6404 0.0000 0.0000 0.0000
# 3 -3.4538 8.6404 87.1878 0.0000 0.0000 0.0000
# 4 0.0000 0.0000 0.0000 30.7309 0.0000 0.0000
# 5 0.0000 0.0000 0.0000 0.0000 25.6996 0.0000
# 6 0.0000 0.0000 0.0000 0.0000 0.0000 11.4731
#
#
#
# Elastic Compliance Matrix: (Units=1/GPa)
#
#
# Indices 1 2 3 4 5 6 
#
# 1 0.014224 0.003054 0.000261 0.000000 0.000000 0.000000
# 2 0.003054 0.031372 -0.002988 0.000000 0.000000 0.000000
# 3 0.000261 -0.002988 0.011776 0.000000 0.000000 0.000000
# 4 0.000000 0.000000 0.000000 0.032541 0.000000 0.000000
# 5 0.000000 0.000000 0.000000 0.000000 0.038911 0.000000
# 6 0.000000 0.000000 0.000000 0.000000 0.000000 0.087160
#
#
# Mechanical properties :
#
#
# Convention : Reuss Voigt Hill
#
# Bulk Modulus (GPa) = 17.23390 20.91682 19.07536
# Shear Modulus (GPa) = 21.30642 26.56010 23.93326
#
# Velocity S-wave (km/s) = 3.16362 3.53219 3.35297
# Velocity P-wave (km/s) = 4.63035 5.14399 4.89391
#
# Compressibility (1/GPa) = 0.05802517
#
# Stress axis : x y z
#
# Youngs Moduli (GPa) = 70.30580 31.87590 84.91892
#
# Poissons Ratio (x) = -0.09736 -0.02214
# Poissons Ratio (y) = -0.21473 0.25374
# Poissons Ratio (z) = -0.01833 0.09524
#
# Static dielectric constant tensor:
#      x y z
#    x 1.760810 0.000000 0.000000 
#    y 0.000000 1.911810 0.000000 
#    z 0.000000 0.000000 1.780770 
# 
# From -- ./inp_files/5687.got.cif
#   From: 2010.05.17/outbox.cif.g08.bks.cpg/sg46_3_cif.got.tgz:5687.got - 2010.06.03 19:58:25.
