data_PCOD9379039
_publ_section_title
;
Structure prediction by ZEFSAII (Michael W. Deem and Ramdas Pophale) SiO2 
 PCOD9379039
Probable space group: I M A 2
;
_chemical_formula_sum "Si O2"
_cell_formula_units_Z 64
_cell_length_a 17.308716
_cell_length_b 8.966421
_cell_length_c 21.794442
_cell_angle_alpha 90.000000
_cell_angle_beta 90.000000
_cell_angle_gamma 90.000000
_cell_volume 3382.437129
_symmetry_space_group_name_H-M "I M A 2"
_symmetry_group_IT_number 46
_symmetry_cell_setting 'orthorhombic'
loop_
_space_group_symop_operation_xyz
x,y,z
-x,-y,z
1/2-x,y,z
1/2+x,-y,z
1/2+x,1/2+y,1/2+z
1/2-x,1/2-y,1/2+z
-x,1/2+y,1/2+z
x,1/2-y,1/2+z
loop_
_atom_site_type_symbol
_atom_site_label
_atom_site_fract_x
_atom_site_fract_y
_atom_site_fract_z
Si Si1 0.584732 0.929961 0.383970
Si Si2 0.842079 0.080454 0.767522
Si Si3 0.342407 0.886886 0.631257
Si Si4 0.341583 0.922574 0.267842
Si Si5 0.414642 0.423546 0.516359
Si Si6 0.416267 0.424652 0.382338
Si Si7 0.088544 0.941150 0.138736
Si Si8 0.413854 0.433860 0.021034
O O1 0.576877 0.752720 0.380673
O O2 0.615075 0.970754 0.452044
O O3 0.500000 0.000000 0.378127
O O4 0.634992 0.987737 0.327842
O O5 0.750000 0.080702 0.772607
O O6 0.860448 0.037105 0.697213
O O7 0.869790 0.251502 0.775165
O O8 0.873888 0.981705 0.822132
O O9 0.250000 0.850085 0.631196
O O10 0.393726 0.735464 0.630254
O O11 0.363556 0.992173 0.574488
O O12 0.250000 0.918653 0.261318
O O13 0.375747 0.983396 0.204265
O O14 0.500000 0.500000 0.514694
O O15 0.379522 0.459843 0.449414
O O16 0.375447 0.486084 0.577550
O O17 0.419650 0.245379 0.524085
O O18 0.500000 0.500000 0.381589
O O19 0.000000 0.000000 0.140777
O O20 0.500000 0.500000 0.026584
#
# Coordination Sequence:
#
# PCOD9379039 Si02
#       8
#     8   8   8   8   8   8   8   8
#     4  10  21  36  56  83 113 145 186 234 280 333
#     4   9  20  38  56  77 109 147 184 225 276 335
#     4  10  22  40  59  83 118 154 191 238 290 343
#     4  10  21  37  56  80 112 147 186 233 284 338
#     4   9  19  35  55  83 112 139 180 234 283 329
#     4  10  20  35  57  81 107 141 183 229 275 328
#     4  10  19  35  60  85 111 146 189 237 285 339
#     4  10  20  36  59  84 111 147 192 236 281 341
#
# _framework density 18.921268000000001
#
# number of rings (size 3 to 8) (size 9 to 14) (size 15 to 20)
#    0.000    2.250    0.000    3.750    0.000    6.500 
#    0.000    6.875    0.000    0.000    0.000    0.000 
#    0.000    0.000    0.000    0.000    0.000    0.000 
#
# Total GULP energy -178361.540589 kJ/mol
# GULP energy per Si atom -5573.798143 kJ/mol
# Density = 1.887820 g / cm^3
# Si number density = 18.921268 Si / 1000 Ang^3
#
#
#
# Elastic Constant Matrix: (Units=GPa)
#
#
# Indices 1 2 3 4 5 6 
#
# 1 43.3459 28.5665 52.2622 0.0000 0.0000 0.0000
# 2 28.5665 71.0956 77.0658 0.0000 0.0000 0.0000
# 3 52.2622 77.0658 208.1734 0.0000 0.0000 0.0000
# 4 0.0000 0.0000 0.0000 42.0014 0.0000 0.0000
# 5 0.0000 0.0000 0.0000 0.0000 -80.4193 0.0000
# 6 0.0000 0.0000 0.0000 0.0000 0.0000 21.9853
#
#
#
# Elastic Compliance Matrix: (Units=1/GPa)
#
#
# Indices 1 2 3 4 5 6 
#
# 1 0.035425 -0.007672 -0.006053 0.000000 0.000000 0.000000
# 2 -0.007672 0.025155 -0.007386 0.000000 0.000000 0.000000
# 3 -0.006053 -0.007386 0.009058 0.000000 0.000000 0.000000
# 4 0.000000 0.000000 0.000000 0.023809 0.000000 0.000000
# 5 0.000000 0.000000 0.000000 0.000000 -0.012435 0.000000
# 6 0.000000 0.000000 0.000000 0.000000 0.000000 0.045485
#
#
# Mechanical properties :
#
#
# Convention : Reuss Voigt Hill
#
# Bulk Modulus (GPa) = 36.47776 70.93375 53.70575
# Shear Modulus (GPa) = 28.11238 7.69483 17.90361
#
# Velocity S-wave (km/s) = 3.85873 2.01881 3.07940
# Velocity P-wave (km/s) = 6.25888 6.55777 6.41007
#
# Compressibility (1/GPa) = 0.02741396
#
# Stress axis : x y z
#
# Youngs Moduli (GPa) = 28.22871 39.75395 110.40370
#
# Poissons Ratio (x) = 0.30501 0.66829
# Poissons Ratio (y) = 0.21658 0.81545
# Poissons Ratio (z) = 0.17087 0.29363
#
# Static dielectric constant tensor:
#      x y z
#    x 1.641930 0.000000 0.000000 
#    y 0.000000 1.656550 0.000000 
#    z 0.000000 0.000000 1.695560 
# 
# From -- ./inp_files/22206.got.cif
#   From: 2010.05.17/outbox.cif.g08.bks.cpg/sg46_12_cif.got.tgz:22206.got - 2010.06.03 19:58:25.
