data_PCOD9379905
_publ_section_title
;
Structure prediction by ZEFSAII (Michael W. Deem and Ramdas Pophale) SiO2 
 PCOD9379905
Probable space group: I M A 2
;
_chemical_formula_sum "Si O2"
_cell_formula_units_Z 48
_cell_length_a 17.402196
_cell_length_b 11.699011
_cell_length_c 12.350308
_cell_angle_alpha 90.000000
_cell_angle_beta 90.000000
_cell_angle_gamma 90.000000
_cell_volume 2514.380463
_symmetry_space_group_name_H-M "I M A 2"
_symmetry_group_IT_number 46
_symmetry_cell_setting 'orthorhombic'
loop_
_space_group_symop_operation_xyz
x,y,z
-x,-y,z
1/2-x,y,z
1/2+x,-y,z
1/2+x,1/2+y,1/2+z
1/2-x,1/2-y,1/2+z
-x,1/2+y,1/2+z
x,1/2-y,1/2+z
loop_
_atom_site_type_symbol
_atom_site_label
_atom_site_fract_x
_atom_site_fract_y
_atom_site_fract_z
Si Si1 0.408913 0.529283 0.668930
Si Si2 0.583024 0.435705 0.424835
Si Si3 0.661397 0.988998 0.512682
Si Si4 0.068107 0.669737 0.870875
Si Si5 0.888932 0.663082 0.828771
Si Si6 0.658743 0.910108 0.749465
O O1 0.500000 0.500000 0.663194
O O2 0.384906 0.549755 0.546443
O O3 0.399951 0.634682 0.752010
O O4 0.371250 0.421369 0.728774
O O5 0.500000 0.500000 0.418918
O O6 0.575974 0.301913 0.399589
O O7 0.636324 0.494986 0.336514
O O8 0.750000 0.027616 0.522399
O O9 0.658413 0.880516 0.431659
O O10 0.632316 0.949881 0.630329
O O11 0.610298 0.087476 0.456821
O O12 0.977355 0.644405 0.863930
O O13 0.877188 0.791462 0.790278
O O14 0.750000 0.893850 0.743648
#
# Coordination Sequence:
#
# PCOD9379905 Si02
#       6
#     8   8   8   8   8   8
#     4   8  19  36  57  89 120 152 198 250 304 361
#     4  11  22  38  61  92 121 157 205 257 309 367
#     4  10  23  41  62  91 127 168 207 254 318 379
#     4  10  21  39  65  90 121 161 213 255 305 374
#     4  10  20  41  63  91 121 162 207 258 312 369
#     4  11  25  40  60  92 127 162 206 259 317 377
#
# _framework density 19.090188999999999
#
# number of rings (size 3 to 8) (size 9 to 14) (size 15 to 20)
#    0.000    2.000    1.667    2.000    4.667    3.333 
#    0.000    3.333    0.000    0.000    0.000    0.000 
#    0.000    0.000    0.000    0.000    0.000    0.000 
#
# Total GULP energy -133928.595219 kJ/mol
# GULP energy per Si atom -5580.358134 kJ/mol
# Density = 1.904674 g / cm^3
# Si number density = 19.090189 Si / 1000 Ang^3
#
#
#
# Elastic Constant Matrix: (Units=GPa)
#
#
# Indices 1 2 3 4 5 6 
#
# 1 46.8139 23.5434 24.8520 0.0000 0.0000 0.0000
# 2 23.5434 143.0328 78.1326 0.0000 0.0000 0.0000
# 3 24.8520 78.1326 174.8425 0.0000 0.0000 0.0000
# 4 0.0000 0.0000 0.0000 19.2309 0.0000 0.0000
# 5 0.0000 0.0000 0.0000 0.0000 20.4092 0.0000
# 6 0.0000 0.0000 0.0000 0.0000 0.0000 21.8699
#
#
#
# Elastic Compliance Matrix: (Units=1/GPa)
#
#
# Indices 1 2 3 4 5 6 
#
# 1 0.023895 -0.002749 -0.002168 0.000000 0.000000 0.000000
# 2 -0.002749 0.009565 -0.003884 0.000000 0.000000 0.000000
# 3 -0.002168 -0.003884 0.007763 0.000000 0.000000 0.000000
# 4 0.000000 0.000000 0.000000 0.052000 0.000000 0.000000
# 5 0.000000 0.000000 0.000000 0.000000 0.048997 0.000000
# 6 0.000000 0.000000 0.000000 0.000000 0.000000 0.045725
#
#
# Mechanical properties :
#
#
# Convention : Reuss Voigt Hill
#
# Bulk Modulus (GPa) = 42.33360 68.63836 55.48598
# Shear Modulus (GPa) = 23.42793 28.17941 25.80367
#
# Velocity S-wave (km/s) = 3.50698 3.84620 3.68050
# Velocity P-wave (km/s) = 6.21468 7.46707 6.86948
#
# Compressibility (1/GPa) = 0.02362190
#
# Stress axis : x y z
#
# Youngs Moduli (GPa) = 41.85059 104.54312 128.81331
#
# Poissons Ratio (x) = 0.28737 0.27926
# Poissons Ratio (y) = 0.11504 0.50029
# Poissons Ratio (z) = 0.09073 0.40603
#
# Static dielectric constant tensor:
#      x y z
#    x 1.676530 0.000000 0.000000 
#    y 0.000000 1.647630 0.000000 
#    z 0.000000 0.000000 1.665550 
# 
# From -- ./inp_files/11779.got.cif
#   From: 2010.05.17/outbox.cif.g08.bks.cpg/sg46_6_cif.got.tgz:11779.got - 2010.06.03 19:58:25.
