data_PCOD9379771
_publ_section_title
;
Structure prediction by ZEFSAII (Michael W. Deem and Ramdas Pophale) SiO2 
 PCOD9379771
Probable space group: I M A 2
;
_chemical_formula_sum "Si O2"
_cell_formula_units_Z 56
_cell_length_a 8.830430
_cell_length_b 20.590702
_cell_length_c 15.288062
_cell_angle_alpha 90.000000
_cell_angle_beta 90.000000
_cell_angle_gamma 90.000000
_cell_volume 2779.748092
_symmetry_space_group_name_H-M "I M A 2"
_symmetry_group_IT_number 46
_symmetry_cell_setting 'orthorhombic'
loop_
_space_group_symop_operation_xyz
x,y,z
-x,-y,z
1/2-x,y,z
1/2+x,-y,z
1/2+x,1/2+y,1/2+z
1/2-x,1/2-y,1/2+z
-x,1/2+y,1/2+z
x,1/2-y,1/2+z
loop_
_atom_site_type_symbol
_atom_site_label
_atom_site_fract_x
_atom_site_fract_y
_atom_site_fract_z
Si Si1 0.569667 0.814096 0.304530
Si Si2 0.582626 0.438658 0.863753
Si Si3 0.066088 0.426714 0.473634
Si Si4 0.569058 0.175112 0.110958
Si Si5 0.917788 0.438259 0.068012
Si Si6 0.067566 0.327425 0.323960
Si Si7 0.429771 0.189445 0.619772
O O1 0.750000 0.811281 0.290826
O O2 0.521163 0.876019 0.358370
O O3 0.490132 0.824887 0.210908
O O4 0.522539 0.746219 0.349782
O O5 0.500000 0.500000 0.820824
O O6 0.750000 0.427148 0.825902
O O7 0.602189 0.453255 0.965856
O O8 0.250000 0.429866 0.475945
O O9 0.015398 0.385429 0.386872
O O10 0.000000 0.500000 0.474892
O O11 0.007029 0.381973 0.553980
O O12 0.750000 0.169827 0.106699
O O13 0.514087 0.247266 0.082969
O O14 0.750000 0.426448 0.105408
O O15 0.000000 0.500000 0.110567
O O16 0.021520 0.375418 0.072030
O O17 0.250000 0.330823 0.327924
O O18 0.027280 0.326652 0.221140
O O19 0.250000 0.201228 0.616363
#
# Coordination Sequence:
#
# PCOD9379771 Si02
#       7
#     8   8   8   8   8   8   8
#     4  10  20  38  62  88 115 153 197 243 296 354
#     4  10  21  36  54  82 117 153 192 238 287 345
#     4  11  23  42  63  89 121 159 201 250 303 363
#     4  11  23  40  60  88 119 153 197 248 297 353
#     4  10  21  36  54  83 119 156 196 239 289 348
#     4   8  19  38  60  86 115 149 195 241 292 352
#     4  10  20  38  62  88 118 157 199 245 296 354
#
# _framework density 20.145710999999999
#
# number of rings (size 3 to 8) (size 9 to 14) (size 15 to 20)
#    0.000    2.000    0.000    4.286    2.000    2.857 
#    0.000   12.143    0.000    0.000    0.000    0.000 
#    0.000    0.000    0.000    0.000    0.000    0.000 
#
# Total GULP energy -156074.648368 kJ/mol
# GULP energy per Si atom -5574.094585 kJ/mol
# Density = 2.009986 g / cm^3
# Si number density = 20.145711 Si / 1000 Ang^3
#
#
#
# Elastic Constant Matrix: (Units=GPa)
#
#
# Indices 1 2 3 4 5 6 
#
# 1 110.7336 59.6550 27.3955 0.0000 0.0000 0.0000
# 2 59.6550 172.9023 44.2596 0.0000 0.0000 0.0000
# 3 27.3955 44.2596 50.9799 0.0000 0.0000 0.0000
# 4 0.0000 0.0000 0.0000 37.2302 0.0000 0.0000
# 5 0.0000 0.0000 0.0000 0.0000 19.8691 0.0000
# 6 0.0000 0.0000 0.0000 0.0000 0.0000 30.1038
#
#
#
# Elastic Compliance Matrix: (Units=1/GPa)
#
#
# Indices 1 2 3 4 5 6 
#
# 1 0.011568 -0.003086 -0.003538 0.000000 0.000000 0.000000
# 2 -0.003086 0.008259 -0.005512 0.000000 0.000000 0.000000
# 3 -0.003538 -0.005512 0.026302 0.000000 0.000000 0.000000
# 4 0.000000 0.000000 0.000000 0.026860 0.000000 0.000000
# 5 0.000000 0.000000 0.000000 0.000000 0.050329 0.000000
# 6 0.000000 0.000000 0.000000 0.000000 0.000000 0.033218
#
#
# Mechanical properties :
#
#
# Convention : Reuss Voigt Hill
#
# Bulk Modulus (GPa) = 45.74869 66.35956 56.05412
# Shear Modulus (GPa) = 26.58233 30.99434 28.78833
#
# Velocity S-wave (km/s) = 3.63644 3.92664 3.78432
# Velocity P-wave (km/s) = 6.35529 7.31910 6.85416
#
# Compressibility (1/GPa) = 0.02185855
#
# Stress axis : x y z
#
# Youngs Moduli (GPa) = 86.44351 121.07543 38.01959
#
# Poissons Ratio (x) = 0.37361 0.13450
# Poissons Ratio (y) = 0.26674 0.20958
# Poissons Ratio (z) = 0.30580 0.66741
#
# Static dielectric constant tensor:
#      x y z
#    x 1.747130 0.000000 0.000000 
#    y 0.000000 1.726750 0.000000 
#    z 0.000000 0.000000 1.767140 
# 
# From -- ./inp_files/14196.got.cif
#   From: 2010.05.17/outbox.cif.g08.bks.cpg/sg46_8_cif.got.tgz:14196.got - 2010.06.03 19:58:25.
