data_PCOD9379698
_publ_section_title
;
Structure prediction by ZEFSAII (Michael W. Deem and Ramdas Pophale) SiO2 
 PCOD9379698
Probable space group: I M A 2
;
_chemical_formula_sum "Si O2"
_cell_formula_units_Z 60
_cell_length_a 24.087753
_cell_length_b 5.277948
_cell_length_c 23.953217
_cell_angle_alpha 90.000000
_cell_angle_beta 90.000000
_cell_angle_gamma 90.000000
_cell_volume 3045.266081
_symmetry_space_group_name_H-M "I M A 2"
_symmetry_group_IT_number 46
_symmetry_cell_setting 'orthorhombic'
loop_
_space_group_symop_operation_xyz
x,y,z
-x,-y,z
1/2-x,y,z
1/2+x,-y,z
1/2+x,1/2+y,1/2+z
1/2-x,1/2-y,1/2+z
-x,1/2+y,1/2+z
x,1/2-y,1/2+z
loop_
_atom_site_type_symbol
_atom_site_label
_atom_site_fract_x
_atom_site_fract_y
_atom_site_fract_z
Si Si1 0.500000 0.500000 0.286461
Si Si2 0.933206 0.986180 0.416442
Si Si3 0.580558 0.625867 0.721771
Si Si4 0.433799 0.509109 0.485168
Si Si5 0.603223 0.256426 0.812976
Si Si6 0.187334 0.862293 0.627442
Si Si7 0.878937 0.634475 0.602068
Si Si8 0.687087 0.952724 0.752666
O O1 0.468700 0.292253 0.248022
O O2 0.449574 0.581758 0.326806
O O3 0.919572 0.217977 0.458726
O O4 0.899545 0.029801 0.359398
O O5 0.918995 0.718831 0.443525
O O6 0.000000 0.000000 0.405823
O O7 0.583302 0.357978 0.752484
O O8 0.579636 0.617872 0.655231
O O9 0.640127 0.744437 0.739932
O O10 0.500000 0.500000 0.492505
O O11 0.406666 0.442319 0.544261
O O12 0.660954 0.118600 0.802505
O O13 0.250000 0.904618 0.607391
O O14 0.166860 0.581682 0.613674
O O15 0.187993 0.891202 0.694692
O O16 0.147666 0.084669 0.603961
O O17 0.750000 0.863501 0.763008
#
# Coordination Sequence:
#
# PCOD9379698 Si02
#       8
#     4   8   8   8   8   8   8   8
#     4  10  22  34  52  86 124 154 192 236 316 360
#     4  10  22  38  60  83 116 155 209 242 288 350
#     4  10  21  35  55  89 119 159 190 244 313 362
#     4  10  23  40  58  86 116 163 198 245 292 352
#     4  11  21  36  60  86 116 157 197 252 299 358
#     4  10  20  37  62  90 119 154 197 248 296 357
#     4  11  21  39  60  88 123 152 203 242 302 366
#     4   9  20  36  56  87 122 154 198 242 299 367
#
# _framework density 19.70271
#
# number of rings (size 3 to 8) (size 9 to 14) (size 15 to 20)
#    0.000    1.867    1.333    2.400    6.533    2.133 
#    3.600    0.000    0.000    4.800    0.000    0.000 
#    0.000    0.000    0.000    0.000    0.000    0.000 
#
# Total GULP energy -167418.184850 kJ/mol
# GULP energy per Si atom -5580.606162 kJ/mol
# Density = 1.965787 g / cm^3
# Si number density = 19.702710 Si / 1000 Ang^3
#
#
#
# Elastic Constant Matrix: (Units=GPa)
#
#
# Indices 1 2 3 4 5 6 
#
# 1 89.6560 14.5443 21.6850 0.0000 0.0000 0.0000
# 2 14.5443 60.2978 9.7499 0.0000 0.0000 0.0000
# 3 21.6850 9.7499 78.4268 0.0000 0.0000 0.0000
# 4 0.0000 0.0000 0.0000 31.4614 0.0000 0.0000
# 5 0.0000 0.0000 0.0000 0.0000 15.2692 0.0000
# 6 0.0000 0.0000 0.0000 0.0000 0.0000 20.1634
#
#
#
# Elastic Compliance Matrix: (Units=1/GPa)
#
#
# Indices 1 2 3 4 5 6 
#
# 1 0.012303 -0.002467 -0.003095 0.000000 0.000000 0.000000
# 2 -0.002467 0.017419 -0.001483 0.000000 0.000000 0.000000
# 3 -0.003095 -0.001483 0.013791 0.000000 0.000000 0.000000
# 4 0.000000 0.000000 0.000000 0.031785 0.000000 0.000000
# 5 0.000000 0.000000 0.000000 0.000000 0.065491 0.000000
# 6 0.000000 0.000000 0.000000 0.000000 0.000000 0.049595
#
#
# Mechanical properties :
#
#
# Convention : Reuss Voigt Hill
#
# Bulk Modulus (GPa) = 33.98823 35.59323 34.79073
# Shear Modulus (GPa) = 23.33378 25.53892 24.43635
#
# Velocity S-wave (km/s) = 3.44509 3.60420 3.52554
# Velocity P-wave (km/s) = 5.75438 5.95187 5.85395
#
# Compressibility (1/GPa) = 0.02942195
#
# Stress axis : x y z
#
# Youngs Moduli (GPa) = 81.28416 57.40767 72.51156
#
# Poissons Ratio (x) = 0.14163 0.22442
# Poissons Ratio (y) = 0.20053 0.10756
# Poissons Ratio (z) = 0.25157 0.08516
#
# Static dielectric constant tensor:
#      x y z
#    x 1.718490 0.000000 0.000000 
#    y 0.000000 1.768710 0.000000 
#    z 0.000000 0.000000 1.706170 
# 
# From -- ./inp_files/22579.got.cif
#   From: 2010.05.17/outbox.cif.g08.bks.cpg/sg46_12_cif.got.tgz:22579.got - 2010.06.03 19:58:25.
