data_PCOD9379054
_publ_section_title
;
Structure prediction by ZEFSAII (Michael W. Deem and Ramdas Pophale) SiO2 
 PCOD9379054
Probable space group: I M A 2
;
_chemical_formula_sum "Si O2"
_cell_formula_units_Z 48
_cell_length_a 14.840527
_cell_length_b 10.109903
_cell_length_c 14.536608
_cell_angle_alpha 90.000000
_cell_angle_beta 90.000000
_cell_angle_gamma 90.000000
_cell_volume 2181.018711
_symmetry_space_group_name_H-M "I M A 2"
_symmetry_group_IT_number 46
_symmetry_cell_setting 'orthorhombic'
loop_
_space_group_symop_operation_xyz
x,y,z
-x,-y,z
1/2-x,y,z
1/2+x,-y,z
1/2+x,1/2+y,1/2+z
1/2-x,1/2-y,1/2+z
-x,1/2+y,1/2+z
x,1/2-y,1/2+z
loop_
_atom_site_type_symbol
_atom_site_label
_atom_site_fract_x
_atom_site_fract_y
_atom_site_fract_z
Si Si1 0.360568 0.524818 0.251260
Si Si2 0.139879 0.899550 0.950679
Si Si3 0.907672 0.578765 0.951022
Si Si4 0.358733 0.282712 0.762312
Si Si5 0.351041 0.653608 0.064591
Si Si6 0.359475 0.336909 0.558953
O O1 0.250000 0.522791 0.247430
O O2 0.388662 0.599568 0.344344
O O3 0.388063 0.371139 0.259704
O O4 0.393245 0.595146 0.157947
O O5 0.250000 0.893880 0.948953
O O6 0.106356 0.777773 0.012039
O O7 0.114589 0.037244 0.998320
O O8 0.890535 0.636064 0.850193
O O9 0.000000 0.500000 0.953760
O O10 0.843635 0.465865 0.992276
O O11 0.899393 0.703152 0.018258
O O12 0.250000 0.279776 0.767921
O O13 0.384010 0.349274 0.665701
O O14 0.250000 0.697690 0.091300
O O15 0.250000 0.324493 0.553183
#
# Coordination Sequence:
#
# PCOD9379054 Si02
#       6
#     8   8   8   8   8   8
#     4   9  16  30  58  90 118 154 198 252 316 370
#     4   9  18  32  57  91 121 148 194 261 323 373
#     4  12  24  38  57  90 129 164 206 257 326 393
#     4  10  19  35  65  92 115 160 217 264 304 370
#     4  10  20  36  59  89 122 157 206 270 323 375
#     4  10  19  37  66  92 115 160 217 263 306 375
#
# _framework density 22.008065999999999
#
# number of rings (size 3 to 8) (size 9 to 14) (size 15 to 20)
#    0.000    2.000    3.333    1.500    0.000    1.333 
#    0.000    9.167    0.000    0.000    0.000    0.000 
#    0.000    0.000    0.000    0.000    0.000    0.000 
#
# Total GULP energy -134099.915861 kJ/mol
# GULP energy per Si atom -5587.496494 kJ/mol
# Density = 2.195797 g / cm^3
# Si number density = 22.008066 Si / 1000 Ang^3
#
#
#
# Elastic Constant Matrix: (Units=GPa)
#
#
# Indices 1 2 3 4 5 6 
#
# 1 37.2547 8.5040 16.4689 0.0000 0.0000 0.0000
# 2 8.5040 139.1867 66.4362 0.0000 0.0000 0.0000
# 3 16.4689 66.4362 172.3005 0.0000 0.0000 0.0000
# 4 0.0000 0.0000 0.0000 39.0828 0.0000 0.0000
# 5 0.0000 0.0000 0.0000 0.0000 1.8771 0.0000
# 6 0.0000 0.0000 0.0000 0.0000 0.0000 19.7299
#
#
#
# Elastic Compliance Matrix: (Units=1/GPa)
#
#
# Indices 1 2 3 4 5 6 
#
# 1 0.028059 -0.000532 -0.002477 0.000000 0.000000 0.000000
# 2 -0.000532 0.008815 -0.003348 0.000000 0.000000 0.000000
# 3 -0.002477 -0.003348 0.007332 0.000000 0.000000 0.000000
# 4 0.000000 0.000000 0.000000 0.025587 0.000000 0.000000
# 5 0.000000 0.000000 0.000000 0.000000 0.532737 0.000000
# 6 0.000000 0.000000 0.000000 0.000000 0.000000 0.050684
#
#
# Mechanical properties :
#
#
# Convention : Reuss Voigt Hill
#
# Bulk Modulus (GPa) = 31.75474 59.06224 45.40849
# Shear Modulus (GPa) = 7.39181 29.29348 18.34264
#
# Velocity S-wave (km/s) = 1.83466 3.65229 2.89009
# Velocity P-wave (km/s) = 4.35293 6.68435 5.64041
#
# Compressibility (1/GPa) = 0.03149137
#
# Stress axis : x y z
#
# Youngs Moduli (GPa) = 35.63968 113.44001 136.39708
#
# Poissons Ratio (x) = 0.06036 0.33782
# Poissons Ratio (y) = 0.01896 0.45668
# Poissons Ratio (z) = 0.08827 0.37981
#
# Static dielectric constant tensor:
#      x y z
#    x 1.901420 0.000000 0.000000 
#    y 0.000000 1.755170 0.000000 
#    z 0.000000 0.000000 1.790480 
# 
# From -- ./inp_files/16521.got.cif
#   From: 2010.05.17/outbox.cif.g08.bks.cpg/sg46_9_cif.got.tgz:16521.got - 2010.06.03 19:58:25.
