data_PCOD9379178
_publ_section_title
;
Structure prediction by ZEFSAII (Michael W. Deem and Ramdas Pophale) SiO2 
 PCOD9379178
Probable space group: I M A 2
;
_chemical_formula_sum "Si O2"
_cell_formula_units_Z 20
_cell_length_a 5.602085
_cell_length_b 13.527020
_cell_length_c 11.074701
_cell_angle_alpha 90.000000
_cell_angle_beta 90.000000
_cell_angle_gamma 90.000000
_cell_volume 839.235480
_symmetry_space_group_name_H-M "I M A 2"
_symmetry_group_IT_number 46
_symmetry_cell_setting 'orthorhombic'
loop_
_space_group_symop_operation_xyz
x,y,z
-x,-y,z
1/2-x,y,z
1/2+x,-y,z
1/2+x,1/2+y,1/2+z
1/2-x,1/2-y,1/2+z
-x,1/2+y,1/2+z
x,1/2-y,1/2+z
loop_
_atom_site_type_symbol
_atom_site_label
_atom_site_fract_x
_atom_site_fract_y
_atom_site_fract_z
Si Si1 0.750000 0.450148 0.396821
Si Si2 0.000991 0.117540 0.571183
Si Si3 0.750000 0.049086 0.187668
Si Si4 0.750000 0.282648 0.864512
O O1 0.500000 0.500000 0.352140
O O2 0.750000 0.459358 0.542883
O O3 0.750000 0.333695 0.374978
O O4 0.750000 0.137276 0.635426
O O5 0.969953 0.174505 0.444948
O O6 0.250000 0.145952 0.631099
O O7 0.000000 0.000000 0.548666
O O8 0.750000 0.160353 0.238296
O O9 0.500000 0.000000 0.229960
#
# Coordination Sequence:
#
# PCOD9379178 Si02
#       4
#     4   8   4   4
#     4  10  24  41  53  81 120 153 187 232 279 336
#     4   8  15  24  41  76 105 122 166 224 269 311
#     4  10  22  37  59  89 116 139 187 244 285 330
#     4  10  20  30  62  74 106 152 190 216 282 338
#
# _framework density 23.831213000000002
#
# number of rings (size 3 to 8) (size 9 to 14) (size 15 to 20)
#    1.200    1.600    0.000    1.200    5.600    0.000 
#    0.000    0.000    0.000    4.800    0.000    0.000 
#    0.000    0.000    0.000    0.000    0.000    0.000 
#
# Total GULP energy -55729.432660 kJ/mol
# GULP energy per Si atom -5572.943266 kJ/mol
# Density = 2.377697 g / cm^3
# Si number density = 23.831213 Si / 1000 Ang^3
#
#
#
# Elastic Constant Matrix: (Units=GPa)
#
#
# Indices 1 2 3 4 5 6 
#
# 1 268.5037 69.0908 23.7109 0.0000 0.0000 0.0000
# 2 69.0908 175.8368 18.8010 0.0000 0.0000 0.0000
# 3 23.7109 18.8010 39.0602 0.0000 0.0000 0.0000
# 4 0.0000 0.0000 0.0000 26.6001 0.0000 0.0000
# 5 0.0000 0.0000 0.0000 0.0000 -1.4443 0.0000
# 6 0.0000 0.0000 0.0000 0.0000 0.0000 15.3818
#
#
#
# Elastic Compliance Matrix: (Units=1/GPa)
#
#
# Indices 1 2 3 4 5 6 
#
# 1 0.004271 -0.001477 -0.001882 0.000000 0.000000 0.000000
# 2 -0.001477 0.006506 -0.002235 0.000000 0.000000 0.000000
# 3 -0.001882 -0.002235 0.027820 0.000000 0.000000 0.000000
# 4 0.000000 0.000000 0.000000 0.037594 0.000000 0.000000
# 5 0.000000 0.000000 0.000000 0.000000 -0.692394 0.000000
# 6 0.000000 0.000000 0.000000 0.000000 0.000000 0.065012
#
#
# Mechanical properties :
#
#
# Convention : Reuss Voigt Hill
#
# Bulk Modulus (GPa) = 36.48400 78.51177 57.49788
# Shear Modulus (GPa) = -9.41854 32.89405 11.73775
#
# Velocity S-wave (km/s) = -1.99017 3.71926 2.22173
# Velocity P-wave (km/s) = 3.17199 7.17358 5.54625
#
# Compressibility (1/GPa) = 0.02740928
#
# Stress axis : x y z
#
# Youngs Moduli (GPa) = 234.16431 153.69549 35.94595
#
# Poissons Ratio (x) = 0.22698 0.06763
# Poissons Ratio (y) = 0.34582 0.08035
# Poissons Ratio (z) = 0.44058 0.34355
#
# Static dielectric constant tensor:
#      x y z
#    x 2.021630 0.000000 0.000000 
#    y 0.000000 1.828820 0.000000 
#    z 0.000000 0.000000 1.900960 
# 
# From -- ./inp_files/8601.got.cif
#   From: 2010.05.17/outbox.cif.g08.bks.cpg/sg46_5_cif.got.tgz:8601.got - 2010.06.03 19:58:25.
