data_PCOD9379417
_publ_section_title
;
Structure prediction by ZEFSAII (Michael W. Deem and Ramdas Pophale) SiO2 
 PCOD9379417
Probable space group: I M A 2
;
_chemical_formula_sum "Si O2"
_cell_formula_units_Z 64
_cell_length_a 20.924666
_cell_length_b 18.138779
_cell_length_c 9.601459
_cell_angle_alpha 90.000000
_cell_angle_beta 90.000000
_cell_angle_gamma 90.000000
_cell_volume 3644.213526
_symmetry_space_group_name_H-M "I M A 2"
_symmetry_group_IT_number 46
_symmetry_cell_setting 'orthorhombic'
loop_
_space_group_symop_operation_xyz
x,y,z
-x,-y,z
1/2-x,y,z
1/2+x,-y,z
1/2+x,1/2+y,1/2+z
1/2-x,1/2-y,1/2+z
-x,1/2+y,1/2+z
x,1/2-y,1/2+z
loop_
_atom_site_type_symbol
_atom_site_label
_atom_site_fract_x
_atom_site_fract_y
_atom_site_fract_z
Si Si1 0.377614 0.842982 0.427640
Si Si2 0.526748 0.673520 0.658072
Si Si3 0.931383 0.541300 0.170673
Si Si4 0.675751 0.187847 0.900689
Si Si5 0.524050 0.824795 0.489079
Si Si6 0.115937 0.605454 0.636971
Si Si7 0.929670 0.537323 0.495588
Si Si8 0.322745 0.924304 0.665311
O O1 0.365468 0.760362 0.373971
O O2 0.448575 0.845506 0.491096
O O3 0.369798 0.898657 0.299815
O O4 0.327191 0.863478 0.544750
O O5 0.533485 0.749000 0.572844
O O6 0.454097 0.644092 0.634466
O O7 0.569881 0.609414 0.591416
O O8 0.538365 0.682061 0.823684
O O9 0.919079 0.558275 0.334388
O O10 0.873543 0.487272 0.130078
O O11 0.000000 0.500000 0.163341
O O12 0.937802 0.611230 0.069609
O O13 0.750000 0.202936 0.874469
O O14 0.655667 0.120071 0.802451
O O15 0.663366 0.159694 0.056396
O O16 0.114129 0.526876 0.560366
O O17 0.000000 0.500000 0.500690
O O18 0.250000 0.950347 0.683139
#
# Coordination Sequence:
#
# PCOD9379417 Si02
#       8
#     8   8   8   8   8   8   8   8
#     4  11  22  33  56  81 120 154 198 237 282 341
#     4  10  21  34  54  85 117 141 184 235 296 347
#     4  11  21  36  60  82 111 154 198 241 292 341
#     4  11  22  37  55  80 116 163 203 230 277 344
#     4  11  22  33  57  87 116 150 186 239 292 344
#     4  10  20  35  55  77 113 155 194 236 281 339
#     4   9  19  34  54  77 111 149 187 238 289 333
#     4  11  24  39  56  83 118 158 201 240 289 347
#
# _framework density 17.562086999999998
#
# number of rings (size 3 to 8) (size 9 to 14) (size 15 to 20)
#    0.000    1.500    3.750    1.875    3.500    2.500 
#    0.000    0.000    0.000    0.000    0.000    4.375 
#    0.000    0.000    0.000    0.000    0.000    0.000 
#
# Total GULP energy -178520.403422 kJ/mol
# GULP energy per Si atom -5578.762607 kJ/mol
# Density = 1.752212 g / cm^3
# Si number density = 17.562087 Si / 1000 Ang^3
#
#
#
# Elastic Constant Matrix: (Units=GPa)
#
#
# Indices 1 2 3 4 5 6 
#
# 1 38.8365 26.9212 16.2061 0.0000 0.0000 0.0000
# 2 26.9212 96.7258 70.2350 0.0000 0.0000 0.0000
# 3 16.2061 70.2350 107.9799 0.0000 0.0000 0.0000
# 4 0.0000 0.0000 0.0000 35.2332 0.0000 0.0000
# 5 0.0000 0.0000 0.0000 0.0000 10.9856 0.0000
# 6 0.0000 0.0000 0.0000 0.0000 0.0000 21.8069
#
#
#
# Elastic Compliance Matrix: (Units=1/GPa)
#
#
# Indices 1 2 3 4 5 6 
#
# 1 0.032105 -0.010303 0.001883 0.000000 0.000000 0.000000
# 2 -0.010303 0.022898 -0.013348 0.000000 0.000000 0.000000
# 3 0.001883 -0.013348 0.017660 0.000000 0.000000 0.000000
# 4 0.000000 0.000000 0.000000 0.028382 0.000000 0.000000
# 5 0.000000 0.000000 0.000000 0.000000 0.091028 0.000000
# 6 0.000000 0.000000 0.000000 0.000000 0.000000 0.045857
#
#
# Mechanical properties :
#
#
# Convention : Reuss Voigt Hill
#
# Bulk Modulus (GPa) = 34.33077 52.25185 43.29131
# Shear Modulus (GPa) = 17.17176 22.28382 19.72779
#
# Velocity S-wave (km/s) = 3.13033 3.56597 3.35523
# Velocity P-wave (km/s) = 5.71454 6.83901 6.30191
#
# Compressibility (1/GPa) = 0.02912839
#
# Stress axis : x y z
#
# Youngs Moduli (GPa) = 31.14765 43.67161 56.62411
#
# Poissons Ratio (x) = 0.44995 -0.10663
# Poissons Ratio (y) = 0.32091 0.75580
# Poissons Ratio (z) = -0.05865 0.58292
#
# Static dielectric constant tensor:
#      x y z
#    x 1.597710 0.000000 0.000000 
#    y 0.000000 1.593890 0.000000 
#    z 0.000000 0.000000 1.632890 
# 
# From -- ./inp_files/7578.got.cif
#   From: 2010.05.17/outbox.cif.g08.bks.cpg/sg46_4_cif.got.tgz:7578.got - 2010.06.03 19:58:25.
