data_PCOD9379779
_publ_section_title
;
Structure prediction by ZEFSAII (Michael W. Deem and Ramdas Pophale) SiO2 
 PCOD9379779
Probable space group: I M A 2
;
_chemical_formula_sum "Si O2"
_cell_formula_units_Z 40
_cell_length_a 25.311220
_cell_length_b 8.889119
_cell_length_c 8.096525
_cell_angle_alpha 90.000000
_cell_angle_beta 90.000000
_cell_angle_gamma 90.000000
_cell_volume 1821.673162
_symmetry_space_group_name_H-M "I M A 2"
_symmetry_group_IT_number 46
_symmetry_cell_setting 'orthorhombic'
loop_
_space_group_symop_operation_xyz
x,y,z
-x,-y,z
1/2-x,y,z
1/2+x,-y,z
1/2+x,1/2+y,1/2+z
1/2-x,1/2-y,1/2+z
-x,1/2+y,1/2+z
x,1/2-y,1/2+z
loop_
_atom_site_type_symbol
_atom_site_label
_atom_site_fract_x
_atom_site_fract_y
_atom_site_fract_z
Si Si1 0.644780 0.841943 0.876010
Si Si2 0.310515 0.048618 0.201847
Si Si3 0.528284 0.357505 0.503528
Si Si4 0.087560 0.893763 0.328798
Si Si5 0.567193 0.639808 0.089165
O O1 0.679719 0.716739 0.779000
O O2 0.601352 0.907203 0.749044
O O3 0.677041 0.944945 0.004308
O O4 0.607777 0.749251 0.998082
O O5 0.250000 0.006295 0.228723
O O6 0.351742 0.938361 0.295336
O O7 0.500000 0.500000 0.417850
O O8 0.569543 0.270131 0.388213
O O9 0.559409 0.427243 0.656618
O O10 0.486244 0.239132 0.585318
O O11 0.063246 0.000160 0.468097
#
# Coordination Sequence:
#
# PCOD9379779 Si02
#       5
#     8   8   8   8   8
#     4   9  18  33  63  99 129 164 210 260 319 383
#     4  10  20  39  63  94 133 173 218 272 319 371
#     4  12  23  39  61  90 129 172 210 259 323 392
#     4  11  26  41  62  95 127 168 219 262 320 389
#     4  10  20  38  62  94 132 163 203 263 318 381
#
# _framework density 21.957834999999999
#
# number of rings (size 3 to 8) (size 9 to 14) (size 15 to 20)
#    0.000    1.600    0.000    7.200    0.000    4.800 
#    0.000    2.000    0.000    0.000    0.000    0.000 
#    0.000    0.000    0.000    0.000    0.000    0.000 
#
# Total GULP energy -111600.179946 kJ/mol
# GULP energy per Si atom -5580.008997 kJ/mol
# Density = 2.190786 g / cm^3
# Si number density = 21.957835 Si / 1000 Ang^3
#
#
#
# Elastic Constant Matrix: (Units=GPa)
#
#
# Indices 1 2 3 4 5 6 
#
# 1 175.2539 62.7198 41.7292 0.0000 0.0000 0.0000
# 2 62.7198 106.7840 37.1982 0.0000 0.0000 0.0000
# 3 41.7292 37.1982 85.0148 0.0000 0.0000 0.0000
# 4 0.0000 0.0000 0.0000 39.7879 0.0000 0.0000
# 5 0.0000 0.0000 0.0000 0.0000 31.1037 0.0000
# 6 0.0000 0.0000 0.0000 0.0000 0.0000 27.3370
#
#
#
# Elastic Compliance Matrix: (Units=1/GPa)
#
#
# Indices 1 2 3 4 5 6 
#
# 1 0.007523 -0.003695 -0.002076 0.000000 0.000000 0.000000
# 2 -0.003695 0.012864 -0.003815 0.000000 0.000000 0.000000
# 3 -0.002076 -0.003815 0.014451 0.000000 0.000000 0.000000
# 4 0.000000 0.000000 0.000000 0.025133 0.000000 0.000000
# 5 0.000000 0.000000 0.000000 0.000000 0.032151 0.000000
# 6 0.000000 0.000000 0.000000 0.000000 0.000000 0.036580
#
#
# Mechanical properties :
#
#
# Convention : Reuss Voigt Hill
#
# Bulk Modulus (GPa) = 63.83320 72.26079 68.04699
# Shear Modulus (GPa) = 32.65940 34.67276 33.66608
#
# Velocity S-wave (km/s) = 3.86083 3.97805 3.91988
# Velocity P-wave (km/s) = 7.00061 7.35392 7.17944
#
# Compressibility (1/GPa) = 0.01566583
#
# Stress axis : x y z
#
# Youngs Moduli (GPa) = 132.93011 77.73550 69.20136
#
# Poissons Ratio (x) = 0.28727 0.14363
# Poissons Ratio (y) = 0.49124 0.26399
# Poissons Ratio (z) = 0.27590 0.29654
#
# Static dielectric constant tensor:
#      x y z
#    x 1.815860 0.000000 0.000000 
#    y 0.000000 1.964320 0.000000 
#    z 0.000000 0.000000 1.877330 
# 
# From -- ./inp_files/7701.got.cif
#   From: 2010.05.17/outbox.cif.g08.bks.cpg/sg46_4_cif.got.tgz:7701.got - 2010.06.03 19:58:25.
