data_PCOD9379623
_publ_section_title
;
Structure prediction by ZEFSAII (Michael W. Deem and Ramdas Pophale) SiO2 
 PCOD9379623
Probable space group: I M A 2
;
_chemical_formula_sum "Si O2"
_cell_formula_units_Z 24
_cell_length_a 8.544309
_cell_length_b 8.182432
_cell_length_c 11.703903
_cell_angle_alpha 90.000000
_cell_angle_beta 90.000000
_cell_angle_gamma 90.000000
_cell_volume 818.257632
_symmetry_space_group_name_H-M "I M A 2"
_symmetry_group_IT_number 46
_symmetry_cell_setting 'orthorhombic'
loop_
_space_group_symop_operation_xyz
x,y,z
-x,-y,z
1/2-x,y,z
1/2+x,-y,z
1/2+x,1/2+y,1/2+z
1/2-x,1/2-y,1/2+z
-x,1/2+y,1/2+z
x,1/2-y,1/2+z
loop_
_atom_site_type_symbol
_atom_site_label
_atom_site_fract_x
_atom_site_fract_y
_atom_site_fract_z
Si Si1 0.250000 0.068785 0.496140
Si Si2 0.750000 0.709661 0.711626
Si Si3 0.574972 0.267071 0.921723
Si Si4 0.000000 0.000000 0.111157
Si Si5 0.250000 0.563084 0.251570
O O1 0.250000 0.225481 0.583066
O O2 0.417857 0.129329 0.437195
O O3 0.250000 0.868195 0.424397
O O4 0.606406 0.591230 0.702129
O O5 0.750000 0.053218 0.615679
O O6 0.750000 0.872407 0.787806
O O7 0.604998 0.160506 0.807536
O O8 0.575372 0.133970 0.024861
#
# Coordination Sequence:
#
# PCOD9379623 Si02
#       5
#     4   4   8   4   4
#     4   7  16  37  61  91 119 176 218 259 321 397
#     4  10  20  36  68  95 127 184 219 263 333 398
#     4   8  18  37  59  87 126 171 211 274 324 377
#     4  12  20  38  64  90 136 176 218 274 328 390
#     4   7  16  39  61  90 122 172 219 256 338 385
#
# _framework density 29.330614000000001
#
# number of rings (size 3 to 8) (size 9 to 14) (size 15 to 20)
#    3.000    0.000    1.667    0.000    0.000    1.333 
#    6.000    0.000   29.333    0.000    0.000    0.000 
#    0.000    0.000    0.000    0.000    0.000    0.000 
#
# Total GULP energy -66857.296455 kJ/mol
# GULP energy per Si atom -5571.441371 kJ/mol
# Density = 2.926386 g / cm^3
# Si number density = 29.330614 Si / 1000 Ang^3
#
#
#
# Elastic Constant Matrix: (Units=GPa)
#
#
# Indices 1 2 3 4 5 6 
#
# 1 263.7386 188.5733 84.7262 0.0000 0.0000 0.0000
# 2 188.5733 261.0657 83.3644 0.0000 0.0000 0.0000
# 3 84.7262 83.3644 220.5116 0.0000 0.0000 0.0000
# 4 0.0000 0.0000 0.0000 72.6169 0.0000 0.0000
# 5 0.0000 0.0000 0.0000 0.0000 17.6813 0.0000
# 6 0.0000 0.0000 0.0000 0.0000 0.0000 90.9700
#
#
#
# Elastic Compliance Matrix: (Units=1/GPa)
#
#
# Indices 1 2 3 4 5 6 
#
# 1 0.008037 -0.005481 -0.001016 0.000000 0.000000 0.000000
# 2 -0.005481 0.008094 -0.000954 0.000000 0.000000 0.000000
# 3 -0.001016 -0.000954 0.005286 0.000000 0.000000 0.000000
# 4 0.000000 0.000000 0.000000 0.013771 0.000000 0.000000
# 5 0.000000 0.000000 0.000000 0.000000 0.056557 0.000000
# 6 0.000000 0.000000 0.000000 0.000000 0.000000 0.010993
#
#
# Mechanical properties :
#
#
# Convention : Reuss Voigt Hill
#
# Bulk Modulus (GPa) = 153.48786 162.07150 157.77968
# Shear Modulus (GPa) = 41.73277 62.16380 51.94829
#
# Velocity S-wave (km/s) = 3.77615 4.60871 4.21304
# Velocity P-wave (km/s) = 8.45318 9.14860 8.80776
#
# Compressibility (1/GPa) = 0.00651517
#
# Stress axis : x y z
#
# Youngs Moduli (GPa) = 124.42970 123.54976 189.18068
#
# Poissons Ratio (x) = 0.67713 0.19220
# Poissons Ratio (y) = 0.68195 0.18050
# Poissons Ratio (z) = 0.12641 0.11788
#
# Static dielectric constant tensor:
#      x y z
#    x 2.519500 0.000000 0.000000 
#    y 0.000000 2.417990 0.000000 
#    z 0.000000 0.000000 2.153530 
# 
# From -- ./inp_files/8839.got.cif
#   From: 2010.05.17/outbox.cif.g08.bks.cpg/sg46_5_cif.got.tgz:8839.got - 2010.06.03 19:58:25.
