data_PCOD9379052
_publ_section_title
;
Structure prediction by ZEFSAII (Michael W. Deem and Ramdas Pophale) SiO2 
 PCOD9379052
Probable space group: I M A 2
;
_chemical_formula_sum "Si O2"
_cell_formula_units_Z 56
_cell_length_a 14.761138
_cell_length_b 12.440362
_cell_length_c 14.723683
_cell_angle_alpha 90.000000
_cell_angle_beta 90.000000
_cell_angle_gamma 90.000000
_cell_volume 2703.767335
_symmetry_space_group_name_H-M "I M A 2"
_symmetry_group_IT_number 46
_symmetry_cell_setting 'orthorhombic'
loop_
_space_group_symop_operation_xyz
x,y,z
-x,-y,z
1/2-x,y,z
1/2+x,-y,z
1/2+x,1/2+y,1/2+z
1/2-x,1/2-y,1/2+z
-x,1/2+y,1/2+z
x,1/2-y,1/2+z
loop_
_atom_site_type_symbol
_atom_site_label
_atom_site_fract_x
_atom_site_fract_y
_atom_site_fract_z
Si Si1 0.143791 0.989772 0.774300
Si Si2 0.099361 0.963476 0.380471
Si Si3 0.547199 0.852276 0.915034
Si Si4 0.140943 0.451168 0.072299
Si Si5 0.148670 0.177699 0.297161
Si Si6 0.146487 0.782083 0.878224
Si Si7 0.358718 0.202471 0.088537
O O1 0.250000 0.022604 0.783919
O O2 0.141960 0.862544 0.792647
O O3 0.083405 0.055210 0.846619
O O4 0.112939 0.013397 0.672526
O O5 0.127899 0.842722 0.358069
O O6 0.104996 0.979123 0.489219
O O7 0.156197 0.057235 0.333719
O O8 0.000000 0.000000 0.350894
O O9 0.585631 0.746225 0.863681
O O10 0.440768 0.828577 0.931961
O O11 0.594228 0.868345 0.011987
O O12 0.250000 0.458684 0.068263
O O13 0.117369 0.325694 0.063821
O O14 0.250000 0.226256 0.298720
O O15 0.116157 0.181571 0.193091
O O16 0.250000 0.791997 0.915521
O O17 0.250000 0.191073 0.081905
#
# Coordination Sequence:
#
# PCOD9379052 Si02
#       7
#     8   8   8   8   8   8   8
#     4  10  22  41  67  98 130 170 211 266 329 388
#     4  12  23  41  63  93 129 176 219 265 318 387
#     4  12  21  40  67  95 129 167 213 264 321 378
#     4  10  19  35  62  96 128 161 213 266 319 381
#     4  11  21  37  65  96 130 163 204 268 327 377
#     4  11  25  44  62  88 132 177 218 259 320 385
#     4  10  20  35  63 105 132 156 208 274 331 382
#
# _framework density 20.711841
#
# number of rings (size 3 to 8) (size 9 to 14) (size 15 to 20)
#    0.000    1.143    4.286    3.000    0.000    1.143 
#    2.571    2.857    0.000    3.429    0.000    0.000 
#    0.000    0.000    0.000    0.000    0.000    0.000 
#
# Total GULP energy -156254.284244 kJ/mol
# GULP energy per Si atom -5580.510152 kJ/mol
# Density = 2.066470 g / cm^3
# Si number density = 20.711841 Si / 1000 Ang^3
#
#
#
# Elastic Constant Matrix: (Units=GPa)
#
#
# Indices 1 2 3 4 5 6 
#
# 1 110.8041 23.4602 37.7439 0.0000 0.0000 0.0000
# 2 23.4602 133.5188 36.6395 0.0000 0.0000 0.0000
# 3 37.7439 36.6395 109.3997 0.0000 0.0000 0.0000
# 4 0.0000 0.0000 0.0000 13.0139 0.0000 0.0000
# 5 0.0000 0.0000 0.0000 0.0000 25.4291 0.0000
# 6 0.0000 0.0000 0.0000 0.0000 0.0000 13.2322
#
#
#
# Elastic Compliance Matrix: (Units=1/GPa)
#
#
# Indices 1 2 3 4 5 6 
#
# 1 0.010329 -0.000922 -0.003255 0.000000 0.000000 0.000000
# 2 -0.000922 0.008330 -0.002472 0.000000 0.000000 0.000000
# 3 -0.003255 -0.002472 0.011092 0.000000 0.000000 0.000000
# 4 0.000000 0.000000 0.000000 0.076841 0.000000 0.000000
# 5 0.000000 0.000000 0.000000 0.000000 0.039325 0.000000
# 6 0.000000 0.000000 0.000000 0.000000 0.000000 0.075573
#
#
# Mechanical properties :
#
#
# Convention : Reuss Voigt Hill
#
# Bulk Modulus (GPa) = 60.77704 61.04555 60.91130
# Shear Modulus (GPa) = 20.80990 27.39364 24.10177
#
# Velocity S-wave (km/s) = 3.17319 3.64071 3.41496
# Velocity P-wave (km/s) = 6.54472 6.87101 6.70985
#
# Compressibility (1/GPa) = 0.01645358
#
# Stress axis : x y z
#
# Youngs Moduli (GPa) = 96.81666 120.05057 90.15843
#
# Poissons Ratio (x) = 0.11065 0.29345
# Poissons Ratio (y) = 0.08923 0.22285
# Poissons Ratio (z) = 0.31512 0.29674
#
# Static dielectric constant tensor:
#      x y z
#    x 1.825470 0.000000 0.000000 
#    y 0.000000 1.755240 0.000000 
#    z 0.000000 0.000000 1.698480 
# 
# From -- ./inp_files/15972.got.cif
#   From: 2010.05.17/outbox.cif.g08.bks.cpg/sg46_8_cif.got.tgz:15972.got - 2010.06.03 19:58:25.
