data_PCOD9379159
_publ_section_title
;
Structure prediction by ZEFSAII (Michael W. Deem and Ramdas Pophale) SiO2 
 PCOD9379159
Probable space group: I M A 2
;
_chemical_formula_sum "Si O2"
_cell_formula_units_Z 48
_cell_length_a 16.024899
_cell_length_b 7.911729
_cell_length_c 20.193612
_cell_angle_alpha 90.000000
_cell_angle_beta 90.000000
_cell_angle_gamma 90.000000
_cell_volume 2560.240194
_symmetry_space_group_name_H-M "I M A 2"
_symmetry_group_IT_number 46
_symmetry_cell_setting 'orthorhombic'
loop_
_space_group_symop_operation_xyz
x,y,z
-x,-y,z
1/2-x,y,z
1/2+x,-y,z
1/2+x,1/2+y,1/2+z
1/2-x,1/2-y,1/2+z
-x,1/2+y,1/2+z
x,1/2-y,1/2+z
loop_
_atom_site_type_symbol
_atom_site_label
_atom_site_fract_x
_atom_site_fract_y
_atom_site_fract_z
Si Si1 0.582482 0.611616 0.310550
Si Si2 0.750000 0.523890 0.382031
Si Si3 0.250000 0.104578 0.451313
Si Si4 0.250000 0.898244 0.021531
Si Si5 0.082875 0.386777 0.544707
Si Si6 0.750000 0.464865 0.091141
Si Si7 0.576060 0.623075 0.922722
Si Si8 0.585517 0.896739 0.654787
O O1 0.500000 0.500000 0.321504
O O2 0.665955 0.522317 0.338857
O O3 0.571409 0.781453 0.353068
O O4 0.591397 0.642961 0.232556
O O5 0.750000 0.707494 0.419527
O O6 0.750000 0.390720 0.441526
O O7 0.163701 0.024963 0.427898
O O8 0.250000 0.099874 0.530644
O O9 0.250000 0.717192 0.056507
O O10 0.333965 0.999721 0.040815
O O11 0.079108 0.264190 0.480548
O O12 0.084360 0.269061 0.609327
O O13 0.000000 0.500000 0.544397
O O14 0.833656 0.495917 0.132716
O O15 0.500000 0.500000 0.933971
O O16 0.500000 0.000000 0.643084
#
# Coordination Sequence:
#
# PCOD9379159 Si02
#       8
#     8   4   4   4   8   4   8   8
#     4  10  22  40  63  86 124 166 206 250 313 375
#     4  10  19  39  59  88 117 165 199 251 311 368
#     4  10  20  38  59  85 127 155 199 254 312 353
#     4  12  24  37  63  93 127 153 213 263 307 365
#     4  12  23  39  62  92 126 164 205 262 313 367
#     4  12  23  38  63  94 119 167 205 258 308 370
#     4  11  22  38  64  91 125 162 212 256 315 374
#     4  11  23  42  62  90 126 168 206 254 311 373
#
# _framework density 18.748241
#
# number of rings (size 3 to 8) (size 9 to 14) (size 15 to 20)
#    0.000    1.000    5.000    3.000    2.333    0.667 
#    0.000    0.000    0.000    4.000    0.000    0.000 
#    0.000    0.000    0.000    0.000    0.000    0.000 
#
# Total GULP energy -134104.346506 kJ/mol
# GULP energy per Si atom -5587.681104 kJ/mol
# Density = 1.870557 g / cm^3
# Si number density = 18.748241 Si / 1000 Ang^3
#
#
#
# Elastic Constant Matrix: (Units=GPa)
#
#
# Indices 1 2 3 4 5 6 
#
# 1 207.0536 68.4207 73.0279 0.0000 0.0000 0.0000
# 2 68.4207 75.8359 46.9568 0.0000 0.0000 0.0000
# 3 73.0279 46.9568 127.1808 0.0000 0.0000 0.0000
# 4 0.0000 0.0000 0.0000 22.5697 0.0000 0.0000
# 5 0.0000 0.0000 0.0000 0.0000 32.3805 0.0000
# 6 0.0000 0.0000 0.0000 0.0000 0.0000 35.2153
#
#
#
# Elastic Compliance Matrix: (Units=1/GPa)
#
#
# Indices 1 2 3 4 5 6 
#
# 1 0.007367 -0.005221 -0.002303 0.000000 0.000000 0.000000
# 2 -0.005221 0.020794 -0.004680 0.000000 0.000000 0.000000
# 3 -0.002303 -0.004680 0.010913 0.000000 0.000000 0.000000
# 4 0.000000 0.000000 0.000000 0.044307 0.000000 0.000000
# 5 0.000000 0.000000 0.000000 0.000000 0.030883 0.000000
# 6 0.000000 0.000000 0.000000 0.000000 0.000000 0.028397
#
#
# Mechanical properties :
#
#
# Convention : Reuss Voigt Hill
#
# Bulk Modulus (GPa) = 68.17630 87.43124 77.80377
# Shear Modulus (GPa) = 29.07709 32.81075 30.94392
#
# Velocity S-wave (km/s) = 3.94245 4.18792 4.06704
# Velocity P-wave (km/s) = 7.56088 8.37380 7.97770
#
# Compressibility (1/GPa) = 0.01466785
#
# Stress axis : x y z
#
# Youngs Moduli (GPa) = 135.73963 48.08978 91.63605
#
# Poissons Ratio (x) = 0.25108 0.21100
# Poissons Ratio (y) = 0.70870 0.42882
# Poissons Ratio (z) = 0.31255 0.22504
#
# Static dielectric constant tensor:
#      x y z
#    x 1.676550 0.000000 0.000000 
#    y 0.000000 1.642500 0.000000 
#    z 0.000000 0.000000 1.629780 
# 
# From -- ./inp_files/19467.got.cif
#   From: 2010.05.17/outbox.cif.g08.bks.cpg/sg46_10_cif.got.tgz:19467.got - 2010.06.03 19:58:25.
