data_PCOD9379262
_publ_section_title
;
Structure prediction by ZEFSAII (Michael W. Deem and Ramdas Pophale) SiO2 
 PCOD9379262
Probable space group: I M A 2
;
_chemical_formula_sum "Si O2"
_cell_formula_units_Z 56
_cell_length_a 8.726336
_cell_length_b 21.355595
_cell_length_c 14.365833
_cell_angle_alpha 90.000000
_cell_angle_beta 90.000000
_cell_angle_gamma 90.000000
_cell_volume 2677.160574
_symmetry_space_group_name_H-M "I M A 2"
_symmetry_group_IT_number 46
_symmetry_cell_setting 'orthorhombic'
loop_
_space_group_symop_operation_xyz
x,y,z
-x,-y,z
1/2-x,y,z
1/2+x,-y,z
1/2+x,1/2+y,1/2+z
1/2-x,1/2-y,1/2+z
-x,1/2+y,1/2+z
x,1/2-y,1/2+z
loop_
_atom_site_type_symbol
_atom_site_label
_atom_site_fract_x
_atom_site_fract_y
_atom_site_fract_z
Si Si1 0.063886 0.747447 0.777140
Si Si2 0.930809 0.566582 0.576538
Si Si3 0.065477 0.933981 0.479144
Si Si4 0.577275 0.168239 0.614889
Si Si5 0.563916 0.151503 0.927703
Si Si6 0.433097 0.601054 0.770294
Si Si7 0.079999 0.561571 0.270781
O O1 0.250000 0.755186 0.773111
O O2 0.005608 0.777519 0.679302
O O3 0.017413 0.785880 0.870460
O O4 0.030474 0.674670 0.780463
O O5 0.750000 0.565234 0.563374
O O6 0.000000 0.500000 0.542443
O O7 0.999965 0.628234 0.525659
O O8 0.974958 0.572780 0.684791
O O9 0.250000 0.934124 0.492855
O O10 0.006664 0.870045 0.528889
O O11 0.033385 0.929217 0.369791
O O12 0.000000 0.000000 0.514588
O O13 0.750000 0.189223 0.586148
O O14 0.589609 0.112796 0.690732
O O15 0.750000 0.152411 0.932679
O O16 0.508489 0.096081 0.858749
O O17 0.250000 0.595043 0.751877
O O18 0.250000 0.543400 0.299798
O O19 0.000000 0.500000 0.237899
#
# Coordination Sequence:
#
# PCOD9379262 Si02
#       7
#     8   8   8   8   8   8   8
#     4   8  16  33  58  86 114 143 178 220 270 328
#     4  12  25  40  58  81 110 148 191 239 291 338
#     4  10  20  33  52  78 106 137 176 218 264 316
#     4   8  15  29  49  76 107 136 170 215 260 312
#     4   9  18  34  56  83 112 142 178 223 274 334
#     4  10  21  37  58  83 109 144 188 231 274 327
#     4   9  16  26  44  71 104 138 171 210 260 315
#
# _framework density 20.917684999999999
#
# number of rings (size 3 to 8) (size 9 to 14) (size 15 to 20)
#    0.000    2.571    0.000    4.286    0.000    4.571 
#    0.000    5.000    0.000    4.286    0.000    0.000 
#    0.000    0.000    0.000    0.000    0.000    0.000 
#
# Total GULP energy -156025.395511 kJ/mol
# GULP energy per Si atom -5572.335554 kJ/mol
# Density = 2.087007 g / cm^3
# Si number density = 20.917685 Si / 1000 Ang^3
#
#
#
# Elastic Constant Matrix: (Units=GPa)
#
#
# Indices 1 2 3 4 5 6 
#
# 1 18.4375 19.4847 12.9809 0.0000 0.0000 0.0000
# 2 19.4847 95.9228 8.5862 0.0000 0.0000 0.0000
# 3 12.9809 8.5862 72.8820 0.0000 0.0000 0.0000
# 4 0.0000 0.0000 0.0000 28.9797 0.0000 0.0000
# 5 0.0000 0.0000 0.0000 0.0000 13.4202 0.0000
# 6 0.0000 0.0000 0.0000 0.0000 0.0000 15.8515
#
#
#
# Elastic Compliance Matrix: (Units=1/GPa)
#
#
# Indices 1 2 3 4 5 6 
#
# 1 0.078563 -0.014863 -0.012242 0.000000 0.000000 0.000000
# 2 -0.014863 0.013348 0.001075 0.000000 0.000000 0.000000
# 3 -0.012242 0.001075 0.015775 0.000000 0.000000 0.000000
# 4 0.000000 0.000000 0.000000 0.034507 0.000000 0.000000
# 5 0.000000 0.000000 0.000000 0.000000 0.074514 0.000000
# 6 0.000000 0.000000 0.000000 0.000000 0.000000 0.063085
#
#
# Mechanical properties :
#
#
# Convention : Reuss Voigt Hill
#
# Bulk Modulus (GPa) = 17.97725 29.92732 23.95228
# Shear Modulus (GPa) = 14.26968 21.39633 17.83300
#
# Velocity S-wave (km/s) = 2.61470 3.20172 2.92298
# Velocity P-wave (km/s) = 4.21052 5.29210 4.78198
#
# Compressibility (1/GPa) = 0.05562586
#
# Stress axis : x y z
#
# Youngs Moduli (GPa) = 12.72866 74.91811 63.39329
#
# Poissons Ratio (x) = 1.11348 0.77604
# Poissons Ratio (y) = 0.18918 -0.06813
# Poissons Ratio (z) = 0.15582 -0.08051
#
# Static dielectric constant tensor:
#      x y z
#    x 1.739010 0.000000 0.000000 
#    y 0.000000 1.814210 0.000000 
#    z 0.000000 0.000000 1.811460 
# 
# From -- ./inp_files/14172.got.cif
#   From: 2010.05.17/outbox.cif.g08.bks.cpg/sg46_8_cif.got.tgz:14172.got - 2010.06.03 19:58:25.
