data_PCOD9379084
_publ_section_title
;
Structure prediction by ZEFSAII (Michael W. Deem and Ramdas Pophale) SiO2 
 PCOD9379084
Probable space group: I M A 2
;
_chemical_formula_sum "Si O2"
_cell_formula_units_Z 60
_cell_length_a 13.589487
_cell_length_b 8.438971
_cell_length_c 27.000749
_cell_angle_alpha 90.000000
_cell_angle_beta 90.000000
_cell_angle_gamma 90.000000
_cell_volume 3096.480637
_symmetry_space_group_name_H-M "I M A 2"
_symmetry_group_IT_number 46
_symmetry_cell_setting 'orthorhombic'
loop_
_space_group_symop_operation_xyz
x,y,z
-x,-y,z
1/2-x,y,z
1/2+x,-y,z
1/2+x,1/2+y,1/2+z
1/2-x,1/2-y,1/2+z
-x,1/2+y,1/2+z
x,1/2-y,1/2+z
loop_
_atom_site_type_symbol
_atom_site_label
_atom_site_fract_x
_atom_site_fract_y
_atom_site_fract_z
Si Si1 0.967808 0.316834 0.436740
Si Si2 0.135973 0.632194 0.536351
Si Si3 0.000000 0.500000 0.256390
Si Si4 0.973037 0.677566 0.096643
Si Si5 0.359175 0.416897 0.790937
Si Si6 0.942088 0.264729 0.826539
Si Si7 0.363714 0.236089 0.005654
Si Si8 0.865956 0.740457 0.194253
O O1 0.890979 0.301985 0.481749
O O2 0.928050 0.258664 0.384657
O O3 0.000000 0.500000 0.430016
O O4 0.066685 0.237344 0.458535
O O5 0.250000 0.655531 0.548869
O O6 0.119079 0.442776 0.527955
O O7 0.063889 0.718683 0.575202
O O8 0.935569 0.390482 0.292939
O O9 0.927028 0.604294 0.222908
O O10 0.899225 0.654894 0.050361
O O11 0.917507 0.763573 0.141569
O O12 0.000000 0.500000 0.113149
O O13 0.250000 0.359853 0.803721
O O14 0.445113 0.322837 0.818670
O O15 0.373849 0.598361 0.805039
O O16 0.372890 0.387630 0.732253
O O17 0.250000 0.251445 0.993669
O O18 0.750000 0.702781 0.187985
#
# Coordination Sequence:
#
# PCOD9379084 Si02
#       8
#     8   8   4   8   8   8   8   8
#     4   9  17  33  59  87 114 152 193 238 286 339
#     4   9  20  39  59  85 117 152 197 241 280 344
#     4  10  20  38  58  88 112 148 188 244 294 332
#     4  11  21  37  60  87 118 152 188 236 301 347
#     4   9  21  39  56  79 115 154 191 234 283 342
#     4  10  19  36  61  83 116 149 192 238 288 339
#     4   9  19  38  60  84 115 153 196 238 283 347
#     4  10  21  40  59  81 115 153 193 237 289 348
#
# _framework density 19.376837999999999
#
# number of rings (size 3 to 8) (size 9 to 14) (size 15 to 20)
#    0.000    2.400    1.333    1.600    0.000    2.667 
#   19.200    0.000    0.000    0.000    0.000    0.000 
#    0.000    0.000    0.000    0.000    0.000    0.000 
#
# Total GULP energy -167272.550412 kJ/mol
# GULP energy per Si atom -5575.751680 kJ/mol
# Density = 1.933274 g / cm^3
# Si number density = 19.376838 Si / 1000 Ang^3
#
#
#
# Elastic Constant Matrix: (Units=GPa)
#
#
# Indices 1 2 3 4 5 6 
#
# 1 85.8373 7.3261 33.5592 0.0000 0.0000 0.0000
# 2 7.3261 29.3648 27.1495 0.0000 0.0000 0.0000
# 3 33.5592 27.1495 130.6194 0.0000 0.0000 0.0000
# 4 0.0000 0.0000 0.0000 17.1741 0.0000 0.0000
# 5 0.0000 0.0000 0.0000 0.0000 13.4587 0.0000
# 6 0.0000 0.0000 0.0000 0.0000 0.0000 11.1757
#
#
#
# Elastic Compliance Matrix: (Units=1/GPa)
#
#
# Indices 1 2 3 4 5 6 
#
# 1 0.012952 -0.000192 -0.003288 0.000000 0.000000 0.000000
# 2 -0.000192 0.042158 -0.008713 0.000000 0.000000 0.000000
# 3 -0.003288 -0.008713 0.010312 0.000000 0.000000 0.000000
# 4 0.000000 0.000000 0.000000 0.058227 0.000000 0.000000
# 5 0.000000 0.000000 0.000000 0.000000 0.074302 0.000000
# 6 0.000000 0.000000 0.000000 0.000000 0.000000 0.089480
#
#
# Mechanical properties :
#
#
# Convention : Reuss Voigt Hill
#
# Bulk Modulus (GPa) = 24.36882 42.43235 33.40058
# Shear Modulus (GPa) = 15.36124 20.21413 17.78768
#
# Velocity S-wave (km/s) = 2.81866 3.23338 3.03312
# Velocity P-wave (km/s) = 4.81629 5.99047 5.43518
#
# Compressibility (1/GPa) = 0.04103605
#
# Stress axis : x y z
#
# Youngs Moduli (GPa) = 77.20993 23.72015 96.97759
#
# Poissons Ratio (x) = 0.00454 0.31884
# Poissons Ratio (y) = 0.01479 0.84501
# Poissons Ratio (z) = 0.25385 0.20669
#
# Static dielectric constant tensor:
#      x y z
#    x 1.672880 0.000000 0.000000 
#    y 0.000000 1.862490 0.000000 
#    z 0.000000 0.000000 1.660230 
# 
# From -- ./inp_files/23617.got.cif
#   From: 2010.05.17/outbox.cif.g08.bks.cpg/sg46_12_cif.got.tgz:23617.got - 2010.06.03 19:58:25.
