data_PCOD9379538
_publ_section_title
;
Structure prediction by ZEFSAII (Michael W. Deem and Ramdas Pophale) SiO2 
 PCOD9379538
Probable space group: I M A 2
;
_chemical_formula_sum "Si O2"
_cell_formula_units_Z 52
_cell_length_a 21.951571
_cell_length_b 6.203983
_cell_length_c 19.867735
_cell_angle_alpha 90.000000
_cell_angle_beta 90.000000
_cell_angle_gamma 90.000000
_cell_volume 2705.730670
_symmetry_space_group_name_H-M "I M A 2"
_symmetry_group_IT_number 46
_symmetry_cell_setting 'orthorhombic'
loop_
_space_group_symop_operation_xyz
x,y,z
-x,-y,z
1/2-x,y,z
1/2+x,-y,z
1/2+x,1/2+y,1/2+z
1/2-x,1/2-y,1/2+z
-x,1/2+y,1/2+z
x,1/2-y,1/2+z
loop_
_atom_site_type_symbol
_atom_site_label
_atom_site_fract_x
_atom_site_fract_y
_atom_site_fract_z
Si Si1 0.500000 0.000000 0.864881
Si Si2 0.587648 0.341845 0.918557
Si Si3 0.436759 0.364502 0.796067
Si Si4 0.427109 0.456213 0.646756
Si Si5 0.182149 0.754283 0.603981
Si Si6 0.182917 0.993745 0.962002
Si Si7 0.380140 0.367129 0.035198
O O1 0.471161 0.808367 0.907765
O O2 0.549152 0.878436 0.818918
O O3 0.595447 0.506664 0.856607
O O4 0.642638 0.172116 0.920322
O O5 0.583019 0.462219 0.990000
O O6 0.500000 0.500000 0.790711
O O7 0.411146 0.366636 0.720990
O O8 0.500000 0.500000 0.644647
O O9 0.379090 0.654909 0.637748
O O10 0.415037 0.287309 0.586628
O O11 0.250000 0.740821 0.636745
O O12 0.186999 0.616644 0.535442
O O13 0.167577 0.996296 0.579630
O O14 0.250000 0.022615 0.933599
O O15 0.151665 0.219393 0.978718
#
# Coordination Sequence:
#
# PCOD9379538 Si02
#       7
#     4   8   8   8   8   8   8
#     4  10  20  38  58  78 114 158 200 236 296 372
#     4  10  20  37  55  85 111 153 193 246 289 360
#     4   9  20  38  60  76 113 160 201 236 300 364
#     4  10  22  40  58  90 120 155 198 258 307 367
#     4   9  19  37  58  82 116 158 198 241 301 370
#     4   9  18  35  56  80 113 150 192 236 289 352
#     4  10  20  36  57  88 121 154 195 248 305 363
#
# _framework density 19.218468999999999
#
# number of rings (size 3 to 8) (size 9 to 14) (size 15 to 20)
#    0.000    2.462    0.000    1.385    0.000    5.538 
#   41.538    0.769    0.000    0.923    0.000    0.000 
#    0.000    0.000    0.000    0.000    0.000    0.000 
#
# Total GULP energy -144761.218060 kJ/mol
# GULP energy per Si atom -5567.739156 kJ/mol
# Density = 1.917473 g / cm^3
# Si number density = 19.218469 Si / 1000 Ang^3
#
#
#
# Elastic Constant Matrix: (Units=GPa)
#
#
# Indices 1 2 3 4 5 6 
#
# 1 94.9721 37.4746 42.8638 0.0000 0.0000 0.0000
# 2 37.4746 99.8910 37.7236 0.0000 0.0000 0.0000
# 3 42.8638 37.7236 87.9536 0.0000 0.0000 0.0000
# 4 0.0000 0.0000 0.0000 16.1699 0.0000 0.0000
# 5 0.0000 0.0000 0.0000 0.0000 -16.0995 0.0000
# 6 0.0000 0.0000 0.0000 0.0000 0.0000 7.7784
#
#
#
# Elastic Compliance Matrix: (Units=1/GPa)
#
#
# Indices 1 2 3 4 5 6 
#
# 1 0.014341 -0.003270 -0.005586 0.000000 0.000000 0.000000
# 2 -0.003270 0.012692 -0.003850 0.000000 0.000000 0.000000
# 3 -0.005586 -0.003850 0.015743 0.000000 0.000000 0.000000
# 4 0.000000 0.000000 0.000000 0.061843 0.000000 0.000000
# 5 0.000000 0.000000 0.000000 0.000000 -0.062114 0.000000
# 6 0.000000 0.000000 0.000000 0.000000 0.000000 0.128561
#
#
# Mechanical properties :
#
#
# Convention : Reuss Voigt Hill
#
# Bulk Modulus (GPa) = 57.59347 57.66007 57.62677
# Shear Modulus (GPa) = 24.71974 12.55342 18.63658
#
# Velocity S-wave (km/s) = 3.59032 2.55854 3.11741
# Velocity P-wave (km/s) = 6.87168 6.22862 6.55804
#
# Compressibility (1/GPa) = 0.01736308
#
# Stress axis : x y z
#
# Youngs Moduli (GPa) = 69.72919 78.79199 63.51926
#
# Poissons Ratio (x) = 0.25769 0.35484
# Poissons Ratio (y) = 0.22805 0.24453
# Poissons Ratio (z) = 0.38954 0.30332
#
# Static dielectric constant tensor:
#      x y z
#    x 1.734500 0.000000 0.000000 
#    y 0.000000 1.707570 0.000000 
#    z 0.000000 0.000000 1.662110 
# 
# From -- ./inp_files/22416.got.cif
#   From: 2010.05.17/outbox.cif.g08.bks.cpg/sg46_12_cif.got.tgz:22416.got - 2010.06.03 19:58:25.
