data_PCOD9379153
_publ_section_title
;
Structure prediction by ZEFSAII (Michael W. Deem and Ramdas Pophale) SiO2 
 PCOD9379153
Probable space group: I M A 2
;
_chemical_formula_sum "Si O2"
_cell_formula_units_Z 64
_cell_length_a 15.364350
_cell_length_b 9.707574
_cell_length_c 18.946683
_cell_angle_alpha 90.000000
_cell_angle_beta 90.000000
_cell_angle_gamma 90.000000
_cell_volume 2825.908466
_symmetry_space_group_name_H-M "I M A 2"
_symmetry_group_IT_number 46
_symmetry_cell_setting 'orthorhombic'
loop_
_space_group_symop_operation_xyz
x,y,z
-x,-y,z
1/2-x,y,z
1/2+x,-y,z
1/2+x,1/2+y,1/2+z
1/2-x,1/2-y,1/2+z
-x,1/2+y,1/2+z
x,1/2-y,1/2+z
loop_
_atom_site_type_symbol
_atom_site_label
_atom_site_fract_x
_atom_site_fract_y
_atom_site_fract_z
Si Si1 0.395707 0.474504 0.312320
Si Si2 0.093831 0.728519 0.236709
Si Si3 0.147789 0.784790 0.584226
Si Si4 0.114862 0.228412 0.227379
Si Si5 0.104785 0.984206 0.313847
Si Si6 0.352767 0.506838 0.967063
Si Si7 0.144824 0.311277 0.456571
Si Si8 0.402004 0.465735 0.597506
O O1 0.500000 0.500000 0.306698
O O2 0.367656 0.630304 0.297289
O O3 0.356776 0.380965 0.248833
O O4 0.377916 0.395512 0.385226
O O5 0.115077 0.670108 0.160623
O O6 0.130133 0.879400 0.252254
O O7 0.989792 0.753041 0.234563
O O8 0.250000 0.803874 0.581073
O O9 0.109399 0.885723 0.524054
O O10 0.134465 0.619144 0.582549
O O11 0.134532 0.143750 0.155877
O O12 0.143128 0.130144 0.291628
O O13 0.134485 0.932980 0.389216
O O14 0.000000 0.000000 0.316758
O O15 0.250000 0.491999 0.980688
O O16 0.385966 0.348699 0.960586
O O17 0.250000 0.314625 0.463579
O O18 0.102579 0.387641 0.523230
O O19 0.500000 0.500000 0.621548
#
# Coordination Sequence:
#
# PCOD9379153 Si02
#       8
#     8   8   8   8   8   8   8   8
#     4  10  22  40  67  95 128 163 214 267 322 373
#     4  10  21  38  63  94 125 160 205 269 315 375
#     4  11  24  42  61  92 131 169 211 262 320 381
#     4  10  19  41  64  92 120 161 210 265 316 374
#     4  10  19  38  65  89 120 157 209 262 317 372
#     4  10  24  43  60  87 131 170 210 260 313 380
#     4  11  25  44  62  91 130 173 216 259 314 388
#     4  12  23  42  68  92 127 165 213 264 320 379
#
# _framework density 22.647583000000001
#
# number of rings (size 3 to 8) (size 9 to 14) (size 15 to 20)
#    0.000    1.500    3.750    1.125    3.500    2.000 
#    0.000    1.250    0.000    0.000    0.000    0.000 
#    0.000    0.000    0.000    0.000    0.000    0.000 
#
# Total GULP energy -178342.171642 kJ/mol
# GULP energy per Si atom -5573.192864 kJ/mol
# Density = 2.259604 g / cm^3
# Si number density = 22.647583 Si / 1000 Ang^3
#
#
#
# Elastic Constant Matrix: (Units=GPa)
#
#
# Indices 1 2 3 4 5 6 
#
# 1 38.8868 13.5687 -8.5429 0.0000 0.0000 0.0000
# 2 13.5687 114.9064 74.2883 0.0000 0.0000 0.0000
# 3 -8.5429 74.2883 147.9558 0.0000 0.0000 0.0000
# 4 0.0000 0.0000 0.0000 62.5391 0.0000 0.0000
# 5 0.0000 0.0000 0.0000 0.0000 31.8866 0.0000
# 6 0.0000 0.0000 0.0000 0.0000 0.0000 15.6801
#
#
#
# Elastic Compliance Matrix: (Units=1/GPa)
#
#
# Indices 1 2 3 4 5 6 
#
# 1 0.029168 -0.006712 0.005054 0.000000 0.000000 0.000000
# 2 -0.006712 0.014430 -0.007633 0.000000 0.000000 0.000000
# 3 0.005054 -0.007633 0.010883 0.000000 0.000000 0.000000
# 4 0.000000 0.000000 0.000000 0.015990 0.000000 0.000000
# 5 0.000000 0.000000 0.000000 0.000000 0.031361 0.000000
# 6 0.000000 0.000000 0.000000 0.000000 0.000000 0.063775
#
#
# Mechanical properties :
#
#
# Convention : Reuss Voigt Hill
#
# Bulk Modulus (GPa) = 27.85521 51.15303 39.50412
# Shear Modulus (GPa) = 25.49004 36.85015 31.17010
#
# Velocity S-wave (km/s) = 3.35850 4.03812 3.71389
# Velocity P-wave (km/s) = 5.23120 6.66164 5.98928
#
# Compressibility (1/GPa) = 0.03589992
#
# Stress axis : x y z
#
# Youngs Moduli (GPa) = 34.28422 69.30007 91.88631
#
# Poissons Ratio (x) = 0.46513 -0.46441
# Poissons Ratio (y) = 0.23011 0.70135
# Poissons Ratio (z) = -0.17328 0.52895
#
# Static dielectric constant tensor:
#      x y z
#    x 1.859110 0.000000 0.000000 
#    y 0.000000 1.871660 0.000000 
#    z 0.000000 0.000000 1.853220 
# 
# From -- ./inp_files/22223.got.cif
#   From: 2010.05.17/outbox.cif.g08.bks.cpg/sg46_12_cif.got.tgz:22223.got - 2010.06.03 19:58:25.
