data_PCOD9379072
_publ_section_title
;
Structure prediction by ZEFSAII (Michael W. Deem and Ramdas Pophale) SiO2 
 PCOD9379072
Probable space group: I M A 2
;
_chemical_formula_sum "Si O2"
_cell_formula_units_Z 64
_cell_length_a 7.741090
_cell_length_b 31.390686
_cell_length_c 12.367089
_cell_angle_alpha 90.000000
_cell_angle_beta 90.000000
_cell_angle_gamma 90.000000
_cell_volume 3005.179445
_symmetry_space_group_name_H-M "I M A 2"
_symmetry_group_IT_number 46
_symmetry_cell_setting 'orthorhombic'
loop_
_space_group_symop_operation_xyz
x,y,z
-x,-y,z
1/2-x,y,z
1/2+x,-y,z
1/2+x,1/2+y,1/2+z
1/2-x,1/2-y,1/2+z
-x,1/2+y,1/2+z
x,1/2-y,1/2+z
loop_
_atom_site_type_symbol
_atom_site_label
_atom_site_fract_x
_atom_site_fract_y
_atom_site_fract_z
Si Si1 0.959627 0.872125 0.552530
Si Si2 0.949384 0.565294 0.428378
Si Si3 0.546052 0.207230 0.701810
Si Si4 0.457841 0.453224 0.191384
Si Si5 0.049588 0.301178 0.639069
Si Si6 0.538784 0.627252 0.804682
Si Si7 0.457629 0.453340 0.664889
Si Si8 0.449656 0.661376 0.416138
O O1 0.750000 0.872659 0.552492
O O2 0.019776 0.913788 0.618842
O O3 0.019328 0.872564 0.428533
O O4 0.015910 0.829550 0.614008
O O5 0.750000 0.550896 0.428491
O O6 0.027318 0.550394 0.314469
O O7 0.028233 0.550537 0.542134
O O8 0.955046 0.616540 0.428184
O O9 0.750000 0.215101 0.712828
O O10 0.464817 0.251902 0.668734
O O11 0.480367 0.188795 0.816125
O O12 0.500000 0.500000 0.147712
O O13 0.250000 0.449103 0.196862
O O14 0.250000 0.312287 0.621540
O O15 0.985374 0.331320 0.736234
O O16 0.958358 0.312798 0.527252
O O17 0.750000 0.626940 0.807511
O O18 0.480890 0.585355 0.739447
O O19 0.500000 0.500000 0.708267
O O20 0.250000 0.448924 0.658724
O O21 0.250000 0.650891 0.391618
#
# Coordination Sequence:
#
# PCOD9379072 Si02
#       8
#     8   8   8   8   8   8   8   8
#     4  10  21  40  63  87 115 157 206 246 290 356
#     4  10  19  36  59  85 117 156 200 245 294 353
#     4  11  25  42  60  90 126 156 192 248 305 353
#     4  10  21  35  57  86 118 154 199 247 298 358
#     4  11  23  41  65  89 118 159 203 244 291 356
#     4   9  20  39  61  86 116 151 197 249 290 338
#     4  10  20  36  57  84 118 152 193 244 294 351
#     4  11  23  39  62  91 124 156 192 246 304 354
#
# _framework density 21.296565999999999
#
# number of rings (size 3 to 8) (size 9 to 14) (size 15 to 20)
#    0.000    1.750    2.500    1.500    1.750    3.500 
#    0.000    1.250    0.000    0.000    0.000    0.000 
#    0.000    0.000    0.000    0.000    0.000    0.000 
#
# Total GULP energy -178850.358935 kJ/mol
# GULP energy per Si atom -5589.073717 kJ/mol
# Density = 2.124809 g / cm^3
# Si number density = 21.296566 Si / 1000 Ang^3
#
#
#
# Elastic Constant Matrix: (Units=GPa)
#
#
# Indices 1 2 3 4 5 6 
#
# 1 35.2737 -13.2111 -0.1584 0.0005 0.0000 0.0000
# 2 -13.2111 163.8329 72.3139 0.0020 0.0000 0.0000
# 3 -0.1584 72.3139 154.0498 0.0034 -0.0002 -0.0001
# 4 0.0005 0.0020 0.0034 132.0714 0.0003 0.0007
# 5 0.0000 0.0000 -0.0002 0.0003 -3.2722 0.0000
# 6 0.0000 0.0000 -0.0001 0.0007 0.0000 22.2276
#
#
#
# Elastic Compliance Matrix: (Units=1/GPa)
#
#
# Indices 1 2 3 4 5 6 
#
# 1 0.029459 0.002980 -0.001368 0.000000 0.000000 0.000000
# 2 0.002980 0.008000 -0.003752 0.000000 0.000000 0.000000
# 3 -0.001368 -0.003752 0.008251 0.000000 0.000000 0.000000
# 4 0.000000 0.000000 0.000000 0.007572 0.000001 0.000000
# 5 0.000000 0.000000 0.000000 0.000001 -0.305603 -0.000001
# 6 0.000000 0.000000 0.000000 0.000000 -0.000001 0.044989
#
#
# Mechanical properties :
#
#
# Convention : Reuss Voigt Hill
#
# Bulk Modulus (GPa) = 24.13783 52.33835 38.23809
# Shear Modulus (GPa) = -26.42167 49.81949 11.69891
#
# Velocity S-wave (km/s) = -3.52611 4.84190 2.34633
# Velocity P-wave (km/s) = 2.28456 7.47583 5.03333
#
# Compressibility (1/GPa) = 0.04142874
#
# Stress axis : x y z
#
# Youngs Moduli (GPa) = 33.94492 124.99492 121.19054
#
# Poissons Ratio (x) = -0.37242 0.16583
# Poissons Ratio (y) = -0.10114 0.45476
# Poissons Ratio (z) = 0.04645 0.46904
#
# Static dielectric constant tensor:
#      x y z
#    x 1.775060 0.000000 0.000000 
#    y 0.000000 1.722760 0.000000 
#    z 0.000000 0.000000 1.760830 
# 
# From -- ./inp_files/9680.got.cif
#   From: 2010.05.17/outbox.cif.g08.bks.cpg/sg46_5_cif.got.tgz:9680.got - 2010.06.03 19:58:25.
