data_PCOD9379663
_publ_section_title
;
Structure prediction by ZEFSAII (Michael W. Deem and Ramdas Pophale) SiO2 
 PCOD9379663
Probable space group: I M A 2
;
_chemical_formula_sum "Si O2"
_cell_formula_units_Z 64
_cell_length_a 27.028192
_cell_length_b 11.835016
_cell_length_c 8.870131
_cell_angle_alpha 90.000000
_cell_angle_beta 90.000000
_cell_angle_gamma 90.000000
_cell_volume 2837.369386
_symmetry_space_group_name_H-M "I M A 2"
_symmetry_group_IT_number 46
_symmetry_cell_setting 'orthorhombic'
loop_
_space_group_symop_operation_xyz
x,y,z
-x,-y,z
1/2-x,y,z
1/2+x,-y,z
1/2+x,1/2+y,1/2+z
1/2-x,1/2-y,1/2+z
-x,1/2+y,1/2+z
x,1/2-y,1/2+z
loop_
_atom_site_type_symbol
_atom_site_label
_atom_site_fract_x
_atom_site_fract_y
_atom_site_fract_z
Si Si1 0.307819 0.411065 0.000000
Si Si2 0.604240 0.695774 0.533172
Si Si3 0.192514 0.191587 0.825116
Si Si4 0.561564 0.625212 0.840439
Si Si5 0.548011 0.376519 0.736231
Si Si6 0.308915 0.839146 0.518479
Si Si7 0.948346 0.014003 0.905183
Si Si8 0.870113 0.188931 0.802749
O O1 0.250000 0.430002 0.031136
O O2 0.309402 0.326353 0.858569
O O3 0.323859 0.351227 0.159102
O O4 0.326140 0.536262 0.963302
O O5 0.656041 0.655736 0.459902
O O6 0.595533 0.673509 0.706844
O O7 0.585634 0.820564 0.487682
O O8 0.566748 0.611257 0.450147
O O9 0.250000 0.158594 0.848735
O O10 0.561725 0.490133 0.828125
O O11 0.505038 0.661265 0.803140
O O12 0.542476 0.417106 0.562449
O O13 0.590176 0.282787 0.748028
O O14 0.250000 0.822660 0.495577
O O15 0.325183 0.837522 0.691265
O O16 0.342376 0.742464 0.444982
O O17 0.903503 0.078793 0.827718
O O18 0.000000 0.000000 0.818426
#
# Coordination Sequence:
#
# PCOD9379663 Si02
#       8
#     8   8   8   8   8   8   8   8
#     4   9  20  39  60  88 130 171 217 285 334 392
#     4  11  21  36  63  87 124 164 211 258 329 389
#     4  10  20  37  60  89 129 172 219 274 337 391
#     4  10  22  39  62  89 127 161 207 266 330 389
#     4  10  21  41  62  88 131 170 206 271 334 393
#     4  11  25  45  67 100 142 183 239 293 341 416
#     4  11  21  43  64  94 132 174 215 279 340 411
#     4  12  24  42  74  94 134 184 233 276 357 408
#
# _framework density 22.556104000000001
#
# number of rings (size 3 to 8) (size 9 to 14) (size 15 to 20)
#    0.000    1.500    3.750    2.625    1.750    0.000 
#    0.000    0.625    0.000    0.000    0.000    0.000 
#    0.000    0.000    0.000    0.000    0.000    0.000 
#
# Total GULP energy -178605.991571 kJ/mol
# GULP energy per Si atom -5581.437237 kJ/mol
# Density = 2.250477 g / cm^3
# Si number density = 22.556104 Si / 1000 Ang^3
#
#
#
# Elastic Constant Matrix: (Units=GPa)
#
#
# Indices 1 2 3 4 5 6 
#
# 1 133.6739 4.0752 31.2129 0.0000 0.0000 0.0000
# 2 4.0752 50.7675 -1.2611 0.0000 0.0000 0.0000
# 3 31.2129 -1.2611 41.0373 0.0000 0.0000 0.0000
# 4 0.0000 0.0000 0.0000 18.1036 0.0000 0.0000
# 5 0.0000 0.0000 0.0000 0.0000 31.6084 0.0000
# 6 0.0000 0.0000 0.0000 0.0000 0.0000 30.7564
#
#
#
# Elastic Compliance Matrix: (Units=1/GPa)
#
#
# Indices 1 2 3 4 5 6 
#
# 1 0.009138 -0.000907 -0.006978 0.000000 0.000000 0.000000
# 2 -0.000907 0.019803 0.001298 0.000000 0.000000 0.000000
# 3 -0.006978 0.001298 0.029716 0.000000 0.000000 0.000000
# 4 0.000000 0.000000 0.000000 0.055238 0.000000 0.000000
# 5 0.000000 0.000000 0.000000 0.000000 0.031637 0.000000
# 6 0.000000 0.000000 0.000000 0.000000 0.000000 0.032514
#
#
# Mechanical properties :
#
#
# Convention : Reuss Voigt Hill
#
# Bulk Modulus (GPa) = 21.98640 32.61476 27.30058
# Shear Modulus (GPa) = 24.22730 28.85713 26.54222
#
# Velocity S-wave (km/s) = 3.28089 3.58068 3.43406
# Velocity P-wave (km/s) = 4.91130 5.62012 5.27763
#
# Compressibility (1/GPa) = 0.04548266
#
# Stress axis : x y z
#
# Youngs Moduli (GPa) = 109.43382 50.49823 33.65245
#
# Poissons Ratio (x) = 0.04579 0.23483
# Poissons Ratio (y) = 0.09924 -0.04369
# Poissons Ratio (z) = 0.76365 -0.06556
#
# Static dielectric constant tensor:
#      x y z
#    x 1.892680 0.000000 0.000000 
#    y 0.000000 1.866080 0.000000 
#    z 0.000000 0.000000 1.852790 
# 
# From -- ./inp_files/8484.got.cif
#   From: 2010.05.17/outbox.cif.g08.bks.cpg/sg46_5_cif.got.tgz:8484.got - 2010.06.03 19:58:25.
