data_PCOD9379797
_publ_section_title
;
Structure prediction by ZEFSAII (Michael W. Deem and Ramdas Pophale) SiO2 
 PCOD9379797
Probable space group: I M A 2
;
_chemical_formula_sum "Si O2"
_cell_formula_units_Z 40
_cell_length_a 19.014805
_cell_length_b 6.630115
_cell_length_c 12.848298
_cell_angle_alpha 90.000000
_cell_angle_beta 90.000000
_cell_angle_gamma 90.000000
_cell_volume 1619.789347
_symmetry_space_group_name_H-M "I M A 2"
_symmetry_group_IT_number 46
_symmetry_cell_setting 'orthorhombic'
loop_
_space_group_symop_operation_xyz
x,y,z
-x,-y,z
1/2-x,y,z
1/2+x,-y,z
1/2+x,1/2+y,1/2+z
1/2-x,1/2-y,1/2+z
-x,1/2+y,1/2+z
x,1/2-y,1/2+z
loop_
_atom_site_type_symbol
_atom_site_label
_atom_site_fract_x
_atom_site_fract_y
_atom_site_fract_z
Si Si1 0.102616 0.772932 0.780750
Si Si2 0.250000 0.642315 0.566176
Si Si3 0.750000 0.049780 0.294547
Si Si4 0.500000 0.000000 0.134039
Si Si5 0.638125 0.008886 0.593937
Si Si6 0.750000 0.750474 0.480897
Si Si7 0.985318 0.306224 0.965575
O O1 0.176824 0.670012 0.812167
O O2 0.059136 0.621398 0.701376
O O3 0.121172 0.975735 0.715699
O O4 0.058068 0.826991 0.882789
O O5 0.250000 0.510252 0.671344
O O6 0.314792 0.792630 0.571698
O O7 0.250000 0.488209 0.472697
O O8 0.750000 0.861430 0.370826
O O9 0.526220 0.831581 0.049476
O O10 0.567675 0.057714 0.534378
O O11 0.682400 0.828646 0.545597
O O12 0.000000 0.500000 0.890504
#
# Coordination Sequence:
#
# PCOD9379797 Si02
#       7
#     8   4   4   4   8   4   8
#     4  10  20  43  65  93 136 170 219 285 337 390
#     4   9  21  39  57  90 128 164 207 273 327 387
#     4  10  20  38  64  90 130 172 208 272 332 384
#     4  10  24  44  64  98 132 172 228 282 336 410
#     4   9  21  39  61  87 124 165 210 273 324 385
#     4  11  19  39  65  92 122 170 217 255 331 409
#     4  11  22  41  66  90 126 177 219 275 337 404
#
# _framework density 24.694569999999999
#
# number of rings (size 3 to 8) (size 9 to 14) (size 15 to 20)
#    0.000    2.000    3.000    0.600    0.000    4.800 
#   10.800    2.000    0.000    0.000    0.000    0.000 
#    0.000    0.000    0.000    0.000    0.000    0.000 
#
# Total GULP energy -111396.870477 kJ/mol
# GULP energy per Si atom -5569.843524 kJ/mol
# Density = 2.463836 g / cm^3
# Si number density = 24.694570 Si / 1000 Ang^3
#
#
#
# Elastic Constant Matrix: (Units=GPa)
#
#
# Indices 1 2 3 4 5 6 
#
# 1 86.8573 10.8984 9.1584 0.0000 0.0000 0.0000
# 2 10.8984 59.3242 24.1690 0.0000 0.0000 0.0000
# 3 9.1584 24.1690 76.1202 0.0000 0.0000 0.0000
# 4 0.0000 0.0000 0.0000 56.1946 0.0000 0.0000
# 5 0.0000 0.0000 0.0000 0.0000 55.6677 0.0000
# 6 0.0000 0.0000 0.0000 0.0000 0.0000 -0.1600
#
#
#
# Elastic Compliance Matrix: (Units=1/GPa)
#
#
# Indices 1 2 3 4 5 6 
#
# 1 0.011832 -0.001830 -0.000842 0.000000 0.000000 0.000000
# 2 -0.001830 0.019644 -0.006017 0.000000 0.000000 0.000000
# 3 -0.000842 -0.006017 0.015149 0.000000 0.000000 0.000000
# 4 0.000000 0.000000 0.000000 0.017795 0.000000 0.000000
# 5 0.000000 0.000000 0.000000 0.000000 0.017964 0.000000
# 6 0.000000 0.000000 0.000000 0.000000 0.000000 -6.248103
#
#
# Mechanical properties :
#
#
# Convention : Reuss Voigt Hill
#
# Bulk Modulus (GPa) = 34.19365 34.52813 34.36089
# Shear Modulus (GPa) = -0.81452 34.21216 16.69882
#
# Velocity S-wave (km/s) = -0.57494 3.72615 2.60323
# Velocity P-wave (km/s) = 3.66551 5.70304 4.79378
#
# Compressibility (1/GPa) = 0.02924520
#
# Stress axis : x y z
#
# Youngs Moduli (GPa) = 84.51921 50.90577 66.01122
#
# Poissons Ratio (x) = 0.09318 0.05560
# Poissons Ratio (y) = 0.15470 0.39719
# Poissons Ratio (z) = 0.07120 0.30630
#
# Static dielectric constant tensor:
#      x y z
#    x 1.976870 0.000000 0.000000 
#    y 0.000000 1.634550 0.000000 
#    z 0.000000 0.000000 2.034700 
# 
# From -- ./inp_files/17286.got.cif
#   From: 2010.05.17/outbox.cif.g08.bks.cpg/sg46_9_cif.got.tgz:17286.got - 2010.06.03 19:58:25.
