data_PCOD9379210
_publ_section_title
;
Structure prediction by ZEFSAII (Michael W. Deem and Ramdas Pophale) SiO2 
 PCOD9379210
Probable space group: I M A 2
;
_chemical_formula_sum "Si O2"
_cell_formula_units_Z 52
_cell_length_a 7.659584
_cell_length_b 15.584402
_cell_length_c 17.433317
_cell_angle_alpha 90.000000
_cell_angle_beta 90.000000
_cell_angle_gamma 90.000000
_cell_volume 2081.015682
_symmetry_space_group_name_H-M "I M A 2"
_symmetry_group_IT_number 46
_symmetry_cell_setting 'orthorhombic'
loop_
_space_group_symop_operation_xyz
x,y,z
-x,-y,z
1/2-x,y,z
1/2+x,-y,z
1/2+x,1/2+y,1/2+z
1/2-x,1/2-y,1/2+z
-x,1/2+y,1/2+z
x,1/2-y,1/2+z
loop_
_atom_site_type_symbol
_atom_site_label
_atom_site_fract_x
_atom_site_fract_y
_atom_site_fract_z
Si Si1 0.043315 0.839649 0.828840
Si Si2 0.541724 0.904655 0.993594
Si Si3 0.952146 0.728330 0.057721
Si Si4 0.054542 0.912653 0.674087
Si Si5 0.250000 0.215311 0.272954
Si Si6 0.542319 0.095795 0.248577
Si Si7 0.043024 0.595282 0.929061
O O1 0.250000 0.813716 0.819055
O O2 0.971555 0.894260 0.756199
O O3 0.030546 0.890774 0.907803
O O4 0.905924 0.762489 0.824408
O O5 0.750000 0.895574 0.989667
O O6 0.500000 0.000000 0.021703
O O7 0.475518 0.822998 0.042103
O O8 0.750000 0.731982 0.079491
O O9 0.041362 0.669897 0.121523
O O10 0.964758 0.670651 0.980310
O O11 0.250000 0.929908 0.695449
O O12 0.000000 0.000000 0.633916
O O13 0.406136 0.166893 0.221261
O O14 0.750000 0.112706 0.241349
O O15 0.488885 0.092592 0.339819
O O16 0.500000 0.000000 0.218796
O O17 0.250000 0.607403 0.930967
O O18 0.000000 0.500000 0.959190
#
# Coordination Sequence:
#
# PCOD9379210 Si02
#       7
#     8   8   8   8   4   8   8
#     4  11  25  43  68 104 139 186 234 289 355 422
#     4  11  24  43  69 103 138 181 232 295 356 416
#     4  11  24  39  63  96 133 176 227 279 347 415
#     4  11  25  44  70 101 139 183 229 282 353 430
#     4  12  22  36  64  88 136 170 236 282 344 402
#     4  10  20  34  55  89 129 183 227 278 342 406
#     4  10  20  32  52  82 128 171 215 267 328 400
#
# _framework density 24.987797
#
# number of rings (size 3 to 8) (size 9 to 14) (size 15 to 20)
#    0.000    1.231    1.538    4.154    6.462    4.923 
#    0.000    0.000    0.000    0.923    0.000    0.000 
#    0.000    0.000    0.000    0.000    0.000    0.000 
#
# Total GULP energy -144879.316193 kJ/mol
# GULP energy per Si atom -5572.281392 kJ/mol
# Density = 2.493092 g / cm^3
# Si number density = 24.987797 Si / 1000 Ang^3
#
#
#
# Elastic Constant Matrix: (Units=GPa)
#
#
# Indices 1 2 3 4 5 6 
#
# 1 82.1498 16.0746 5.6643 0.0000 0.0000 0.0000
# 2 16.0746 180.5084 36.2603 0.0000 0.0000 0.0000
# 3 5.6643 36.2603 84.3417 0.0000 0.0000 0.0000
# 4 0.0000 0.0000 0.0000 84.9167 0.0000 0.0000
# 5 0.0000 0.0000 0.0000 0.0000 12.5948 0.0000
# 6 0.0000 0.0000 0.0000 0.0000 0.0000 27.2796
#
#
#
# Elastic Compliance Matrix: (Units=1/GPa)
#
#
# Indices 1 2 3 4 5 6 
#
# 1 0.012401 -0.001026 -0.000392 0.000000 0.000000 0.000000
# 2 -0.001026 0.006148 -0.002574 0.000000 0.000000 0.000000
# 3 -0.000392 -0.002574 0.012990 0.000000 0.000000 0.000000
# 4 0.000000 0.000000 0.000000 0.011776 0.000000 0.000000
# 5 0.000000 0.000000 0.000000 0.000000 0.079398 0.000000
# 6 0.000000 0.000000 0.000000 0.000000 0.000000 0.036657
#
#
# Mechanical properties :
#
#
# Convention : Reuss Voigt Hill
#
# Bulk Modulus (GPa) = 42.45419 51.44425 46.94922
# Shear Modulus (GPa) = 28.53788 44.22493 36.38141
#
# Velocity S-wave (km/s) = 3.38312 4.21154 3.81985
# Velocity P-wave (km/s) = 5.68221 6.65446 6.18746
#
# Compressibility (1/GPa) = 0.02355480
#
# Stress axis : x y z
#
# Youngs Moduli (GPa) = 80.64141 162.64424 76.98428
#
# Poissons Ratio (x) = 0.16680 0.03017
# Poissons Ratio (y) = 0.08270 0.19819
# Poissons Ratio (z) = 0.03160 0.41872
#
# Static dielectric constant tensor:
#      x y z
#    x 2.199530 0.000000 0.000000 
#    y 0.000000 1.620690 0.000000 
#    z 0.000000 0.000000 2.057910 
# 
# From -- ./inp_files/20978.got.cif
#   From: 2010.05.17/outbox.cif.g08.bks.cpg/sg46_11_cif.got.tgz:20978.got - 2010.06.03 19:58:25.
