data_PCOD9379360
_publ_section_title
;
Structure prediction by ZEFSAII (Michael W. Deem and Ramdas Pophale) SiO2 
 PCOD9379360
Probable space group: I M A 2
;
_chemical_formula_sum "Si O2"
_cell_formula_units_Z 56
_cell_length_a 15.284958
_cell_length_b 10.989521
_cell_length_c 17.020308
_cell_angle_alpha 90.000000
_cell_angle_beta 90.000000
_cell_angle_gamma 90.000000
_cell_volume 2858.975461
_symmetry_space_group_name_H-M "I M A 2"
_symmetry_group_IT_number 46
_symmetry_cell_setting 'orthorhombic'
loop_
_space_group_symop_operation_xyz
x,y,z
-x,-y,z
1/2-x,y,z
1/2+x,-y,z
1/2+x,1/2+y,1/2+z
1/2-x,1/2-y,1/2+z
-x,1/2+y,1/2+z
x,1/2-y,1/2+z
loop_
_atom_site_type_symbol
_atom_site_label
_atom_site_fract_x
_atom_site_fract_y
_atom_site_fract_z
Si Si1 0.092199 0.560962 0.229450
Si Si2 0.476141 0.727215 0.840993
Si Si3 0.845858 0.245846 0.114726
Si Si4 0.996589 0.142137 0.003686
Si Si5 0.345854 0.307967 0.267266
Si Si6 0.649701 0.649082 0.627852
Si Si7 0.650310 0.443457 0.755688
O O1 0.072986 0.664385 0.294001
O O2 0.130172 0.622936 0.151129
O O3 0.145458 0.452903 0.270522
O O4 0.000000 0.500000 0.208533
O O5 0.575446 0.738239 0.809433
O O6 0.421361 0.605513 0.818244
O O7 0.484895 0.767121 0.930933
O O8 0.750000 0.247967 0.076839
O O9 0.841721 0.164682 0.192885
O O10 0.917093 0.179615 0.061004
O O11 0.084209 0.153420 0.055865
O O12 0.000000 0.000000 0.977663
O O13 0.250000 0.268455 0.295089
O O14 0.352126 0.275127 0.175072
O O15 0.750000 0.619479 0.605472
O O16 0.623786 0.553462 0.696986
O O17 0.750000 0.466287 0.786535
#
# Coordination Sequence:
#
# PCOD9379360 Si02
#       7
#     8   8   8   8   8   8   8
#     4   9  17  35  58  82 112 149 199 249 301 373
#     4  10  22  35  55  87 119 152 193 247 314 372
#     4  10  20  34  56  84 115 157 206 252 308 375
#     4  12  22  34  56  88 126 157 192 261 333 377
#     4  10  20  35  58  83 111 152 199 245 298 372
#     4  10  21  37  62  88 111 156 212 255 300 367
#     4   9  18  37  60  83 111 153 206 252 294 361
#
# _framework density 19.587436
#
# number of rings (size 3 to 8) (size 9 to 14) (size 15 to 20)
#    0.000    2.000    1.429    4.286    0.000    1.714 
#    0.000    1.429    9.429    0.000    0.000    0.000 
#    0.000    0.000    0.000    0.000    0.000    0.000 
#
# Total GULP energy -155949.731694 kJ/mol
# GULP energy per Si atom -5569.633275 kJ/mol
# Density = 1.954285 g / cm^3
# Si number density = 19.587436 Si / 1000 Ang^3
#
#
#
# Elastic Constant Matrix: (Units=GPa)
#
#
# Indices 1 2 3 4 5 6 
#
# 1 127.8869 32.9429 64.6155 0.0000 0.0000 0.0000
# 2 32.9429 46.9829 20.8406 0.0000 0.0000 0.0000
# 3 64.6155 20.8406 81.4512 0.0000 0.0000 0.0000
# 4 0.0000 0.0000 0.0000 -12.5928 0.0000 0.0000
# 5 0.0000 0.0000 0.0000 0.0000 8.6832 0.0000
# 6 0.0000 0.0000 0.0000 0.0000 0.0000 -1.2204
#
#
#
# Elastic Compliance Matrix: (Units=1/GPa)
#
#
# Indices 1 2 3 4 5 6 
#
# 1 0.014253 -0.005615 -0.009870 0.000000 0.000000 0.000000
# 2 -0.005615 0.026222 -0.002255 0.000000 0.000000 0.000000
# 3 -0.009870 -0.002255 0.020684 0.000000 0.000000 0.000000
# 4 0.000000 0.000000 0.000000 -0.079410 0.000000 0.000000
# 5 0.000000 0.000000 0.000000 0.000000 0.115165 0.000000
# 6 0.000000 0.000000 0.000000 0.000000 0.000000 -0.819385
#
#
# Mechanical properties :
#
#
# Convention : Reuss Voigt Hill
#
# Bulk Modulus (GPa) = 38.94278 54.79099 46.86689
# Shear Modulus (GPa) = -7.36994 8.16879 0.39943
#
# Velocity S-wave (km/s) = -1.94184 2.04438 0.45206
# Velocity P-wave (km/s) = 3.85966 5.79706 4.92458
#
# Compressibility (1/GPa) = 0.02567870
#
# Stress axis : x y z
#
# Youngs Moduli (GPa) = 70.16187 38.13622 48.34654
#
# Poissons Ratio (x) = 0.21415 0.47718
# Poissons Ratio (y) = 0.39399 0.10900
# Poissons Ratio (z) = 0.69249 0.08598
#
# Static dielectric constant tensor:
#      x y z
#    x 1.741670 0.000000 0.000000 
#    y 0.000000 2.081180 0.000000 
#    z 0.000000 0.000000 1.648460 
# 
# From -- ./inp_files/15924.got.cif
#   From: 2010.05.17/outbox.cif.g08.bks.cpg/sg46_8_cif.got.tgz:15924.got - 2010.06.03 19:58:25.
