data_PCOD9379691
_publ_section_title
;
Structure prediction by ZEFSAII (Michael W. Deem and Ramdas Pophale) SiO2 
 PCOD9379691
Probable space group: I M A 2
;
_chemical_formula_sum "Si O2"
_cell_formula_units_Z 48
_cell_length_a 17.364353
_cell_length_b 21.763338
_cell_length_c 4.921026
_cell_angle_alpha 90.000000
_cell_angle_beta 90.000000
_cell_angle_gamma 90.000000
_cell_volume 1859.686647
_symmetry_space_group_name_H-M "I M A 2"
_symmetry_group_IT_number 46
_symmetry_cell_setting 'orthorhombic'
loop_
_space_group_symop_operation_xyz
x,y,z
-x,-y,z
1/2-x,y,z
1/2+x,-y,z
1/2+x,1/2+y,1/2+z
1/2-x,1/2-y,1/2+z
-x,1/2+y,1/2+z
x,1/2-y,1/2+z
loop_
_atom_site_type_symbol
_atom_site_label
_atom_site_fract_x
_atom_site_fract_y
_atom_site_fract_z
Si Si1 0.167152 0.180113 0.042430
Si Si2 0.858752 0.281929 0.040523
Si Si3 0.339862 0.534930 0.955753
Si Si4 0.626973 0.894144 0.527565
Si Si5 0.990527 0.814229 0.254335
Si Si6 0.387018 0.890578 0.919644
O O1 0.250000 0.208541 0.962689
O O2 0.175607 0.149991 0.334540
O O3 0.084929 0.214371 0.098290
O O4 0.148197 0.125337 0.831498
O O5 0.830539 0.227197 0.235375
O O6 0.843624 0.341471 0.219953
O O7 0.950171 0.279801 0.959960
O O8 0.250000 0.540392 0.040425
O O9 0.351090 0.575679 0.683570
O O10 0.357815 0.462902 0.933107
O O11 0.396487 0.556626 0.196546
O O12 0.543447 0.868494 0.447252
O O13 0.041878 0.851891 0.036870
#
# Coordination Sequence:
#
# PCOD9379691 Si02
#       6
#     8   8   8   8   8   8
#     4  10  20  37  61  90 135 177 228 272 319 394
#     4  12  23  44  75  98 127 173 228 287 363 414
#     4  12  25  43  68  95 140 193 226 270 342 417
#     4  10  23  39  62  93 139 179 234 252 335 406
#     4  10  24  42  64 105 132 176 224 290 340 394
#     4  12  24  45  64 102 137 170 230 295 335 406
#
# _framework density 25.810803
#
# number of rings (size 3 to 8) (size 9 to 14) (size 15 to 20)
#    1.000    0.000    3.333    4.000    0.000    0.667 
#    3.000    0.000    0.000   11.000    0.000    0.000 
#    0.000    0.000    0.000    0.000    0.000    0.000 
#
# Total GULP energy -133689.007071 kJ/mol
# GULP energy per Si atom -5570.375295 kJ/mol
# Density = 2.575206 g / cm^3
# Si number density = 25.810803 Si / 1000 Ang^3
#
#
#
# Elastic Constant Matrix: (Units=GPa)
#
#
# Indices 1 2 3 4 5 6 
#
# 1 172.9415 40.8258 42.3991 0.0000 0.0000 0.0000
# 2 40.8258 89.6760 34.6325 0.0000 0.0000 0.0000
# 3 42.3991 34.6325 151.5177 0.0000 0.0000 0.0000
# 4 0.0000 0.0000 0.0000 52.9072 0.0000 0.0000
# 5 0.0000 0.0000 0.0000 0.0000 228.6646 0.0000
# 6 0.0000 0.0000 0.0000 0.0000 0.0000 380.2130
#
#
#
# Elastic Compliance Matrix: (Units=1/GPa)
#
#
# Indices 1 2 3 4 5 6 
#
# 1 0.006701 -0.002552 -0.001292 0.000000 0.000000 0.000000
# 2 -0.002552 0.013203 -0.002304 0.000000 0.000000 0.000000
# 3 -0.001292 -0.002304 0.007488 0.000000 0.000000 0.000000
# 4 0.000000 0.000000 0.000000 0.018901 0.000000 0.000000
# 5 0.000000 0.000000 0.000000 0.000000 0.004373 0.000000
# 6 0.000000 0.000000 0.000000 0.000000 0.000000 0.002630
#
#
# Mechanical properties :
#
#
# Convention : Reuss Voigt Hill
#
# Bulk Modulus (GPa) = 66.23819 72.20555 69.22187
# Shear Modulus (GPa) = 70.79752 152.10883 111.45318
#
# Velocity S-wave (km/s) = 5.24299 7.68506 6.57834
# Velocity P-wave (km/s) = 7.89751 10.33356 9.19655
#
# Compressibility (1/GPa) = 0.01509703
#
# Stress axis : x y z
#
# Youngs Moduli (GPa) = 149.22083 75.74202 133.54769
#
# Poissons Ratio (x) = 0.19329 0.17254
# Poissons Ratio (y) = 0.38080 0.30765
# Poissons Ratio (z) = 0.19279 0.17448
#
# Static dielectric constant tensor:
#      x y z
#    x 0.705200 0.000000 0.000000 
#    y 0.000000 2.061740 0.000000 
#    z 0.000000 0.000000 1.985190 
# 
# From -- ./inp_files/2040.got.cif
#   From: 2010.05.17/outbox.cif.g08.bks.cpg/sg46_2_cif.got.tgz:2040.got - 2010.06.03 19:58:25.
