data_PCOD9379027
_publ_section_title
;
Structure prediction by ZEFSAII (Michael W. Deem and Ramdas Pophale) SiO2 
 PCOD9379027
Probable space group: I M A 2
;
_chemical_formula_sum "Si O2"
_cell_formula_units_Z 64
_cell_length_a 8.823203
_cell_length_b 33.256218
_cell_length_c 12.013049
_cell_angle_alpha 90.000000
_cell_angle_beta 90.000000
_cell_angle_gamma 90.000000
_cell_volume 3524.945270
_symmetry_space_group_name_H-M "I M A 2"
_symmetry_group_IT_number 46
_symmetry_cell_setting 'orthorhombic'
loop_
_space_group_symop_operation_xyz
x,y,z
-x,-y,z
1/2-x,y,z
1/2+x,-y,z
1/2+x,1/2+y,1/2+z
1/2-x,1/2-y,1/2+z
-x,1/2+y,1/2+z
x,1/2-y,1/2+z
loop_
_atom_site_type_symbol
_atom_site_label
_atom_site_fract_x
_atom_site_fract_y
_atom_site_fract_z
Si Si1 0.932981 0.879039 0.521840
Si Si2 0.068945 0.544172 0.397889
Si Si3 0.432288 0.188199 0.699960
Si Si4 0.432389 0.544938 0.143920
Si Si5 0.929395 0.274700 0.652309
Si Si6 0.431948 0.644234 0.783586
Si Si7 0.077220 0.399276 0.581315
Si Si8 0.577102 0.684736 0.451340
O O1 0.750000 0.881048 0.520737
O O2 0.983197 0.845160 0.611485
O O3 0.999083 0.921904 0.561274
O O4 0.993273 0.865476 0.401555
O O5 0.250000 0.543081 0.405758
O O6 0.030100 0.558105 0.271693
O O7 0.000000 0.500000 0.407014
O O8 0.001902 0.570108 0.497714
O O9 0.250000 0.188206 0.695580
O O10 0.490880 0.232795 0.676679
O O11 0.478033 0.178418 0.826299
O O12 0.500000 0.500000 0.127812
O O13 0.250000 0.543155 0.133468
O O14 0.750000 0.270199 0.663247
O O15 0.976675 0.311737 0.733600
O O16 0.972918 0.287443 0.527140
O O17 0.250000 0.643539 0.792140
O O18 0.487268 0.611421 0.693324
O O19 0.250000 0.411597 0.606636
O O20 0.082378 0.357715 0.512995
O O21 0.750000 0.701054 0.448633
#
# Coordination Sequence:
#
# PCOD9379027 Si02
#       8
#     8   8   8   8   8   8   8   8
#     4  11  23  39  60  87 116 153 199 245 293 351
#     4  10  20  34  56  87 120 152 187 231 286 342
#     4  10  22  37  56  82 112 147 189 236 284 341
#     4  10  21  38  61  89 122 158 194 239 293 349
#     4  10  22  37  55  80 111 146 187 237 290 341
#     4  10  22  40  58  80 114 154 195 239 291 350
#     4  10  19  35  59  83 110 145 187 233 282 338
#     4   9  19  36  56  78 105 141 183 226 276 334
#
# _framework density 18.156310999999999
#
# number of rings (size 3 to 8) (size 9 to 14) (size 15 to 20)
#    0.000    2.000    0.000    3.000    1.750    6.000 
#    0.000    0.625    0.000    0.000    0.000    0.000 
#    0.000    0.000    0.000    0.000    0.000    0.000 
#
# Total GULP energy -178595.730623 kJ/mol
# GULP energy per Si atom -5581.116582 kJ/mol
# Density = 1.811499 g / cm^3
# Si number density = 18.156311 Si / 1000 Ang^3
#
#
#
# Elastic Constant Matrix: (Units=GPa)
#
#
# Indices 1 2 3 4 5 6 
#
# 1 50.9844 31.3588 43.0167 -0.0005 -0.0002 -0.0001
# 2 31.3588 78.9627 64.1955 -0.0010 -0.0004 -0.0002
# 3 43.0167 64.1955 154.5418 -0.0023 -0.0009 -0.0006
# 4 -0.0005 -0.0010 -0.0023 21.3110 -0.0007 -0.0004
# 5 -0.0002 -0.0004 -0.0009 -0.0007 1.1119 -0.0002
# 6 -0.0001 -0.0002 -0.0006 -0.0004 -0.0002 27.3026
#
#
#
# Elastic Compliance Matrix: (Units=1/GPa)
#
#
# Indices 1 2 3 4 5 6 
#
# 1 0.028144 -0.007260 -0.004818 0.000000 -0.000002 0.000000
# 2 -0.007260 0.020994 -0.006700 0.000000 0.000001 0.000000
# 3 -0.004818 -0.006700 0.010595 0.000001 0.000005 0.000000
# 4 0.000000 0.000000 0.000001 0.046924 0.000029 0.000001
# 5 -0.000002 0.000001 0.000005 0.000029 0.899377 0.000007
# 6 0.000000 0.000000 0.000000 0.000001 0.000007 0.036626
#
#
# Mechanical properties :
#
#
# Convention : Reuss Voigt Hill
#
# Bulk Modulus (GPa) = 45.09108 62.40341 53.74725
# Shear Modulus (GPa) = 4.59723 19.67297 12.13510
#
# Velocity S-wave (km/s) = 1.59296 3.29528 2.58809
# Velocity P-wave (km/s) = 5.31716 6.99451 6.21270
#
# Compressibility (1/GPa) = 0.02217734
#
# Stress axis : x y z
#
# Youngs Moduli (GPa) = 35.53093 47.63160 94.38320
#
# Poissons Ratio (x) = 0.34580 0.45477
# Poissons Ratio (y) = 0.25795 0.63238
# Poissons Ratio (z) = 0.17120 0.31914
#
# Static dielectric constant tensor:
#      x y z
#    x 1.648690 0.000000 0.000000 
#    y 0.000000 1.600940 0.000000 
#    z 0.000000 0.000000 1.619230 
# 
# From -- ./inp_files/9810.got.cif
#   From: 2010.05.17/outbox.cif.g08.bks.cpg/sg46_5_cif.got.tgz:9810.got - 2010.06.03 19:58:25.
