data_PCOD9379535
_publ_section_title
;
Structure prediction by ZEFSAII (Michael W. Deem and Ramdas Pophale) SiO2 
 PCOD9379535
Probable space group: I M A 2
;
_chemical_formula_sum "Si O2"
_cell_formula_units_Z 56
_cell_length_a 22.775889
_cell_length_b 10.092354
_cell_length_c 13.761885
_cell_angle_alpha 90.000000
_cell_angle_beta 90.000000
_cell_angle_gamma 90.000000
_cell_volume 3163.339013
_symmetry_space_group_name_H-M "I M A 2"
_symmetry_group_IT_number 46
_symmetry_cell_setting 'orthorhombic'
loop_
_space_group_symop_operation_xyz
x,y,z
-x,-y,z
1/2-x,y,z
1/2+x,-y,z
1/2+x,1/2+y,1/2+z
1/2-x,1/2-y,1/2+z
-x,1/2+y,1/2+z
x,1/2-y,1/2+z
loop_
_atom_site_type_symbol
_atom_site_label
_atom_site_fract_x
_atom_site_fract_y
_atom_site_fract_z
Si Si1 0.679987 0.509344 0.484740
Si Si2 0.896061 0.126135 0.710459
Si Si3 0.878027 0.847508 0.802973
Si Si4 0.607578 0.234174 0.493431
Si Si5 0.819704 0.604019 0.695430
Si Si6 0.680030 0.340500 0.816731
Si Si7 0.494036 0.844719 0.868629
O O1 0.750000 0.481927 0.482864
O O2 0.660338 0.590137 0.390096
O O3 0.643557 0.373025 0.493238
O O4 0.665842 0.591528 0.581917
O O5 0.897000 0.170494 0.599211
O O6 0.844502 0.208657 0.764251
O O7 0.955147 0.161682 0.770224
O O8 0.887948 0.970209 0.729141
O O9 0.849357 0.725466 0.748860
O O10 0.940167 0.801381 0.847338
O O11 0.644832 0.146523 0.417412
O O12 0.543873 0.266734 0.448049
O O13 0.750000 0.620986 0.703072
O O14 0.833692 0.464844 0.747737
O O15 0.750000 0.332241 0.831610
O O16 0.500000 0.000000 0.896909
#
# Coordination Sequence:
#
# PCOD9379535 Si02
#       7
#     8   8   8   8   8   8   8
#     4  11  21  36  62  87 115 159 200 239 304 367
#     4  10  21  36  59  88 113 152 205 246 292 355
#     4  11  22  41  61  84 124 159 198 247 306 357
#     4  11  20  36  62  89 119 152 205 249 300 348
#     4  10  23  39  57  88 123 154 195 244 300 367
#     4  10  20  36  57  85 119 152 195 251 291 347
#     4   9  19  39  58  84 117 157 197 249 294 351
#
# _framework density 17.702814
#
# number of rings (size 3 to 8) (size 9 to 14) (size 15 to 20)
#    0.000    1.714    5.714    0.857    0.000    3.429 
#    0.000    7.143    0.000    0.000    0.000    0.000 
#    0.000    0.000    0.000    0.000    0.000    0.000 
#
# Total GULP energy -156247.901195 kJ/mol
# GULP energy per Si atom -5580.282186 kJ/mol
# Density = 1.766252 g / cm^3
# Si number density = 17.702814 Si / 1000 Ang^3
#
#
#
# Elastic Constant Matrix: (Units=GPa)
#
#
# Indices 1 2 3 4 5 6 
#
# 1 61.5300 44.1714 47.3962 0.0000 0.0000 0.0000
# 2 44.1714 62.4929 36.6750 0.0000 0.0000 0.0000
# 3 47.3962 36.6750 122.0904 0.0000 0.0000 0.0000
# 4 0.0000 0.0000 0.0000 26.6503 0.0000 0.0000
# 5 0.0000 0.0000 0.0000 0.0000 16.6393 0.0000
# 6 0.0000 0.0000 0.0000 0.0000 0.0000 26.0571
#
#
#
# Elastic Compliance Matrix: (Units=1/GPa)
#
#
# Indices 1 2 3 4 5 6 
#
# 1 0.038875 -0.022606 -0.008301 0.000000 0.000000 0.000000
# 2 -0.022606 0.032572 -0.001009 0.000000 0.000000 0.000000
# 3 -0.008301 -0.001009 0.011716 0.000000 0.000000 0.000000
# 4 0.000000 0.000000 0.000000 0.037523 0.000000 0.000000
# 5 0.000000 0.000000 0.000000 0.000000 0.060099 0.000000
# 6 0.000000 0.000000 0.000000 0.000000 0.000000 0.038377
#
#
# Mechanical properties :
#
#
# Convention : Reuss Voigt Hill
#
# Bulk Modulus (GPa) = 51.72736 55.84425 53.78580
# Shear Modulus (GPa) = 17.27490 21.72739 19.50114
#
# Velocity S-wave (km/s) = 3.12721 3.50714 3.32261
# Velocity P-wave (km/s) = 6.50558 6.92921 6.72073
#
# Compressibility (1/GPa) = 0.01933213
#
# Stress axis : x y z
#
# Youngs Moduli (GPa) = 25.72356 30.70090 85.35327
#
# Poissons Ratio (x) = 0.69403 0.70849
# Poissons Ratio (y) = 0.58151 0.08609
# Poissons Ratio (z) = 0.21352 0.03097
#
# Static dielectric constant tensor:
#      x y z
#    x 1.605880 0.000000 0.000000 
#    y 0.000000 1.588230 0.000000 
#    z 0.000000 0.000000 1.604250 
# 
# From -- ./inp_files/17099.got.cif
#   From: 2010.05.17/outbox.cif.g08.bks.cpg/sg46_9_cif.got.tgz:17099.got - 2010.06.03 19:58:25.
