data_PCOD9380253
_publ_section_title
;
Structure prediction by ZEFSAII (Michael W. Deem and Ramdas Pophale) SiO2 
 PCOD9380253
Probable space group: I M A 2
;
_chemical_formula_sum "Si O2"
_cell_formula_units_Z 48
_cell_length_a 15.698252
_cell_length_b 12.640773
_cell_length_c 10.579607
_cell_angle_alpha 90.000000
_cell_angle_beta 90.000000
_cell_angle_gamma 90.000000
_cell_volume 2099.396477
_symmetry_space_group_name_H-M "I M A 2"
_symmetry_group_IT_number 46
_symmetry_cell_setting 'orthorhombic'
loop_
_space_group_symop_operation_xyz
x,y,z
-x,-y,z
1/2-x,y,z
1/2+x,-y,z
1/2+x,1/2+y,1/2+z
1/2-x,1/2-y,1/2+z
-x,1/2+y,1/2+z
x,1/2-y,1/2+z
loop_
_atom_site_type_symbol
_atom_site_label
_atom_site_fract_x
_atom_site_fract_y
_atom_site_fract_z
Si Si1 0.421788 0.716481 0.089500
Si Si2 0.849029 0.670551 0.228294
Si Si3 0.647538 0.990523 0.504371
Si Si4 0.348147 0.573117 0.508188
Si Si5 0.351864 0.421045 0.728531
Si Si6 0.509281 0.328664 0.361864
O O1 0.459843 0.719763 0.228991
O O2 0.388668 0.600179 0.056799
O O3 0.352188 0.810076 0.074385
O O4 0.487212 0.748629 0.978874
O O5 0.750000 0.654342 0.260565
O O6 0.869496 0.602672 0.104252
O O7 0.862335 0.796097 0.211069
O O8 0.750000 0.000608 0.497136
O O9 0.615130 0.960626 0.364365
O O10 0.250000 0.551620 0.470642
O O11 0.413348 0.363408 0.337670
O O12 0.417150 0.588073 0.397892
O O13 0.250000 0.439914 0.730469
O O14 0.382325 0.489539 0.610416
#
# Coordination Sequence:
#
# PCOD9380253 Si02
#       6
#     8   8   8   8   8   8
#     4  10  22  42  65 104 144 184 240 299 371 436
#     4  10  23  45  69 102 146 192 248 299 356 438
#     4  10  21  39  71 104 140 193 240 298 367 437
#     4   9  20  39  71 106 146 187 233 303 368 437
#     4   9  19  41  69 103 140 191 247 293 364 436
#     4  10  24  42  67 107 143 188 245 298 370 426
#
# _framework density 22.863714000000002
#
# number of rings (size 3 to 8) (size 9 to 14) (size 15 to 20)
#    1.000    1.333    0.000    1.500    2.333    2.000 
#    3.000    4.167    0.000    0.000    0.000    1.167 
#    0.000    1.333    0.000    0.000    0.000    0.000 
#
# Total GULP energy -134080.807740 kJ/mol
# GULP energy per Si atom -5586.700322 kJ/mol
# Density = 2.281168 g / cm^3
# Si number density = 22.863714 Si / 1000 Ang^3
#
#
#
# Elastic Constant Matrix: (Units=GPa)
#
#
# Indices 1 2 3 4 5 6 
#
# 1 110.5214 30.9194 65.3496 0.0000 0.0000 0.0000
# 2 30.9194 99.2612 43.7910 0.0000 0.0000 0.0000
# 3 65.3496 43.7910 159.0067 0.0000 0.0000 0.0000
# 4 0.0000 0.0000 0.0000 36.9296 0.0000 0.0000
# 5 0.0000 0.0000 0.0000 0.0000 35.6231 0.0000
# 6 0.0000 0.0000 0.0000 0.0000 0.0000 13.9082
#
#
#
# Elastic Compliance Matrix: (Units=1/GPa)
#
#
# Indices 1 2 3 4 5 6 
#
# 1 0.012233 -0.001813 -0.004528 0.000000 0.000000 0.000000
# 2 -0.001813 0.011736 -0.002487 0.000000 0.000000 0.000000
# 3 -0.004528 -0.002487 0.008835 0.000000 0.000000 0.000000
# 4 0.000000 0.000000 0.000000 0.027079 0.000000 0.000000
# 5 0.000000 0.000000 0.000000 0.000000 0.028072 0.000000
# 6 0.000000 0.000000 0.000000 0.000000 0.000000 0.071900
#
#
# Mechanical properties :
#
#
# Convention : Reuss Voigt Hill
#
# Bulk Modulus (GPa) = 66.01642 72.10105 69.05873
# Shear Modulus (GPa) = 27.38831 32.54080 29.96456
#
# Velocity S-wave (km/s) = 3.46482 3.77669 3.62411
# Velocity P-wave (km/s) = 6.70397 7.11488 6.91248
#
# Compressibility (1/GPa) = 0.01514775
#
# Stress axis : x y z
#
# Youngs Moduli (GPa) = 81.74871 85.20523 113.18519
#
# Poissons Ratio (x) = 0.15445 0.51253
# Poissons Ratio (y) = 0.14819 0.28152
# Poissons Ratio (z) = 0.37018 0.21193
#
# Static dielectric constant tensor:
#      x y z
#    x 1.891550 0.000000 0.000000 
#    y 0.000000 1.880350 0.000000 
#    z 0.000000 0.000000 1.831430 
# 
# From -- ./inp_files/16021.got.cif
#   From: 2010.05.17/outbox.cif.g08.bks.cpg/sg46_9_cif.got.tgz:16021.got - 2010.06.03 19:58:25.
