data_PCOD9380022
_publ_section_title
;
Structure prediction by ZEFSAII (Michael W. Deem and Ramdas Pophale) SiO2 
 PCOD9380022
Probable space group: I M A 2
;
_chemical_formula_sum "Si O2"
_cell_formula_units_Z 64
_cell_length_a 9.200230
_cell_length_b 29.154352
_cell_length_c 12.490089
_cell_angle_alpha 90.000000
_cell_angle_beta 90.000000
_cell_angle_gamma 90.000000
_cell_volume 3350.175904
_symmetry_space_group_name_H-M "I M A 2"
_symmetry_group_IT_number 46
_symmetry_cell_setting 'orthorhombic'
loop_
_space_group_symop_operation_xyz
x,y,z
-x,-y,z
1/2-x,y,z
1/2+x,-y,z
1/2+x,1/2+y,1/2+z
1/2-x,1/2-y,1/2+z
-x,1/2+y,1/2+z
x,1/2-y,1/2+z
loop_
_atom_site_type_symbol
_atom_site_label
_atom_site_fract_x
_atom_site_fract_y
_atom_site_fract_z
Si Si1 0.080957 0.870279 0.423240
Si Si2 0.423076 0.548904 0.472590
Si Si3 0.075630 0.184175 0.249509
Si Si4 0.421685 0.215479 0.822510
Si Si5 0.574410 0.647304 0.513187
Si Si6 0.590011 0.169327 0.647515
Si Si7 0.918929 0.543515 0.017796
Si Si8 0.911477 0.436448 0.219138
O O1 0.250000 0.882508 0.414478
O O2 0.070428 0.833648 0.520418
O O3 0.013651 0.853236 0.314163
O O4 0.987903 0.912326 0.464873
O O5 0.500000 0.500000 0.503332
O O6 0.250000 0.548003 0.499489
O O7 0.497640 0.596895 0.512567
O O8 0.433421 0.552879 0.342971
O O9 0.250000 0.179770 0.265273
O O10 0.028376 0.232232 0.304465
O O11 0.049604 0.175421 0.123500
O O12 0.250000 0.217692 0.839736
O O13 0.461676 0.193761 0.708585
O O14 0.476872 0.180793 0.915440
O O15 0.750000 0.639979 0.502319
O O16 0.750000 0.189787 0.670818
O O17 0.592598 0.117847 0.695102
O O18 0.750000 0.541328 0.002128
O O19 0.000000 0.500000 0.970924
O O20 0.961386 0.546030 0.143157
O O21 0.750000 0.453726 0.185562
#
# Coordination Sequence:
#
# PCOD9380022 Si02
#       8
#     8   8   8   8   8   8   8   8
#     4  10  22  40  59  84 119 155 198 249 298 354
#     4  11  22  37  59  87 121 163 208 256 310 370
#     4  10  23  41  62  88 120 159 205 254 304 362
#     4  10  21  36  61  91 120 156 197 244 301 360
#     4  10  22  41  61  89 127 161 204 260 307 364
#     4   9  18  34  55  83 119 153 189 238 289 347
#     4  11  21  34  56  85 118 158 200 246 302 361
#     4   9  18  33  52  81 121 157 195 245 297 356
#
# _framework density 19.103475
#
# number of rings (size 3 to 8) (size 9 to 14) (size 15 to 20)
#    0.000    2.000    1.250    3.000    1.750    5.500 
#    0.000    0.625    0.000    3.000    0.000    0.000 
#    0.000    0.000    0.000    0.000    0.000    0.000 
#
# Total GULP energy -178293.506089 kJ/mol
# GULP energy per Si atom -5571.672065 kJ/mol
# Density = 1.905999 g / cm^3
# Si number density = 19.103475 Si / 1000 Ang^3
#
#
#
# Elastic Constant Matrix: (Units=GPa)
#
#
# Indices 1 2 3 4 5 6 
#
# 1 72.5777 52.1952 40.5160 0.0000 0.0000 0.0000
# 2 52.1952 85.8719 24.5837 0.0000 -0.0001 0.0000
# 3 40.5160 24.5837 57.9534 0.0001 0.0001 0.0001
# 4 0.0000 0.0000 0.0001 7.1003 0.0000 0.0001
# 5 0.0000 -0.0001 0.0001 0.0000 43.0397 0.0001
# 6 0.0000 0.0000 0.0001 0.0001 0.0001 20.5687
#
#
#
# Elastic Compliance Matrix: (Units=1/GPa)
#
#
# Indices 1 2 3 4 5 6 
#
# 1 0.035705 -0.016568 -0.017934 0.000000 0.000000 0.000000
# 2 -0.016568 0.020943 0.002699 0.000000 0.000000 0.000000
# 3 -0.017934 0.002699 0.028648 0.000000 0.000000 0.000000
# 4 0.000000 0.000000 0.000000 0.140840 0.000000 0.000000
# 5 0.000000 0.000000 0.000000 0.000000 0.023234 0.000000
# 6 0.000000 0.000000 0.000000 0.000000 0.000000 0.048618
#
#
# Mechanical properties :
#
#
# Convention : Reuss Voigt Hill
#
# Bulk Modulus (GPa) = 46.10327 50.11030 48.10679
# Shear Modulus (GPa) = 13.55662 20.74896 17.15279
#
# Velocity S-wave (km/s) = 2.66680 3.29923 2.99973
# Velocity P-wave (km/s) = 5.80244 6.38758 6.10203
#
# Compressibility (1/GPa) = 0.02169043
#
# Stress axis : x y z
#
# Youngs Moduli (GPa) = 28.00729 47.74814 34.90661
#
# Poissons Ratio (x) = 0.79111 0.62600
# Poissons Ratio (y) = 0.46403 -0.09422
# Poissons Ratio (z) = 0.50227 -0.12888
#
# Static dielectric constant tensor:
#      x y z
#    x 1.594330 0.000000 0.000000 
#    y 0.000000 1.709400 0.000000 
#    z 0.000000 0.000000 1.649860 
# 
# From -- ./inp_files/9665.got.cif
#   From: 2010.05.17/outbox.cif.g08.bks.cpg/sg46_5_cif.got.tgz:9665.got - 2010.06.03 19:58:25.
