data_PCOD9380759
_publ_section_title
;
Structure prediction by ZEFSAII (Michael W. Deem and Ramdas Pophale) SiO2 
 PCOD9380759
Probable space group: I M A 2
;
_chemical_formula_sum "Si O2"
_cell_formula_units_Z 28
_cell_length_a 20.400032
_cell_length_b 5.715191
_cell_length_c 9.303369
_cell_angle_alpha 90.000000
_cell_angle_beta 90.000000
_cell_angle_gamma 90.000000
_cell_volume 1084.680529
_symmetry_space_group_name_H-M "I M A 2"
_symmetry_group_IT_number 46
_symmetry_cell_setting 'orthorhombic'
loop_
_space_group_symop_operation_xyz
x,y,z
-x,-y,z
1/2-x,y,z
1/2+x,-y,z
1/2+x,1/2+y,1/2+z
1/2-x,1/2-y,1/2+z
-x,1/2+y,1/2+z
x,1/2-y,1/2+z
loop_
_atom_site_type_symbol
_atom_site_label
_atom_site_fract_x
_atom_site_fract_y
_atom_site_fract_z
Si Si1 0.819954 0.566565 0.722500
Si Si2 0.000000 0.000000 0.926587
Si Si3 0.138030 0.736447 0.466508
Si Si4 0.935943 0.622354 0.147603
O O1 0.750000 0.695362 0.735144
O O2 0.824818 0.449455 0.565420
O O3 0.822707 0.365675 0.842200
O O4 0.887160 0.712965 0.737390
O O5 0.972265 0.784372 0.030542
O O6 0.074456 0.882866 0.899766
O O7 0.110219 0.935828 0.572693
O O8 0.000000 0.500000 0.227030
#
# Coordination Sequence:
#
# PCOD9380759 Si02
#       4
#     8   4   8   8
#     4  12  28  48  75 111 155 203 249 304 383 454
#     4  10  24  46  74 106 146 190 250 312 372 428
#     4  12  25  49  74 111 150 199 248 317 366 448
#     4  10  25  45  74 107 146 193 251 306 367 438
#
# _framework density 25.814052
#
# number of rings (size 3 to 8) (size 9 to 14) (size 15 to 20)
#    0.857    0.000    2.857    2.571    8.000    4.571 
#    0.000    0.000    0.000    0.000    0.000    0.000 
#    0.000    0.000    0.000    0.000    0.000    0.000 
#
# Total GULP energy -78276.533469 kJ/mol
# GULP energy per Si atom -5591.180962 kJ/mol
# Density = 2.575530 g / cm^3
# Si number density = 25.814052 Si / 1000 Ang^3
#
#
#
# Elastic Constant Matrix: (Units=GPa)
#
#
# Indices 1 2 3 4 5 6 
#
# 1 201.7440 41.4507 62.0989 0.0000 0.0000 0.0000
# 2 41.4507 77.2836 24.3041 0.0000 0.0000 0.0000
# 3 62.0989 24.3041 120.7256 0.0000 0.0000 0.0000
# 4 0.0000 0.0000 0.0000 49.9872 0.0000 0.0000
# 5 0.0000 0.0000 0.0000 0.0000 -11.6488 0.0000
# 6 0.0000 0.0000 0.0000 0.0000 0.0000 23.3629
#
#
#
# Elastic Compliance Matrix: (Units=1/GPa)
#
#
# Indices 1 2 3 4 5 6 
#
# 1 0.006320 -0.002527 -0.002742 0.000000 0.000000 0.000000
# 2 -0.002527 0.014825 -0.001684 0.000000 0.000000 0.000000
# 3 -0.002742 -0.001684 0.010033 0.000000 0.000000 0.000000
# 4 0.000000 0.000000 0.000000 0.020005 0.000000 0.000000
# 5 0.000000 0.000000 0.000000 0.000000 -0.085846 0.000000
# 6 0.000000 0.000000 0.000000 0.000000 0.000000 0.042803
#
#
# Mechanical properties :
#
#
# Convention : Reuss Voigt Hill
#
# Bulk Modulus (GPa) = 57.90488 72.82895 65.36692
# Shear Modulus (GPa) = 179.83034 30.46691 105.14862
#
# Velocity S-wave (km/s) = 8.35554 3.43920 6.38917
# Velocity P-wave (km/s) = 10.75020 6.63663 8.93341
#
# Compressibility (1/GPa) = 0.01726970
#
# Stress axis : x y z
#
# Youngs Moduli (GPa) = 158.22477 67.45535 99.67261
#
# Poissons Ratio (x) = 0.17049 0.27332
# Poissons Ratio (y) = 0.39990 0.16789
# Poissons Ratio (z) = 0.43387 0.11362
#
# Static dielectric constant tensor:
#      x y z
#    x 1.985040 0.000000 0.000000 
#    y 0.000000 2.037230 0.000000 
#    z 0.000000 0.000000 2.099050 
# 
# From -- ./inp_files/12113.got.cif
#   From: 2010.05.17/outbox.cif.g08.bks.cpg/sg46_7_cif.got.tgz:12113.got - 2010.06.03 19:58:25.
