data_PCOD9380399
_publ_section_title
;
Structure prediction by ZEFSAII (Michael W. Deem and Ramdas Pophale) SiO2 
 PCOD9380399
Probable space group: I M A 2
;
_chemical_formula_sum "Si O2"
_cell_formula_units_Z 40
_cell_length_a 8.602686
_cell_length_b 9.283601
_cell_length_c 26.928287
_cell_angle_alpha 90.000000
_cell_angle_beta 90.000000
_cell_angle_gamma 90.000000
_cell_volume 2150.598137
_symmetry_space_group_name_H-M "I M A 2"
_symmetry_group_IT_number 46
_symmetry_cell_setting 'orthorhombic'
loop_
_space_group_symop_operation_xyz
x,y,z
-x,-y,z
1/2-x,y,z
1/2+x,-y,z
1/2+x,1/2+y,1/2+z
1/2-x,1/2-y,1/2+z
-x,1/2+y,1/2+z
x,1/2-y,1/2+z
loop_
_atom_site_type_symbol
_atom_site_label
_atom_site_fract_x
_atom_site_fract_y
_atom_site_fract_z
Si Si1 0.936858 0.338462 0.361670
Si Si2 0.564690 0.663376 0.768229
Si Si3 0.437580 0.837338 0.055700
Si Si4 0.437715 0.838937 0.459578
Si Si5 0.436549 0.663589 0.664972
O O1 0.750000 0.340483 0.359557
O O2 0.984947 0.252823 0.411378
O O3 0.000000 0.500000 0.363417
O O4 0.001367 0.256096 0.313695
O O5 0.500000 0.500000 0.772390
O O6 0.750000 0.657483 0.769043
O O7 0.508376 0.726545 0.715183
O O8 0.250000 0.845170 0.054286
O O9 0.479831 0.777237 0.110505
O O10 0.500000 0.000000 0.050694
O O11 0.491196 0.739906 0.009987
O O12 0.250000 0.843172 0.460374
O O13 0.500000 0.000000 0.456418
O O14 0.500000 0.500000 0.663682
O O15 0.250000 0.662273 0.669565
#
# Coordination Sequence:
#
# PCOD9380399 Si02
#       5
#     8   8   8   8   8
#     4  11  23  39  58  81 109 141 180 224 273 327
#     4  11  21  35  56  82 112 145 184 226 270 319
#     4   9  18  33  54  81 110 141 178 221 266 315
#     4  10  22  38  56  80 109 141 178 220 267 320
#     4   9  16  29  51  78 109 142 179 221 265 315
#
# _framework density 18.599477
#
# number of rings (size 3 to 8) (size 9 to 14) (size 15 to 20)
#    0.000    2.000    0.000    5.400    0.000    4.800 
#    0.000    1.000    0.000    2.400    0.000    0.000 
#    0.000    0.000    0.000    0.000    0.000    0.000 
#
# Total GULP energy -111630.351196 kJ/mol
# GULP energy per Si atom -5581.517560 kJ/mol
# Density = 1.855714 g / cm^3
# Si number density = 18.599477 Si / 1000 Ang^3
#
#
#
# Elastic Constant Matrix: (Units=GPa)
#
#
# Indices 1 2 3 4 5 6 
#
# 1 69.1085 33.1155 60.8137 0.0000 0.0000 0.0000
# 2 33.1155 110.5179 99.1626 0.0000 0.0000 0.0000
# 3 60.8137 99.1626 234.4744 0.0000 0.0000 0.0000
# 4 0.0000 0.0000 0.0000 33.6746 0.0000 0.0000
# 5 0.0000 0.0000 0.0000 0.0000 103.7355 0.0000
# 6 0.0000 0.0000 0.0000 0.0000 0.0000 29.2890
#
#
#
# Elastic Compliance Matrix: (Units=1/GPa)
#
#
# Indices 1 2 3 4 5 6 
#
# 1 0.019034 -0.002053 -0.004068 0.000000 0.000000 0.000000
# 2 -0.002053 0.014803 -0.005728 0.000000 0.000000 0.000000
# 3 -0.004068 -0.005728 0.007742 0.000000 0.000000 0.000000
# 4 0.000000 0.000000 0.000000 0.029696 0.000000 0.000000
# 5 0.000000 0.000000 0.000000 0.000000 0.009640 0.000000
# 6 0.000000 0.000000 0.000000 0.000000 0.000000 0.034143
#
#
# Mechanical properties :
#
#
# Convention : Reuss Voigt Hill
#
# Bulk Modulus (GPa) = 55.92619 88.92050 72.42334
# Shear Modulus (GPa) = 34.55039 48.07375 41.31207
#
# Velocity S-wave (km/s) = 4.31466 5.08949 4.71801
# Velocity P-wave (km/s) = 7.41321 9.08015 8.28869
#
# Compressibility (1/GPa) = 0.01788071
#
# Stress axis : x y z
#
# Youngs Moduli (GPa) = 52.53803 67.55484 129.15758
#
# Poissons Ratio (x) = 0.13868 0.52548
# Poissons Ratio (y) = 0.10785 0.73980
# Poissons Ratio (z) = 0.21375 0.38695
#
# Static dielectric constant tensor:
#      x y z
#    x 1.622310 0.000000 0.000000 
#    y 0.000000 1.580370 0.000000 
#    z 0.000000 0.000000 1.683830 
# 
# From -- ./inp_files/22737.got.cif
#   From: 2010.05.17/outbox.cif.g08.bks.cpg/sg46_12_cif.got.tgz:22737.got - 2010.06.03 19:58:25.
