data_PCOD9380264
_publ_section_title
;
Structure prediction by ZEFSAII (Michael W. Deem and Ramdas Pophale) SiO2 
 PCOD9380264
Probable space group: I M A 2
;
_chemical_formula_sum "Si O2"
_cell_formula_units_Z 36
_cell_length_a 17.283690
_cell_length_b 16.604083
_cell_length_c 4.893165
_cell_angle_alpha 90.000000
_cell_angle_beta 90.000000
_cell_angle_gamma 90.000000
_cell_volume 1404.239627
_symmetry_space_group_name_H-M "I M A 2"
_symmetry_group_IT_number 46
_symmetry_cell_setting 'orthorhombic'
loop_
_space_group_symop_operation_xyz
x,y,z
-x,-y,z
1/2-x,y,z
1/2+x,-y,z
1/2+x,1/2+y,1/2+z
1/2-x,1/2-y,1/2+z
-x,1/2+y,1/2+z
x,1/2-y,1/2+z
loop_
_atom_site_type_symbol
_atom_site_label
_atom_site_fract_x
_atom_site_fract_y
_atom_site_fract_z
Si Si1 0.574642 0.459126 0.389830
Si Si2 0.750000 0.201175 0.261532
Si Si3 0.342285 0.475546 0.916601
Si Si4 0.922726 0.303834 0.675848
Si Si5 0.844171 0.800704 0.653642
O O1 0.500000 0.500000 0.260106
O O2 0.614273 0.509195 0.633818
O O3 0.540291 0.380040 0.535898
O O4 0.634896 0.456775 0.140363
O O5 0.750000 0.284597 0.084780
O O6 0.668080 0.167889 0.168051
O O7 0.250000 0.475941 0.870376
O O8 0.365118 0.389002 0.047483
O O9 0.936240 0.272878 0.979501
O O10 0.750000 0.801259 0.658688
O O11 0.869884 0.770040 0.948091
#
# Coordination Sequence:
#
# PCOD9380264 Si02
#       5
#     8   4   8   8   8
#     4  12  26  45  66  95 141 176 213 273 346 402
#     4   8  16  30  54  86 116 148 198 262 316 354
#     4  11  24  42  68  98 128 173 227 272 332 398
#     4  10  21  40  63  92 128 170 219 272 325 397
#     4   9  17  33  58  89 126 160 206 270 318 367
#
# _framework density 25.636648000000001
#
# number of rings (size 3 to 8) (size 9 to 14) (size 15 to 20)
#    0.000    1.778    0.000    4.000    3.111    3.556 
#    4.000    6.667    0.000    0.000    0.000    0.000 
#    0.000    0.000    0.000    0.000    0.000    0.000 
#
# Total GULP energy -100661.855148 kJ/mol
# GULP energy per Si atom -5592.325286 kJ/mol
# Density = 2.557830 g / cm^3
# Si number density = 25.636648 Si / 1000 Ang^3
#
#
#
# Elastic Constant Matrix: (Units=GPa)
#
#
# Indices 1 2 3 4 5 6 
#
# 1 57.4345 18.1382 0.7185 0.0000 0.0000 0.0000
# 2 18.1382 75.1669 -5.7323 0.0000 0.0000 0.0000
# 3 0.7185 -5.7323 109.5536 0.0000 0.0000 0.0000
# 4 0.0000 0.0000 0.0000 41.0820 0.0000 0.0000
# 5 0.0000 0.0000 0.0000 0.0000 10.7484 0.0000
# 6 0.0000 0.0000 0.0000 0.0000 0.0000 27.1482
#
#
#
# Elastic Compliance Matrix: (Units=1/GPa)
#
#
# Indices 1 2 3 4 5 6 
#
# 1 0.018862 -0.004579 -0.000363 0.000000 0.000000 0.000000
# 2 -0.004579 0.014469 0.000787 0.000000 0.000000 0.000000
# 3 -0.000363 0.000787 0.009172 0.000000 0.000000 0.000000
# 4 0.000000 0.000000 0.000000 0.024342 0.000000 0.000000
# 5 0.000000 0.000000 0.000000 0.000000 0.093037 0.000000
# 6 0.000000 0.000000 0.000000 0.000000 0.000000 0.036835
#
#
# Mechanical properties :
#
#
# Convention : Reuss Voigt Hill
#
# Bulk Modulus (GPa) = 29.24722 29.82266 29.53494
# Shear Modulus (GPa) = 23.10290 31.06443 27.08367
#
# Velocity S-wave (km/s) = 3.00520 3.48475 3.25382
# Velocity P-wave (km/s) = 4.84508 5.27725 5.06578
#
# Compressibility (1/GPa) = 0.03419129
#
# Stress axis : x y z
#
# Youngs Moduli (GPa) = 53.01719 69.11451 109.03316
#
# Poissons Ratio (x) = 0.31649 0.03961
# Poissons Ratio (y) = 0.24278 -0.08582
# Poissons Ratio (z) = 0.01926 -0.05440
#
# Static dielectric constant tensor:
#      x y z
#    x 2.033780 0.000000 0.000000 
#    y 0.000000 2.098210 0.000000 
#    z 0.000000 0.000000 1.894470 
# 
# From -- ./inp_files/1957.got.cif
#   From: 2010.05.17/outbox.cif.g08.bks.cpg/sg46_1_cif.got.tgz:1957.got - 2010.06.03 19:58:25.
