data_PCOD9380441
_publ_section_title
;
Structure prediction by ZEFSAII (Michael W. Deem and Ramdas Pophale) SiO2 
 PCOD9380441
Probable space group: I M A 2
;
_chemical_formula_sum "Si O2"
_cell_formula_units_Z 40
_cell_length_a 14.714138
_cell_length_b 12.169312
_cell_length_c 10.004923
_cell_angle_alpha 90.000000
_cell_angle_beta 90.000000
_cell_angle_gamma 90.000000
_cell_volume 1791.490878
_symmetry_space_group_name_H-M "I M A 2"
_symmetry_group_IT_number 46
_symmetry_cell_setting 'orthorhombic'
loop_
_space_group_symop_operation_xyz
x,y,z
-x,-y,z
1/2-x,y,z
1/2+x,-y,z
1/2+x,1/2+y,1/2+z
1/2-x,1/2-y,1/2+z
-x,1/2+y,1/2+z
x,1/2-y,1/2+z
loop_
_atom_site_type_symbol
_atom_site_label
_atom_site_fract_x
_atom_site_fract_y
_atom_site_fract_z
Si Si1 0.641591 0.545500 0.241750
Si Si2 0.855049 0.960855 0.047426
Si Si3 0.152479 0.667503 0.744791
Si Si4 0.065952 0.912429 0.488857
Si Si5 0.465702 0.246331 0.149866
O O1 0.750000 0.543826 0.226472
O O2 0.618826 0.513136 0.394176
O O3 0.598366 0.468295 0.127226
O O4 0.602909 0.668159 0.218193
O O5 0.750000 0.920194 0.044470
O O6 0.918228 0.867576 0.111918
O O7 0.855103 0.070339 0.136312
O O8 0.250000 0.725241 0.725006
O O9 0.059413 0.733003 0.730479
O O10 0.147530 0.617235 0.892560
O O11 0.002930 0.808410 0.518896
O O12 0.000000 0.000000 0.418107
#
# Coordination Sequence:
#
# PCOD9380441 Si02
#       5
#     8   8   8   8   8
#     4  10  22  41  64  90 120 155 197 245 297 353
#     4  10  22  40  63  90 120 156 197 244 297 352
#     4  11  24  40  60  87 121 161 200 243 295 350
#     4  10  22  39  61  88 119 157 197 243 297 351
#     4  11  22  38  63  91 119 155 199 247 294 350
#
# _framework density 22.327773000000001
#
# number of rings (size 3 to 8) (size 9 to 14) (size 15 to 20)
#    0.000    1.600    0.000    4.200    0.000    9.600 
#    0.000    6.000    0.000    0.000    0.000    0.000 
#    0.000    0.000    0.000    0.000    0.000    0.000 
#
# Total GULP energy -111775.503472 kJ/mol
# GULP energy per Si atom -5588.775174 kJ/mol
# Density = 2.227695 g / cm^3
# Si number density = 22.327773 Si / 1000 Ang^3
#
#
#
# Elastic Constant Matrix: (Units=GPa)
#
#
# Indices 1 2 3 4 5 6 
#
# 1 112.1373 11.9241 0.3921 0.0000 0.0000 0.0000
# 2 11.9241 32.8790 -0.1641 0.0000 0.0000 0.0000
# 3 0.3921 -0.1641 69.9960 0.0000 0.0000 0.0000
# 4 0.0000 0.0000 0.0000 -8.5199 0.0000 0.0000
# 5 0.0000 0.0000 0.0000 0.0000 18.4624 0.0000
# 6 0.0000 0.0000 0.0000 0.0000 0.0000 28.8894
#
#
#
# Elastic Compliance Matrix: (Units=1/GPa)
#
#
# Indices 1 2 3 4 5 6 
#
# 1 0.009276 -0.003364 -0.000060 0.000000 0.000000 0.000000
# 2 -0.003364 0.031635 0.000093 0.000000 0.000000 0.000000
# 3 -0.000060 0.000093 0.014287 0.000000 0.000000 0.000000
# 4 0.000000 0.000000 0.000000 -0.117372 0.000000 0.000000
# 5 0.000000 0.000000 0.000000 0.000000 0.054164 0.000000
# 6 0.000000 0.000000 0.000000 0.000000 0.000000 0.034615
#
#
# Mechanical properties :
#
#
# Convention : Reuss Voigt Hill
#
# Bulk Modulus (GPa) = 20.60345 26.59073 23.59709
# Shear Modulus (GPa) = 101.12084 21.29037 61.20561
#
# Velocity S-wave (km/s) = 6.73703 3.09129 5.24136
# Velocity P-wave (km/s) = 8.35252 4.96755 6.87172
#
# Compressibility (1/GPa) = 0.04853557
#
# Stress axis : x y z
#
# Youngs Moduli (GPa) = 107.80994 31.61049 69.99331
#
# Poissons Ratio (x) = 0.10634 0.00419
# Poissons Ratio (y) = 0.36270 -0.00651
# Poissons Ratio (z) = 0.00645 -0.00294
#
# Static dielectric constant tensor:
#      x y z
#    x 1.971130 0.000000 0.000000 
#    y 0.000000 1.841440 0.000000 
#    z 0.000000 0.000000 1.851090 
# 
# From -- ./inp_files/5399.got.cif
#   From: 2010.05.17/outbox.cif.g08.bks.cpg/sg46_3_cif.got.tgz:5399.got - 2010.06.03 19:58:25.
