data_PCOD9380600
_publ_section_title
;
Structure prediction by ZEFSAII (Michael W. Deem and Ramdas Pophale) SiO2 
 PCOD9380600
Probable space group: I M A 2
;
_chemical_formula_sum "Si O2"
_cell_formula_units_Z 56
_cell_length_a 31.265692
_cell_length_b 4.886531
_cell_length_c 14.092406
_cell_angle_alpha 90.000000
_cell_angle_beta 90.000000
_cell_angle_gamma 90.000000
_cell_volume 2153.048685
_symmetry_space_group_name_H-M "I M A 2"
_symmetry_group_IT_number 46
_symmetry_cell_setting 'orthorhombic'
loop_
_space_group_symop_operation_xyz
x,y,z
-x,-y,z
1/2-x,y,z
1/2+x,-y,z
1/2+x,1/2+y,1/2+z
1/2-x,1/2-y,1/2+z
-x,1/2+y,1/2+z
x,1/2-y,1/2+z
loop_
_atom_site_type_symbol
_atom_site_label
_atom_site_fract_x
_atom_site_fract_y
_atom_site_fract_z
Si Si1 0.297862 0.797474 0.310520
Si Si2 0.620310 0.624384 0.520047
Si Si3 0.203019 0.208449 0.949708
Si Si4 0.623878 0.187295 0.671144
Si Si5 0.460332 0.698136 0.856411
Si Si6 0.047366 0.932247 0.573671
Si Si7 0.409691 0.192526 0.813497
O O1 0.250000 0.759207 0.267981
O O2 0.300561 0.585988 0.398778
O O3 0.336758 0.779650 0.236648
O O4 0.300014 0.088877 0.360924
O O5 0.665611 0.779911 0.523766
O O6 0.631566 0.340600 0.571082
O O7 0.579262 0.809767 0.551017
O O8 0.613662 0.591451 0.407844
O O9 0.250000 0.233733 0.993507
O O10 0.616534 0.885736 0.720015
O O11 0.571813 0.240979 0.653275
O O12 0.500000 0.500000 0.831798
O O13 0.452402 0.003808 0.819974
O O14 0.419703 0.509382 0.826930
O O15 0.459312 0.713878 0.971940
O O16 0.000000 0.000000 0.606634
#
# Coordination Sequence:
#
# PCOD9380600 Si02
#       7
#     8   8   8   8   8   8   8
#     4  10  24  45  74 107 147 186 234 299 366 431
#     4  11  25  43  74 103 146 195 245 297 363 435
#     4  10  23  46  76 108 145 189 233 293 366 437
#     4  12  26  42  74 105 143 194 240 307 359 439
#     4  10  22  44  68  92 135 190 241 299 356 425
#     4  10  25  45  66 102 147 193 247 303 361 421
#     4  11  24  41  67 100 137 182 242 292 365 423
#
# _framework density 26.009630000000001
#
# number of rings (size 3 to 8) (size 9 to 14) (size 15 to 20)
#    0.000    1.429    2.857    0.429   10.000    2.286 
#    0.000    0.714    0.000    0.000    0.000    0.000 
#    0.000    0.000    0.000    0.000    0.000    0.000 
#
# Total GULP energy -155931.957096 kJ/mol
# GULP energy per Si atom -5568.998468 kJ/mol
# Density = 2.595043 g / cm^3
# Si number density = 26.009630 Si / 1000 Ang^3
#
#
#
# Elastic Constant Matrix: (Units=GPa)
#
#
# Indices 1 2 3 4 5 6 
#
# 1 208.7820 19.1288 23.1218 0.0000 0.0000 0.0000
# 2 19.1288 87.9149 27.4364 0.0000 0.0000 0.0000
# 3 23.1218 27.4364 73.6819 0.0000 0.0000 0.0000
# 4 0.0000 0.0000 0.0000 16.7705 0.0000 0.0000
# 5 0.0000 0.0000 0.0000 0.0000 33.9098 0.0000
# 6 0.0000 0.0000 0.0000 0.0000 0.0000 30.7040
#
#
#
# Elastic Compliance Matrix: (Units=1/GPa)
#
#
# Indices 1 2 3 4 5 6 
#
# 1 0.004997 -0.000677 -0.001316 0.000000 0.000000 0.000000
# 2 -0.000677 0.012962 -0.004614 0.000000 0.000000 0.000000
# 3 -0.001316 -0.004614 0.015703 0.000000 0.000000 0.000000
# 4 0.000000 0.000000 0.000000 0.059629 0.000000 0.000000
# 5 0.000000 0.000000 0.000000 0.000000 0.029490 0.000000
# 6 0.000000 0.000000 0.000000 0.000000 0.000000 0.032569
#
#
# Mechanical properties :
#
#
# Convention : Reuss Voigt Hill
#
# Bulk Modulus (GPa) = 48.90400 56.63922 52.77161
# Shear Modulus (GPa) = 28.50950 36.32298 32.41624
#
# Velocity S-wave (km/s) = 3.31435 3.74106 3.53415
# Velocity P-wave (km/s) = 5.78702 6.36272 6.08169
#
# Compressibility (1/GPa) = 0.02044823
#
# Stress axis : x y z
#
# Youngs Moduli (GPa) = 200.10216 77.14956 63.68180
#
# Poissons Ratio (x) = 0.05220 0.08382
# Poissons Ratio (y) = 0.13538 0.29384
# Poissons Ratio (z) = 0.26339 0.35598
#
# Static dielectric constant tensor:
#      x y z
#    x 2.207250 0.000000 0.000000 
#    y 0.000000 2.324940 0.000000 
#    z 0.000000 0.000000 2.157710 
# 
# From -- ./inp_files/17695.got.cif
#   From: 2010.05.17/outbox.cif.g08.bks.cpg/sg46_9_cif.got.tgz:17695.got - 2010.06.03 19:58:25.
