data_PCOD9380889
_publ_section_title
;
Structure prediction by ZEFSAII (Michael W. Deem and Ramdas Pophale) SiO2 
 PCOD9380889
Probable space group: I M A 2
;
_chemical_formula_sum "Si O2"
_cell_formula_units_Z 64
_cell_length_a 8.981655
_cell_length_b 28.293242
_cell_length_c 12.742379
_cell_angle_alpha 90.000000
_cell_angle_beta 90.000000
_cell_angle_gamma 90.000000
_cell_volume 3238.095116
_symmetry_space_group_name_H-M "I M A 2"
_symmetry_group_IT_number 46
_symmetry_cell_setting 'orthorhombic'
loop_
_space_group_symop_operation_xyz
x,y,z
-x,-y,z
1/2-x,y,z
1/2+x,-y,z
1/2+x,1/2+y,1/2+z
1/2-x,1/2-y,1/2+z
-x,1/2+y,1/2+z
x,1/2-y,1/2+z
loop_
_atom_site_type_symbol
_atom_site_label
_atom_site_fract_x
_atom_site_fract_y
_atom_site_fract_z
Si Si1 0.928863 0.092594 0.520930
Si Si2 0.072613 0.709599 0.523590
Si Si3 0.425802 0.306954 0.969993
Si Si4 0.575383 0.954179 0.085955
Si Si5 0.081966 0.566756 0.797521
Si Si6 0.917478 0.320936 0.760356
Si Si7 0.071286 0.551483 0.250574
Si Si8 0.928819 0.623105 0.416642
O O1 0.750000 0.100224 0.512297
O O2 0.971634 0.062507 0.417266
O O3 0.958664 0.066388 0.629724
O O4 0.007901 0.143511 0.512411
O O5 0.250000 0.710025 0.506731
O O6 0.044172 0.690341 0.641027
O O7 0.006050 0.761893 0.519556
O O8 0.996792 0.674596 0.439148
O O9 0.250000 0.305783 0.986458
O O10 0.466646 0.303510 0.846527
O O11 0.750000 0.960149 0.080953
O O12 0.522272 0.950878 0.205416
O O13 0.500000 0.000000 0.036113
O O14 0.535710 0.907705 0.020861
O O15 0.250000 0.547391 0.786474
O O16 0.089934 0.622956 0.777364
O O17 0.750000 0.301954 0.782258
O O18 0.250000 0.549478 0.266436
O O19 0.000000 0.500000 0.271282
O O20 0.000902 0.592520 0.323235
O O21 0.750000 0.625726 0.403947
#
# Coordination Sequence:
#
# PCOD9380889 Si02
#       8
#     8   8   8   8   8   8   8   8
#     4   9  21  42  64  88 121 162 207 256 311 374
#     4  11  22  39  64  89 119 163 210 256 312 377
#     4  11  23  37  59  92 126 162 204 258 314 371
#     4  11  23  36  55  84 118 153 190 239 295 356
#     4   9  17  35  60  85 113 146 190 241 297 357
#     4   9  19  37  60  83 113 155 196 243 301 365
#     4  11  24  43  67  92 125 170 218 268 323 383
#     4  11  24  41  61  89 124 159 205 261 314 375
#
# _framework density 19.764707000000001
#
# number of rings (size 3 to 8) (size 9 to 14) (size 15 to 20)
#    0.000    1.750    1.250    3.750    0.000    8.000 
#    0.000    2.500    0.000    0.000    0.000    0.000 
#    0.000    0.000    0.000    0.000    0.000    0.000 
#
# Total GULP energy -178704.473173 kJ/mol
# GULP energy per Si atom -5584.514787 kJ/mol
# Density = 1.971972 g / cm^3
# Si number density = 19.764707 Si / 1000 Ang^3
#
#
#
# Elastic Constant Matrix: (Units=GPa)
#
#
# Indices 1 2 3 4 5 6 
#
# 1 48.1556 18.3152 29.8685 0.0005 0.0000 0.0000
# 2 18.3152 56.9466 12.2938 0.0002 0.0000 0.0000
# 3 29.8685 12.2938 90.2534 -0.0002 0.0007 -0.0001
# 4 0.0005 0.0002 -0.0002 1.6743 -0.0003 0.0000
# 5 0.0000 0.0000 0.0007 -0.0003 18.6641 0.0000
# 6 0.0000 0.0000 -0.0001 0.0000 0.0000 33.8811
#
#
#
# Elastic Compliance Matrix: (Units=1/GPa)
#
#
# Indices 1 2 3 4 5 6 
#
# 1 0.028903 -0.007450 -0.008550 -0.000010 0.000000 0.000000
# 2 -0.007450 0.020013 -0.000261 0.000000 0.000000 0.000000
# 3 -0.008550 -0.000261 0.013945 0.000005 0.000000 0.000000
# 4 -0.000010 0.000000 0.000005 0.597274 0.000010 0.000000
# 5 0.000000 0.000000 0.000000 0.000010 0.053579 0.000000
# 6 0.000000 0.000000 0.000000 0.000000 0.000000 0.029515
#
#
# Mechanical properties :
#
#
# Convention : Reuss Voigt Hill
#
# Bulk Modulus (GPa) = 32.96088 35.14560 34.05324
# Shear Modulus (GPa) = 6.36244 19.83578 13.09911
#
# Velocity S-wave (km/s) = 1.79613 3.17140 2.57719
# Velocity P-wave (km/s) = 4.58413 5.58846 5.11103
#
# Compressibility (1/GPa) = 0.03033900
#
# Stress axis : x y z
#
# Youngs Moduli (GPa) = 34.59876 49.96855 71.71002
#
# Poissons Ratio (x) = 0.37226 0.61314
# Poissons Ratio (y) = 0.25776 0.01868
# Poissons Ratio (z) = 0.29583 0.01302
#
# Static dielectric constant tensor:
#      x y z
#    x 1.672600 0.000000 0.000000 
#    y 0.000000 1.783660 0.000000 
#    z 0.000000 0.000000 1.707120 
# 
# From -- ./inp_files/9671.got.cif
#   From: 2010.05.17/outbox.cif.g08.bks.cpg/sg46_5_cif.got.tgz:9671.got - 2010.06.03 19:58:25.
