data_PCOD9380233
_publ_section_title
;
Structure prediction by ZEFSAII (Michael W. Deem and Ramdas Pophale) SiO2 
 PCOD9380233
Probable space group: I M A 2
;
_chemical_formula_sum "Si O2"
_cell_formula_units_Z 40
_cell_length_a 13.447493
_cell_length_b 16.793508
_cell_length_c 9.081772
_cell_angle_alpha 90.000000
_cell_angle_beta 90.000000
_cell_angle_gamma 90.000000
_cell_volume 2050.941850
_symmetry_space_group_name_H-M "I M A 2"
_symmetry_group_IT_number 46
_symmetry_cell_setting 'orthorhombic'
loop_
_space_group_symop_operation_xyz
x,y,z
-x,-y,z
1/2-x,y,z
1/2+x,-y,z
1/2+x,1/2+y,1/2+z
1/2-x,1/2-y,1/2+z
-x,1/2+y,1/2+z
x,1/2-y,1/2+z
loop_
_atom_site_type_symbol
_atom_site_label
_atom_site_fract_x
_atom_site_fract_y
_atom_site_fract_z
Si Si1 0.041998 0.727177 0.320850
Si Si2 0.133055 0.972120 0.313826
Si Si3 0.133466 0.151861 0.376978
Si Si4 0.636326 0.338892 0.607854
Si Si5 0.509041 0.086466 0.600952
O O1 0.066923 0.699037 0.484623
O O2 0.123999 0.786663 0.255333
O O3 0.046781 0.651190 0.214568
O O4 0.939098 0.777931 0.321826
O O5 0.250000 0.959504 0.341755
O O6 0.107155 0.925983 0.164878
O O7 0.075284 0.934878 0.455018
O O8 0.119272 0.066852 0.294753
O O9 0.250000 0.172633 0.375640
O O10 0.092573 0.124636 0.537231
O O11 0.750000 0.338785 0.556223
O O12 0.500000 0.000000 0.674051
#
# Coordination Sequence:
#
# PCOD9380233 Si02
#       5
#     8   8   8   8   8
#     4  12  22  39  59  92 123 157 202 248 308 357
#     4   9  19  39  66  90 117 158 204 249 303 365
#     4  10  21  39  65  89 118 162 207 246 296 364
#     4  11  22  37  61  93 124 154 198 253 310 363
#     4  10  21  40  60  86 118 162 203 249 299 360
#
# _framework density 19.503236000000001
#
# number of rings (size 3 to 8) (size 9 to 14) (size 15 to 20)
#    0.000    1.600    4.000    0.600    0.000    4.000 
#    3.600    0.000    0.000    0.000    0.000    0.000 
#    0.000    0.000    0.000    0.000    0.000    0.000 
#
# Total GULP energy -111437.379368 kJ/mol
# GULP energy per Si atom -5571.868968 kJ/mol
# Density = 1.945885 g / cm^3
# Si number density = 19.503236 Si / 1000 Ang^3
#
#
#
# Elastic Constant Matrix: (Units=GPa)
#
#
# Indices 1 2 3 4 5 6 
#
# 1 113.2859 32.9797 26.8219 0.0000 0.0000 0.0000
# 2 32.9797 99.6913 32.2085 0.0000 0.0000 0.0000
# 3 26.8219 32.2085 52.3574 0.0000 0.0000 0.0000
# 4 0.0000 0.0000 0.0000 30.5024 0.0000 0.0000
# 5 0.0000 0.0000 0.0000 0.0000 12.6216 0.0000
# 6 0.0000 0.0000 0.0000 0.0000 0.0000 28.0409
#
#
#
# Elastic Compliance Matrix: (Units=1/GPa)
#
#
# Indices 1 2 3 4 5 6 
#
# 1 0.010401 -0.002146 -0.004008 0.000000 0.000000 0.000000
# 2 -0.002146 0.012962 -0.006874 0.000000 0.000000 0.000000
# 3 -0.004008 -0.006874 0.025382 0.000000 0.000000 0.000000
# 4 0.000000 0.000000 0.000000 0.032784 0.000000 0.000000
# 5 0.000000 0.000000 0.000000 0.000000 0.079229 0.000000
# 6 0.000000 0.000000 0.000000 0.000000 0.000000 0.035662
#
#
# Mechanical properties :
#
#
# Convention : Reuss Voigt Hill
#
# Bulk Modulus (GPa) = 44.07689 49.92833 47.00261
# Shear Modulus (GPa) = 21.73536 25.78792 23.76164
#
# Velocity S-wave (km/s) = 3.34196 3.64020 3.49426
# Velocity P-wave (km/s) = 6.12702 6.58208 6.35862
#
# Compressibility (1/GPa) = 0.02268763
#
# Stress axis : x y z
#
# Youngs Moduli (GPa) = 96.14542 77.14946 39.39833
#
# Poissons Ratio (x) = 0.16555 0.15792
# Poissons Ratio (y) = 0.20631 0.27084
# Poissons Ratio (z) = 0.38537 0.53036
#
# Static dielectric constant tensor:
#      x y z
#    x 1.711830 0.000000 0.000000 
#    y 0.000000 1.748180 0.000000 
#    z 0.000000 0.000000 1.674940 
# 
# From -- ./inp_files/5552.got.cif
#   From: 2010.05.17/outbox.cif.g08.bks.cpg/sg46_3_cif.got.tgz:5552.got - 2010.06.03 19:58:25.
