data_PCOD9380304
_publ_section_title
;
Structure prediction by ZEFSAII (Michael W. Deem and Ramdas Pophale) SiO2 
 PCOD9380304
Probable space group: I M A 2
;
_chemical_formula_sum "Si O2"
_cell_formula_units_Z 32
_cell_length_a 18.680430
_cell_length_b 10.752089
_cell_length_c 7.625117
_cell_angle_alpha 90.000000
_cell_angle_beta 90.000000
_cell_angle_gamma 90.000000
_cell_volume 1531.532550
_symmetry_space_group_name_H-M "I M A 2"
_symmetry_group_IT_number 46
_symmetry_cell_setting 'orthorhombic'
loop_
_space_group_symop_operation_xyz
x,y,z
-x,-y,z
1/2-x,y,z
1/2+x,-y,z
1/2+x,1/2+y,1/2+z
1/2-x,1/2-y,1/2+z
-x,1/2+y,1/2+z
x,1/2-y,1/2+z
loop_
_atom_site_type_symbol
_atom_site_label
_atom_site_fract_x
_atom_site_fract_y
_atom_site_fract_z
Si Si1 0.952236 0.888432 0.173770
Si Si2 0.333896 0.677793 0.191146
Si Si3 0.832284 0.050878 0.311052
Si Si4 0.987240 0.374127 0.292839
O O1 0.982858 0.754190 0.219115
O O2 0.876311 0.932001 0.246137
O O3 0.964527 0.893682 0.965715
O O4 0.000000 0.000000 0.250233
O O5 0.250000 0.654439 0.244658
O O6 0.340880 0.827991 0.185593
O O7 0.401375 0.638178 0.310654
O O8 0.346633 0.608834 0.005200
O O9 0.750000 0.015423 0.311322
O O10 0.000000 0.500000 0.183031
#
# Coordination Sequence:
#
# PCOD9380304 Si02
#       4
#     8   8   8   8
#     4  11  24  41  63  94 132 171 223 278 331 397
#     4  10  21  40  69 100 131 172 224 276 332 398
#     4  10  22  40  67 101 136 177 224 281 338 398
#     4  11  25  40  63 100 129 175 223 269 342 393
#
# _framework density 20.894105
#
# number of rings (size 3 to 8) (size 9 to 14) (size 15 to 20)
#    0.000    1.500    2.500    1.500    7.000    0.000 
#    0.000    2.500    0.000    0.000    0.000    0.000 
#    0.000    0.000    0.000    0.000    0.000    0.000 
#
# Total GULP energy -89107.007746 kJ/mol
# GULP energy per Si atom -5569.187984 kJ/mol
# Density = 2.084655 g / cm^3
# Si number density = 20.894105 Si / 1000 Ang^3
#
#
#
# Elastic Constant Matrix: (Units=GPa)
#
#
# Indices 1 2 3 4 5 6 
#
# 1 128.2202 44.7107 33.6974 0.0000 0.0000 0.0000
# 2 44.7107 142.6271 7.6934 0.0000 0.0000 0.0000
# 3 33.6974 7.6934 56.5690 0.0000 0.0000 0.0000
# 4 0.0000 0.0000 0.0000 26.8927 0.0000 0.0000
# 5 0.0000 0.0000 0.0000 0.0000 29.5723 0.0000
# 6 0.0000 0.0000 0.0000 0.0000 0.0000 43.4764
#
#
#
# Elastic Compliance Matrix: (Units=1/GPa)
#
#
# Indices 1 2 3 4 5 6 
#
# 1 0.010333 -0.002929 -0.005757 0.000000 0.000000 0.000000
# 2 -0.002929 0.007893 0.000671 0.000000 0.000000 0.000000
# 3 -0.005757 0.000671 0.021016 0.000000 0.000000 0.000000
# 4 0.000000 0.000000 0.000000 0.037185 0.000000 0.000000
# 5 0.000000 0.000000 0.000000 0.000000 0.033815 0.000000
# 6 0.000000 0.000000 0.000000 0.000000 0.000000 0.023001
#
#
# Mechanical properties :
#
#
# Convention : Reuss Voigt Hill
#
# Bulk Modulus (GPa) = 43.07976 55.51326 49.29651
# Shear Modulus (GPa) = 31.84499 36.07594 33.96046
#
# Velocity S-wave (km/s) = 3.90823 4.15976 4.03595
# Velocity P-wave (km/s) = 6.40535 7.04968 6.73522
#
# Compressibility (1/GPa) = 0.02321275
#
# Stress axis : x y z
#
# Youngs Moduli (GPa) = 96.77379 126.69134 47.58351
#
# Poissons Ratio (x) = 0.37105 0.27394
# Poissons Ratio (y) = 0.28343 -0.03194
# Poissons Ratio (z) = 0.55714 -0.08503
#
# Static dielectric constant tensor:
#      x y z
#    x 1.764780 0.000000 0.000000 
#    y 0.000000 1.817830 0.000000 
#    z 0.000000 0.000000 1.823870 
# 
# From -- ./inp_files/5217.got.cif
#   From: 2010.05.17/outbox.cif.g08.bks.cpg/sg46_3_cif.got.tgz:5217.got - 2010.06.03 19:58:25.
