data_PCOD9380358
_publ_section_title
;
Structure prediction by ZEFSAII (Michael W. Deem and Ramdas Pophale) SiO2 
 PCOD9380358
Probable space group: I M A 2
;
_chemical_formula_sum "Si O2"
_cell_formula_units_Z 60
_cell_length_a 15.923148
_cell_length_b 9.322604
_cell_length_c 17.963200
_cell_angle_alpha 90.000000
_cell_angle_beta 90.000000
_cell_angle_gamma 90.000000
_cell_volume 2666.550875
_symmetry_space_group_name_H-M "I M A 2"
_symmetry_group_IT_number 46
_symmetry_cell_setting 'orthorhombic'
loop_
_space_group_symop_operation_xyz
x,y,z
-x,-y,z
1/2-x,y,z
1/2+x,-y,z
1/2+x,1/2+y,1/2+z
1/2-x,1/2-y,1/2+z
-x,1/2+y,1/2+z
x,1/2-y,1/2+z
loop_
_atom_site_type_symbol
_atom_site_label
_atom_site_fract_x
_atom_site_fract_y
_atom_site_fract_z
Si Si1 0.500000 0.000000 0.010070
Si Si2 0.849719 0.882799 0.363055
Si Si3 0.402173 0.037410 0.201787
Si Si4 0.410337 0.786591 0.110823
Si Si5 0.092031 0.934405 0.745864
Si Si6 0.149628 0.450077 0.394317
Si Si7 0.648616 0.028034 0.510728
Si Si8 0.654213 0.668641 0.138532
O O1 0.483447 0.864317 0.063477
O O2 0.583896 0.981966 0.960393
O O3 0.750000 0.877569 0.371940
O O4 0.867935 0.956361 0.284838
O O5 0.873922 0.713466 0.367346
O O6 0.883379 0.983253 0.429644
O O7 0.390039 0.194934 0.170716
O O8 0.500000 0.000000 0.207410
O O9 0.361351 0.924214 0.144572
O O10 0.421123 0.696367 0.187937
O O11 0.372578 0.677043 0.050676
O O12 0.131939 0.934170 0.828229
O O13 0.149827 0.045063 0.700344
O O14 0.000000 0.000000 0.756178
O O15 0.250000 0.452508 0.412806
O O16 0.750000 0.021241 0.510642
O O17 0.615677 0.903626 0.565769
O O18 0.750000 0.708346 0.122835
#
# Coordination Sequence:
#
# PCOD9380358 Si02
#       8
#     4   8   8   8   8   8   8   8
#     4  12  28  48  72 112 162 204 254 318 404 476
#     4  10  23  44  72 103 138 185 249 312 374 454
#     4  12  24  40  64 101 143 185 235 302 368 453
#     4  11  27  43  68 103 155 197 245 313 379 468
#     4  11  22  43  75 108 143 192 250 314 381 450
#     4  11  25  47  77 111 150 201 261 322 390 474
#     4   9  22  45  72 105 142 188 249 311 379 451
#     4  10  21  42  72 101 138 190 249 308 372 458
#
# _framework density 22.500976999999999
#
# number of rings (size 3 to 8) (size 9 to 14) (size 15 to 20)
#    0.000    1.333    2.667    1.600    1.867    5.333 
#    0.000    2.000    0.000    0.000    0.000    0.000 
#    0.000    0.000    0.000    0.000    0.000    0.000 
#
# Total GULP energy -167391.227020 kJ/mol
# GULP energy per Si atom -5579.707567 kJ/mol
# Density = 2.244976 g / cm^3
# Si number density = 22.500977 Si / 1000 Ang^3
#
#
#
# Elastic Constant Matrix: (Units=GPa)
#
#
# Indices 1 2 3 4 5 6 
#
# 1 64.4693 27.3868 30.4949 0.0000 0.0000 0.0000
# 2 27.3868 115.7088 63.6088 0.0000 0.0000 0.0000
# 3 30.4949 63.6088 178.6684 0.0000 0.0000 0.0000
# 4 0.0000 0.0000 0.0000 30.5624 0.0000 0.0000
# 5 0.0000 0.0000 0.0000 0.0000 28.6171 0.0000
# 6 0.0000 0.0000 0.0000 0.0000 0.0000 27.4774
#
#
#
# Elastic Compliance Matrix: (Units=1/GPa)
#
#
# Indices 1 2 3 4 5 6 
#
# 1 0.017753 -0.003153 -0.001907 0.000000 0.000000 0.000000
# 2 -0.003153 0.011306 -0.003487 0.000000 0.000000 0.000000
# 3 -0.001907 -0.003487 0.007164 0.000000 0.000000 0.000000
# 4 0.000000 0.000000 0.000000 0.032720 0.000000 0.000000
# 5 0.000000 0.000000 0.000000 0.000000 0.034944 0.000000
# 6 0.000000 0.000000 0.000000 0.000000 0.000000 0.036394
#
#
# Mechanical properties :
#
#
# Convention : Reuss Voigt Hill
#
# Bulk Modulus (GPa) = 52.28101 66.86970 59.57535
# Shear Modulus (GPa) = 30.53420 33.15512 31.84466
#
# Velocity S-wave (km/s) = 3.68777 3.84278 3.76607
# Velocity P-wave (km/s) = 6.43570 7.03366 6.74131
#
# Compressibility (1/GPa) = 0.01912741
#
# Stress axis : x y z
#
# Youngs Moduli (GPa) = 56.32834 88.45246 139.58972
#
# Poissons Ratio (x) = 0.27892 0.26626
# Poissons Ratio (y) = 0.17762 0.48671
# Poissons Ratio (z) = 0.10744 0.30841
#
# Static dielectric constant tensor:
#      x y z
#    x 1.868370 0.000000 0.000000 
#    y 0.000000 1.844570 0.000000 
#    z 0.000000 0.000000 1.880880 
# 
# From -- ./inp_files/19977.got.cif
#   From: 2010.05.17/outbox.cif.g08.bks.cpg/sg46_10_cif.got.tgz:19977.got - 2010.06.03 19:58:25.
