data_PCOD9380770
_publ_section_title
;
Structure prediction by ZEFSAII (Michael W. Deem and Ramdas Pophale) SiO2 
 PCOD9380770
Probable space group: I M A 2
;
_chemical_formula_sum "Si O2"
_cell_formula_units_Z 40
_cell_length_a 22.790110
_cell_length_b 9.519558
_cell_length_c 8.465702
_cell_angle_alpha 90.000000
_cell_angle_beta 90.000000
_cell_angle_gamma 90.000000
_cell_volume 1836.649067
_symmetry_space_group_name_H-M "I M A 2"
_symmetry_group_IT_number 46
_symmetry_cell_setting 'orthorhombic'
loop_
_space_group_symop_operation_xyz
x,y,z
-x,-y,z
1/2-x,y,z
1/2+x,-y,z
1/2+x,1/2+y,1/2+z
1/2-x,1/2-y,1/2+z
-x,1/2+y,1/2+z
x,1/2-y,1/2+z
loop_
_atom_site_type_symbol
_atom_site_label
_atom_site_fract_x
_atom_site_fract_y
_atom_site_fract_z
Si Si1 0.750000 0.184852 0.587831
Si Si2 0.159438 0.035555 0.483902
Si Si3 0.485210 0.349177 0.283696
Si Si4 0.653849 0.812214 0.814854
Si Si5 0.750000 0.026804 0.927328
Si Si6 0.036581 0.889711 0.441768
O O1 0.750000 0.125008 0.767724
O O2 0.750000 0.352907 0.563267
O O3 0.802830 0.104455 0.500885
O O4 0.166816 0.131978 0.639345
O O5 0.171016 0.150141 0.347495
O O6 0.095308 0.968673 0.480878
O O7 0.500000 0.500000 0.351182
O O8 0.417762 0.314888 0.328126
O O9 0.537020 0.250705 0.345723
O O10 0.497179 0.355512 0.095984
O O11 0.692945 0.922547 0.918805
O O12 0.000000 0.000000 0.337833
#
# Coordination Sequence:
#
# PCOD9380770 Si02
#       6
#     4   8   8   8   4   8
#     4  10  25  42  64  92 122 160 201 260 302 354
#     4  11  23  42  64  89 125 160 206 252 300 361
#     4  11  22  39  61  89 127 159 201 249 302 357
#     4  11  21  42  63  88 122 163 200 253 299 364
#     4  10  25  42  64  90 124 158 207 250 308 356
#     4  11  22  40  60  91 125 156 204 249 300 360
#
# _framework density 21.778793
#
# number of rings (size 3 to 8) (size 9 to 14) (size 15 to 20)
#    0.000    1.200    6.000    0.600    2.800    2.400 
#    3.600    0.000    0.000    0.000    0.000    0.000 
#    0.000    0.000    0.000    0.000    0.000    0.000 
#
# Total GULP energy -111357.964898 kJ/mol
# GULP energy per Si atom -5567.898245 kJ/mol
# Density = 2.172922 g / cm^3
# Si number density = 21.778793 Si / 1000 Ang^3
#
#
#
# Elastic Constant Matrix: (Units=GPa)
#
#
# Indices 1 2 3 4 5 6 
#
# 1 78.1444 6.9590 7.4882 0.0000 0.0000 0.0000
# 2 6.9590 110.7356 21.8892 0.0000 0.0000 0.0000
# 3 7.4882 21.8892 24.3847 0.0000 0.0000 0.0000
# 4 0.0000 0.0000 0.0000 28.6780 0.0000 0.0000
# 5 0.0000 0.0000 0.0000 0.0000 -1.2699 0.0000
# 6 0.0000 0.0000 0.0000 0.0000 0.0000 25.6516
#
#
#
# Elastic Compliance Matrix: (Units=1/GPa)
#
#
# Indices 1 2 3 4 5 6 
#
# 1 0.013185 -0.000034 -0.004018 0.000000 0.000000 0.000000
# 2 -0.000034 0.010979 -0.009845 0.000000 0.000000 0.000000
# 3 -0.004018 -0.009845 0.051080 0.000000 0.000000 0.000000
# 4 0.000000 0.000000 0.000000 0.034870 0.000000 0.000000
# 5 0.000000 0.000000 0.000000 0.000000 -0.787483 0.000000
# 6 0.000000 0.000000 0.000000 0.000000 0.000000 0.038984
#
#
# Mechanical properties :
#
#
# Convention : Reuss Voigt Hill
#
# Bulk Modulus (GPa) = 21.07485 31.77082 26.42284
# Shear Modulus (GPa) = -8.40654 22.40716 7.00031
#
# Velocity S-wave (km/s) = -1.96681 3.21105 1.79479
# Velocity P-wave (km/s) = 2.13073 5.32611 4.05632
#
# Compressibility (1/GPa) = 0.04744992
#
# Stress axis : x y z
#
# Youngs Moduli (GPa) = 75.84426 91.08580 19.57703
#
# Poissons Ratio (x) = 0.00313 0.07866
# Poissons Ratio (y) = 0.00260 0.19273
# Poissons Ratio (z) = 0.30475 0.89670
#
# Static dielectric constant tensor:
#      x y z
#    x 1.989280 0.000000 0.000000 
#    y 0.000000 1.815240 0.000000 
#    z 0.000000 0.000000 1.828040 
# 
# From -- ./inp_files/7748.got.cif
#   From: 2010.05.17/outbox.cif.g08.bks.cpg/sg46_4_cif.got.tgz:7748.got - 2010.06.03 19:58:25.
