data_PCOD9380070
_publ_section_title
;
Structure prediction by ZEFSAII (Michael W. Deem and Ramdas Pophale) SiO2 
 PCOD9380070
Probable space group: I M A 2
;
_chemical_formula_sum "Si O2"
_cell_formula_units_Z 56
_cell_length_a 13.193288
_cell_length_b 12.017647
_cell_length_c 15.244671
_cell_angle_alpha 90.000000
_cell_angle_beta 90.000000
_cell_angle_gamma 90.000000
_cell_volume 2417.077314
_symmetry_space_group_name_H-M "I M A 2"
_symmetry_group_IT_number 46
_symmetry_cell_setting 'orthorhombic'
loop_
_space_group_symop_operation_xyz
x,y,z
-x,-y,z
1/2-x,y,z
1/2+x,-y,z
1/2+x,1/2+y,1/2+z
1/2-x,1/2-y,1/2+z
-x,1/2+y,1/2+z
x,1/2-y,1/2+z
loop_
_atom_site_type_symbol
_atom_site_label
_atom_site_fract_x
_atom_site_fract_y
_atom_site_fract_z
Si Si1 0.420169 0.151406 0.539170
Si Si2 0.080965 0.167826 0.900445
Si Si3 0.365968 0.572736 0.450137
Si Si4 0.134542 0.592770 0.978267
Si Si5 0.863702 0.521922 0.640472
Si Si6 0.438530 0.250577 0.214830
Si Si7 0.361964 0.674915 0.780010
O O1 0.386051 0.257058 0.482406
O O2 0.378565 0.039070 0.495657
O O3 0.397813 0.165854 0.641503
O O4 0.543030 0.147189 0.532108
O O5 0.107695 0.230870 0.810772
O O6 0.959151 0.145242 0.913402
O O7 0.129012 0.046073 0.901911
O O8 0.250000 0.616498 0.446841
O O9 0.392030 0.541100 0.550998
O O10 0.250000 0.624557 0.000724
O O11 0.115207 0.626542 0.876957
O O12 0.750000 0.563970 0.624517
O O13 0.924427 0.628216 0.673863
O O14 0.861228 0.432475 0.717533
O O15 0.557386 0.257897 0.237843
O O16 0.250000 0.724583 0.781652
#
# Coordination Sequence:
#
# PCOD9380070 Si02
#       7
#     8   8   8   8   8   8   8
#     4  11  23  40  63  95 124 167 208 257 319 368
#     4  11  23  40  63  95 124 167 208 257 319 368
#     4  10  23  42  62  88 129 169 207 256 313 375
#     4  10  23  42  62  88 129 169 207 256 313 375
#     4  10  21  37  61  91 119 160 212 264 312 360
#     4  12  23  37  66  92 126 160 210 262 308 376
#     4  10  21  37  61  91 119 160 212 264 312 360
#
# _framework density 23.168476999999999
#
# number of rings (size 3 to 8) (size 9 to 14) (size 15 to 20)
#    0.000    1.429    2.857    2.143    4.000    5.714 
#    0.000    1.429    0.000    0.000    0.000    0.000 
#    0.000    0.000    0.000    0.000    0.000    0.000 
#
# Total GULP energy -156506.897255 kJ/mol
# GULP energy per Si atom -5589.532045 kJ/mol
# Density = 2.311574 g / cm^3
# Si number density = 23.168477 Si / 1000 Ang^3
#
#
#
# Elastic Constant Matrix: (Units=GPa)
#
#
# Indices 1 2 3 4 5 6 
#
# 1 89.2023 -1.0826 16.5557 0.0000 0.0000 0.0000
# 2 -1.0826 74.0105 18.8614 0.0000 0.0000 0.0000
# 3 16.5557 18.8614 139.9957 0.0000 0.0000 0.0000
# 4 0.0000 0.0000 0.0000 35.3094 0.0000 0.0000
# 5 0.0000 0.0000 0.0000 0.0000 14.0623 0.0000
# 6 0.0000 0.0000 0.0000 0.0000 0.0000 8.6858
#
#
#
# Elastic Compliance Matrix: (Units=1/GPa)
#
#
# Indices 1 2 3 4 5 6 
#
# 1 0.011482 0.000532 -0.001430 0.000000 0.000000 0.000000
# 2 0.000532 0.014017 -0.001951 0.000000 0.000000 0.000000
# 3 -0.001430 -0.001951 0.007575 0.000000 0.000000 0.000000
# 4 0.000000 0.000000 0.000000 0.028321 0.000000 0.000000
# 5 0.000000 0.000000 0.000000 0.000000 0.071112 0.000000
# 6 0.000000 0.000000 0.000000 0.000000 0.000000 0.115130
#
#
# Mechanical properties :
#
#
# Convention : Reuss Voigt Hill
#
# Bulk Modulus (GPa) = 36.52756 41.31974 38.92365
# Shear Modulus (GPa) = 19.05050 29.53643 24.29347
#
# Velocity S-wave (km/s) = 2.87062 3.57438 3.24166
# Velocity P-wave (km/s) = 5.17567 5.90831 5.55408
#
# Compressibility (1/GPa) = 0.02737659
#
# Stress axis : x y z
#
# Youngs Moduli (GPa) = 87.09091 71.34347 132.01240
#
# Poissons Ratio (x) = -0.03797 0.18872
# Poissons Ratio (y) = -0.04636 0.25761
# Poissons Ratio (z) = 0.12450 0.13922
#
# Static dielectric constant tensor:
#      x y z
#    x 1.937760 0.000000 0.000000 
#    y 0.000000 1.840760 0.000000 
#    z 0.000000 0.000000 1.830520 
# 
# From -- ./inp_files/15949.got.cif
#   From: 2010.05.17/outbox.cif.g08.bks.cpg/sg46_8_cif.got.tgz:15949.got - 2010.06.03 19:58:25.
