data_PCOD9380376
_publ_section_title
;
Structure prediction by ZEFSAII (Michael W. Deem and Ramdas Pophale) SiO2 
 PCOD9380376
Probable space group: I M A 2
;
_chemical_formula_sum "Si O2"
_cell_formula_units_Z 40
_cell_length_a 18.630561
_cell_length_b 9.689687
_cell_length_c 7.614071
_cell_angle_alpha 90.000000
_cell_angle_beta 90.000000
_cell_angle_gamma 90.000000
_cell_volume 1374.524873
_symmetry_space_group_name_H-M "I M A 2"
_symmetry_group_IT_number 46
_symmetry_cell_setting 'orthorhombic'
loop_
_space_group_symop_operation_xyz
x,y,z
-x,-y,z
1/2-x,y,z
1/2+x,-y,z
1/2+x,1/2+y,1/2+z
1/2-x,1/2-y,1/2+z
-x,1/2+y,1/2+z
x,1/2-y,1/2+z
loop_
_atom_site_type_symbol
_atom_site_label
_atom_site_fract_x
_atom_site_fract_y
_atom_site_fract_z
Si Si1 0.500000 0.500000 0.663481
Si Si2 0.145600 0.469103 0.464977
Si Si3 0.146775 0.198870 0.604341
Si Si4 0.987375 0.148809 0.516446
Si Si5 0.750000 0.496122 0.884128
Si Si6 0.828128 0.220257 0.471924
O O1 0.433005 0.501177 0.536116
O O2 0.510026 0.376946 0.805714
O O3 0.176871 0.355192 0.601125
O O4 0.184921 0.615128 0.808544
O O5 0.176628 0.620172 0.429243
O O6 0.187139 0.097261 0.471672
O O7 0.063129 0.219206 0.554006
O O8 0.150611 0.120608 0.788097
O O9 0.905458 0.190555 0.554297
O O10 0.000000 0.000000 0.604113
O O11 0.750000 0.163255 0.551564
#
# Coordination Sequence:
#
# PCOD9380376 Si02
#       6
#     4   8   8   8   4   8
#     4  10  24  46  78 120 150 210 260 340 390 480
#     4  12  28  47  75 117 159 209 274 322 398 477
#     4  12  27  48  79 113 161 220 262 330 398 481
#     4  10  21  49  81 117 154 205 262 329 412 469
#     4  10  24  46  78 108 156 206 264 324 422 466
#     4  10  24  49  78 119 153 203 261 335 399 482
#
# _framework density 29.100964999999999
#
# number of rings (size 3 to 8) (size 9 to 14) (size 15 to 20)
#    1.200    0.000    2.000    2.400    4.200    1.600 
#    0.000    0.000    2.200    0.000    0.000    0.000 
#    0.000    0.000    0.000    0.000    0.000    0.000 
#
# Total GULP energy -111386.410801 kJ/mol
# GULP energy per Si atom -5569.320540 kJ/mol
# Density = 2.903473 g / cm^3
# Si number density = 29.100965 Si / 1000 Ang^3
#
#
#
# Elastic Constant Matrix: (Units=GPa)
#
#
# Indices 1 2 3 4 5 6 
#
# 1 284.5294 59.5093 26.0336 0.0000 0.0000 0.0000
# 2 59.5093 235.6174 10.0928 0.0000 0.0000 0.0000
# 3 26.0336 10.0928 135.8449 0.0000 0.0000 0.0000
# 4 0.0000 0.0000 0.0000 27.6088 0.0000 0.0000
# 5 0.0000 0.0000 0.0000 0.0000 -18.5125 0.0000
# 6 0.0000 0.0000 0.0000 0.0000 0.0000 -2.6215
#
#
#
# Elastic Compliance Matrix: (Units=1/GPa)
#
#
# Indices 1 2 3 4 5 6 
#
# 1 0.003768 -0.000924 -0.000653 0.000000 0.000000 0.000000
# 2 -0.000924 0.004484 -0.000156 0.000000 0.000000 0.000000
# 3 -0.000653 -0.000156 0.007498 0.000000 0.000000 0.000000
# 4 0.000000 0.000000 0.000000 0.036220 0.000000 0.000000
# 5 0.000000 0.000000 0.000000 0.000000 -0.054017 0.000000
# 6 0.000000 0.000000 0.000000 0.000000 0.000000 -0.381456
#
#
# Mechanical properties :
#
#
# Convention : Reuss Voigt Hill
#
# Bulk Modulus (GPa) = 81.40969 94.14036 87.77503
# Shear Modulus (GPa) = -13.29992 38.65201 12.67604
#
# Velocity S-wave (km/s) = -2.14014 3.64841 2.08934
# Velocity P-wave (km/s) = 4.68281 7.08291 6.00401
#
# Compressibility (1/GPa) = 0.01228355
#
# Stress axis : x y z
#
# Youngs Moduli (GPa) = 265.42642 223.00915 133.36615
#
# Poissons Ratio (x) = 0.20596 0.08714
# Poissons Ratio (y) = 0.24514 0.02083
# Poissons Ratio (z) = 0.17343 0.03483
#
# Static dielectric constant tensor:
#      x y z
#    x 2.221130 0.000000 0.000000 
#    y 0.000000 2.618430 0.000000 
#    z 0.000000 0.000000 2.827240 
# 
# From -- ./inp_files/12304.got.cif
#   From: 2010.05.17/outbox.cif.g08.bks.cpg/sg46_7_cif.got.tgz:12304.got - 2010.06.03 19:58:25.
