data_PCOD9380574
_publ_section_title
;
Structure prediction by ZEFSAII (Michael W. Deem and Ramdas Pophale) SiO2 
 PCOD9380574
Probable space group: I M A 2
;
_chemical_formula_sum "Si O2"
_cell_formula_units_Z 64
_cell_length_a 19.338016
_cell_length_b 9.440587
_cell_length_c 17.932194
_cell_angle_alpha 90.000000
_cell_angle_beta 90.000000
_cell_angle_gamma 90.000000
_cell_volume 3273.741190
_symmetry_space_group_name_H-M "I M A 2"
_symmetry_group_IT_number 46
_symmetry_cell_setting 'orthorhombic'
loop_
_space_group_symop_operation_xyz
x,y,z
-x,-y,z
1/2-x,y,z
1/2+x,-y,z
1/2+x,1/2+y,1/2+z
1/2-x,1/2-y,1/2+z
-x,1/2+y,1/2+z
x,1/2-y,1/2+z
loop_
_atom_site_type_symbol
_atom_site_label
_atom_site_fract_x
_atom_site_fract_y
_atom_site_fract_z
Si Si1 0.446488 0.748710 0.276990
Si Si2 0.914200 0.695811 0.871192
Si Si3 0.429629 0.836680 0.606073
Si Si4 0.077379 0.980058 0.897084
Si Si5 0.672747 0.870315 0.114016
Si Si6 0.327233 0.653681 0.517516
Si Si7 0.930638 0.649556 0.041837
Si Si8 0.667761 0.007005 0.272424
O O1 0.517072 0.805906 0.317478
O O2 0.449158 0.708041 0.189826
O O3 0.430902 0.603237 0.320025
O O4 0.383710 0.860631 0.284751
O O5 0.895868 0.860979 0.884528
O O6 0.852874 0.609354 0.833300
O O7 0.925845 0.629643 0.953120
O O8 0.361268 0.762948 0.574963
O O9 0.493930 0.786170 0.556369
O O10 0.424618 0.003626 0.588233
O O11 0.000000 0.000000 0.929642
O O12 0.124246 0.880071 0.947777
O O13 0.750000 0.811496 0.124168
O O14 0.624531 0.756180 0.075715
O O15 0.676001 0.004860 0.060203
O O16 0.649824 0.933157 0.193357
O O17 0.250000 0.697701 0.495515
O O18 0.750000 0.041864 0.272400
#
# Coordination Sequence:
#
# PCOD9380574 Si02
#       8
#     8   8   8   8   8   8   8   8
#     4  11  24  42  65  94 132 169 213 268 325 386
#     4  11  24  42  66  95 131 168 213 268 325 383
#     4  11  25  40  66  97 130 167 216 270 329 384
#     4  10  23  41  67  94 129 165 215 266 322 386
#     4  10  22  43  65  90 124 168 216 266 320 390
#     4  11  23  43  66  93 127 169 214 265 325 392
#     4  11  25  41  67  97 130 165 219 271 330 387
#     4  11  25  43  65  93 130 171 219 264 321 393
#
# _framework density 19.549499000000001
#
# number of rings (size 3 to 8) (size 9 to 14) (size 15 to 20)
#    0.000    1.250    2.500    2.625   12.250    2.000 
#    0.000    0.000    0.000    0.000    0.000    0.000 
#    0.000    0.000    0.000    0.000    0.000    0.000 
#
# Total GULP energy -178620.368889 kJ/mol
# GULP energy per Si atom -5581.886528 kJ/mol
# Density = 1.950500 g / cm^3
# Si number density = 19.549499 Si / 1000 Ang^3
#
#
#
# Elastic Constant Matrix: (Units=GPa)
#
#
# Indices 1 2 3 4 5 6 
#
# 1 84.8907 27.7833 27.1935 0.0000 0.0000 0.0000
# 2 27.7833 73.5545 7.0740 0.0000 0.0000 0.0000
# 3 27.1935 7.0740 74.3782 0.0000 0.0000 0.0000
# 4 0.0000 0.0000 0.0000 14.3796 0.0000 0.0000
# 5 0.0000 0.0000 0.0000 0.0000 27.9440 0.0000
# 6 0.0000 0.0000 0.0000 0.0000 0.0000 -56.1307
#
#
#
# Elastic Compliance Matrix: (Units=1/GPa)
#
#
# Indices 1 2 3 4 5 6 
#
# 1 0.015097 -0.005219 -0.005023 0.000000 0.000000 0.000000
# 2 -0.005219 0.015525 0.000432 0.000000 0.000000 0.000000
# 3 -0.005023 0.000432 0.015240 0.000000 0.000000 0.000000
# 4 0.000000 0.000000 0.000000 0.069543 0.000000 0.000000
# 5 0.000000 0.000000 0.000000 0.000000 0.035786 0.000000
# 6 0.000000 0.000000 0.000000 0.000000 0.000000 -0.017816
#
#
# Mechanical properties :
#
#
# Convention : Reuss Voigt Hill
#
# Bulk Modulus (GPa) = 38.10863 39.65832 38.88348
# Shear Modulus (GPa) = 30.91282 8.62342 19.76812
#
# Velocity S-wave (km/s) = 3.98082 2.10253 3.18336
# Velocity P-wave (km/s) = 6.37691 5.12097 5.78313
#
# Compressibility (1/GPa) = 0.02624077
#
# Stress axis : x y z
#
# Youngs Moduli (GPa) = 66.23728 64.41076 65.61539
#
# Poissons Ratio (x) = 0.33619 0.32961
# Poissons Ratio (y) = 0.34572 -0.02833
# Poissons Ratio (z) = 0.33273 -0.02781
#
# Static dielectric constant tensor:
#      x y z
#    x 1.724970 0.000000 0.000000 
#    y 0.000000 1.684440 0.000000 
#    z 0.000000 0.000000 1.701330 
# 
# From -- ./inp_files/20259.got.cif
#   From: 2010.05.17/outbox.cif.g08.bks.cpg/sg46_11_cif.got.tgz:20259.got - 2010.06.03 19:58:25.
