data_PCOD9380023
_publ_section_title
;
Structure prediction by ZEFSAII (Michael W. Deem and Ramdas Pophale) SiO2 
 PCOD9380023
Probable space group: I M A 2
;
_chemical_formula_sum "Si O2"
_cell_formula_units_Z 48
_cell_length_a 14.981023
_cell_length_b 11.928408
_cell_length_c 12.316112
_cell_angle_alpha 90.000000
_cell_angle_beta 90.000000
_cell_angle_gamma 90.000000
_cell_volume 2200.886192
_symmetry_space_group_name_H-M "I M A 2"
_symmetry_group_IT_number 46
_symmetry_cell_setting 'orthorhombic'
loop_
_space_group_symop_operation_xyz
x,y,z
-x,-y,z
1/2-x,y,z
1/2+x,-y,z
1/2+x,1/2+y,1/2+z
1/2-x,1/2-y,1/2+z
-x,1/2+y,1/2+z
x,1/2-y,1/2+z
loop_
_atom_site_type_symbol
_atom_site_label
_atom_site_fract_x
_atom_site_fract_y
_atom_site_fract_z
Si Si1 0.647756 0.401154 0.256950
Si Si2 0.104373 0.031859 0.193253
Si Si3 0.642624 0.803876 0.386133
Si Si4 0.351941 0.671540 0.840822
Si Si5 0.403049 0.442441 0.446999
Si Si6 0.859392 0.485504 0.028611
O O1 0.750000 0.373393 0.225977
O O2 0.604670 0.283923 0.294229
O O3 0.648059 0.485060 0.357506
O O4 0.609386 0.459604 0.149797
O O5 0.121034 0.138423 0.270575
O O6 0.149753 0.925188 0.250357
O O7 0.133464 0.050885 0.069697
O O8 0.000000 0.000000 0.193920
O O9 0.750000 0.787870 0.391501
O O10 0.597393 0.685644 0.408848
O O11 0.615251 0.895879 0.476507
O O12 0.250000 0.701311 0.871399
O O13 0.391692 0.612372 0.947072
O O14 0.500000 0.500000 0.449263
O O15 0.750000 0.486550 0.024789
#
# Coordination Sequence:
#
# PCOD9380023 Si02
#       6
#     8   8   8   8   8   8
#     4  10  21  36  61  92 121 157 203 258 315 376
#     4  10  23  42  63  90 125 168 210 260 323 382
#     4  10  22  42  69  94 124 170 221 270 320 386
#     4   9  19  36  60  88 121 160 203 256 314 382
#     4  11  26  42  59  92 129 164 209 265 321 381
#     4   8  17  36  58  90 122 155 209 260 309 372
#
# _framework density 21.809398000000002
#
# number of rings (size 3 to 8) (size 9 to 14) (size 15 to 20)
#    0.000    2.333    0.000    2.000    7.000    2.667 
#    0.000    3.333    0.000    0.000    0.000    0.000 
#    0.000    0.000    0.000    0.000    0.000    0.000 
#
# Total GULP energy -134017.588840 kJ/mol
# GULP energy per Si atom -5584.066202 kJ/mol
# Density = 2.175976 g / cm^3
# Si number density = 21.809398 Si / 1000 Ang^3
#
#
#
# Elastic Constant Matrix: (Units=GPa)
#
#
# Indices 1 2 3 4 5 6 
#
# 1 61.6044 11.6687 11.1912 0.0000 0.0000 0.0000
# 2 11.6687 176.8613 103.8193 0.0000 0.0000 0.0000
# 3 11.1912 103.8193 180.1113 0.0000 0.0000 0.0000
# 4 0.0000 0.0000 0.0000 12.2771 0.0000 0.0000
# 5 0.0000 0.0000 0.0000 0.0000 33.2015 0.0000
# 6 0.0000 0.0000 0.0000 0.0000 0.0000 19.4228
#
#
#
# Elastic Compliance Matrix: (Units=1/GPa)
#
#
# Indices 1 2 3 4 5 6 
#
# 1 0.016481 -0.000735 -0.000600 0.000000 0.000000 0.000000
# 2 -0.000735 0.008578 -0.004899 0.000000 0.000000 0.000000
# 3 -0.000600 -0.004899 0.008413 0.000000 0.000000 0.000000
# 4 0.000000 0.000000 0.000000 0.081452 0.000000 0.000000
# 5 0.000000 0.000000 0.000000 0.000000 0.030119 0.000000
# 6 0.000000 0.000000 0.000000 0.000000 0.000000 0.051486
#
#
# Mechanical properties :
#
#
# Convention : Reuss Voigt Hill
#
# Bulk Modulus (GPa) = 47.61034 74.65948 61.13491
# Shear Modulus (GPa) = 23.14815 32.44015 27.79415
#
# Velocity S-wave (km/s) = 3.26142 3.86092 3.57376
# Velocity P-wave (km/s) = 6.00501 7.36088 6.71724
#
# Compressibility (1/GPa) = 0.02100384
#
# Stress axis : x y z
#
# Youngs Moduli (GPa) = 60.67636 116.57105 118.85852
#
# Poissons Ratio (x) = 0.08567 0.07137
# Poissons Ratio (y) = 0.04459 0.58230
# Poissons Ratio (z) = 0.03643 0.57109
#
# Static dielectric constant tensor:
#      x y z
#    x 1.877350 0.000000 0.000000 
#    y 0.000000 1.763510 0.000000 
#    z 0.000000 0.000000 1.785640 
# 
# From -- ./inp_files/11775.got.cif
#   From: 2010.05.17/outbox.cif.g08.bks.cpg/sg46_6_cif.got.tgz:11775.got - 2010.06.03 19:58:25.
