data_PCOD9380900
_publ_section_title
;
Structure prediction by ZEFSAII (Michael W. Deem and Ramdas Pophale) SiO2 
 PCOD9380900
Probable space group: I M A 2
;
_chemical_formula_sum "Si O2"
_cell_formula_units_Z 56
_cell_length_a 8.867802
_cell_length_b 15.436692
_cell_length_c 19.890042
_cell_angle_alpha 90.000000
_cell_angle_beta 90.000000
_cell_angle_gamma 90.000000
_cell_volume 2722.738465
_symmetry_space_group_name_H-M "I M A 2"
_symmetry_group_IT_number 46
_symmetry_cell_setting 'orthorhombic'
loop_
_space_group_symop_operation_xyz
x,y,z
-x,-y,z
1/2-x,y,z
1/2+x,-y,z
1/2+x,1/2+y,1/2+z
1/2-x,1/2-y,1/2+z
-x,1/2+y,1/2+z
x,1/2-y,1/2+z
loop_
_atom_site_type_symbol
_atom_site_label
_atom_site_fract_x
_atom_site_fract_y
_atom_site_fract_z
Si Si1 0.921926 0.914044 0.526580
Si Si2 0.066883 0.722595 0.244727
Si Si3 0.574663 0.324990 0.387631
Si Si4 0.419155 0.915708 0.249485
Si Si5 0.570808 0.256774 0.095798
Si Si6 0.930831 0.904467 0.021859
Si Si7 0.914106 0.116567 0.404361
O O1 0.750000 0.907526 0.546697
O O2 0.012342 0.828133 0.544612
O O3 0.944529 0.916183 0.446251
O O4 0.000000 0.000000 0.554601
O O5 0.250000 0.728318 0.253774
O O6 0.016583 0.668226 0.309941
O O7 0.006948 0.821549 0.242547
O O8 0.037324 0.698215 0.168034
O O9 0.750000 0.354391 0.391824
O O10 0.483795 0.370168 0.447699
O O11 0.575741 0.220834 0.397538
O O12 0.250000 0.911487 0.221030
O O13 0.409111 0.921788 0.330071
O O14 0.500000 0.000000 0.221922
O O15 0.750000 0.243779 0.091230
O O16 0.492894 0.166004 0.075913
O O17 0.750000 0.907283 0.024785
O O18 0.000000 0.000000 0.032555
O O19 0.750000 0.097176 0.437354
#
# Coordination Sequence:
#
# PCOD9380900 Si02
#       7
#     8   8   8   8   8   8   8
#     4  12  24  37  56  84 117 152 196 242 296 360
#     4   8  18  36  60  84 113 157 201 245 310 375
#     4   9  17  36  63  89 118 155 199 249 305 366
#     4   9  17  30  48  77 111 146 185 228 279 346
#     4  11  22  41  64  89 124 163 204 257 316 374
#     4  12  25  41  63  94 127 168 218 267 319 377
#     4   9  17  31  54  81 114 149 182 226 288 345
#
# _framework density 20.567527999999999
#
# number of rings (size 3 to 8) (size 9 to 14) (size 15 to 20)
#    0.000    2.000    1.429    5.143    0.000    2.286 
#    0.000    7.143    0.000    0.000    0.000    0.000 
#    0.000    0.000    0.000    0.000    0.000    0.000 
#
# Total GULP energy -156051.077384 kJ/mol
# GULP energy per Si atom -5573.252764 kJ/mol
# Density = 2.052072 g / cm^3
# Si number density = 20.567528 Si / 1000 Ang^3
#
#
#
# Elastic Constant Matrix: (Units=GPa)
#
#
# Indices 1 2 3 4 5 6 
#
# 1 89.4298 22.3721 21.0036 0.0000 0.0000 0.0000
# 2 22.3721 64.4075 -2.4484 0.0000 0.0000 0.0000
# 3 21.0036 -2.4484 79.0686 0.0000 0.0000 0.0000
# 4 0.0000 0.0000 0.0000 11.7346 0.0000 0.0000
# 5 0.0000 0.0000 0.0000 0.0000 7.0071 0.0000
# 6 0.0000 0.0000 0.0000 0.0000 0.0000 27.0143
#
#
#
# Elastic Compliance Matrix: (Units=1/GPa)
#
#
# Indices 1 2 3 4 5 6 
#
# 1 0.013226 -0.004733 -0.003660 0.000000 0.000000 0.000000
# 2 -0.004733 0.017238 0.001791 0.000000 0.000000 0.000000
# 3 -0.003660 0.001791 0.013675 0.000000 0.000000 0.000000
# 4 0.000000 0.000000 0.000000 0.085218 0.000000 0.000000
# 5 0.000000 0.000000 0.000000 0.000000 0.142713 0.000000
# 6 0.000000 0.000000 0.000000 0.000000 0.000000 0.037017
#
#
# Mechanical properties :
#
#
# Convention : Reuss Voigt Hill
#
# Bulk Modulus (GPa) = 32.32564 34.97339 33.64952
# Shear Modulus (GPa) = 15.03298 21.94977 18.49138
#
# Velocity S-wave (km/s) = 2.70646 3.27035 3.00168
# Velocity P-wave (km/s) = 5.05149 5.59476 5.33005
#
# Compressibility (1/GPa) = 0.03093519
#
# Stress axis : x y z
#
# Youngs Moduli (GPa) = 75.61142 58.01053 73.12679
#
# Poissons Ratio (x) = 0.27457 0.26763
# Poissons Ratio (y) = 0.35787 -0.13097
# Poissons Ratio (z) = 0.27672 -0.10390
#
# Static dielectric constant tensor:
#      x y z
#    x 1.739380 0.000000 0.000000 
#    y 0.000000 1.736360 0.000000 
#    z 0.000000 0.000000 1.825530 
# 
# From -- ./inp_files/21064.got.cif
#   From: 2010.05.17/outbox.cif.g08.bks.cpg/sg46_11_cif.got.tgz:21064.got - 2010.06.03 19:58:25.
