data_PCOD9380456
_publ_section_title
;
Structure prediction by ZEFSAII (Michael W. Deem and Ramdas Pophale) SiO2 
 PCOD9380456
Probable space group: I M A 2
;
_chemical_formula_sum "Si O2"
_cell_formula_units_Z 56
_cell_length_a 15.194869
_cell_length_b 8.227588
_cell_length_c 20.582647
_cell_angle_alpha 90.000000
_cell_angle_beta 90.000000
_cell_angle_gamma 90.000000
_cell_volume 2573.183288
_symmetry_space_group_name_H-M "I M A 2"
_symmetry_group_IT_number 46
_symmetry_cell_setting 'orthorhombic'
loop_
_space_group_symop_operation_xyz
x,y,z
-x,-y,z
1/2-x,y,z
1/2+x,-y,z
1/2+x,1/2+y,1/2+z
1/2-x,1/2-y,1/2+z
-x,1/2+y,1/2+z
x,1/2-y,1/2+z
loop_
_atom_site_type_symbol
_atom_site_label
_atom_site_fract_x
_atom_site_fract_y
_atom_site_fract_z
Si Si1 0.959618 0.756520 0.194370
Si Si2 0.911490 0.398987 0.412473
Si Si3 0.347410 0.241747 0.938217
Si Si4 0.410555 0.079104 0.562355
Si Si5 0.344188 0.741136 0.533630
Si Si6 0.646732 0.414620 0.669111
Si Si7 0.989093 0.686932 0.830359
O O1 0.932510 0.643823 0.134167
O O2 0.951005 0.709695 0.269891
O O3 0.064797 0.797086 0.189353
O O4 0.894453 0.910560 0.185205
O O5 0.845884 0.548570 0.423417
O O6 0.914467 0.300315 0.479404
O O7 0.000000 0.500000 0.402828
O O8 0.919422 0.266475 0.355492
O O9 0.250000 0.309797 0.926865
O O10 0.419259 0.315139 0.889161
O O11 0.374366 0.287268 0.012134
O O12 0.500000 0.000000 0.535449
O O13 0.349752 0.920354 0.563395
O O14 0.250000 0.728363 0.499673
O O15 0.350153 0.613786 0.591700
O O16 0.750000 0.393719 0.691265
O O17 0.000000 0.500000 0.809081
#
# Coordination Sequence:
#
# PCOD9380456 Si02
#       7
#     8   8   8   8   8   8   8
#     4  11  24  43  69  94 133 183 216 270 344 395
#     4  10  22  39  66  88 130 171 214 262 330 400
#     4  11  24  43  66  98 134 172 221 280 333 394
#     4  12  23  39  67  95 133 174 222 268 334 396
#     4  11  22  38  63 101 130 163 219 281 330 390
#     4  10  22  41  65  96 131 169 222 271 326 398
#     4  11  23  44  67  95 128 174 225 265 333 404
#
# _framework density 21.762927000000001
#
# number of rings (size 3 to 8) (size 9 to 14) (size 15 to 20)
#    0.000    1.143    2.857    4.714    2.000    4.571 
#    0.000    2.143    0.000    0.000    0.000    0.000 
#    0.000    0.000    0.000    0.000    0.000    0.000 
#
# Total GULP energy -155936.799795 kJ/mol
# GULP energy per Si atom -5569.171421 kJ/mol
# Density = 2.171339 g / cm^3
# Si number density = 21.762927 Si / 1000 Ang^3
#
#
#
# Elastic Constant Matrix: (Units=GPa)
#
#
# Indices 1 2 3 4 5 6 
#
# 1 65.7262 4.6570 8.2739 0.0000 0.0000 0.0000
# 2 4.6570 70.3345 32.3423 0.0000 0.0000 0.0000
# 3 8.2739 32.3423 116.3886 0.0000 0.0000 0.0000
# 4 0.0000 0.0000 0.0000 30.2361 0.0000 0.0000
# 5 0.0000 0.0000 0.0000 0.0000 -171.8069 0.0000
# 6 0.0000 0.0000 0.0000 0.0000 0.0000 1.5512
#
#
#
# Elastic Compliance Matrix: (Units=1/GPa)
#
#
# Indices 1 2 3 4 5 6 
#
# 1 0.015373 -0.000591 -0.000929 0.000000 0.000000 0.000000
# 2 -0.000591 0.016323 -0.004494 0.000000 0.000000 0.000000
# 3 -0.000929 -0.004494 0.009907 0.000000 0.000000 0.000000
# 4 0.000000 0.000000 0.000000 0.033073 0.000000 0.000000
# 5 0.000000 0.000000 0.000000 0.000000 -0.005820 0.000000
# 6 0.000000 0.000000 0.000000 0.000000 0.000000 0.644652
#
#
# Mechanical properties :
#
#
# Convention : Reuss Voigt Hill
#
# Bulk Modulus (GPa) = 33.81065 38.11063 35.96064
# Shear Modulus (GPa) = 6.79907 -14.19219 -3.69656
#
# Velocity S-wave (km/s) = 1.76945 -2.55645 -1.30470
# Velocity P-wave (km/s) = 4.44344 2.97251 3.78021
#
# Compressibility (1/GPa) = 0.02957648
#
# Stress axis : x y z
#
# Youngs Moduli (GPa) = 65.04736 61.26177 100.94162
#
# Poissons Ratio (x) = 0.03620 0.09374
# Poissons Ratio (y) = 0.03843 0.45363
# Poissons Ratio (z) = 0.06041 0.27531
#
# Static dielectric constant tensor:
#      x y z
#    x 1.870450 0.000000 0.000000 
#    y 0.000000 1.882990 0.000000 
#    z 0.000000 0.000000 1.776300 
# 
# From -- ./inp_files/22020.got.cif
#   From: 2010.05.17/outbox.cif.g08.bks.cpg/sg46_12_cif.got.tgz:22020.got - 2010.06.03 19:58:25.
