data_PCOD9380275
_publ_section_title
;
Structure prediction by ZEFSAII (Michael W. Deem and Ramdas Pophale) SiO2 
 PCOD9380275
Probable space group: I M A 2
;
_chemical_formula_sum "Si O2"
_cell_formula_units_Z 64
_cell_length_a 19.985519
_cell_length_b 9.929776
_cell_length_c 17.081281
_cell_angle_alpha 90.000000
_cell_angle_beta 90.000000
_cell_angle_gamma 90.000000
_cell_volume 3389.809712
_symmetry_space_group_name_H-M "I M A 2"
_symmetry_group_IT_number 46
_symmetry_cell_setting 'orthorhombic'
loop_
_space_group_symop_operation_xyz
x,y,z
-x,-y,z
1/2-x,y,z
1/2+x,-y,z
1/2+x,1/2+y,1/2+z
1/2-x,1/2-y,1/2+z
-x,1/2+y,1/2+z
x,1/2-y,1/2+z
loop_
_atom_site_type_symbol
_atom_site_label
_atom_site_fract_x
_atom_site_fract_y
_atom_site_fract_z
Si Si1 0.326263 0.765068 0.098490
Si Si2 0.458781 0.628380 0.657594
Si Si3 0.427499 0.166043 0.410586
Si Si4 0.452285 0.130510 0.591152
Si Si5 0.671734 0.903846 0.864665
Si Si6 0.671845 0.189120 0.920332
Si Si7 0.931629 0.367749 0.841290
Si Si8 0.173558 0.023526 0.682540
O O1 0.250000 0.814515 0.107559
O O2 0.383795 0.865097 0.125311
O O3 0.332943 0.628300 0.148800
O O4 0.337396 0.743901 0.005612
O O5 0.500000 0.500000 0.630578
O O6 0.500703 0.755852 0.628186
O O7 0.451571 0.625294 0.751091
O O8 0.426805 0.162930 0.504171
O O9 0.376529 0.277293 0.378123
O O10 0.504260 0.192565 0.386235
O O11 0.415420 0.016308 0.375202
O O12 0.386773 0.104705 0.643341
O O13 0.500000 0.000000 0.586139
O O14 0.750000 0.867786 0.877947
O O15 0.666650 0.960663 0.775942
O O16 0.653507 0.031040 0.919708
O O17 0.750000 0.194410 0.900318
O O18 0.629727 0.270138 0.857399
O O19 0.250000 0.067222 0.662517
#
# Coordination Sequence:
#
# PCOD9380275 Si02
#       8
#     8   8   8   8   8   8   8   8
#     4  10  21  40  64  92 126 165 213 266 317 376
#     4  12  25  40  62  94 131 165 210 266 322 383
#     4  11  23  42  62  90 131 165 202 264 318 377
#     4  12  23  41  67  94 124 170 216 262 321 381
#     4  10  23  42  63  93 129 163 210 265 315 378
#     4  10  22  40  64  93 124 164 215 264 313 377
#     4  11  22  42  62  89 130 164 208 258 315 379
#     4  10  21  40  66  94 123 163 216 263 310 383
#
# _framework density 18.880115
#
# number of rings (size 3 to 8) (size 9 to 14) (size 15 to 20)
#    0.000    1.250    3.750    3.000    1.750    3.000 
#    0.000    0.625    0.000    0.000    0.000    0.000 
#    0.000    0.000    0.000    0.000    0.000    0.000 
#
# Total GULP energy -178692.008819 kJ/mol
# GULP energy per Si atom -5584.125276 kJ/mol
# Density = 1.883714 g / cm^3
# Si number density = 18.880115 Si / 1000 Ang^3
#
#
#
# Elastic Constant Matrix: (Units=GPa)
#
#
# Indices 1 2 3 4 5 6 
#
# 1 90.5006 62.0755 36.9772 0.0000 0.0000 0.0000
# 2 62.0755 99.8990 40.3553 0.0000 0.0000 0.0000
# 3 36.9772 40.3553 79.6177 0.0000 0.0000 0.0000
# 4 0.0000 0.0000 0.0000 21.6250 0.0000 0.0000
# 5 0.0000 0.0000 0.0000 0.0000 27.8681 0.0000
# 6 0.0000 0.0000 0.0000 0.0000 0.0000 32.0623
#
#
#
# Elastic Compliance Matrix: (Units=1/GPa)
#
#
# Indices 1 2 3 4 5 6 
#
# 1 0.020124 -0.010977 -0.003783 0.000000 0.000000 0.000000
# 2 -0.010977 0.018575 -0.004317 0.000000 0.000000 0.000000
# 3 -0.003783 -0.004317 0.016505 0.000000 0.000000 0.000000
# 4 0.000000 0.000000 0.000000 0.046243 0.000000 0.000000
# 5 0.000000 0.000000 0.000000 0.000000 0.035883 0.000000
# 6 0.000000 0.000000 0.000000 0.000000 0.000000 0.031189
#
#
# Mechanical properties :
#
#
# Convention : Reuss Voigt Hill
#
# Bulk Modulus (GPa) = 58.64672 60.98148 59.81410
# Shear Modulus (GPa) = 23.54538 25.01838 24.28188
#
# Velocity S-wave (km/s) = 3.53526 3.64417 3.59013
# Velocity P-wave (km/s) = 6.91334 7.07644 6.99536
#
# Compressibility (1/GPa) = 0.01705125
#
# Stress axis : x y z
#
# Youngs Moduli (GPa) = 49.69097 53.83641 60.58814
#
# Poissons Ratio (x) = 0.59096 0.22918
# Poissons Ratio (y) = 0.54545 0.26155
# Poissons Ratio (z) = 0.18796 0.23240
#
# Static dielectric constant tensor:
#      x y z
#    x 1.643740 0.000000 0.000000 
#    y 0.000000 1.652960 0.000000 
#    z 0.000000 0.000000 1.700870 
# 
# From -- ./inp_files/20247.got.cif
#   From: 2010.05.17/outbox.cif.g08.bks.cpg/sg46_11_cif.got.tgz:20247.got - 2010.06.03 19:58:25.
