data_PCOD9380146
_publ_section_title
;
Structure prediction by ZEFSAII (Michael W. Deem and Ramdas Pophale) SiO2 
 PCOD9380146
Probable space group: I M A 2
;
_chemical_formula_sum "Si O2"
_cell_formula_units_Z 48
_cell_length_a 8.694436
_cell_length_b 9.309259
_cell_length_c 30.943912
_cell_angle_alpha 90.000000
_cell_angle_beta 90.000000
_cell_angle_gamma 90.000000
_cell_volume 2504.561761
_symmetry_space_group_name_H-M "I M A 2"
_symmetry_group_IT_number 46
_symmetry_cell_setting 'orthorhombic'
loop_
_space_group_symop_operation_xyz
x,y,z
-x,-y,z
1/2-x,y,z
1/2+x,-y,z
1/2+x,1/2+y,1/2+z
1/2-x,1/2-y,1/2+z
-x,1/2+y,1/2+z
x,1/2-y,1/2+z
loop_
_atom_site_type_symbol
_atom_site_label
_atom_site_fract_x
_atom_site_fract_y
_atom_site_fract_z
Si Si1 0.433642 0.158148 0.917290
Si Si2 0.434597 0.658655 0.740174
Si Si3 0.435013 0.339323 0.002536
Si Si4 0.433544 0.657611 0.840791
Si Si5 0.565941 0.659850 0.163141
Si Si6 0.434378 0.660771 0.583021
O O1 0.250000 0.150076 0.914770
O O2 0.498093 0.227431 0.873552
O O3 0.500000 0.000000 0.924290
O O4 0.474234 0.260609 0.957571
O O5 0.500000 0.500000 0.730179
O O6 0.250000 0.658653 0.734759
O O7 0.470352 0.688618 0.790549
O O8 0.510835 0.772475 0.708344
O O9 0.500000 0.500000 0.002853
O O10 0.250000 0.342215 0.007074
O O11 0.507175 0.249297 0.041649
O O12 0.500000 0.500000 0.851057
O O13 0.250000 0.653495 0.845128
O O14 0.500000 0.500000 0.158172
O O15 0.750000 0.657568 0.160653
O O16 0.498121 0.759645 0.125395
O O17 0.500000 0.500000 0.581155
O O18 0.250000 0.657318 0.584041
#
# Coordination Sequence:
#
# PCOD9380146 Si02
#       6
#     8   8   8   8   8   8
#     4  11  24  40  61  88 122 160 202 249 300 356
#     4  10  21  39  62  90 121 158 201 248 300 357
#     4  11  24  42  64  92 123 159 200 246 298 355
#     4  10  21  38  62  89 121 158 201 249 300 357
#     4  12  25  42  63  89 122 160 201 248 299 356
#     4  12  25  43  66  92 123 159 199 246 297 355
#
# _framework density 19.165030000000002
#
# number of rings (size 3 to 8) (size 9 to 14) (size 15 to 20)
#    0.000    1.000    0.000    7.000    0.000    8.000 
#    0.000    0.000    0.000    0.000    0.000    0.000 
#    0.000    0.000    0.000    0.000    0.000    0.000 
#
# Total GULP energy -134336.783153 kJ/mol
# GULP energy per Si atom -5597.365965 kJ/mol
# Density = 1.912141 g / cm^3
# Si number density = 19.165030 Si / 1000 Ang^3
#
#
#
# Elastic Constant Matrix: (Units=GPa)
#
#
# Indices 1 2 3 4 5 6 
#
# 1 124.0789 79.9905 66.6083 0.0000 0.0000 0.0000
# 2 79.9905 193.6742 95.9168 0.0000 0.0000 0.0000
# 3 66.6083 95.9168 105.9814 0.0000 0.0000 0.0000
# 4 0.0000 0.0000 0.0000 41.7778 0.0000 0.0000
# 5 0.0000 0.0000 0.0000 0.0000 37.3913 0.0000
# 6 0.0000 0.0000 0.0000 0.0000 0.0000 41.8943
#
#
#
# Elastic Compliance Matrix: (Units=1/GPa)
#
#
# Indices 1 2 3 4 5 6 
#
# 1 0.012726 -0.002347 -0.005874 0.000000 0.000000 0.000000
# 2 -0.002347 0.009790 -0.007386 0.000000 0.000000 0.000000
# 3 -0.005874 -0.007386 0.019812 0.000000 0.000000 0.000000
# 4 0.000000 0.000000 0.000000 0.023936 0.000000 0.000000
# 5 0.000000 0.000000 0.000000 0.000000 0.026744 0.000000
# 6 0.000000 0.000000 0.000000 0.000000 0.000000 0.023870
#
#
# Mechanical properties :
#
#
# Convention : Reuss Voigt Hill
#
# Bulk Modulus (GPa) = 89.97099 100.97398 95.47248
# Shear Modulus (GPa) = 32.93915 36.29394 34.61654
#
# Velocity S-wave (km/s) = 4.15023 4.35645 4.25459
# Velocity P-wave (km/s) = 8.36739 8.83775 8.60579
#
# Compressibility (1/GPa) = 0.01111469
#
# Stress axis : x y z
#
# Youngs Moduli (GPa) = 78.58185 102.14216 50.47550
#
# Poissons Ratio (x) = 0.23971 0.29649
# Poissons Ratio (y) = 0.18441 0.37279
# Poissons Ratio (z) = 0.46159 0.75438
#
# Static dielectric constant tensor:
#      x y z
#    x 1.638300 0.000000 0.000000 
#    y 0.000000 1.622080 0.000000 
#    z 0.000000 0.000000 1.652940 
# 
# From -- ./inp_files/24983.got.cif
#   From: 2010.05.17/outbox.cif.g08.bks.cpg/sg46_13_cif.got.tgz:24983.got - 2010.06.03 19:58:25.
