data_PCOD9380611
_publ_section_title
;
Structure prediction by ZEFSAII (Michael W. Deem and Ramdas Pophale) SiO2 
 PCOD9380611
Probable space group: I M A 2
;
_chemical_formula_sum "Si O2"
_cell_formula_units_Z 28
_cell_length_a 10.692077
_cell_length_b 13.569861
_cell_length_c 7.307384
_cell_angle_alpha 90.000000
_cell_angle_beta 90.000000
_cell_angle_gamma 90.000000
_cell_volume 1060.228335
_symmetry_space_group_name_H-M "I M A 2"
_symmetry_group_IT_number 46
_symmetry_cell_setting 'orthorhombic'
loop_
_space_group_symop_operation_xyz
x,y,z
-x,-y,z
1/2-x,y,z
1/2+x,-y,z
1/2+x,1/2+y,1/2+z
1/2-x,1/2-y,1/2+z
-x,1/2+y,1/2+z
x,1/2-y,1/2+z
loop_
_atom_site_type_symbol
_atom_site_label
_atom_site_fract_x
_atom_site_fract_y
_atom_site_fract_z
Si Si1 0.014336 0.110868 0.708240
Si Si2 0.750000 0.406251 0.104819
Si Si3 0.461205 0.322631 0.600256
Si Si4 0.750000 0.570972 0.814782
Si Si5 0.750000 0.141674 0.198302
O O1 0.866027 0.124626 0.725053
O O2 0.065285 0.205264 0.600036
O O3 0.069858 0.121942 0.910500
O O4 0.000000 0.000000 0.628388
O O5 0.750000 0.519036 0.018626
O O6 0.750000 0.342895 0.919135
O O7 0.374094 0.370780 0.755248
O O8 0.609907 0.330741 0.635755
O O9 0.750000 0.476375 0.683397
#
# Coordination Sequence:
#
# PCOD9380611 Si02
#       5
#     8   4   8   4   4
#     4  12  28  47  78 117 163 215 283 338 411 511
#     4  10  26  45  81 110 161 213 271 338 416 476
#     4  12  26  49  80 119 161 220 282 337 427 491
#     4  10  26  45  86 115 164 215 265 356 423 478
#     4  10  22  44  83 109 155 214 278 330 407 500
#
# _framework density 26.409406000000001
#
# number of rings (size 3 to 8) (size 9 to 14) (size 15 to 20)
#    0.857    0.000    0.000    6.000    8.000    3.429 
#    0.000    0.000    0.000    0.000    0.000    0.000 
#    0.000    0.000    0.000    0.000    0.000    0.000 
#
# Total GULP energy -78042.576765 kJ/mol
# GULP energy per Si atom -5574.469769 kJ/mol
# Density = 2.634930 g / cm^3
# Si number density = 26.409406 Si / 1000 Ang^3
#
#
#
# Elastic Constant Matrix: (Units=GPa)
#
#
# Indices 1 2 3 4 5 6 
#
# 1 90.0285 32.0989 36.2454 0.0000 0.0000 0.0000
# 2 32.0989 211.3794 16.9086 0.0000 0.0000 0.0000
# 3 36.2454 16.9086 106.6508 0.0000 0.0000 0.0000
# 4 0.0000 0.0000 0.0000 37.3738 0.0000 0.0000
# 5 0.0000 0.0000 0.0000 0.0000 19.5862 0.0000
# 6 0.0000 0.0000 0.0000 0.0000 0.0000 142.2030
#
#
#
# Elastic Compliance Matrix: (Units=1/GPa)
#
#
# Indices 1 2 3 4 5 6 
#
# 1 0.013444 -0.001698 -0.004300 0.000000 0.000000 0.000000
# 2 -0.001698 0.005006 -0.000217 0.000000 0.000000 0.000000
# 3 -0.004300 -0.000217 0.010872 0.000000 0.000000 0.000000
# 4 0.000000 0.000000 0.000000 0.026757 0.000000 0.000000
# 5 0.000000 0.000000 0.000000 0.000000 0.051056 0.000000
# 6 0.000000 0.000000 0.000000 0.000000 0.000000 0.007032
#
#
# Mechanical properties :
#
#
# Convention : Reuss Voigt Hill
#
# Bulk Modulus (GPa) = 59.19358 64.28496 61.73927
# Shear Modulus (GPa) = 37.81383 61.35297 49.58340
#
# Velocity S-wave (km/s) = 3.78806 4.82513 4.33770
# Velocity P-wave (km/s) = 6.44942 7.44561 6.96535
#
# Compressibility (1/GPa) = 0.01689372
#
# Stress axis : x y z
#
# Youngs Moduli (GPa) = 74.38292 199.76221 91.97896
#
# Poissons Ratio (x) = 0.33911 0.39549
# Poissons Ratio (y) = 0.12627 0.01993
# Poissons Ratio (z) = 0.31983 0.04329
#
# Static dielectric constant tensor:
#      x y z
#    x 2.275870 0.000000 0.000000 
#    y 0.000000 2.137770 0.000000 
#    z 0.000000 0.000000 2.017700 
# 
# From -- ./inp_files/4240.got.cif
#   From: 2010.05.17/outbox.cif.g08.bks.cpg/sg46_3_cif.got.tgz:4240.got - 2010.06.03 19:58:25.
