data_PCOD9380990
_publ_section_title
;
Structure prediction by ZEFSAII (Michael W. Deem and Ramdas Pophale) SiO2 
 PCOD9380990
Probable space group: I M A 2
;
_chemical_formula_sum "Si O2"
_cell_formula_units_Z 40
_cell_length_a 29.991431
_cell_length_b 4.970059
_cell_length_c 9.809805
_cell_angle_alpha 90.000000
_cell_angle_beta 90.000000
_cell_angle_gamma 90.000000
_cell_volume 1462.241505
_symmetry_space_group_name_H-M "I M A 2"
_symmetry_group_IT_number 46
_symmetry_cell_setting 'orthorhombic'
loop_
_space_group_symop_operation_xyz
x,y,z
-x,-y,z
1/2-x,y,z
1/2+x,-y,z
1/2+x,1/2+y,1/2+z
1/2-x,1/2-y,1/2+z
-x,1/2+y,1/2+z
x,1/2-y,1/2+z
loop_
_atom_site_type_symbol
_atom_site_label
_atom_site_fract_x
_atom_site_fract_y
_atom_site_fract_z
Si Si1 0.424940 0.701770 0.616620
Si Si2 0.173421 0.250467 0.856497
Si Si3 0.827126 0.105273 0.605616
Si Si4 0.250000 0.957981 0.176165
Si Si5 0.500000 0.500000 0.948128
Si Si6 0.072979 0.207102 0.777583
O O1 0.429106 0.384120 0.638760
O O2 0.374942 0.769451 0.568736
O O3 0.465871 0.819404 0.533729
O O4 0.427182 0.888928 0.752870
O O5 0.176652 0.975684 0.766312
O O6 0.210567 0.420145 0.775863
O O7 0.120505 0.301804 0.835682
O O8 0.180403 0.340556 0.012965
O O9 0.788228 0.311858 0.580792
O O10 0.469288 0.306945 0.858304
#
# Coordination Sequence:
#
# PCOD9380990 Si02
#       6
#     8   8   8   4   4   8
#     4  11  25  46  70 108 151 193 253 313 381 460
#     4  11  25  47  72 109 150 199 254 321 388 464
#     4  11  25  47  72 109 150 199 254 321 388 464
#     4  12  24  44  74 104 144 196 244 316 390 456
#     4  12  24  46  76 106 144 206 244 322 374 462
#     4  11  25  46  70 108 151 193 253 313 381 460
#
# _framework density 27.355263999999998
#
# number of rings (size 3 to 8) (size 9 to 14) (size 15 to 20)
#    0.000    0.800    4.000    2.400    0.000    6.400 
#    3.600    0.000    0.000    0.000    0.000    0.000 
#    0.000    0.000    0.000    0.000    0.000    0.000 
#
# Total GULP energy -111461.194969 kJ/mol
# GULP energy per Si atom -5573.059748 kJ/mol
# Density = 2.729300 g / cm^3
# Si number density = 27.355264 Si / 1000 Ang^3
#
#
#
# Elastic Constant Matrix: (Units=GPa)
#
#
# Indices 1 2 3 4 5 6 
#
# 1 228.4602 48.7912 45.4222 0.0000 0.0000 0.0000
# 2 48.7912 96.5342 14.8529 0.0000 0.0000 0.0000
# 3 45.4222 14.8529 74.3226 0.0000 0.0000 0.0000
# 4 0.0000 0.0000 0.0000 34.9434 0.0000 0.0000
# 5 0.0000 0.0000 0.0000 0.0000 -53.6769 0.0000
# 6 0.0000 0.0000 0.0000 0.0000 0.0000 83.9460
#
#
#
# Elastic Compliance Matrix: (Units=1/GPa)
#
#
# Indices 1 2 3 4 5 6 
#
# 1 0.005439 -0.002309 -0.002863 0.000000 0.000000 0.000000
# 2 -0.002309 0.011668 -0.000921 0.000000 0.000000 0.000000
# 3 -0.002863 -0.000921 0.015389 0.000000 0.000000 0.000000
# 4 0.000000 0.000000 0.000000 0.028618 0.000000 0.000000
# 5 0.000000 0.000000 0.000000 0.000000 -0.018630 0.000000
# 6 0.000000 0.000000 0.000000 0.000000 0.000000 0.011912
#
#
# Mechanical properties :
#
#
# Convention : Reuss Voigt Hill
#
# Bulk Modulus (GPa) = 49.23483 68.60549 58.92016
# Shear Modulus (GPa) = 68.16579 32.39255 50.27917
#
# Velocity S-wave (km/s) = 4.99728 3.44487 4.29185
# Velocity P-wave (km/s) = 7.16481 6.39975 6.79306
#
# Compressibility (1/GPa) = 0.02031082
#
# Stress axis : x y z
#
# Youngs Moduli (GPa) = 183.84395 85.70749 64.98352
#
# Poissons Ratio (x) = 0.19788 0.18604
# Poissons Ratio (y) = 0.42445 0.05983
# Poissons Ratio (z) = 0.52633 0.07891
#
# Static dielectric constant tensor:
#      x y z
#    x 2.065120 0.000000 0.000000 
#    y 0.000000 2.119650 0.000000 
#    z 0.000000 0.000000 2.226550 
# 
# From -- ./inp_files/13146.got.cif
#   From: 2010.05.17/outbox.cif.g08.bks.cpg/sg46_7_cif.got.tgz:13146.got - 2010.06.03 19:58:25.
