data_PCOD9380173
_publ_section_title
;
Structure prediction by ZEFSAII (Michael W. Deem and Ramdas Pophale) SiO2 
 PCOD9380173
Probable space group: I M A 2
;
_chemical_formula_sum "Si O2"
_cell_formula_units_Z 44
_cell_length_a 20.227118
_cell_length_b 9.008187
_cell_length_c 10.407988
_cell_angle_alpha 90.000000
_cell_angle_beta 90.000000
_cell_angle_gamma 90.000000
_cell_volume 1896.435969
_symmetry_space_group_name_H-M "I M A 2"
_symmetry_group_IT_number 46
_symmetry_cell_setting 'orthorhombic'
loop_
_space_group_symop_operation_xyz
x,y,z
-x,-y,z
1/2-x,y,z
1/2+x,-y,z
1/2+x,1/2+y,1/2+z
1/2-x,1/2-y,1/2+z
-x,1/2+y,1/2+z
x,1/2-y,1/2+z
loop_
_atom_site_type_symbol
_atom_site_label
_atom_site_fract_x
_atom_site_fract_y
_atom_site_fract_z
Si Si1 0.000000 0.000000 0.669170
Si Si2 0.044717 0.775541 0.996389
Si Si3 0.250000 0.650298 0.849863
Si Si4 0.412018 0.426159 0.575512
Si Si5 0.750000 0.089370 0.646281
Si Si6 0.104712 0.532088 0.843303
Si Si7 0.126336 0.380001 0.112176
O O1 0.067005 0.084603 0.713113
O O2 0.965420 0.142889 0.598836
O O3 0.974197 0.856473 0.000370
O O4 0.097530 0.906142 0.025620
O O5 0.068852 0.687957 0.871988
O O6 0.250000 0.796672 0.763183
O O7 0.182227 0.563021 0.818545
O O8 0.250000 0.668861 0.005465
O O9 0.428748 0.453732 0.724432
O O10 0.359288 0.293633 0.588481
O O11 0.687153 0.981603 0.648766
O O12 0.101346 0.434188 0.971615
#
# Coordination Sequence:
#
# PCOD9380173 Si02
#       7
#     4   8   4   8   4   8   8
#     4   8  16  34  62  86 126 176 214 292 348 422
#     4   9  20  38  61  94 131 174 226 289 353 437
#     4  10  24  41  73  99 145 194 248 308 370 454
#     4  10  21  38  65  96 134 181 232 290 375 442
#     4  10  22  45  71 107 143 198 250 316 380 450
#     4  10  22  41  64  97 140 184 237 304 363 448
#     4   9  20  40  64  93 144 177 240 297 369 437
#
# _framework density 23.201416999999999
#
# number of rings (size 3 to 8) (size 9 to 14) (size 15 to 20)
#    0.000    2.545    0.000    0.000    7.636    9.455 
#    3.273    2.727    0.000    0.000    0.000    0.000 
#    0.000    0.000    0.000    0.000    0.000    0.000 
#
# Total GULP energy -122508.629404 kJ/mol
# GULP energy per Si atom -5568.574064 kJ/mol
# Density = 2.314861 g / cm^3
# Si number density = 23.201417 Si / 1000 Ang^3
#
#
#
# Elastic Constant Matrix: (Units=GPa)
#
#
# Indices 1 2 3 4 5 6 
#
# 1 97.2563 23.2002 40.1280 0.0000 0.0000 0.0000
# 2 23.2002 176.1032 48.5809 0.0000 0.0000 0.0000
# 3 40.1280 48.5809 70.3806 0.0000 0.0000 0.0000
# 4 0.0000 0.0000 0.0000 18.5481 0.0000 0.0000
# 5 0.0000 0.0000 0.0000 0.0000 90.2047 0.0000
# 6 0.0000 0.0000 0.0000 0.0000 0.0000 29.1081
#
#
#
# Elastic Compliance Matrix: (Units=1/GPa)
#
#
# Indices 1 2 3 4 5 6 
#
# 1 0.013471 0.000425 -0.007974 0.000000 0.000000 0.000000
# 2 0.000425 0.007028 -0.005093 0.000000 0.000000 0.000000
# 3 -0.007974 -0.005093 0.022270 0.000000 0.000000 0.000000
# 4 0.000000 0.000000 0.000000 0.053914 0.000000 0.000000
# 5 0.000000 0.000000 0.000000 0.000000 0.011086 0.000000
# 6 0.000000 0.000000 0.000000 0.000000 0.000000 0.034355
#
#
# Mechanical properties :
#
#
# Convention : Reuss Voigt Hill
#
# Bulk Modulus (GPa) = 57.19264 63.06205 60.12734
# Shear Modulus (GPa) = 28.86249 43.02759 35.94504
#
# Velocity S-wave (km/s) = 3.53086 4.31109 3.94033
# Velocity P-wave (km/s) = 6.42858 7.21248 6.83179
#
# Compressibility (1/GPa) = 0.01748477
#
# Stress axis : x y z
#
# Youngs Moduli (GPa) = 74.23511 142.29769 44.90269
#
# Poissons Ratio (x) = -0.06048 0.35805
# Poissons Ratio (y) = -0.03155 0.22870
# Poissons Ratio (z) = 0.59194 0.72474
#
# Static dielectric constant tensor:
#      x y z
#    x 1.867630 0.000000 0.000000 
#    y 0.000000 1.939640 0.000000 
#    z 0.000000 0.000000 1.925890 
# 
# From -- ./inp_files/12689.got.cif
#   From: 2010.05.17/outbox.cif.g08.bks.cpg/sg46_7_cif.got.tgz:12689.got - 2010.06.03 19:58:25.
