data_PCOD9380276
_publ_section_title
;
Structure prediction by ZEFSAII (Michael W. Deem and Ramdas Pophale) SiO2 
 PCOD9380276
Probable space group: I M A 2
;
_chemical_formula_sum "Si O2"
_cell_formula_units_Z 56
_cell_length_a 15.269326
_cell_length_b 5.530648
_cell_length_c 29.455280
_cell_angle_alpha 90.000000
_cell_angle_beta 90.000000
_cell_angle_gamma 90.000000
_cell_volume 2487.476814
_symmetry_space_group_name_H-M "I M A 2"
_symmetry_group_IT_number 46
_symmetry_cell_setting 'orthorhombic'
loop_
_space_group_symop_operation_xyz
x,y,z
-x,-y,z
1/2-x,y,z
1/2+x,-y,z
1/2+x,1/2+y,1/2+z
1/2-x,1/2-y,1/2+z
-x,1/2+y,1/2+z
x,1/2-y,1/2+z
loop_
_atom_site_type_symbol
_atom_site_label
_atom_site_fract_x
_atom_site_fract_y
_atom_site_fract_z
Si Si1 0.599403 0.419358 0.388990
Si Si2 0.500000 0.500000 0.549805
Si Si3 0.344469 0.210075 0.707612
Si Si4 0.000000 0.500000 0.745820
Si Si5 0.593684 0.890964 0.610775
Si Si6 0.098667 0.611136 0.288550
Si Si7 0.650109 0.580434 0.932619
Si Si8 0.849183 0.330285 0.023901
O O1 0.500000 0.500000 0.383277
O O2 0.638695 0.422564 0.338023
O O3 0.601073 0.147015 0.408848
O O4 0.636361 0.641601 0.418599
O O5 0.563990 0.654065 0.582677
O O6 0.432628 0.654831 0.519716
O O7 0.250000 0.336941 0.714788
O O8 0.437195 0.344316 0.713985
O O9 0.349020 0.132708 0.655402
O O10 0.350943 0.002401 0.746084
O O11 0.073920 0.614114 0.778270
O O12 0.500000 0.000000 0.624827
O O13 0.640199 0.060763 0.573926
O O14 0.000000 0.500000 0.287336
O O15 0.750000 0.522029 0.921056
O O16 0.638726 0.538780 0.986317
O O17 0.750000 0.230005 0.017776
#
# Coordination Sequence:
#
# PCOD9380276 Si02
#       8
#     8   4   8   4   8   8   8   8
#     4  11  25  43  73 101 135 183 237 286 347 423
#     4  10  23  40  68  98 126 176 234 280 345 420
#     4  11  23  39  64  96 131 179 228 281 350 421
#     4  10  21  42  66  94 136 178 226 288 343 414
#     4  10  21  40  64  93 132 173 223 287 348 418
#     4   9  22  41  65  91 129 172 222 281 343 405
#     4  11  26  45  67 102 143 182 227 291 356 413
#     4  10  24  43  66  96 137 180 225 286 352 418
#
# _framework density 22.512774
#
# number of rings (size 3 to 8) (size 9 to 14) (size 15 to 20)
#    0.000    1.714    0.000    3.000    9.000    6.286 
#    0.000    0.000    0.000    0.000    0.000    0.000 
#    0.000    0.000    0.000    0.000    0.000    0.000 
#
# Total GULP energy -156094.735406 kJ/mol
# GULP energy per Si atom -5574.811979 kJ/mol
# Density = 2.246153 g / cm^3
# Si number density = 22.512774 Si / 1000 Ang^3
#
#
#
# Elastic Constant Matrix: (Units=GPa)
#
#
# Indices 1 2 3 4 5 6 
#
# 1 100.9578 16.6293 42.1786 0.0000 0.0000 0.0000
# 2 16.6293 56.4940 27.7765 0.0000 0.0000 0.0000
# 3 42.1786 27.7765 111.2078 0.0000 0.0000 0.0000
# 4 0.0000 0.0000 0.0000 11.2510 0.0000 0.0000
# 5 0.0000 0.0000 0.0000 0.0000 32.1097 0.0000
# 6 0.0000 0.0000 0.0000 0.0000 0.0000 25.7688
#
#
#
# Elastic Compliance Matrix: (Units=1/GPa)
#
#
# Indices 1 2 3 4 5 6 
#
# 1 0.011875 -0.001460 -0.004139 0.000000 0.000000 0.000000
# 2 -0.001460 0.020359 -0.004531 0.000000 0.000000 0.000000
# 3 -0.004139 -0.004531 0.011694 0.000000 0.000000 0.000000
# 4 0.000000 0.000000 0.000000 0.088881 0.000000 0.000000
# 5 0.000000 0.000000 0.000000 0.000000 0.031143 0.000000
# 6 0.000000 0.000000 0.000000 0.000000 0.000000 0.038807
#
#
# Mechanical properties :
#
#
# Convention : Reuss Voigt Hill
#
# Bulk Modulus (GPa) = 42.25441 49.09204 45.67322
# Shear Modulus (GPa) = 21.65366 25.96426 23.80896
#
# Velocity S-wave (km/s) = 3.10472 3.39973 3.25557
# Velocity P-wave (km/s) = 5.62692 6.10447 5.87055
#
# Compressibility (1/GPa) = 0.02366617
#
# Stress axis : x y z
#
# Youngs Moduli (GPa) = 84.21098 49.11913 85.51541
#
# Poissons Ratio (x) = 0.07173 0.35396
# Poissons Ratio (y) = 0.12298 0.38748
# Poissons Ratio (z) = 0.34856 0.22257
#
# Static dielectric constant tensor:
#      x y z
#    x 1.852010 0.000000 0.000000 
#    y 0.000000 2.226950 0.000000 
#    z 0.000000 0.000000 1.839910 
# 
# From -- ./inp_files/25461.got.cif
#   From: 2010.05.17/outbox.cif.g08.bks.cpg/sg46_13_cif.got.tgz:25461.got - 2010.06.03 19:58:25.
