data_PCOD9380440
_publ_section_title
;
Structure prediction by ZEFSAII (Michael W. Deem and Ramdas Pophale) SiO2 
 PCOD9380440
Probable space group: I M A 2
;
_chemical_formula_sum "Si O2"
_cell_formula_units_Z 48
_cell_length_a 16.616971
_cell_length_b 5.115953
_cell_length_c 28.097682
_cell_angle_alpha 90.000000
_cell_angle_beta 90.000000
_cell_angle_gamma 90.000000
_cell_volume 2388.630101
_symmetry_space_group_name_H-M "I M A 2"
_symmetry_group_IT_number 46
_symmetry_cell_setting 'orthorhombic'
loop_
_space_group_symop_operation_xyz
x,y,z
-x,-y,z
1/2-x,y,z
1/2+x,-y,z
1/2+x,1/2+y,1/2+z
1/2-x,1/2-y,1/2+z
-x,1/2+y,1/2+z
x,1/2-y,1/2+z
loop_
_atom_site_type_symbol
_atom_site_label
_atom_site_fract_x
_atom_site_fract_y
_atom_site_fract_z
Si Si1 0.557159 0.749325 0.761860
Si Si2 0.153735 0.169669 0.358164
Si Si3 0.345933 0.824814 0.919340
Si Si4 0.943781 0.251272 0.015188
Si Si5 0.407402 0.593916 0.118259
Si Si6 0.156203 0.393770 0.669042
O O1 0.500000 0.500000 0.762768
O O2 0.608338 0.745967 0.810234
O O3 0.615733 0.715505 0.716927
O O4 0.500000 0.000000 0.757650
O O5 0.250000 0.160184 0.349119
O O6 0.138233 0.392072 0.397278
O O7 0.127920 0.894092 0.380991
O O8 0.250000 0.793050 0.925352
O O9 0.388751 0.793524 0.969571
O O10 0.896955 0.314021 0.063909
O O11 0.000000 0.500000 0.005601
O O12 0.000000 0.000000 0.023716
O O13 0.500000 0.500000 0.123866
O O14 0.355289 0.340719 0.131302
O O15 0.387403 0.841907 0.151371
O O16 0.250000 0.451216 0.676121
#
# Coordination Sequence:
#
# PCOD9380440 Si02
#       6
#     8   8   8   8   8   8
#     4  12  25  40  63  91 120 158 202 250 304 364
#     4  10  22  41  60  85 121 159 198 247 301 356
#     4  10  22  39  61  87 121 159 197 246 302 356
#     4  11  23  39  62  90 121 159 201 249 301 357
#     4  11  23  43  65  90 126 165 205 253 308 365
#     4  12  25  42  65  93 124 162 205 255 308 368
#
# _framework density 20.095199999999998
#
# number of rings (size 3 to 8) (size 9 to 14) (size 15 to 20)
#    0.000    1.000    0.000    8.000    0.000    5.333 
#    0.000    6.667    0.000    0.000    0.000    0.000 
#    0.000    0.000    0.000    0.000    0.000    0.000 
#
# Total GULP energy -134315.320317 kJ/mol
# GULP energy per Si atom -5596.471680 kJ/mol
# Density = 2.004946 g / cm^3
# Si number density = 20.095200 Si / 1000 Ang^3
#
#
#
# Elastic Constant Matrix: (Units=GPa)
#
#
# Indices 1 2 3 4 5 6 
#
# 1 48.7745 18.3678 42.3020 0.0000 0.0000 0.0000
# 2 18.3678 106.2503 3.6530 0.0000 0.0000 0.0000
# 3 42.3020 3.6530 100.5155 0.0000 0.0000 0.0000
# 4 0.0000 0.0000 0.0000 25.8473 0.0000 0.0000
# 5 0.0000 0.0000 0.0000 0.0000 464.9631 0.0000
# 6 0.0000 0.0000 0.0000 0.0000 0.0000 14.0307
#
#
#
# Elastic Compliance Matrix: (Units=1/GPa)
#
#
# Indices 1 2 3 4 5 6 
#
# 1 0.035333 -0.005604 -0.014666 0.000000 0.000000 0.000000
# 2 -0.005604 0.010312 0.001984 0.000000 0.000000 0.000000
# 3 -0.014666 0.001984 0.016049 0.000000 0.000000 0.000000
# 4 0.000000 0.000000 0.000000 0.038689 0.000000 0.000000
# 5 0.000000 0.000000 0.000000 0.000000 0.002151 0.000000
# 6 0.000000 0.000000 0.000000 0.000000 0.000000 0.071273
#
#
# Mechanical properties :
#
#
# Convention : Reuss Voigt Hill
#
# Bulk Modulus (GPa) = 39.80710 42.68735 41.24723
# Shear Modulus (GPa) = 22.85690 113.71605 68.28648
#
# Velocity S-wave (km/s) = 3.37624 7.53070 5.83569
# Velocity P-wave (km/s) = 5.92038 9.84398 8.12265
#
# Compressibility (1/GPa) = 0.02512115
#
# Stress axis : x y z
#
# Youngs Moduli (GPa) = 28.30236 96.97170 62.30968
#
# Poissons Ratio (x) = 0.54341 0.91384
# Poissons Ratio (y) = 0.15860 -0.12360
# Poissons Ratio (z) = 0.41509 -0.19235
#
# Static dielectric constant tensor:
#      x y z
#    x 1.678320 0.000000 0.000000 
#    y 0.000000 1.686430 0.000000 
#    z 0.000000 0.000000 1.700870 
# 
# From -- ./inp_files/24581.got.cif
#   From: 2010.05.17/outbox.cif.g08.bks.cpg/sg46_13_cif.got.tgz:24581.got - 2010.06.03 19:58:25.
