data_PCOD9380356
_publ_section_title
;
Structure prediction by ZEFSAII (Michael W. Deem and Ramdas Pophale) SiO2 
 PCOD9380356
Probable space group: I M A 2
;
_chemical_formula_sum "Si O2"
_cell_formula_units_Z 20
_cell_length_a 10.624310
_cell_length_b 7.784748
_cell_length_c 8.669625
_cell_angle_alpha 90.000000
_cell_angle_beta 90.000000
_cell_angle_gamma 90.000000
_cell_volume 717.043669
_symmetry_space_group_name_H-M "I M A 2"
_symmetry_group_IT_number 46
_symmetry_cell_setting 'orthorhombic'
loop_
_space_group_symop_operation_xyz
x,y,z
-x,-y,z
1/2-x,y,z
1/2+x,-y,z
1/2+x,1/2+y,1/2+z
1/2-x,1/2-y,1/2+z
-x,1/2+y,1/2+z
x,1/2-y,1/2+z
loop_
_atom_site_type_symbol
_atom_site_label
_atom_site_fract_x
_atom_site_fract_y
_atom_site_fract_z
Si Si1 0.250000 0.869803 0.445500
Si Si2 0.102994 0.357715 0.547025
Si Si3 0.250000 0.502956 0.300071
Si Si4 0.000000 0.500000 0.966398
O O1 0.250000 0.669881 0.412377
O O2 0.374853 0.950239 0.376897
O O3 0.250000 0.926385 0.626639
O O4 0.250000 0.351937 0.606168
O O5 0.132107 0.394947 0.364358
O O6 0.000000 0.500000 0.590990
O O7 0.036813 0.172996 0.556475
#
# Coordination Sequence:
#
# PCOD9380356 Si02
#       4
#     4   8   4   4
#     4  12  25  42  76  97 151 182 246 286 373 413
#     4  10  21  42  71 102 146 185 235 299 354 424
#     4  10  25  46  70 107 141 194 230 314 341 439
#     4  12  22  42  72 108 136 196 230 296 360 436
#
# _framework density 27.892302999999998
#
# number of rings (size 3 to 8) (size 9 to 14) (size 15 to 20)
#    1.200    0.000    6.000    0.000    2.800    0.000 
#    0.000   12.000    4.400    0.000    0.000    0.000 
#    0.000    0.000    0.000    0.000    0.000    0.000 
#
# Total GULP energy -55877.349549 kJ/mol
# GULP energy per Si atom -5587.734955 kJ/mol
# Density = 2.782882 g / cm^3
# Si number density = 27.892303 Si / 1000 Ang^3
#
#
#
# Elastic Constant Matrix: (Units=GPa)
#
#
# Indices 1 2 3 4 5 6 
#
# 1 272.2411 99.5643 39.1979 0.0000 0.0000 0.0000
# 2 99.5643 239.0791 25.9336 0.0000 0.0000 0.0000
# 3 39.1979 25.9336 171.8692 0.0000 0.0000 0.0000
# 4 0.0000 0.0000 0.0000 14.4062 0.0000 0.0000
# 5 0.0000 0.0000 0.0000 0.0000 26.6368 0.0000
# 6 0.0000 0.0000 0.0000 0.0000 0.0000 56.0172
#
#
#
# Elastic Compliance Matrix: (Units=1/GPa)
#
#
# Indices 1 2 3 4 5 6 
#
# 1 0.004425 -0.001762 -0.000743 0.000000 0.000000 0.000000
# 2 -0.001762 0.004954 -0.000346 0.000000 0.000000 0.000000
# 3 -0.000743 -0.000346 0.006040 0.000000 0.000000 0.000000
# 4 0.000000 0.000000 0.000000 0.069414 0.000000 0.000000
# 5 0.000000 0.000000 0.000000 0.000000 0.037542 0.000000
# 6 0.000000 0.000000 0.000000 0.000000 0.000000 0.017852
#
#
# Mechanical properties :
#
#
# Convention : Reuss Voigt Hill
#
# Bulk Modulus (GPa) = 102.91405 112.50900 107.71152
# Shear Modulus (GPa) = 33.51935 53.97828 43.74881
#
# Velocity S-wave (km/s) = 3.47038 4.40391 3.96471
# Velocity P-wave (km/s) = 7.28252 8.14148 7.72395
#
# Compressibility (1/GPa) = 0.00971685
#
# Stress axis : x y z
#
# Youngs Moduli (GPa) = 226.00741 201.85710 165.56166
#
# Poissons Ratio (x) = 0.35567 0.12305
# Poissons Ratio (y) = 0.39823 0.05723
# Poissons Ratio (z) = 0.16798 0.06977
#
# Static dielectric constant tensor:
#      x y z
#    x 2.188300 0.000000 0.000000 
#    y 0.000000 2.124230 0.000000 
#    z 0.000000 0.000000 2.174010 
# 
# From -- ./inp_files/4082.got.cif
#   From: 2010.05.17/outbox.cif.g08.bks.cpg/sg46_3_cif.got.tgz:4082.got - 2010.06.03 19:58:25.
