data_PCOD9380485
_publ_section_title
;
Structure prediction by ZEFSAII (Michael W. Deem and Ramdas Pophale) SiO2 
 PCOD9380485
Probable space group: I M A 2
;
_chemical_formula_sum "Si O2"
_cell_formula_units_Z 40
_cell_length_a 12.123959
_cell_length_b 17.217405
_cell_length_c 9.055004
_cell_angle_alpha 90.000000
_cell_angle_beta 90.000000
_cell_angle_gamma 90.000000
_cell_volume 1890.169717
_symmetry_space_group_name_H-M "I M A 2"
_symmetry_group_IT_number 46
_symmetry_cell_setting 'orthorhombic'
loop_
_space_group_symop_operation_xyz
x,y,z
-x,-y,z
1/2-x,y,z
1/2+x,-y,z
1/2+x,1/2+y,1/2+z
1/2-x,1/2-y,1/2+z
-x,1/2+y,1/2+z
x,1/2-y,1/2+z
loop_
_atom_site_type_symbol
_atom_site_label
_atom_site_fract_x
_atom_site_fract_y
_atom_site_fract_z
Si Si1 0.574239 0.069532 0.380580
Si Si2 0.750000 0.455930 0.639555
Si Si3 0.250000 0.777615 0.038504
Si Si4 0.124467 0.170808 0.730321
Si Si5 0.491348 0.774405 0.443150
Si Si6 0.250000 0.028092 0.827301
Si Si7 0.250000 0.884021 0.625561
O O1 0.645055 0.036318 0.245975
O O2 0.515293 0.149818 0.337012
O O3 0.649322 0.096169 0.517104
O O4 0.500000 0.000000 0.433889
O O5 0.750000 0.365433 0.591967
O O6 0.750000 0.514239 0.502363
O O7 0.368164 0.760581 0.961281
O O8 0.250000 0.707340 0.159963
O O9 0.250000 0.200370 0.703114
O O10 0.046715 0.192596 0.593142
O O11 0.147182 0.079854 0.767398
O O12 0.070303 0.211035 0.871373
O O13 0.250000 0.942465 0.759599
#
# Coordination Sequence:
#
# PCOD9380485 Si02
#       7
#     8   4   4   8   8   4   4
#     4  10  22  40  64  89 123 175 216 272 332 399
#     4  11  24  42  58  96 133 167 222 266 337 413
#     4  10  24  40  68  90 126 168 216 274 330 398
#     4  10  24  42  67 102 133 179 224 286 353 416
#     4  11  22  44  68  99 131 173 234 278 347 415
#     4  10  24  40  64  96 136 176 218 286 356 410
#     4   9  20  42  64  90 121 163 224 270 331 411
#
# _framework density 21.162120000000002
#
# number of rings (size 3 to 8) (size 9 to 14) (size 15 to 20)
#    0.600    1.200    0.000    3.600    0.000   10.400 
#    3.600    5.000    0.000    0.000    0.000    0.000 
#    0.000    0.000    0.000    0.000    0.000    0.000 
#
# Total GULP energy -111544.757450 kJ/mol
# GULP energy per Si atom -5577.237873 kJ/mol
# Density = 2.111395 g / cm^3
# Si number density = 21.162120 Si / 1000 Ang^3
#
#
#
# Elastic Constant Matrix: (Units=GPa)
#
#
# Indices 1 2 3 4 5 6 
#
# 1 119.0716 32.7371 28.9274 0.0000 0.0000 0.0000
# 2 32.7371 54.1184 5.2939 0.0000 0.0000 0.0000
# 3 28.9274 5.2939 94.5820 0.0000 0.0000 0.0000
# 4 0.0000 0.0000 0.0000 34.5288 0.0000 0.0000
# 5 0.0000 0.0000 0.0000 0.0000 16.5744 0.0000
# 6 0.0000 0.0000 0.0000 0.0000 0.0000 32.1880
#
#
#
# Elastic Compliance Matrix: (Units=1/GPa)
#
#
# Indices 1 2 3 4 5 6 
#
# 1 0.010842 -0.006269 -0.002965 0.000000 0.000000 0.000000
# 2 -0.006269 0.022204 0.000674 0.000000 0.000000 0.000000
# 3 -0.002965 0.000674 0.011442 0.000000 0.000000 0.000000
# 4 0.000000 0.000000 0.000000 0.028961 0.000000 0.000000
# 5 0.000000 0.000000 0.000000 0.000000 0.060334 0.000000
# 6 0.000000 0.000000 0.000000 0.000000 0.000000 0.031067
#
#
# Mechanical properties :
#
#
# Convention : Reuss Voigt Hill
#
# Bulk Modulus (GPa) = 36.53698 44.63207 40.58453
# Shear Modulus (GPa) = 26.16537 30.04583 28.10560
#
# Velocity S-wave (km/s) = 3.52010 3.77210 3.64828
# Velocity P-wave (km/s) = 5.81586 6.33309 6.07998
#
# Compressibility (1/GPa) = 0.02736953
#
# Stress axis : x y z
#
# Youngs Moduli (GPa) = 92.23299 45.03704 87.39760
#
# Poissons Ratio (x) = 0.28232 0.25915
# Poissons Ratio (y) = 0.57816 -0.05894
# Poissons Ratio (z) = 0.27348 -0.03037
#
# Static dielectric constant tensor:
#      x y z
#    x 1.773880 0.000000 0.000000 
#    y 0.000000 1.809230 0.000000 
#    z 0.000000 0.000000 1.767620 
# 
# From -- ./inp_files/4490.got.cif
#   From: 2010.05.17/outbox.cif.g08.bks.cpg/sg46_3_cif.got.tgz:4490.got - 2010.06.03 19:58:25.
