data_PCOD9380794
_publ_section_title
;
Structure prediction by ZEFSAII (Michael W. Deem and Ramdas Pophale) SiO2 
 PCOD9380794
Probable space group: I M A 2
;
_chemical_formula_sum "Si O2"
_cell_formula_units_Z 48
_cell_length_a 13.364723
_cell_length_b 15.419029
_cell_length_c 13.764966
_cell_angle_alpha 90.000000
_cell_angle_beta 90.000000
_cell_angle_gamma 90.000000
_cell_volume 2836.561018
_symmetry_space_group_name_H-M "I M A 2"
_symmetry_group_IT_number 46
_symmetry_cell_setting 'orthorhombic'
loop_
_space_group_symop_operation_xyz
x,y,z
-x,-y,z
1/2-x,y,z
1/2+x,-y,z
1/2+x,1/2+y,1/2+z
1/2-x,1/2-y,1/2+z
-x,1/2+y,1/2+z
x,1/2-y,1/2+z
loop_
_atom_site_type_symbol
_atom_site_label
_atom_site_fract_x
_atom_site_fract_y
_atom_site_fract_z
Si Si1 0.635585 0.331697 0.161470
Si Si2 0.432507 0.776193 0.338275
Si Si3 0.250000 0.070801 0.300533
Si Si4 0.750000 0.109547 0.400174
Si Si5 0.961682 0.757685 0.033426
Si Si6 0.250000 0.338855 0.015613
Si Si7 0.544549 0.596519 0.689278
Si Si8 0.250000 0.519113 0.108812
O O1 0.750000 0.298044 0.136654
O O2 0.610318 0.297643 0.268120
O O3 0.653731 0.435252 0.157572
O O4 0.547103 0.298248 0.091411
O O5 0.344830 0.829433 0.389568
O O6 0.503611 0.739411 0.421806
O O7 0.483411 0.845981 0.266941
O O8 0.250000 0.121618 0.404825
O O9 0.153589 0.091722 0.236797
O O10 0.250000 0.967869 0.322426
O O11 0.750000 0.060047 0.501353
O O12 0.852122 0.713963 0.033442
O O13 0.957098 0.849224 0.089410
O O14 0.250000 0.418006 0.092598
O O15 0.500000 0.500000 0.679636
#
# Coordination Sequence:
#
# PCOD9380794 Si02
#       8
#     8   8   4   4   8   4   8   4
#     4   9  19  35  56  88 115 158 200 250 308 354
#     4  11  19  35  60  85 123 151 197 250 308 358
#     4  11  21  36  60  90 119 153 206 256 300 359
#     4  11  17  30  56  88 117 144 185 262 303 352
#     4  11  23  38  60  89 125 165 197 251 303 370
#     4  11  23  38  60  89 126 169 198 243 307 363
#     4  11  23  39  62  88 119 160 208 250 305 356
#     4   9  19  34  56  89 122 150 199 253 304 358
#
# _framework density 16.921899
#
# number of rings (size 3 to 8) (size 9 to 14) (size 15 to 20)
#    0.500    1.000    5.833    0.500    0.000    0.667 
#    0.000    0.000    7.333    0.000    0.000    0.000 
#    0.000    0.000    0.000    0.000    0.000    0.000 
#
# Total GULP energy -133650.528092 kJ/mol
# GULP energy per Si atom -5568.772004 kJ/mol
# Density = 1.688338 g / cm^3
# Si number density = 16.921899 Si / 1000 Ang^3
#
#
#
# Elastic Constant Matrix: (Units=GPa)
#
#
# Indices 1 2 3 4 5 6 
#
# 1 124.1661 51.7907 39.8840 0.0000 0.0000 0.0000
# 2 51.7907 99.3971 59.5824 0.0000 0.0000 0.0000
# 3 39.8840 59.5824 82.0500 0.0000 0.0000 0.0000
# 4 0.0000 0.0000 0.0000 31.2210 0.0000 0.0000
# 5 0.0000 0.0000 0.0000 0.0000 28.3648 0.0000
# 6 0.0000 0.0000 0.0000 0.0000 0.0000 14.1419
#
#
#
# Elastic Compliance Matrix: (Units=1/GPa)
#
#
# Indices 1 2 3 4 5 6 
#
# 1 0.010472 -0.004259 -0.001998 0.000000 0.000000 0.000000
# 2 -0.004259 0.019548 -0.012125 0.000000 0.000000 0.000000
# 3 -0.001998 -0.012125 0.021963 0.000000 0.000000 0.000000
# 4 0.000000 0.000000 0.000000 0.032030 0.000000 0.000000
# 5 0.000000 0.000000 0.000000 0.000000 0.035255 0.000000
# 6 0.000000 0.000000 0.000000 0.000000 0.000000 0.070712
#
#
# Mechanical properties :
#
#
# Convention : Reuss Voigt Hill
#
# Bulk Modulus (GPa) = 65.70137 67.56973 66.63555
# Shear Modulus (GPa) = 21.56883 25.03593 23.30238
#
# Velocity S-wave (km/s) = 3.57404 3.85060 3.71489
# Velocity P-wave (km/s) = 7.47945 7.73217 7.60686
#
# Compressibility (1/GPa) = 0.01522038
#
# Stress axis : x y z
#
# Youngs Moduli (GPa) = 95.49452 51.15651 45.53019
#
# Poissons Ratio (x) = 0.21787 0.09095
# Poissons Ratio (y) = 0.40670 0.55205
# Poissons Ratio (z) = 0.19076 0.62027
#
# Static dielectric constant tensor:
#      x y z
#    x 1.587040 0.000000 0.000000 
#    y 0.000000 1.566050 0.000000 
#    z 0.000000 0.000000 1.578640 
# 
# From -- ./inp_files/10310.got.cif
#   From: 2010.05.17/outbox.cif.g08.bks.cpg/sg46_6_cif.got.tgz:10310.got - 2010.06.03 19:58:25.
