data_PCOD9380196
_publ_section_title
;
Structure prediction by ZEFSAII (Michael W. Deem and Ramdas Pophale) SiO2 
 PCOD9380196
Probable space group: I M A 2
;
_chemical_formula_sum "Si O2"
_cell_formula_units_Z 64
_cell_length_a 8.666583
_cell_length_b 28.921780
_cell_length_c 13.336490
_cell_angle_alpha 90.000000
_cell_angle_beta 90.000000
_cell_angle_gamma 90.000000
_cell_volume 3342.831320
_symmetry_space_group_name_H-M "I M A 2"
_symmetry_group_IT_number 46
_symmetry_cell_setting 'orthorhombic'
loop_
_space_group_symop_operation_xyz
x,y,z
-x,-y,z
1/2-x,y,z
1/2+x,-y,z
1/2+x,1/2+y,1/2+z
1/2-x,1/2-y,1/2+z
-x,1/2+y,1/2+z
x,1/2-y,1/2+z
loop_
_atom_site_type_symbol
_atom_site_label
_atom_site_fract_x
_atom_site_fract_y
_atom_site_fract_z
Si Si1 0.424206 0.793567 0.614880
Si Si2 0.070131 0.248532 0.937097
Si Si3 0.933516 0.051817 0.359391
Si Si4 0.563107 0.858695 0.966825
Si Si5 0.934898 0.948243 0.570564
Si Si6 0.931172 0.886615 0.183438
Si Si7 0.436379 0.375431 0.242315
Si Si8 0.578986 0.204628 0.249916
O O1 0.250000 0.806036 0.581860
O O2 0.541973 0.785503 0.524792
O O3 0.486050 0.830319 0.694343
O O4 0.417064 0.743322 0.665041
O O5 0.250000 0.246782 0.908523
O O6 0.023447 0.196027 0.966037
O O7 0.967286 0.267165 0.847627
O O8 0.750000 0.050240 0.366399
O O9 0.999489 0.071237 0.465158
O O10 0.985255 0.080029 0.261777
O O11 0.000000 0.000000 0.351570
O O12 0.750000 0.860522 0.971562
O O13 0.516253 0.879584 0.859033
O O14 0.508422 0.883952 0.068306
O O15 0.750000 0.950115 0.562623
O O16 0.975659 0.917291 0.667129
O O17 0.000000 0.000000 0.581845
O O18 0.750000 0.898128 0.182398
O O19 0.957670 0.834920 0.224839
O O20 0.250000 0.369917 0.241050
O O21 0.750000 0.183560 0.259852
#
# Coordination Sequence:
#
# PCOD9380196 Si02
#       8
#     8   8   8   8   8   8   8   8
#     4  11  23  36  53  81 119 155 194 244 295 344
#     4  11  21  36  57  78 109 157 204 246 290 341
#     4  11  23  42  66  91 120 151 188 240 297 354
#     4   9  19  36  59  84 114 155 200 245 285 340
#     4  10  21  39  65  91 118 150 187 238 295 355
#     4  11  22  39  62  88 117 156 202 243 292 351
#     4  10  21  39  61  86 115 154 202 241 287 351
#     4  11  23  37  53  81 118 156 196 245 296 345
#
# _framework density 19.145447999999998
#
# number of rings (size 3 to 8) (size 9 to 14) (size 15 to 20)
#    0.000    1.500    2.500    3.750    1.750    2.000 
#    0.000    1.875    0.000    1.500    0.000    0.000 
#    0.000    0.000    0.000    0.000    0.000    0.000 
#
# Total GULP energy -178600.092497 kJ/mol
# GULP energy per Si atom -5581.252891 kJ/mol
# Density = 1.910187 g / cm^3
# Si number density = 19.145448 Si / 1000 Ang^3
#
#
#
# Elastic Constant Matrix: (Units=GPa)
#
#
# Indices 1 2 3 4 5 6 
#
# 1 53.1604 18.0708 32.9365 -0.0002 0.0000 0.0000
# 2 18.0708 61.5547 50.9221 -0.0004 -0.0001 -0.0001
# 3 32.9365 50.9221 147.9882 -0.0010 -0.0004 -0.0001
# 4 -0.0002 -0.0004 -0.0010 33.6645 -0.0003 -0.0001
# 5 0.0000 -0.0001 -0.0004 -0.0003 -0.7208 -0.0001
# 6 0.0000 -0.0001 -0.0001 -0.0001 -0.0001 21.5052
#
#
#
# Elastic Compliance Matrix: (Units=1/GPa)
#
#
# Indices 1 2 3 4 5 6 
#
# 1 0.022322 -0.003415 -0.003793 0.000000 0.000001 0.000000
# 2 -0.003415 0.023233 -0.007234 0.000000 0.000000 0.000000
# 3 -0.003793 -0.007234 0.010091 0.000000 -0.000004 0.000000
# 4 0.000000 0.000000 0.000000 0.029705 -0.000011 0.000000
# 5 0.000001 0.000000 -0.000004 -0.000011 -1.387281 -0.000009
# 6 0.000000 0.000000 0.000000 0.000000 -0.000009 0.046500
#
#
# Mechanical properties :
#
#
# Convention : Reuss Voigt Hill
#
# Bulk Modulus (GPa) = 37.36826 51.84023 44.60424
# Shear Modulus (GPa) = -4.10635 21.60806 8.75085
#
# Velocity S-wave (km/s) = -1.46611 3.36315 2.14024
# Velocity P-wave (km/s) = 4.08589 6.49745 5.42731
#
# Compressibility (1/GPa) = 0.02676068
#
# Stress axis : x y z
#
# Youngs Moduli (GPa) = 44.79910 43.04217 99.10137
#
# Poissons Ratio (x) = 0.14701 0.37587
# Poissons Ratio (y) = 0.15301 0.71692
# Poissons Ratio (z) = 0.16991 0.31138
#
# Static dielectric constant tensor:
#      x y z
#    x 1.668820 0.000000 0.000000 
#    y 0.000000 1.641230 0.000000 
#    z 0.000000 0.000000 1.715130 
# 
# From -- ./inp_files/9734.got.cif
#   From: 2010.05.17/outbox.cif.g08.bks.cpg/sg46_5_cif.got.tgz:9734.got - 2010.06.03 19:58:25.
