data_PCOD9380371
_publ_section_title
;
Structure prediction by ZEFSAII (Michael W. Deem and Ramdas Pophale) SiO2 
 PCOD9380371
Probable space group: I M A 2
;
_chemical_formula_sum "Si O2"
_cell_formula_units_Z 40
_cell_length_a 18.191666
_cell_length_b 10.125089
_cell_length_c 10.080132
_cell_angle_alpha 90.000000
_cell_angle_beta 90.000000
_cell_angle_gamma 90.000000
_cell_volume 1856.682065
_symmetry_space_group_name_H-M "I M A 2"
_symmetry_group_IT_number 46
_symmetry_cell_setting 'orthorhombic'
loop_
_space_group_symop_operation_xyz
x,y,z
-x,-y,z
1/2-x,y,z
1/2+x,-y,z
1/2+x,1/2+y,1/2+z
1/2-x,1/2-y,1/2+z
-x,1/2+y,1/2+z
x,1/2-y,1/2+z
loop_
_atom_site_type_symbol
_atom_site_label
_atom_site_fract_x
_atom_site_fract_y
_atom_site_fract_z
Si Si1 0.665029 0.492291 0.773250
Si Si2 0.834816 0.037876 0.589395
Si Si3 0.974754 0.848092 0.946949
Si Si4 0.941984 0.236058 0.195668
Si Si5 0.834812 0.796416 0.784832
O O1 0.750000 0.457833 0.741880
O O2 0.608154 0.394381 0.704844
O O3 0.653198 0.645581 0.741545
O O4 0.655167 0.478563 0.932267
O O5 0.750000 0.079876 0.612057
O O6 0.890520 0.144159 0.648236
O O7 0.845016 0.900076 0.665949
O O8 0.891157 0.833752 0.900529
O O9 0.022562 0.771194 0.836151
O O10 0.000000 0.000000 0.944250
O O11 0.995094 0.787066 0.087761
O O12 0.750000 0.805134 0.830623
#
# Coordination Sequence:
#
# PCOD9380371 Si02
#       5
#     8   8   8   8   8
#     4  10  23  44  72 108 142 188 243 296 362 430
#     4  10  21  44  73 104 142 187 236 295 363 426
#     4  12  28  45  71 109 143 188 245 294 370 424
#     4  12  25  47  71 103 145 188 239 304 351 430
#     4  10  24  46  71 103 145 188 236 294 363 439
#
# _framework density 21.543806
#
# number of rings (size 3 to 8) (size 9 to 14) (size 15 to 20)
#    0.000    1.200    4.000    0.600    5.600    0.000 
#    0.000    2.000    0.000    0.000    0.000    0.000 
#    0.000    0.000    0.000    0.000    0.000    0.000 
#
# Total GULP energy -112044.558126 kJ/mol
# GULP energy per Si atom -5602.227906 kJ/mol
# Density = 2.149477 g / cm^3
# Si number density = 21.543806 Si / 1000 Ang^3
#
#
#
# Elastic Constant Matrix: (Units=GPa)
#
#
# Indices 1 2 3 4 5 6 
#
# 1 124.6994 59.5298 39.4649 0.0000 0.0000 0.0000
# 2 59.5298 106.4433 6.6682 0.0000 0.0000 0.0000
# 3 39.4649 6.6682 61.2418 0.0000 0.0000 0.0000
# 4 0.0000 0.0000 0.0000 31.6865 0.0000 0.0000
# 5 0.0000 0.0000 0.0000 0.0000 31.9933 0.0000
# 6 0.0000 0.0000 0.0000 0.0000 0.0000 28.8413
#
#
#
# Elastic Compliance Matrix: (Units=1/GPa)
#
#
# Indices 1 2 3 4 5 6 
#
# 1 0.014202 -0.007420 -0.008344 0.000000 0.000000 0.000000
# 2 -0.007420 0.013336 0.003330 0.000000 0.000000 0.000000
# 3 -0.008344 0.003330 0.021343 0.000000 0.000000 0.000000
# 4 0.000000 0.000000 0.000000 0.031559 0.000000 0.000000
# 5 0.000000 0.000000 0.000000 0.000000 0.031257 0.000000
# 6 0.000000 0.000000 0.000000 0.000000 0.000000 0.034672
#
#
# Mechanical properties :
#
#
# Convention : Reuss Voigt Hill
#
# Bulk Modulus (GPa) = 41.64591 55.96779 48.80685
# Shear Modulus (GPa) = 27.89508 30.95235 29.42371
#
# Velocity S-wave (km/s) = 3.60225 3.79452 3.69963
# Velocity P-wave (km/s) = 6.05593 6.72553 6.39950
#
# Compressibility (1/GPa) = 0.02401196
#
# Stress axis : x y z
#
# Youngs Moduli (GPa) = 70.41112 74.98569 46.85317
#
# Poissons Ratio (x) = 0.55640 0.39095
# Poissons Ratio (y) = 0.52246 -0.15600
# Poissons Ratio (z) = 0.58752 -0.24967
#
# Static dielectric constant tensor:
#      x y z
#    x 1.771900 0.000000 0.000000 
#    y 0.000000 1.737780 0.000000 
#    z 0.000000 0.000000 1.747480 
# 
# From -- ./inp_files/11610.got.cif
#   From: 2010.05.17/outbox.cif.g08.bks.cpg/sg46_6_cif.got.tgz:11610.got - 2010.06.03 19:58:25.
