data_PCOD9380463
_publ_section_title
;
Structure prediction by ZEFSAII (Michael W. Deem and Ramdas Pophale) SiO2 
 PCOD9380463
Probable space group: I M A 2
;
_chemical_formula_sum "Si O2"
_cell_formula_units_Z 36
_cell_length_a 17.617424
_cell_length_b 13.897645
_cell_length_c 7.096715
_cell_angle_alpha 90.000000
_cell_angle_beta 90.000000
_cell_angle_gamma 90.000000
_cell_volume 1737.564701
_symmetry_space_group_name_H-M "I M A 2"
_symmetry_group_IT_number 46
_symmetry_cell_setting 'orthorhombic'
loop_
_space_group_symop_operation_xyz
x,y,z
-x,-y,z
1/2-x,y,z
1/2+x,-y,z
1/2+x,1/2+y,1/2+z
1/2-x,1/2-y,1/2+z
-x,1/2+y,1/2+z
x,1/2-y,1/2+z
loop_
_atom_site_type_symbol
_atom_site_label
_atom_site_fract_x
_atom_site_fract_y
_atom_site_fract_z
Si Si1 0.250000 0.392989 0.648360
Si Si2 0.750000 0.316550 0.451567
Si Si3 0.000000 0.000000 0.337380
Si Si4 0.880276 0.964607 0.629422
Si Si5 0.250000 0.172735 0.577827
Si Si6 0.250000 0.603021 0.032860
Si Si7 0.878589 0.454661 0.539859
O O1 0.250000 0.286828 0.561008
O O2 0.177515 0.457593 0.596174
O O3 0.250000 0.368521 0.867606
O O4 0.750000 0.366219 0.249678
O O5 0.750000 0.202992 0.426308
O O6 0.826123 0.359679 0.542726
O O7 0.052445 0.059227 0.484502
O O8 0.945297 0.054773 0.191095
O O9 0.825230 0.874001 0.670753
O O10 0.825498 0.039803 0.517680
O O11 0.903467 0.016348 0.825857
#
# Coordination Sequence:
#
# PCOD9380463 Si02
#       7
#     4   4   4   8   4   4   8
#     4  11  20  38  66  91 115 153 211 256 291 347
#     4   9  20  36  64  88 114 149 206 254 282 336
#     4  12  22  38  64  82 132 160 194 228 316 380
#     4  10  22  40  60  91 119 159 199 250 298 346
#     4  11  20  38  66  91 115 153 211 256 291 347
#     4   9  20  36  64  88 114 149 206 254 282 336
#     4  10  22  40  60  91 119 159 199 250 298 346
#
# _framework density 20.718654000000001
#
# number of rings (size 3 to 8) (size 9 to 14) (size 15 to 20)
#    0.000    1.778    2.222    4.000    3.111    0.000 
#    0.000    2.222    0.000    0.000    0.000    0.000 
#    0.000    0.000    0.000    0.000    0.000    0.000 
#
# Total GULP energy -100408.567754 kJ/mol
# GULP energy per Si atom -5578.253764 kJ/mol
# Density = 2.067150 g / cm^3
# Si number density = 20.718654 Si / 1000 Ang^3
#
#
#
# Elastic Constant Matrix: (Units=GPa)
#
#
# Indices 1 2 3 4 5 6 
#
# 1 95.1888 17.0254 46.8327 0.0000 0.0000 0.0000
# 2 17.0254 101.4014 8.7570 0.0000 0.0000 0.0000
# 3 46.8327 8.7570 120.0181 0.0000 0.0000 0.0000
# 4 0.0000 0.0000 0.0000 -41.6523 0.0000 0.0000
# 5 0.0000 0.0000 0.0000 0.0000 59.9595 0.0000
# 6 0.0000 0.0000 0.0000 0.0000 0.0000 3.9711
#
#
#
# Elastic Compliance Matrix: (Units=1/GPa)
#
#
# Indices 1 2 3 4 5 6 
#
# 1 0.013320 -0.001799 -0.005066 0.000000 0.000000 0.000000
# 2 -0.001799 0.010167 -0.000040 0.000000 0.000000 0.000000
# 3 -0.005066 -0.000040 0.010312 0.000000 0.000000 0.000000
# 4 0.000000 0.000000 0.000000 -0.024008 0.000000 0.000000
# 5 0.000000 0.000000 0.000000 0.000000 0.016678 0.000000
# 6 0.000000 0.000000 0.000000 0.000000 0.000000 0.251818
#
#
# Mechanical properties :
#
#
# Convention : Reuss Voigt Hill
#
# Bulk Modulus (GPa) = 50.02798 51.31541 50.67169
# Shear Modulus (GPa) = 16.73585 20.72186 18.72886
#
# Velocity S-wave (km/s) = 2.84521 3.16595 3.00986
# Velocity P-wave (km/s) = 5.91544 6.17947 6.04889
#
# Compressibility (1/GPa) = 0.01998882
#
# Stress axis : x y z
#
# Youngs Moduli (GPa) = 75.07623 98.35470 96.97509
#
# Poissons Ratio (x) = 0.17693 0.49131
# Poissons Ratio (y) = 0.13505 0.00387
# Poissons Ratio (z) = 0.38036 0.00392
#
# Static dielectric constant tensor:
#      x y z
#    x 1.779290 0.000000 0.000000 
#    y 0.000000 2.030850 0.000000 
#    z 0.000000 0.000000 1.836280 
# 
# From -- ./inp_files/6480.got.cif
#   From: 2010.05.17/outbox.cif.g08.bks.cpg/sg46_4_cif.got.tgz:6480.got - 2010.06.03 19:58:25.
