data_PCOD9380693
_publ_section_title
;
Structure prediction by ZEFSAII (Michael W. Deem and Ramdas Pophale) SiO2 
 PCOD9380693
Probable space group: I M A 2
;
_chemical_formula_sum "Si O2"
_cell_formula_units_Z 56
_cell_length_a 21.750641
_cell_length_b 4.803615
_cell_length_c 22.808465
_cell_angle_alpha 90.000000
_cell_angle_beta 90.000000
_cell_angle_gamma 90.000000
_cell_volume 2383.067320
_symmetry_space_group_name_H-M "I M A 2"
_symmetry_group_IT_number 46
_symmetry_cell_setting 'orthorhombic'
loop_
_space_group_symop_operation_xyz
x,y,z
-x,-y,z
1/2-x,y,z
1/2+x,-y,z
1/2+x,1/2+y,1/2+z
1/2-x,1/2-y,1/2+z
-x,1/2+y,1/2+z
x,1/2-y,1/2+z
loop_
_atom_site_type_symbol
_atom_site_label
_atom_site_fract_x
_atom_site_fract_y
_atom_site_fract_z
Si Si1 0.250000 0.757566 0.337600
Si Si2 0.128354 0.910869 0.787064
Si Si3 0.063762 0.852273 0.187284
Si Si4 0.179854 0.754407 0.558133
Si Si5 0.635613 0.876214 0.662786
Si Si6 0.250000 0.227002 0.908740
Si Si7 0.953781 0.747947 0.380197
Si Si8 0.862356 0.770291 0.984986
O O1 0.317621 0.788899 0.310269
O O2 0.250000 0.424557 0.346781
O O3 0.250000 0.948101 0.395171
O O4 0.076637 0.719379 0.755406
O O5 0.155980 0.065035 0.729605
O O6 0.095271 0.122922 0.832252
O O7 0.072123 0.553660 0.157328
O O8 0.117802 0.053993 0.162932
O O9 0.000000 0.000000 0.179364
O O10 0.250000 0.647305 0.556927
O O11 0.135935 0.494668 0.538188
O O12 0.175272 0.955749 0.615805
O O13 0.163971 0.983732 0.509599
O O14 0.190542 0.121192 0.941946
O O15 0.918806 0.795084 0.442039
O O16 0.000000 0.500000 0.391366
O O17 0.000000 0.000000 0.364116
#
# Coordination Sequence:
#
# PCOD9380693 Si02
#       8
#     4   8   8   8   8   4   8   8
#     4  12  26  42  70 107 147 190 228 327 372 452
#     4  10  28  43  74 104 150 191 251 300 392 455
#     4  10  23  44  65  98 141 191 238 294 355 447
#     4  12  24  46  77 106 142 194 243 310 374 450
#     4  10  25  42  68 106 141 185 247 298 359 449
#     4  12  24  44  68 103 143 180 244 295 368 456
#     4  12  29  46  74 107 150 195 249 315 374 456
#     4  12  25  48  74 104 141 188 250 299 377 440
#
# _framework density 23.499127000000001
#
# number of rings (size 3 to 8) (size 9 to 14) (size 15 to 20)
#    0.857    0.000    2.857    3.000    9.000    0.000 
#    1.286    7.143    0.000    0.000    0.000    0.000 
#    0.000    0.000    0.000    0.000    0.000    0.000 
#
# Total GULP energy -155898.831943 kJ/mol
# GULP energy per Si atom -5567.815427 kJ/mol
# Density = 2.344564 g / cm^3
# Si number density = 23.499127 Si / 1000 Ang^3
#
#
#
# Elastic Constant Matrix: (Units=GPa)
#
#
# Indices 1 2 3 4 5 6 
#
# 1 68.8582 -2.7412 31.4987 0.0000 0.0000 0.0000
# 2 -2.7412 89.1761 10.8904 0.0000 0.0000 0.0000
# 3 31.4987 10.8904 118.4610 0.0000 0.0000 0.0000
# 4 0.0000 0.0000 0.0000 29.6943 0.0000 0.0000
# 5 0.0000 0.0000 0.0000 0.0000 18.8789 0.0000
# 6 0.0000 0.0000 0.0000 0.0000 0.0000 24.9377
#
#
#
# Elastic Compliance Matrix: (Units=1/GPa)
#
#
# Indices 1 2 3 4 5 6 
#
# 1 0.016633 0.001063 -0.004520 0.000000 0.000000 0.000000
# 2 0.001063 0.011409 -0.001332 0.000000 0.000000 0.000000
# 3 -0.004520 -0.001332 0.009766 0.000000 0.000000 0.000000
# 4 0.000000 0.000000 0.000000 0.033676 0.000000 0.000000
# 5 0.000000 0.000000 0.000000 0.000000 0.052969 0.000000
# 6 0.000000 0.000000 0.000000 0.000000 0.000000 0.040100
#
#
# Mechanical properties :
#
#
# Convention : Reuss Voigt Hill
#
# Bulk Modulus (GPa) = 35.42272 39.53234 37.47753
# Shear Modulus (GPa) = 27.24189 30.49202 28.86695
#
# Velocity S-wave (km/s) = 3.40850 3.60610 3.50869
# Velocity P-wave (km/s) = 5.53148 5.84791 5.69190
#
# Compressibility (1/GPa) = 0.02823047
#
# Stress axis : x y z
#
# Youngs Moduli (GPa) = 60.12232 87.64960 102.39623
#
# Poissons Ratio (x) = -0.09320 0.46287
# Poissons Ratio (y) = -0.06393 0.13635
# Poissons Ratio (z) = 0.27178 0.11671
#
# Static dielectric constant tensor:
#      x y z
#    x 1.978140 0.000000 0.000000 
#    y 0.000000 2.092650 0.000000 
#    z 0.000000 0.000000 1.971850 
# 
# From -- ./inp_files/23862.got.cif
#   From: 2010.05.17/outbox.cif.g08.bks.cpg/sg46_12_cif.got.tgz:23862.got - 2010.06.03 19:58:25.
