data_PCOD9380348
_publ_section_title
;
Structure prediction by ZEFSAII (Michael W. Deem and Ramdas Pophale) SiO2 
 PCOD9380348
Probable space group: I M A 2
;
_chemical_formula_sum "Si O2"
_cell_formula_units_Z 48
_cell_length_a 16.598725
_cell_length_b 9.451264
_cell_length_c 13.703725
_cell_angle_alpha 90.000000
_cell_angle_beta 90.000000
_cell_angle_gamma 90.000000
_cell_volume 2149.825743
_symmetry_space_group_name_H-M "I M A 2"
_symmetry_group_IT_number 46
_symmetry_cell_setting 'orthorhombic'
loop_
_space_group_symop_operation_xyz
x,y,z
-x,-y,z
1/2-x,y,z
1/2+x,-y,z
1/2+x,1/2+y,1/2+z
1/2-x,1/2-y,1/2+z
-x,1/2+y,1/2+z
x,1/2-y,1/2+z
loop_
_atom_site_type_symbol
_atom_site_label
_atom_site_fract_x
_atom_site_fract_y
_atom_site_fract_z
Si Si1 0.337131 0.360268 0.577520
Si Si2 0.479839 0.653891 0.355829
Si Si3 0.840590 0.326563 0.607695
Si Si4 0.400115 0.371254 0.955043
Si Si5 0.988562 0.696219 0.131037
Si Si6 0.341691 0.854084 0.340621
O O1 0.250000 0.340827 0.630278
O O2 0.341394 0.524610 0.551637
O O3 0.337097 0.249616 0.487778
O O4 0.421289 0.323124 0.631766
O O5 0.500000 0.500000 0.398336
O O6 0.533867 0.778963 0.399066
O O7 0.498821 0.649097 0.240798
O O8 0.390274 0.712917 0.366640
O O9 0.750000 0.260999 0.595143
O O10 0.846391 0.367937 0.723174
O O11 0.923736 0.242180 0.590064
O O12 0.374123 0.506006 0.894296
O O13 0.439042 0.408485 0.060136
O O14 0.250000 0.837602 0.369130
#
# Coordination Sequence:
#
# PCOD9380348 Si02
#       6
#     8   8   8   8   8   8
#     4   9  18  32  57  92 125 165 219 272 326 394
#     4  11  24  42  64  97 131 174 224 276 344 407
#     4   9  17  33  62  94 130 175 220 272 338 406
#     4  10  22  36  68  92 131 175 223 273 336 404
#     4   9  21  37  62  89 130 169 221 281 337 405
#     4  10  21  42  68  96 131 172 226 280 336 412
#
# _framework density 22.327390000000001
#
# number of rings (size 3 to 8) (size 9 to 14) (size 15 to 20)
#    1.000    1.333    0.000    2.500    2.333    4.000 
#    0.000    4.167    0.000    2.000    0.000    1.167 
#    0.000    0.000    0.000    0.000    0.000    0.000 
#
# Total GULP energy -133714.397177 kJ/mol
# GULP energy per Si atom -5571.433216 kJ/mol
# Density = 2.227657 g / cm^3
# Si number density = 22.327390 Si / 1000 Ang^3
#
#
#
# Elastic Constant Matrix: (Units=GPa)
#
#
# Indices 1 2 3 4 5 6 
#
# 1 177.1233 55.0020 15.9146 0.0000 0.0000 0.0000
# 2 55.0020 97.6916 22.6648 0.0000 0.0000 0.0000
# 3 15.9146 22.6648 82.7814 0.0000 0.0000 0.0000
# 4 0.0000 0.0000 0.0000 26.1870 0.0000 0.0000
# 5 0.0000 0.0000 0.0000 0.0000 28.5357 0.0000
# 6 0.0000 0.0000 0.0000 0.0000 0.0000 27.0887
#
#
#
# Elastic Compliance Matrix: (Units=1/GPa)
#
#
# Indices 1 2 3 4 5 6 
#
# 1 0.006848 -0.003791 -0.000279 0.000000 0.000000 0.000000
# 2 -0.003791 0.013029 -0.002838 0.000000 0.000000 0.000000
# 3 -0.000279 -0.002838 0.012911 0.000000 0.000000 0.000000
# 4 0.000000 0.000000 0.000000 0.038187 0.000000 0.000000
# 5 0.000000 0.000000 0.000000 0.000000 0.035044 0.000000
# 6 0.000000 0.000000 0.000000 0.000000 0.000000 0.036916
#
#
# Mechanical properties :
#
#
# Convention : Reuss Voigt Hill
#
# Bulk Modulus (GPa) = 52.70947 60.52880 56.61914
# Shear Modulus (GPa) = 30.66086 33.96327 32.31206
#
# Velocity S-wave (km/s) = 3.70975 3.90442 3.80833
# Velocity P-wave (km/s) = 6.48139 6.89163 6.68965
#
# Compressibility (1/GPa) = 0.01897192
#
# Stress axis : x y z
#
# Youngs Moduli (GPa) = 146.02804 76.75092 77.45506
#
# Poissons Ratio (x) = 0.29095 0.02158
# Poissons Ratio (y) = 0.55358 0.21985
# Poissons Ratio (z) = 0.04068 0.21786
#
# Static dielectric constant tensor:
#      x y z
#    x 1.872260 0.000000 0.000000 
#    y 0.000000 1.868660 0.000000 
#    z 0.000000 0.000000 1.875790 
# 
# From -- ./inp_files/15871.got.cif
#   From: 2010.05.17/outbox.cif.g08.bks.cpg/sg46_8_cif.got.tgz:15871.got - 2010.06.03 19:58:25.
