data_PCOD9380480
_publ_section_title
;
Structure prediction by ZEFSAII (Michael W. Deem and Ramdas Pophale) SiO2 
 PCOD9380480
Probable space group: I M A 2
;
_chemical_formula_sum "Si O2"
_cell_formula_units_Z 64
_cell_length_a 8.853661
_cell_length_b 24.293400
_cell_length_c 15.706729
_cell_angle_alpha 90.000000
_cell_angle_beta 90.000000
_cell_angle_gamma 90.000000
_cell_volume 3378.290102
_symmetry_space_group_name_H-M "I M A 2"
_symmetry_group_IT_number 46
_symmetry_cell_setting 'orthorhombic'
loop_
_space_group_symop_operation_xyz
x,y,z
-x,-y,z
1/2-x,y,z
1/2+x,-y,z
1/2+x,1/2+y,1/2+z
1/2-x,1/2-y,1/2+z
-x,1/2+y,1/2+z
x,1/2-y,1/2+z
loop_
_atom_site_type_symbol
_atom_site_label
_atom_site_fract_x
_atom_site_fract_y
_atom_site_fract_z
Si Si1 0.572818 0.752841 0.929730
Si Si2 0.931941 0.439462 0.032081
Si Si3 0.927182 0.747159 0.634431
Si Si4 0.570464 0.131895 0.182306
Si Si5 0.931356 0.361917 0.188865
Si Si6 0.429823 0.060558 0.032081
Si Si7 0.070464 0.868105 0.881855
Si Si8 0.068644 0.638083 0.875296
O O1 0.750000 0.759772 0.910042
O O2 0.481403 0.805328 0.896529
O O3 0.511096 0.696296 0.891215
O O4 0.556149 0.750319 0.032081
O O5 0.750000 0.443444 0.032081
O O6 0.977061 0.404658 0.115556
O O7 0.000000 0.500000 0.032081
O O8 0.977061 0.404658 0.948605
O O9 0.750000 0.740228 0.654119
O O10 0.018597 0.694672 0.667632
O O11 0.988904 0.803704 0.672946
O O12 0.750000 0.127455 0.168522
O O13 0.536191 0.117292 0.280219
O O14 0.485999 0.093974 0.114591
O O15 0.750000 0.353516 0.182381
O O16 0.963809 0.382708 0.283942
O O17 0.250000 0.057556 0.032081
O O18 0.485999 0.093973 0.949571
O O19 0.500000 0.000000 0.032081
O O20 0.250000 0.872545 0.895639
O O21 0.250000 0.646484 0.881781
#
# Coordination Sequence:
#
# PCOD9380480 Si02
#       8
#     8   8   8   8   8   8   8   8
#     4  11  22  36  59  92 127 162 201 248 305 361
#     4  10  22  41  62  85 118 155 199 249 295 352
#     4  11  22  36  59  92 127 162 201 248 305 361
#     4  11  23  40  64  93 123 160 203 250 304 365
#     4  10  22  40  63  90 122 161 204 248 302 362
#     4  12  26  45  66  89 120 161 205 255 307 362
#     4  11  23  40  64  93 123 160 203 250 304 365
#     4  10  22  40  63  90 122 161 204 248 302 362
#
# _framework density 18.944495
#
# number of rings (size 3 to 8) (size 9 to 14) (size 15 to 20)
#    0.000    1.250    2.500    3.375    0.000    8.000 
#    0.000    2.500    0.000    0.000    0.000    0.000 
#    0.000    0.000    0.000    0.000    0.000    0.000 
#
# Total GULP energy -178974.534276 kJ/mol
# GULP energy per Si atom -5592.954196 kJ/mol
# Density = 1.890138 g / cm^3
# Si number density = 18.944495 Si / 1000 Ang^3
#
#
#
# Elastic Constant Matrix: (Units=GPa)
#
#
# Indices 1 2 3 4 5 6 
#
# 1 85.0136 56.9560 79.7465 0.0000 0.0000 0.0000
# 2 56.9560 150.2768 81.0651 0.0000 0.0000 0.0000
# 3 79.7465 81.0651 159.6554 0.0000 0.0000 0.0000
# 4 0.0000 0.0000 0.0000 -5.5928 0.0000 0.0000
# 5 0.0000 0.0000 0.0000 0.0000 22.8157 0.0000
# 6 0.0000 0.0000 0.0000 0.0000 0.0000 40.0936
#
#
#
# Elastic Compliance Matrix: (Units=1/GPa)
#
#
# Indices 1 2 3 4 5 6 
#
# 1 0.023421 -0.003534 -0.009904 0.000000 0.000000 0.000000
# 2 -0.003534 0.009698 -0.003159 0.000000 0.000000 0.000000
# 3 -0.009904 -0.003159 0.012814 0.000000 0.000000 0.000000
# 4 0.000000 0.000000 0.000000 -0.178801 0.000000 0.000000
# 5 0.000000 0.000000 0.000000 0.000000 0.043829 0.000000
# 6 0.000000 0.000000 0.000000 0.000000 0.000000 0.024942
#
#
# Mechanical properties :
#
#
# Convention : Reuss Voigt Hill
#
# Bulk Modulus (GPa) = 78.49815 92.27568 85.38691
# Shear Modulus (GPa) = -187.57441 23.27519 -82.14961
#
# Velocity S-wave (km/s) = -9.96130 3.50894 -6.59223
# Velocity P-wave (km/s) = 9.52773 8.07658 3.57397
#
# Compressibility (1/GPa) = 0.01273915
#
# Stress axis : x y z
#
# Youngs Moduli (GPa) = 42.69652 103.11604 78.03677
#
# Poissons Ratio (x) = 0.36442 0.77289
# Poissons Ratio (y) = 0.15089 0.24651
# Poissons Ratio (z) = 0.42288 0.32573
#
# Static dielectric constant tensor:
#      x y z
#    x 1.635080 0.000000 0.000000 
#    y 0.000000 1.602320 0.000000 
#    z 0.000000 0.000000 1.668130 
# 
# From -- ./inp_files/14517.got.cif
#   From: 2010.05.17/outbox.cif.g08.bks.cpg/sg46_8_cif.got.tgz:14517.got - 2010.06.03 19:58:25.
