data_PCOD9380096
_publ_section_title
;
Structure prediction by ZEFSAII (Michael W. Deem and Ramdas Pophale) SiO2 
 PCOD9380096
Probable space group: I M A 2
;
_chemical_formula_sum "Si O2"
_cell_formula_units_Z 64
_cell_length_a 8.626354
_cell_length_b 11.606696
_cell_length_c 28.040286
_cell_angle_alpha 90.000000
_cell_angle_beta 90.000000
_cell_angle_gamma 90.000000
_cell_volume 2807.490691
_symmetry_space_group_name_H-M "I M A 2"
_symmetry_group_IT_number 46
_symmetry_cell_setting 'orthorhombic'
loop_
_space_group_symop_operation_xyz
x,y,z
-x,-y,z
1/2-x,y,z
1/2+x,-y,z
1/2+x,1/2+y,1/2+z
1/2-x,1/2-y,1/2+z
-x,1/2+y,1/2+z
x,1/2-y,1/2+z
loop_
_atom_site_type_symbol
_atom_site_label
_atom_site_fract_x
_atom_site_fract_y
_atom_site_fract_z
Si Si1 0.566675 0.621843 0.133610
Si Si2 0.572967 0.124724 0.159519
Si Si3 0.930279 0.356406 0.030506
Si Si4 0.923332 0.398715 0.502612
Si Si5 0.930177 0.878487 0.797209
Si Si6 0.073490 0.875645 0.274618
Si Si7 0.433281 0.652040 0.397022
Si Si8 0.434096 0.117657 0.425565
O O1 0.500000 0.500000 0.154823
O O2 0.750000 0.620851 0.140756
O O3 0.503811 0.749265 0.148684
O O4 0.521420 0.613716 0.077823
O O5 0.750000 0.129602 0.141440
O O6 0.575136 0.118972 0.217053
O O7 0.500000 0.000000 0.144517
O O8 0.750000 0.397900 0.028739
O O9 0.923293 0.218748 0.029944
O O10 0.022883 0.381907 0.981974
O O11 0.750000 0.434036 0.492617
O O12 0.993478 0.382959 0.449735
O O13 0.000000 0.500000 0.530890
O O14 0.750000 0.876922 0.785463
O O15 0.998302 0.750939 0.785121
O O16 0.960699 0.887664 0.853977
O O17 0.000000 0.000000 0.777285
O O18 0.250000 0.871425 0.292469
O O19 0.000000 0.000000 0.289922
O O20 0.250000 0.626445 0.390201
O O21 0.460810 0.787541 0.400542
O O22 0.250000 0.133800 0.419146
O O23 0.500000 0.000000 0.406031
#
# Coordination Sequence:
#
# PCOD9380096 Si02
#       8
#     8   8   8   8   8   8   8   8
#     4  12  25  41  63  92 126 165 208 257 312 370
#     4  10  22  43  70  98 128 163 203 249 304 367
#     4  10  21  38  55  78 114 155 200 251 306 363
#     4   9  19  33  53  77 106 146 192 244 297 352
#     4  12  25  41  63  93 128 167 209 256 310 368
#     4  10  22  43  70  98 128 163 203 250 305 367
#     4  10  21  38  56  80 114 153 199 251 305 360
#     4  11  21  35  55  80 110 150 200 252 307 365
#
# _framework density 22.796156
#
# number of rings (size 3 to 8) (size 9 to 14) (size 15 to 20)
#    0.000    1.500    0.000    6.375    0.000    7.000 
#    0.000    3.750    0.000    0.000    0.000    0.000 
#    0.000    0.000    0.000    0.000    0.000    0.000 
#
# Total GULP energy -178417.060533 kJ/mol
# GULP energy per Si atom -5575.533142 kJ/mol
# Density = 2.274427 g / cm^3
# Si number density = 22.796156 Si / 1000 Ang^3
#
#
#
# Elastic Constant Matrix: (Units=GPa)
#
#
# Indices 1 2 3 4 5 6 
#
# 1 150.1629 94.9309 8.4405 0.0000 0.0000 0.0000
# 2 94.9309 228.4376 13.7766 0.0000 0.0000 0.0000
# 3 8.4405 13.7766 51.5628 0.0000 0.0000 0.0000
# 4 0.0000 0.0000 0.0000 -116.6923 0.0000 0.0000
# 5 0.0000 0.0000 0.0000 0.0000 33.4073 0.0000
# 6 0.0000 0.0000 0.0000 0.0000 0.0000 48.6095
#
#
#
# Elastic Compliance Matrix: (Units=1/GPa)
#
#
# Indices 1 2 3 4 5 6 
#
# 1 0.009044 -0.003729 -0.000484 0.000000 0.000000 0.000000
# 2 -0.003729 0.005987 -0.000989 0.000000 0.000000 0.000000
# 3 -0.000484 -0.000989 0.019737 0.000000 0.000000 0.000000
# 4 0.000000 0.000000 0.000000 -0.008570 0.000000 0.000000
# 5 0.000000 0.000000 0.000000 0.000000 0.029934 0.000000
# 6 0.000000 0.000000 0.000000 0.000000 0.000000 0.020572
#
#
# Mechanical properties :
#
#
# Convention : Reuss Voigt Hill
#
# Bulk Modulus (GPa) = 41.04496 73.82881 57.43688
# Shear Modulus (GPa) = 52.50397 13.93261 33.21829
#
# Velocity S-wave (km/s) = 4.80437 2.47489 3.82145
# Velocity P-wave (km/s) = 6.98715 6.37367 6.68744
#
# Compressibility (1/GPa) = 0.02436353
#
# Stress axis : x y z
#
# Youngs Moduli (GPa) = 110.56750 167.02909 50.66537
#
# Poissons Ratio (x) = 0.62290 0.02453
# Poissons Ratio (y) = 0.41234 0.05012
# Poissons Ratio (z) = 0.05353 0.16522
#
# Static dielectric constant tensor:
#      x y z
#    x 1.762640 0.000000 0.000000 
#    y 0.000000 1.930810 0.000000 
#    z 0.000000 0.000000 1.880790 
# 
# From -- ./inp_files/25194.got.cif
#   From: 2010.05.17/outbox.cif.g08.bks.cpg/sg46_13_cif.got.tgz:25194.got - 2010.06.03 19:58:25.
