data_PCOD9380281
_publ_section_title
;
Structure prediction by ZEFSAII (Michael W. Deem and Ramdas Pophale) SiO2 
 PCOD9380281
Probable space group: I M A 2
;
_chemical_formula_sum "Si O2"
_cell_formula_units_Z 56
_cell_length_a 20.607693
_cell_length_b 9.223481
_cell_length_c 13.424367
_cell_angle_alpha 90.000000
_cell_angle_beta 90.000000
_cell_angle_gamma 90.000000
_cell_volume 2551.632058
_symmetry_space_group_name_H-M "I M A 2"
_symmetry_group_IT_number 46
_symmetry_cell_setting 'orthorhombic'
loop_
_space_group_symop_operation_xyz
x,y,z
-x,-y,z
1/2-x,y,z
1/2+x,-y,z
1/2+x,1/2+y,1/2+z
1/2-x,1/2-y,1/2+z
-x,1/2+y,1/2+z
x,1/2-y,1/2+z
loop_
_atom_site_type_symbol
_atom_site_label
_atom_site_fract_x
_atom_site_fract_y
_atom_site_fract_z
Si Si1 0.679514 0.484704 0.073400
Si Si2 0.986858 0.255413 0.133378
Si Si3 0.564580 0.933140 0.465027
Si Si4 0.574842 0.047283 0.979475
Si Si5 0.400780 0.293634 0.765780
Si Si6 0.392198 0.554229 0.263330
Si Si7 0.322796 0.336888 0.582738
O O1 0.750000 0.436755 0.037428
O O2 0.667973 0.432723 0.186751
O O3 0.677271 0.661818 0.068598
O O4 0.615561 0.451799 0.009201
O O5 0.938048 0.157650 0.069731
O O6 0.949375 0.365617 0.204546
O O7 0.034981 0.164971 0.203730
O O8 0.033851 0.339732 0.055570
O O9 0.598834 0.847920 0.377235
O O10 0.500000 0.000000 0.418525
O O11 0.500000 0.000000 0.953967
O O12 0.623181 0.921971 0.019118
O O13 0.606131 0.106737 0.877217
O O14 0.341784 0.351262 0.699003
O O15 0.401692 0.119040 0.769004
O O16 0.250000 0.389028 0.560814
#
# Coordination Sequence:
#
# PCOD9380281 Si02
#       7
#     8   8   8   8   8   8   8
#     4  10  21  40  65  91 125 164 208 261 318 376
#     4  12  21  39  61  97 126 163 204 269 323 372
#     4  12  22  37  63  97 128 162 211 269 318 374
#     4  12  23  38  65  94 125 166 215 261 317 374
#     4  11  22  37  63  93 129 163 208 257 322 372
#     4  11  22  40  63  94 129 164 209 259 314 382
#     4  10  22  41  62  91 127 162 207 264 316 375
#
# _framework density 21.946738
#
# number of rings (size 3 to 8) (size 9 to 14) (size 15 to 20)
#    0.000    0.857    5.714    3.857    2.000    1.143 
#    0.000    3.571    0.000    0.000    0.000    0.000 
#    0.000    0.000    0.000    0.000    0.000    0.000 
#
# Total GULP energy -156317.868323 kJ/mol
# GULP energy per Si atom -5582.781012 kJ/mol
# Density = 2.189679 g / cm^3
# Si number density = 21.946738 Si / 1000 Ang^3
#
#
#
# Elastic Constant Matrix: (Units=GPa)
#
#
# Indices 1 2 3 4 5 6 
#
# 1 116.9910 8.5222 8.9735 0.0000 0.0000 0.0000
# 2 8.5222 18.1494 6.2874 0.0000 0.0000 0.0000
# 3 8.9735 6.2874 111.6613 0.0000 0.0000 0.0000
# 4 0.0000 0.0000 0.0000 34.9943 0.0000 0.0000
# 5 0.0000 0.0000 0.0000 0.0000 16.4999 0.0000
# 6 0.0000 0.0000 0.0000 0.0000 0.0000 22.0831
#
#
#
# Elastic Compliance Matrix: (Units=1/GPa)
#
#
# Indices 1 2 3 4 5 6 
#
# 1 0.008876 -0.003999 -0.000488 0.000000 0.000000 0.000000
# 2 -0.003999 0.057996 -0.002944 0.000000 0.000000 0.000000
# 3 -0.000488 -0.002944 0.009161 0.000000 0.000000 0.000000
# 4 0.000000 0.000000 0.000000 0.028576 0.000000 0.000000
# 5 0.000000 0.000000 0.000000 0.000000 0.060606 0.000000
# 6 0.000000 0.000000 0.000000 0.000000 0.000000 0.045284
#
#
# Mechanical properties :
#
#
# Convention : Reuss Voigt Hill
#
# Bulk Modulus (GPa) = 16.34779 32.70754 24.52767
# Shear Modulus (GPa) = 20.34572 29.58335 24.96454
#
# Velocity S-wave (km/s) = 3.04805 3.67544 3.37635
# Velocity P-wave (km/s) = 4.45562 5.73998 5.13809
#
# Compressibility (1/GPa) = 0.06117036
#
# Stress axis : x y z
#
# Youngs Moduli (GPa) = 112.65815 17.24259 109.16228
#
# Poissons Ratio (x) = 0.06895 0.05329
# Poissons Ratio (y) = 0.45051 0.32140
# Poissons Ratio (z) = 0.05500 0.05077
#
# Static dielectric constant tensor:
#      x y z
#    x 1.846810 0.000000 0.000000 
#    y 0.000000 1.868530 0.000000 
#    z 0.000000 0.000000 1.795580 
# 
# From -- ./inp_files/12416.got.cif
#   From: 2010.05.17/outbox.cif.g08.bks.cpg/sg46_7_cif.got.tgz:12416.got - 2010.06.03 19:58:25.
