data_PCOD9380026
_publ_section_title
;
Structure prediction by ZEFSAII (Michael W. Deem and Ramdas Pophale) SiO2 
 PCOD9380026
Probable space group: I M A 2
;
_chemical_formula_sum "Si O2"
_cell_formula_units_Z 48
_cell_length_a 17.849171
_cell_length_b 14.970214
_cell_length_c 7.589663
_cell_angle_alpha 90.000000
_cell_angle_beta 90.000000
_cell_angle_gamma 90.000000
_cell_volume 2028.002805
_symmetry_space_group_name_H-M "I M A 2"
_symmetry_group_IT_number 46
_symmetry_cell_setting 'orthorhombic'
loop_
_space_group_symop_operation_xyz
x,y,z
-x,-y,z
1/2-x,y,z
1/2+x,-y,z
1/2+x,1/2+y,1/2+z
1/2-x,1/2-y,1/2+z
-x,1/2+y,1/2+z
x,1/2-y,1/2+z
loop_
_atom_site_type_symbol
_atom_site_label
_atom_site_fract_x
_atom_site_fract_y
_atom_site_fract_z
Si Si1 0.570514 0.201374 0.784130
Si Si2 0.010929 0.142208 0.447671
Si Si3 0.333339 0.345210 0.511137
Si Si4 0.167118 0.364935 0.094541
Si Si5 0.161521 0.861747 0.107228
Si Si6 0.563587 0.518396 0.685630
O O1 0.540065 0.145437 0.620194
O O2 0.626652 0.279571 0.717842
O O3 0.501339 0.258041 0.870403
O O4 0.617502 0.145647 0.922946
O O5 0.092074 0.101862 0.499580
O O6 0.988034 0.071372 0.298132
O O7 0.250000 0.375225 0.565418
O O8 0.341914 0.368595 0.305086
O O9 0.333724 0.238893 0.537605
O O10 0.396531 0.388359 0.629217
O O11 0.250000 0.401579 0.049433
O O12 0.250000 0.852555 0.088888
O O13 0.137808 0.956205 0.187734
O O14 0.500000 0.500000 0.530881
#
# Coordination Sequence:
#
# PCOD9380026 Si02
#       6
#     8   8   8   8   8   8
#     4  10  23  44  72 101 130 180 235 289 341 404
#     4  11  22  40  67  99 139 173 225 279 339 413
#     4  10  21  38  60  91 129 170 215 262 320 389
#     4  10  21  36  63  95 129 178 220 263 320 398
#     4  11  24  46  73  99 134 180 235 293 348 408
#     4  12  25  41  61  97 132 173 214 272 351 396
#
# _framework density 23.668606
#
# number of rings (size 3 to 8) (size 9 to 14) (size 15 to 20)
#    0.000    1.333    1.667    4.000    4.667    2.667 
#    3.000    0.000    0.000    0.000    0.000    0.000 
#    0.000    0.000    0.000    0.000    0.000    0.000 
#
# Total GULP energy -133765.711961 kJ/mol
# GULP energy per Si atom -5573.571332 kJ/mol
# Density = 2.361474 g / cm^3
# Si number density = 23.668606 Si / 1000 Ang^3
#
#
#
# Elastic Constant Matrix: (Units=GPa)
#
#
# Indices 1 2 3 4 5 6 
#
# 1 122.6507 22.9813 28.7127 0.0000 0.0000 0.0000
# 2 22.9813 30.5174 2.6391 0.0000 0.0000 0.0000
# 3 28.7127 2.6391 83.7906 0.0000 0.0000 0.0000
# 4 0.0000 0.0000 0.0000 1.5433 0.0000 0.0000
# 5 0.0000 0.0000 0.0000 0.0000 24.2188 0.0000
# 6 0.0000 0.0000 0.0000 0.0000 0.0000 118.6419
#
#
#
# Elastic Compliance Matrix: (Units=1/GPa)
#
#
# Indices 1 2 3 4 5 6 
#
# 1 0.010331 -0.007494 -0.003304 0.000000 0.000000 0.000000
# 2 -0.007494 0.038294 0.001362 0.000000 0.000000 0.000000
# 3 -0.003304 0.001362 0.013024 0.000000 0.000000 0.000000
# 4 0.000000 0.000000 0.000000 0.647973 0.000000 0.000000
# 5 0.000000 0.000000 0.000000 0.000000 0.041290 0.000000
# 6 0.000000 0.000000 0.000000 0.000000 0.000000 0.008429
#
#
# Mechanical properties :
#
#
# Convention : Reuss Voigt Hill
#
# Bulk Modulus (GPa) = 23.37752 38.40274 30.89013
# Shear Modulus (GPa) = 6.30938 41.05585 23.68262
#
# Velocity S-wave (km/s) = 1.63447 4.16939 3.16665
# Velocity P-wave (km/s) = 3.66885 6.28003 5.14292
#
# Compressibility (1/GPa) = 0.04277614
#
# Stress axis : x y z
#
# Youngs Moduli (GPa) = 96.79714 26.11389 76.78234
#
# Poissons Ratio (x) = 0.19570 0.25369
# Poissons Ratio (y) = 0.72540 -0.10457
# Poissons Ratio (z) = 0.31982 -0.03556
#
# Static dielectric constant tensor:
#      x y z
#    x 1.994120 0.000000 0.000000 
#    y 0.000000 1.921030 0.000000 
#    z 0.000000 0.000000 1.985580 
# 
# From -- ./inp_files/6597.got.cif
#   From: 2010.05.17/outbox.cif.g08.bks.cpg/sg46_4_cif.got.tgz:6597.got - 2010.06.03 19:58:25.
