data_PCOD9380504
_publ_section_title
;
Structure prediction by ZEFSAII (Michael W. Deem and Ramdas Pophale) SiO2 
 PCOD9380504
Probable space group: I M A 2
;
_chemical_formula_sum "Si O2"
_cell_formula_units_Z 56
_cell_length_a 15.593191
_cell_length_b 14.330666
_cell_length_c 10.403403
_cell_angle_alpha 90.000000
_cell_angle_beta 90.000000
_cell_angle_gamma 90.000000
_cell_volume 2324.752883
_symmetry_space_group_name_H-M "I M A 2"
_symmetry_group_IT_number 46
_symmetry_cell_setting 'orthorhombic'
loop_
_space_group_symop_operation_xyz
x,y,z
-x,-y,z
1/2-x,y,z
1/2+x,-y,z
1/2+x,1/2+y,1/2+z
1/2-x,1/2-y,1/2+z
-x,1/2+y,1/2+z
x,1/2-y,1/2+z
loop_
_atom_site_type_symbol
_atom_site_label
_atom_site_fract_x
_atom_site_fract_y
_atom_site_fract_z
Si Si1 0.153738 0.862750 0.927170
Si Si2 0.655815 0.789512 0.137721
Si Si3 0.148905 0.934707 0.644656
Si Si4 0.848399 0.885210 0.802527
Si Si5 0.103138 0.501064 0.632987
Si Si6 0.941308 0.408315 0.876113
Si Si7 0.482323 0.275728 0.438157
O O1 0.250000 0.825079 0.939011
O O2 0.132759 0.877253 0.776370
O O3 0.076363 0.804505 0.985771
O O4 0.147291 0.959190 0.005344
O O5 0.750000 0.783074 0.074746
O O6 0.659181 0.722304 0.258562
O O7 0.636243 0.897489 0.162330
O O8 0.581967 0.746589 0.049668
O O9 0.250000 0.928450 0.618947
O O10 0.101065 0.904248 0.516508
O O11 0.130697 0.041398 0.689670
O O12 0.750000 0.911041 0.842586
O O13 0.933690 0.869406 0.887681
O O14 0.119762 0.569361 0.754775
O O15 0.000000 0.500000 0.615136
O O16 0.000000 0.500000 0.881207
O O17 0.995845 0.314404 0.851813
#
# Coordination Sequence:
#
# PCOD9380504 Si02
#       7
#     8   8   8   8   8   8   8
#     4  11  26  44  69 101 133 182 243 289 343 415
#     4  11  23  40  67 102 138 180 231 286 352 428
#     4  10  24  45  67 100 139 183 236 293 352 419
#     4  10  22  40  67 102 138 177 229 290 353 423
#     4  11  22  44  68 103 139 184 229 291 354 425
#     4  11  26  43  69 102 141 183 233 284 361 427
#     4  12  25  42  70  97 140 185 236 293 346 422
#
# _framework density 24.088583
#
# number of rings (size 3 to 8) (size 9 to 14) (size 15 to 20)
#    0.000    1.143    1.429    4.286    4.000    2.857 
#    0.000    5.000    0.000    0.000    0.000    0.000 
#    0.000    0.000    0.000    0.000    0.000    0.000 
#
# Total GULP energy -156367.369408 kJ/mol
# GULP energy per Si atom -5584.548907 kJ/mol
# Density = 2.403376 g / cm^3
# Si number density = 24.088583 Si / 1000 Ang^3
#
#
#
# Elastic Constant Matrix: (Units=GPa)
#
#
# Indices 1 2 3 4 5 6 
#
# 1 134.5134 22.2248 31.4747 0.0000 0.0000 0.0000
# 2 22.2248 87.0296 -5.0714 0.0000 0.0000 0.0000
# 3 31.4747 -5.0714 98.1606 0.0000 0.0000 0.0000
# 4 0.0000 0.0000 0.0000 27.6966 0.0000 0.0000
# 5 0.0000 0.0000 0.0000 0.0000 24.1558 0.0000
# 6 0.0000 0.0000 0.0000 0.0000 0.0000 24.2865
#
#
#
# Elastic Compliance Matrix: (Units=1/GPa)
#
#
# Indices 1 2 3 4 5 6 
#
# 1 0.008484 -0.002332 -0.002841 0.000000 0.000000 0.000000
# 2 -0.002332 0.012166 0.001376 0.000000 0.000000 0.000000
# 3 -0.002841 0.001376 0.011169 0.000000 0.000000 0.000000
# 4 0.000000 0.000000 0.000000 0.036106 0.000000 0.000000
# 5 0.000000 0.000000 0.000000 0.000000 0.041398 0.000000
# 6 0.000000 0.000000 0.000000 0.000000 0.000000 0.041175
#
#
# Mechanical properties :
#
#
# Convention : Reuss Voigt Hill
#
# Bulk Modulus (GPa) = 41.27745 46.32887 43.80316
# Shear Modulus (GPa) = 30.09014 33.29948 31.69481
#
# Velocity S-wave (km/s) = 3.53816 3.72207 3.63128
# Velocity P-wave (km/s) = 5.81931 6.14379 5.98375
#
# Compressibility (1/GPa) = 0.02422630
#
# Stress axis : x y z
#
# Youngs Moduli (GPa) = 117.86507 82.19551 89.53020
#
# Poissons Ratio (x) = 0.19169 0.25435
# Poissons Ratio (y) = 0.27488 -0.12322
# Poissons Ratio (z) = 0.33485 -0.11313
#
# Static dielectric constant tensor:
#      x y z
#    x 1.960840 0.000000 0.000000 
#    y 0.000000 1.937550 0.000000 
#    z 0.000000 0.000000 2.040370 
# 
# From -- ./inp_files/11149.got.cif
#   From: 2010.05.17/outbox.cif.g08.bks.cpg/sg46_6_cif.got.tgz:11149.got - 2010.06.03 19:58:25.
