data_PCOD9380724
_publ_section_title
;
Structure prediction by ZEFSAII (Michael W. Deem and Ramdas Pophale) SiO2 
 PCOD9380724
Probable space group: I M A 2
;
_chemical_formula_sum "Si O2"
_cell_formula_units_Z 44
_cell_length_a 7.549374
_cell_length_b 8.106071
_cell_length_c 30.334010
_cell_angle_alpha 90.000000
_cell_angle_beta 90.000000
_cell_angle_gamma 90.000000
_cell_volume 1856.312846
_symmetry_space_group_name_H-M "I M A 2"
_symmetry_group_IT_number 46
_symmetry_cell_setting 'orthorhombic'
loop_
_space_group_symop_operation_xyz
x,y,z
-x,-y,z
1/2-x,y,z
1/2+x,-y,z
1/2+x,1/2+y,1/2+z
1/2-x,1/2-y,1/2+z
-x,1/2+y,1/2+z
x,1/2-y,1/2+z
loop_
_atom_site_type_symbol
_atom_site_label
_atom_site_fract_x
_atom_site_fract_y
_atom_site_fract_z
Si Si1 0.959708 0.313715 0.067370
Si Si2 0.549781 0.688084 0.473301
Si Si3 0.250000 0.316499 0.814490
Si Si4 0.552019 0.195974 0.878953
Si Si5 0.039607 0.684399 0.657719
Si Si6 0.462141 0.813231 0.749058
O O1 0.750000 0.284862 0.062848
O O2 0.033440 0.209565 0.108456
O O3 0.000000 0.500000 0.080354
O O4 0.035075 0.283139 0.018958
O O5 0.500000 0.500000 0.483936
O O6 0.750000 0.689000 0.457509
O O7 0.443559 0.744275 0.430510
O O8 0.406111 0.295834 0.852508
O O9 0.408088 0.303013 0.776563
O O10 0.750000 0.214546 0.860103
O O11 0.500000 0.000000 0.877381
O O12 0.250000 0.707721 0.653540
O O13 0.983424 0.801443 0.697605
O O14 0.000000 0.500000 0.672492
O O15 0.250000 0.778800 0.752760
O O16 0.500000 0.000000 0.765397
#
# Coordination Sequence:
#
# PCOD9380724 Si02
#       6
#     8   8   4   8   8   8
#     4  11  23  41  64  95 127 166 207 255 313 379
#     4  11  21  38  59  94 128 168 210 259 312 374
#     4  12  22  36  58  90 128 164 218 254 336 352
#     4  11  20  33  56  89 127 164 209 263 312 369
#     4  10  24  42  64  92 125 164 209 253 312 378
#     4  11  23  38  59  95 127 165 209 265 314 376
#
# _framework density 23.702901000000001
#
# number of rings (size 3 to 8) (size 9 to 14) (size 15 to 20)
#    0.000    1.091    2.727    5.455    1.273    2.909 
#    0.000    0.000    0.000    1.091    4.727    0.000 
#    0.000    0.000    0.000    0.000    0.000    0.000 
#
# Total GULP energy -122505.495637 kJ/mol
# GULP energy per Si atom -5568.431620 kJ/mol
# Density = 2.364895 g / cm^3
# Si number density = 23.702901 Si / 1000 Ang^3
#
#
#
# Elastic Constant Matrix: (Units=GPa)
#
#
# Indices 1 2 3 4 5 6 
#
# 1 168.1320 -9.5777 22.0333 0.0000 0.0000 0.0000
# 2 -9.5777 27.6255 7.7624 0.0002 0.0000 0.0000
# 3 22.0333 7.7624 141.3425 0.0002 0.0000 0.0000
# 4 0.0000 0.0002 0.0002 332.1655 0.0000 0.0000
# 5 0.0000 0.0000 0.0000 0.0000 39.2487 0.0000
# 6 0.0000 0.0000 0.0000 0.0000 0.0000 13.4060
#
#
#
# Elastic Compliance Matrix: (Units=1/GPa)
#
#
# Indices 1 2 3 4 5 6 
#
# 1 0.006234 0.002472 -0.001108 0.000000 0.000000 0.000000
# 2 0.002472 0.037746 -0.002458 0.000000 0.000000 0.000000
# 3 -0.001108 -0.002458 0.007383 0.000000 0.000000 0.000000
# 4 0.000000 0.000000 0.000000 0.003011 0.000000 0.000000
# 5 0.000000 0.000000 0.000000 0.000000 0.025479 0.000000
# 6 0.000000 0.000000 0.000000 0.000000 0.000000 0.074593
#
#
# Mechanical properties :
#
#
# Convention : Reuss Voigt Hill
#
# Bulk Modulus (GPa) = 20.33521 41.94843 31.14182
# Shear Modulus (GPa) = 28.89769 98.08952 63.49361
#
# Velocity S-wave (km/s) = 3.49544 6.43993 5.18126
# Velocity P-wave (km/s) = 4.98885 8.54594 6.99720
#
# Compressibility (1/GPa) = 0.04917579
#
# Stress axis : x y z
#
# Youngs Moduli (GPa) = 160.41864 26.49254 135.45225
#
# Poissons Ratio (x) = -0.06550 0.15002
# Poissons Ratio (y) = -0.39662 0.33300
# Poissons Ratio (z) = 0.17767 0.06513
#
# Static dielectric constant tensor:
#      x y z
#    x 1.884420 0.000000 0.000000 
#    y 0.000000 1.767160 0.000000 
#    z 0.000000 0.000000 1.885430 
# 
# From -- ./inp_files/24910.got.cif
#   From: 2010.05.17/outbox.cif.g08.bks.cpg/sg46_13_cif.got.tgz:24910.got - 2010.06.03 19:58:25.
