data_PCOD9380151
_publ_section_title
;
Structure prediction by ZEFSAII (Michael W. Deem and Ramdas Pophale) SiO2 
 PCOD9380151
Probable space group: I M A 2
;
_chemical_formula_sum "Si O2"
_cell_formula_units_Z 60
_cell_length_a 9.193408
_cell_length_b 26.793098
_cell_length_c 12.253841
_cell_angle_alpha 90.000000
_cell_angle_beta 90.000000
_cell_angle_gamma 90.000000
_cell_volume 3018.364663
_symmetry_space_group_name_H-M "I M A 2"
_symmetry_group_IT_number 46
_symmetry_cell_setting 'orthorhombic'
loop_
_space_group_symop_operation_xyz
x,y,z
-x,-y,z
1/2-x,y,z
1/2+x,-y,z
1/2+x,1/2+y,1/2+z
1/2-x,1/2-y,1/2+z
-x,1/2+y,1/2+z
x,1/2-y,1/2+z
loop_
_atom_site_type_symbol
_atom_site_label
_atom_site_fract_x
_atom_site_fract_y
_atom_site_fract_z
Si Si1 0.411286 0.327396 0.171910
Si Si2 0.500000 0.000000 0.744789
Si Si3 0.575008 0.449510 0.654197
Si Si4 0.910577 0.083922 0.589491
Si Si5 0.578927 0.183847 0.873782
Si Si6 0.079391 0.876845 0.352595
Si Si7 0.080015 0.079896 0.928931
Si Si8 0.585421 0.719741 0.935544
O O1 0.250000 0.327979 0.222272
O O2 0.463324 0.382643 0.140920
O O3 0.533423 0.305209 0.249469
O O4 0.405627 0.298095 0.059735
O O5 0.590853 0.033126 0.658327
O O6 0.432350 0.040169 0.829580
O O7 0.500000 0.500000 0.695919
O O8 0.750000 0.454961 0.644835
O O9 0.544097 0.405872 0.741493
O O10 0.504651 0.439187 0.536184
O O11 0.750000 0.107498 0.605470
O O12 0.936631 0.086469 0.458816
O O13 0.750000 0.178508 0.890214
O O14 0.497231 0.132024 0.899004
O O15 0.511243 0.230835 0.934999
O O16 0.250000 0.863028 0.348920
O O17 0.986547 0.826910 0.371945
O O18 0.250000 0.087055 0.953533
O O19 0.750000 0.729389 0.895176
#
# Coordination Sequence:
#
# PCOD9380151 Si02
#       8
#     8   4   8   8   8   8   8   8
#     4  10  21  39  62  90 124 160 202 256 313 371
#     4  12  24  36  66  96 130 166 210 252 316 374
#     4  11  24  42  65  92 130 173 218 266 316 377
#     4  10  21  38  62  92 127 164 207 257 313 373
#     4  12  25  41  65  93 126 165 209 258 317 383
#     4   9  21  42  65  94 129 168 213 262 317 379
#     4  12  26  43  64  92 130 169 216 267 316 376
#     4  10  22  41  66  94 125 163 208 261 318 376
#
# _framework density 19.878314
#
# number of rings (size 3 to 8) (size 9 to 14) (size 15 to 20)
#    0.000    1.333    2.000    3.200    0.933    5.333 
#    0.000    0.000    0.000    0.000    0.000    0.000 
#    0.000    0.000    0.000    0.000    0.000    0.000 
#
# Total GULP energy -167352.235015 kJ/mol
# GULP energy per Si atom -5578.407834 kJ/mol
# Density = 1.983307 g / cm^3
# Si number density = 19.878314 Si / 1000 Ang^3
#
#
#
# Elastic Constant Matrix: (Units=GPa)
#
#
# Indices 1 2 3 4 5 6 
#
# 1 128.2405 63.2051 29.3347 -0.0001 0.0000 0.0000
# 2 63.2051 112.4445 33.2532 0.0000 0.0000 0.0000
# 3 29.3347 33.2532 60.0387 0.0007 0.0004 0.0001
# 4 -0.0001 0.0000 0.0007 28.4788 0.0001 0.0000
# 5 0.0000 0.0000 0.0004 0.0001 23.9348 0.0001
# 6 0.0000 0.0000 0.0001 0.0000 0.0001 26.3577
#
#
#
# Elastic Compliance Matrix: (Units=1/GPa)
#
#
# Indices 1 2 3 4 5 6 
#
# 1 0.011055 -0.005521 -0.002344 0.000000 0.000000 0.000000
# 2 -0.005521 0.013392 -0.004720 0.000000 0.000000 0.000000
# 3 -0.002344 -0.004720 0.020415 -0.000001 0.000000 0.000000
# 4 0.000000 0.000000 -0.000001 0.035114 0.000000 0.000000
# 5 0.000000 0.000000 0.000000 0.000000 0.041780 0.000000
# 6 0.000000 0.000000 0.000000 0.000000 0.000000 0.037940
#
#
# Mechanical properties :
#
#
# Convention : Reuss Voigt Hill
#
# Bulk Modulus (GPa) = 50.77814 61.36774 56.07294
# Shear Modulus (GPa) = 26.11921 27.41632 26.76776
#
# Velocity S-wave (km/s) = 3.62878 3.71780 3.67356
# Velocity P-wave (km/s) = 6.56943 7.02624 6.80167
#
# Compressibility (1/GPa) = 0.01969351
#
# Stress axis : x y z
#
# Youngs Moduli (GPa) = 90.45665 74.66876 48.98299
#
# Poissons Ratio (x) = 0.41224 0.11480
# Poissons Ratio (y) = 0.49941 0.23120
# Poissons Ratio (z) = 0.21199 0.35244
#
# Static dielectric constant tensor:
#      x y z
#    x 1.701370 0.000000 0.000000 
#    y 0.000000 1.717200 0.000000 
#    z 0.000000 0.000000 1.735690 
# 
# From -- ./inp_files/9544.got.cif
#   From: 2010.05.17/outbox.cif.g08.bks.cpg/sg46_5_cif.got.tgz:9544.got - 2010.06.03 19:58:25.
