data_PCOD9380378
_publ_section_title
;
Structure prediction by ZEFSAII (Michael W. Deem and Ramdas Pophale) SiO2 
 PCOD9380378
Probable space group: I M A 2
;
_chemical_formula_sum "Si O2"
_cell_formula_units_Z 56
_cell_length_a 26.257348
_cell_length_b 13.001293
_cell_length_c 9.751712
_cell_angle_alpha 90.000000
_cell_angle_beta 90.000000
_cell_angle_gamma 90.000000
_cell_volume 3329.034320
_symmetry_space_group_name_H-M "I M A 2"
_symmetry_group_IT_number 46
_symmetry_cell_setting 'orthorhombic'
loop_
_space_group_symop_operation_xyz
x,y,z
-x,-y,z
1/2-x,y,z
1/2+x,-y,z
1/2+x,1/2+y,1/2+z
1/2-x,1/2-y,1/2+z
-x,1/2+y,1/2+z
x,1/2-y,1/2+z
loop_
_atom_site_type_symbol
_atom_site_label
_atom_site_fract_x
_atom_site_fract_y
_atom_site_fract_z
Si Si1 0.417608 0.558610 0.958920
Si Si2 0.025828 0.155789 0.405920
Si Si3 0.750000 0.383957 0.283553
Si Si4 0.033827 0.348935 0.582924
Si Si5 0.137324 0.591378 0.244815
Si Si6 0.426338 0.940875 0.005646
Si Si7 0.357169 0.663997 0.718886
Si Si8 0.750000 0.185016 0.100398
O O1 0.468074 0.631057 0.955505
O O2 0.440495 0.446097 0.929006
O O3 0.379373 0.597813 0.842320
O O4 0.386599 0.563694 0.099238
O O5 0.047677 0.249647 0.494365
O O6 0.024022 0.176354 0.242492
O O7 0.804027 0.442161 0.270115
O O8 0.750000 0.302630 0.156420
O O9 0.750000 0.329022 0.435191
O O10 0.071524 0.446383 0.574311
O O11 0.982453 0.393184 0.513171
O O12 0.098480 0.550069 0.357806
O O13 0.139574 0.715813 0.255848
O O14 0.392426 0.861647 0.090477
O O15 0.300447 0.638773 0.668780
#
# Coordination Sequence:
#
# PCOD9380378 Si02
#       8
#     8   8   4   8   8   8   8   4
#     4  11  23  37  56  81 114 147 186 221 272 329
#     4  11  23  39  55  81 113 144 183 233 269 318
#     4  10  22  36  48  82 113 144 183 229 271 324
#     4  11  23  37  57  80 114 143 186 230 267 322
#     4  11  23  33  58  82 114 147 183 224 270 332
#     4  11  21  37  55  80 110 149 184 217 273 326
#     4  11  19  37  54  80 111 150 180 220 276 320
#     4  10  22  32  54  78 113 144 187 223 273 330
#
# _framework density 16.821695999999999
#
# number of rings (size 3 to 8) (size 9 to 14) (size 15 to 20)
#    0.000    1.143    4.286    3.429   10.000    1.143 
#    0.000    0.000    0.000    0.000    0.000    6.000 
#    0.000    0.000    0.000    0.000    0.000    0.000 
#
# Total GULP energy -156215.231624 kJ/mol
# GULP energy per Si atom -5579.115415 kJ/mol
# Density = 1.678341 g / cm^3
# Si number density = 16.821696 Si / 1000 Ang^3
#
#
#
# Elastic Constant Matrix: (Units=GPa)
#
#
# Indices 1 2 3 4 5 6 
#
# 1 80.8894 9.0313 31.2538 0.0000 0.0000 0.0000
# 2 9.0313 56.0523 5.1348 0.0000 0.0000 0.0000
# 3 31.2538 5.1348 105.4481 0.0000 0.0000 0.0000
# 4 0.0000 0.0000 0.0000 26.2946 0.0000 0.0000
# 5 0.0000 0.0000 0.0000 0.0000 46.3863 0.0000
# 6 0.0000 0.0000 0.0000 0.0000 0.0000 6.4935
#
#
#
# Elastic Compliance Matrix: (Units=1/GPa)
#
#
# Indices 1 2 3 4 5 6 
#
# 1 0.014161 -0.001906 -0.004104 0.000000 0.000000 0.000000
# 2 -0.001906 0.018177 -0.000320 0.000000 0.000000 0.000000
# 3 -0.004104 -0.000320 0.010715 0.000000 0.000000 0.000000
# 4 0.000000 0.000000 0.000000 0.038031 0.000000 0.000000
# 5 0.000000 0.000000 0.000000 0.000000 0.021558 0.000000
# 6 0.000000 0.000000 0.000000 0.000000 0.000000 0.154000
#
#
# Mechanical properties :
#
#
# Convention : Reuss Voigt Hill
#
# Bulk Modulus (GPa) = 32.90268 37.02550 34.96409
# Shear Modulus (GPa) = 17.89334 28.96621 23.42978
#
# Velocity S-wave (km/s) = 3.26499 4.15415 3.73611
# Velocity P-wave (km/s) = 5.81512 6.71324 6.28026
#
# Compressibility (1/GPa) = 0.03039266
#
# Stress axis : x y z
#
# Youngs Moduli (GPa) = 70.61558 55.01498 93.32317
#
# Poissons Ratio (x) = 0.10484 0.38304
# Poissons Ratio (y) = 0.13457 0.02989
# Poissons Ratio (z) = 0.28984 0.01762
#
# Static dielectric constant tensor:
#      x y z
#    x 1.569410 0.000000 0.000000 
#    y 0.000000 1.571570 0.000000 
#    z 0.000000 0.000000 1.606330 
# 
# From -- ./inp_files/8205.got.cif
#   From: 2010.05.17/outbox.cif.g08.bks.cpg/sg46_5_cif.got.tgz:8205.got - 2010.06.03 19:58:25.
