data_PCOD9380333
_publ_section_title
;
Structure prediction by ZEFSAII (Michael W. Deem and Ramdas Pophale) SiO2 
 PCOD9380333
Probable space group: I M A 2
;
_chemical_formula_sum "Si O2"
_cell_formula_units_Z 64
_cell_length_a 28.985470
_cell_length_b 9.315132
_cell_length_c 11.314664
_cell_angle_alpha 90.000000
_cell_angle_beta 90.000000
_cell_angle_gamma 90.000000
_cell_volume 3054.998645
_symmetry_space_group_name_H-M "I M A 2"
_symmetry_group_IT_number 46
_symmetry_cell_setting 'orthorhombic'
loop_
_space_group_symop_operation_xyz
x,y,z
-x,-y,z
1/2-x,y,z
1/2+x,-y,z
1/2+x,1/2+y,1/2+z
1/2-x,1/2-y,1/2+z
-x,1/2+y,1/2+z
x,1/2-y,1/2+z
loop_
_atom_site_type_symbol
_atom_site_label
_atom_site_fract_x
_atom_site_fract_y
_atom_site_fract_z
Si Si1 0.073957 0.100771 0.404700
Si Si2 0.472957 0.354910 0.135674
Si Si3 0.122923 0.599213 0.520881
Si Si4 0.804182 0.392407 0.708102
Si Si5 0.963392 0.401162 0.689262
Si Si6 0.697672 0.047541 0.695381
Si Si7 0.612648 0.615772 0.310234
Si Si8 0.846020 0.086266 0.455491
O O1 0.041347 0.181082 0.499845
O O2 0.108217 0.219466 0.350662
O O3 0.050767 0.998590 0.303828
O O4 0.106190 0.993908 0.477745
O O5 0.500000 0.500000 0.121563
O O6 0.506697 0.243099 0.202682
O O7 0.428319 0.386646 0.214794
O O8 0.166543 0.547938 0.598504
O O9 0.082184 0.628834 0.614428
O O10 0.105888 0.487287 0.423548
O O11 0.140858 0.746078 0.462862
O O12 0.750000 0.419973 0.696215
O O13 0.825654 0.449626 0.828483
O O14 0.810382 0.218340 0.717330
O O15 0.000000 0.500000 0.619665
O O16 0.750000 0.013680 0.730375
O O17 0.660151 0.944760 0.755584
O O18 0.689998 0.041294 0.555014
#
# Coordination Sequence:
#
# PCOD9380333 Si02
#       8
#     8   8   8   8   8   8   8   8
#     4  12  26  46  73  97 143 189 236 292 360 428
#     4  12  28  45  71 104 138 184 240 292 357 423
#     4  11  25  41  71 103 140 180 232 297 354 420
#     4  10  21  41  72 107 137 181 237 293 350 420
#     4  12  25  47  69 100 139 186 238 290 350 425
#     4  10  22  42  69 105 141 179 230 290 353 417
#     4  12  26  45  68 101 143 187 228 290 356 426
#     4  11  21  42  73 100 137 181 235 293 353 414
#
# _framework density 20.949273000000002
#
# number of rings (size 3 to 8) (size 9 to 14) (size 15 to 20)
#    0.000    0.750    5.000    2.250    3.500    2.500 
#    0.000    1.250    0.000    0.000    0.000    0.000 
#    0.000    0.000    0.000    0.000    0.000    0.000 
#
# Total GULP energy -178567.933486 kJ/mol
# GULP energy per Si atom -5580.247921 kJ/mol
# Density = 2.090159 g / cm^3
# Si number density = 20.949273 Si / 1000 Ang^3
#
#
#
# Elastic Constant Matrix: (Units=GPa)
#
#
# Indices 1 2 3 4 5 6 
#
# 1 107.0706 44.0425 40.5216 0.0000 0.0000 0.0000
# 2 44.0425 48.0893 37.7947 0.0000 0.0000 0.0000
# 3 40.5216 37.7947 101.4132 0.0000 0.0000 0.0000
# 4 0.0000 0.0000 0.0000 17.8907 0.0000 0.0000
# 5 0.0000 0.0000 0.0000 0.0000 15.5657 0.0000
# 6 0.0000 0.0000 0.0000 0.0000 0.0000 27.2372
#
#
#
# Elastic Compliance Matrix: (Units=1/GPa)
#
#
# Indices 1 2 3 4 5 6 
#
# 1 0.015095 -0.012847 -0.001244 0.000000 0.000000 0.000000
# 2 -0.012847 0.040343 -0.009902 0.000000 0.000000 0.000000
# 3 -0.001244 -0.009902 0.014048 0.000000 0.000000 0.000000
# 4 0.000000 0.000000 0.000000 0.055895 0.000000 0.000000
# 5 0.000000 0.000000 0.000000 0.000000 0.064244 0.000000
# 6 0.000000 0.000000 0.000000 0.000000 0.000000 0.036715
#
#
# Mechanical properties :
#
#
# Convention : Reuss Voigt Hill
#
# Bulk Modulus (GPa) = 46.51055 55.69896 51.10476
# Shear Modulus (GPa) = 17.76263 21.08634 19.42448
#
# Velocity S-wave (km/s) = 2.91501 3.17605 3.04832
# Velocity P-wave (km/s) = 5.79478 6.33206 6.06936
#
# Compressibility (1/GPa) = 0.02150050
#
# Stress axis : x y z
#
# Youngs Moduli (GPa) = 66.24765 24.78764 71.18639
#
# Poissons Ratio (x) = 0.31845 0.08852
# Poissons Ratio (y) = 0.85110 0.70485
# Poissons Ratio (z) = 0.08238 0.24544
#
# Static dielectric constant tensor:
#      x y z
#    x 1.776000 0.000000 0.000000 
#    y 0.000000 1.759930 0.000000 
#    z 0.000000 0.000000 1.807960 
# 
# From -- ./inp_files/13200.got.cif
#   From: 2010.05.17/outbox.cif.g08.bks.cpg/sg46_7_cif.got.tgz:13200.got - 2010.06.03 19:58:25.
