data_PCOD9380573
_publ_section_title
;
Structure prediction by ZEFSAII (Michael W. Deem and Ramdas Pophale) SiO2 
 PCOD9380573
Probable space group: I M A 2
;
_chemical_formula_sum "Si O2"
_cell_formula_units_Z 56
_cell_length_a 14.859070
_cell_length_b 12.673074
_cell_length_c 13.609599
_cell_angle_alpha 90.000000
_cell_angle_beta 90.000000
_cell_angle_gamma 90.000000
_cell_volume 2562.824863
_symmetry_space_group_name_H-M "I M A 2"
_symmetry_group_IT_number 46
_symmetry_cell_setting 'orthorhombic'
loop_
_space_group_symop_operation_xyz
x,y,z
-x,-y,z
1/2-x,y,z
1/2+x,-y,z
1/2+x,1/2+y,1/2+z
1/2-x,1/2-y,1/2+z
-x,1/2+y,1/2+z
x,1/2-y,1/2+z
loop_
_atom_site_type_symbol
_atom_site_label
_atom_site_fract_x
_atom_site_fract_y
_atom_site_fract_z
Si Si1 0.140572 0.644731 0.430730
Si Si2 0.359866 0.074971 0.854947
Si Si3 0.852179 0.719452 0.528926
Si Si4 0.644147 0.369449 0.854493
Si Si5 0.085089 0.230392 0.232995
Si Si6 0.359866 0.087788 0.416904
Si Si7 0.565803 0.102316 0.147784
O O1 0.250000 0.644586 0.432115
O O2 0.112095 0.546434 0.362343
O O3 0.106135 0.756066 0.387520
O O4 0.108821 0.621925 0.541889
O O5 0.250000 0.075744 0.846332
O O6 0.391560 0.129871 0.958103
O O7 0.397261 0.152401 0.771660
O O8 0.750000 0.723104 0.493959
O O9 0.851221 0.698574 0.643068
O O10 0.887813 0.836429 0.506350
O O11 0.750000 0.360171 0.873125
O O12 0.607215 0.468045 0.916385
O O13 0.631850 0.404250 0.741093
O O14 0.103371 0.151246 0.322694
O O15 0.991260 0.204728 0.180971
O O16 0.250000 0.082124 0.410488
O O17 0.500000 0.000000 0.146416
#
# Coordination Sequence:
#
# PCOD9380573 Si02
#       7
#     8   8   8   8   8   8   8
#     4  10  23  44  66  88 120 166 214 253 291 356
#     4   9  19  36  60  90 120 158 206 255 303 354
#     4   9  17  31  55  87 121 156 196 248 302 360
#     4  10  22  43  65  85 117 163 211 253 290 355
#     4  11  20  34  56  90 129 156 191 248 318 371
#     4   9  18  34  58  87 117 156 204 249 297 354
#     4  12  24  39  61  95 122 159 203 252 311 369
#
# _framework density 21.850888999999999
#
# number of rings (size 3 to 8) (size 9 to 14) (size 15 to 20)
#    0.000    2.000    1.429    3.429    0.000    3.429 
#    2.571    0.000    0.000    0.000    0.000    0.000 
#    0.000    0.000    0.000    0.000    0.000    0.000 
#
# Total GULP energy -156165.386708 kJ/mol
# GULP energy per Si atom -5577.335240 kJ/mol
# Density = 2.180116 g / cm^3
# Si number density = 21.850889 Si / 1000 Ang^3
#
#
#
# Elastic Constant Matrix: (Units=GPa)
#
#
# Indices 1 2 3 4 5 6 
#
# 1 32.3805 21.5057 -3.4253 0.0000 0.0000 0.0000
# 2 21.5057 153.7979 21.7348 0.0000 0.0000 0.0000
# 3 -3.4253 21.7348 53.1085 0.0000 0.0000 0.0000
# 4 0.0000 0.0000 0.0000 25.7292 0.0000 0.0000
# 5 0.0000 0.0000 0.0000 0.0000 28.8515 0.0000
# 6 0.0000 0.0000 0.0000 0.0000 0.0000 18.6208
#
#
#
# Elastic Compliance Matrix: (Units=1/GPa)
#
#
# Indices 1 2 3 4 5 6 
#
# 1 0.035041 -0.005540 0.004527 0.000000 0.000000 0.000000
# 2 -0.005540 0.007777 -0.003540 0.000000 0.000000 0.000000
# 3 0.004527 -0.003540 0.020570 0.000000 0.000000 0.000000
# 4 0.000000 0.000000 0.000000 0.038866 0.000000 0.000000
# 5 0.000000 0.000000 0.000000 0.000000 0.034660 0.000000
# 6 0.000000 0.000000 0.000000 0.000000 0.000000 0.053703
#
#
# Mechanical properties :
#
#
# Convention : Reuss Voigt Hill
#
# Bulk Modulus (GPa) = 18.42201 35.43527 26.92864
# Shear Modulus (GPa) = 22.95506 27.93842 25.44674
#
# Velocity S-wave (km/s) = 3.24471 3.57962 3.41627
# Velocity P-wave (km/s) = 4.74200 5.77382 5.28316
#
# Compressibility (1/GPa) = 0.05428290
#
# Stress axis : x y z
#
# Youngs Moduli (GPa) = 28.53815 128.58562 48.61418
#
# Poissons Ratio (x) = 0.71231 -0.22008
# Poissons Ratio (y) = 0.15809 0.17209
# Poissons Ratio (z) = -0.12920 0.45520
#
# Static dielectric constant tensor:
#      x y z
#    x 2.074720 0.000000 0.000000 
#    y 0.000000 1.836870 0.000000 
#    z 0.000000 0.000000 1.789870 
# 
# From -- ./inp_files/15947.got.cif
#   From: 2010.05.17/outbox.cif.g08.bks.cpg/sg46_8_cif.got.tgz:15947.got - 2010.06.03 19:58:25.
