data_PCOD9380602
_publ_section_title
;
Structure prediction by ZEFSAII (Michael W. Deem and Ramdas Pophale) SiO2 
 PCOD9380602
Probable space group: I M A 2
;
_chemical_formula_sum "Si O2"
_cell_formula_units_Z 40
_cell_length_a 14.814962
_cell_length_b 5.011230
_cell_length_c 21.460309
_cell_angle_alpha 90.000000
_cell_angle_beta 90.000000
_cell_angle_gamma 90.000000
_cell_volume 1593.238707
_symmetry_space_group_name_H-M "I M A 2"
_symmetry_group_IT_number 46
_symmetry_cell_setting 'orthorhombic'
loop_
_space_group_symop_operation_xyz
x,y,z
-x,-y,z
1/2-x,y,z
1/2+x,-y,z
1/2+x,1/2+y,1/2+z
1/2-x,1/2-y,1/2+z
-x,1/2+y,1/2+z
x,1/2-y,1/2+z
loop_
_atom_site_type_symbol
_atom_site_label
_atom_site_fract_x
_atom_site_fract_y
_atom_site_fract_z
Si Si1 0.250000 0.523483 0.825201
Si Si2 0.750000 0.798894 0.451241
Si Si3 0.250000 0.164957 0.078155
Si Si4 0.102229 0.920087 0.626851
Si Si5 0.060853 0.769555 0.863552
Si Si6 0.250000 0.683029 0.696427
Si Si7 0.088913 0.819566 0.494872
O O1 0.250000 0.285723 0.876456
O O2 0.158457 0.692180 0.836532
O O3 0.250000 0.471064 0.751582
O O4 0.750000 0.576296 0.505461
O O5 0.833879 0.981720 0.470869
O O6 0.336346 0.346787 0.096790
O O7 0.250000 0.936089 0.127810
O O8 0.155844 0.840802 0.689696
O O9 0.097569 0.721216 0.565980
O O10 0.000000 0.000000 0.641331
O O11 0.081073 0.869492 0.934786
O O12 0.000000 0.500000 0.864466
O O13 0.000000 0.000000 0.833114
O O14 0.000000 0.000000 0.498332
#
# Coordination Sequence:
#
# PCOD9380602 Si02
#       7
#     4   4   4   8   8   4   8
#     4  10  23  44  65  96 141 187 237 292 360 416
#     4   8  15  34  63  81 123 166 209 273 341 397
#     4   9  19  38  62  91 124 161 221 287 330 411
#     4   9  19  39  61  88 127 172 213 276 344 409
#     4  10  22  44  69 102 138 183 236 297 355 429
#     4  11  23  40  60  96 130 174 233 276 335 420
#     4   8  15  33  60  87 123 158 211 276 342 402
#
# _framework density 25.106093000000001
#
# number of rings (size 3 to 8) (size 9 to 14) (size 15 to 20)
#    0.000    2.800    0.000    0.600    0.000    2.400 
#   32.400    1.000    0.000    0.000    0.000    0.000 
#    0.000    0.000    0.000    0.000    0.000    0.000 
#
# Total GULP energy -111493.962967 kJ/mol
# GULP energy per Si atom -5574.698148 kJ/mol
# Density = 2.504895 g / cm^3
# Si number density = 25.106093 Si / 1000 Ang^3
#
#
#
# Elastic Constant Matrix: (Units=GPa)
#
#
# Indices 1 2 3 4 5 6 
#
# 1 202.9721 20.4125 29.2096 0.0000 0.0000 0.0000
# 2 20.4125 55.8750 3.5297 0.0000 0.0000 0.0000
# 3 29.2096 3.5297 125.7624 0.0000 0.0000 0.0000
# 4 0.0000 0.0000 0.0000 17.1479 0.0000 0.0000
# 5 0.0000 0.0000 0.0000 0.0000 3.7291 0.0000
# 6 0.0000 0.0000 0.0000 0.0000 0.0000 14.4127
#
#
#
# Elastic Compliance Matrix: (Units=1/GPa)
#
#
# Indices 1 2 3 4 5 6 
#
# 1 0.005282 -0.001856 -0.001175 0.000000 0.000000 0.000000
# 2 -0.001856 0.018581 -0.000091 0.000000 0.000000 0.000000
# 3 -0.001175 -0.000091 0.008227 0.000000 0.000000 0.000000
# 4 0.000000 0.000000 0.000000 0.058316 0.000000 0.000000
# 5 0.000000 0.000000 0.000000 0.000000 0.268160 0.000000
# 6 0.000000 0.000000 0.000000 0.000000 0.000000 0.069383
#
#
# Mechanical properties :
#
#
# Convention : Reuss Voigt Hill
#
# Bulk Modulus (GPa) = 38.68740 54.54590 46.61665
# Shear Modulus (GPa) = 11.29157 29.15511 20.22334
#
# Velocity S-wave (km/s) = 2.12304 3.41145 2.84124
# Velocity P-wave (km/s) = 4.63171 6.10660 5.41957
#
# Compressibility (1/GPa) = 0.02584821
#
# Stress axis : x y z
#
# Youngs Moduli (GPa) = 189.30546 53.81927 121.55235
#
# Poissons Ratio (x) = 0.09987 0.14280
# Poissons Ratio (y) = 0.35127 0.01100
# Poissons Ratio (z) = 0.22240 0.00487
#
# Static dielectric constant tensor:
#      x y z
#    x 2.383760 0.000000 0.000000 
#    y 0.000000 2.059710 0.000000 
#    z 0.000000 0.000000 2.046680 
# 
# From -- ./inp_files/23576.got.cif
#   From: 2010.05.17/outbox.cif.g08.bks.cpg/sg46_12_cif.got.tgz:23576.got - 2010.06.03 19:58:25.
