data_PCOD9380977
_publ_section_title
;
Structure prediction by ZEFSAII (Michael W. Deem and Ramdas Pophale) SiO2 
 PCOD9380977
Probable space group: I M A 2
;
_chemical_formula_sum "Si O2"
_cell_formula_units_Z 64
_cell_length_a 17.312910
_cell_length_b 17.531204
_cell_length_c 10.571539
_cell_angle_alpha 90.000000
_cell_angle_beta 90.000000
_cell_angle_gamma 90.000000
_cell_volume 3208.632891
_symmetry_space_group_name_H-M "I M A 2"
_symmetry_group_IT_number 46
_symmetry_cell_setting 'orthorhombic'
loop_
_space_group_symop_operation_xyz
x,y,z
-x,-y,z
1/2-x,y,z
1/2+x,-y,z
1/2+x,1/2+y,1/2+z
1/2-x,1/2-y,1/2+z
-x,1/2+y,1/2+z
x,1/2-y,1/2+z
loop_
_atom_site_type_symbol
_atom_site_label
_atom_site_fract_x
_atom_site_fract_y
_atom_site_fract_z
Si Si1 0.656347 0.024583 0.343400
Si Si2 0.160068 0.096307 0.134121
Si Si3 0.925992 0.230730 0.589459
Si Si4 0.842439 0.299667 0.832130
Si Si5 0.662072 0.912124 0.559348
Si Si6 0.164421 0.279245 0.848612
Si Si7 0.011661 0.410220 0.201121
Si Si8 0.457304 0.162046 0.948721
O O1 0.750000 0.021751 0.345222
O O2 0.633053 0.111386 0.327236
O O3 0.633126 0.971478 0.226412
O O4 0.633820 0.983787 0.474248
O O5 0.250000 0.083971 0.099312
O O6 0.157869 0.173350 0.219056
O O7 0.103081 0.107803 0.019087
O O8 0.884178 0.255906 0.718231
O O9 0.868479 0.228579 0.470084
O O10 0.963764 0.147481 0.612247
O O11 0.990931 0.291991 0.548876
O O12 0.750000 0.294695 0.818511
O O13 0.750000 0.925032 0.602330
O O14 0.663392 0.841774 0.461091
O O15 0.601772 0.896753 0.668696
O O16 0.250000 0.242175 0.851298
O O17 0.093624 0.224264 0.873385
O O18 0.000000 0.500000 0.184395
O O19 0.995262 0.384507 0.344609
#
# Coordination Sequence:
#
# PCOD9380977 Si02
#       8
#     8   8   8   8   8   8   8   8
#     4   8  17  37  65  93 117 157 221 272 306 371
#     4   9  19  35  58  90 127 167 214 258 308 382
#     4  12  25  45  67  97 128 165 219 271 328 393
#     4  11  24  45  73  95 121 163 218 280 332 380
#     4   9  18  37  64  93 126 168 215 262 317 389
#     4   9  18  33  59  91 123 166 214 257 308 381
#     4  12  26  42  61  93 138 175 213 268 333 388
#     4  12  23  38  59  88 137 173 208 263 322 385
#
# _framework density 19.946190000000001
#
# number of rings (size 3 to 8) (size 9 to 14) (size 15 to 20)
#    0.000    1.750    2.500    3.750    0.000    2.000 
#    0.000    1.875    0.000    0.000    0.000    0.000 
#    0.000    0.000    0.000    0.000    0.000    0.000 
#
# Total GULP energy -178723.276788 kJ/mol
# GULP energy per Si atom -5585.102400 kJ/mol
# Density = 1.990079 g / cm^3
# Si number density = 19.946190 Si / 1000 Ang^3
#
#
#
# Elastic Constant Matrix: (Units=GPa)
#
#
# Indices 1 2 3 4 5 6 
#
# 1 68.1804 33.1685 34.5972 0.0000 0.0000 0.0000
# 2 33.1685 82.8970 33.5468 0.0000 0.0000 0.0000
# 3 34.5972 33.5468 92.0413 0.0000 0.0000 0.0000
# 4 0.0000 0.0000 0.0000 6.7846 0.0000 0.0000
# 5 0.0000 0.0000 0.0000 0.0000 29.3345 0.0000
# 6 0.0000 0.0000 0.0000 0.0000 0.0000 19.4690
#
#
#
# Elastic Compliance Matrix: (Units=1/GPa)
#
#
# Indices 1 2 3 4 5 6 
#
# 1 0.020327 -0.005913 -0.005485 0.000000 0.000000 0.000000
# 2 -0.005913 0.015871 -0.003562 0.000000 0.000000 0.000000
# 3 -0.005485 -0.003562 0.014225 0.000000 0.000000 0.000000
# 4 0.000000 0.000000 0.000000 0.147393 0.000000 0.000000
# 5 0.000000 0.000000 0.000000 0.000000 0.034090 0.000000
# 6 0.000000 0.000000 0.000000 0.000000 0.000000 0.051364
#
#
# Mechanical properties :
#
#
# Convention : Reuss Voigt Hill
#
# Bulk Modulus (GPa) = 48.77695 49.52706 49.15200
# Shear Modulus (GPa) = 15.62382 20.57136 18.09759
#
# Velocity S-wave (km/s) = 2.80178 3.21494 3.01544
# Velocity P-wave (km/s) = 5.91388 6.21815 6.06792
#
# Compressibility (1/GPa) = 0.02050149
#
# Stress axis : x y z
#
# Youngs Moduli (GPa) = 49.19503 63.00978 70.30011
#
# Poissons Ratio (x) = 0.37260 0.38563
# Poissons Ratio (y) = 0.29091 0.25038
# Poissons Ratio (z) = 0.26986 0.22442
#
# Static dielectric constant tensor:
#      x y z
#    x 1.696790 0.000000 0.000000 
#    y 0.000000 1.715400 0.000000 
#    z 0.000000 0.000000 1.703600 
# 
# From -- ./inp_files/11317.got.cif
#   From: 2010.05.17/outbox.cif.g08.bks.cpg/sg46_6_cif.got.tgz:11317.got - 2010.06.03 19:58:25.
