data_PCOD9380522
_publ_section_title
;
Structure prediction by ZEFSAII (Michael W. Deem and Ramdas Pophale) SiO2 
 PCOD9380522
Probable space group: I M A 2
;
_chemical_formula_sum "Si O2"
_cell_formula_units_Z 56
_cell_length_a 13.424083
_cell_length_b 21.036657
_cell_length_c 7.713036
_cell_angle_alpha 90.000000
_cell_angle_beta 90.000000
_cell_angle_gamma 90.000000
_cell_volume 2178.144626
_symmetry_space_group_name_H-M "I M A 2"
_symmetry_group_IT_number 46
_symmetry_cell_setting 'orthorhombic'
loop_
_space_group_symop_operation_xyz
x,y,z
-x,-y,z
1/2-x,y,z
1/2+x,-y,z
1/2+x,1/2+y,1/2+z
1/2-x,1/2-y,1/2+z
-x,1/2+y,1/2+z
x,1/2-y,1/2+z
loop_
_atom_site_type_symbol
_atom_site_label
_atom_site_fract_x
_atom_site_fract_y
_atom_site_fract_z
Si Si1 0.950469 0.786874 0.383600
Si Si2 0.366281 0.041196 0.810191
Si Si3 0.630077 0.406689 0.422742
Si Si4 0.629812 0.455475 0.798522
Si Si5 0.367672 0.654263 0.070455
Si Si6 0.367269 0.094310 0.201642
Si Si7 0.362653 0.330100 0.212414
O O1 0.927605 0.841808 0.243231
O O2 0.930233 0.716409 0.322155
O O3 0.865917 0.800247 0.524738
O O4 0.056483 0.797667 0.476909
O O5 0.250000 0.031273 0.761345
O O6 0.402518 0.098259 0.691296
O O7 0.407025 0.971172 0.830556
O O8 0.371535 0.073547 0.000495
O O9 0.750000 0.408297 0.435328
O O10 0.597060 0.417175 0.622834
O O11 0.613080 0.353600 0.276251
O O12 0.750000 0.461604 0.781785
O O13 0.614296 0.412026 0.966418
O O14 0.596869 0.529539 0.799065
O O15 0.250000 0.670132 0.047063
O O16 0.250000 0.105150 0.242423
O O17 0.250000 0.332213 0.280410
#
# Coordination Sequence:
#
# PCOD9380522 Si02
#       7
#     8   8   8   8   8   8   8
#     4  12  25  40  61  91 125 169 227 273 335 401
#     4   8  16  33  61  91 123 164 203 250 323 394
#     4   8  15  33  61  93 126 165 208 255 321 396
#     4   8  16  33  60  90 126 169 205 255 335 399
#     4  10  22  41  64  92 130 169 218 276 326 394
#     4   9  17  33  58  90 127 165 206 259 324 398
#     4  11  23  41  63  89 123 163 211 273 332 394
#
# _framework density 25.709955999999998
#
# number of rings (size 3 to 8) (size 9 to 14) (size 15 to 20)
#    0.000    2.571    0.000    3.857    2.000    1.714 
#    5.143    0.714    0.000    0.000    0.000    0.000 
#    0.000    0.000    0.000    0.000    0.000    0.000 
#
# Total GULP energy -156472.843240 kJ/mol
# GULP energy per Si atom -5588.315830 kJ/mol
# Density = 2.565144 g / cm^3
# Si number density = 25.709956 Si / 1000 Ang^3
#
#
#
# Elastic Constant Matrix: (Units=GPa)
#
#
# Indices 1 2 3 4 5 6 
#
# 1 129.1096 37.2089 17.4691 0.0000 0.0000 0.0000
# 2 37.2089 51.7011 35.4041 0.0000 0.0000 0.0000
# 3 17.4691 35.4041 91.6890 -0.0003 -0.0001 0.0000
# 4 0.0000 0.0000 -0.0003 34.0688 0.0000 0.0000
# 5 0.0000 0.0000 -0.0001 0.0000 31.1480 0.0000
# 6 0.0000 0.0000 0.0000 0.0000 0.0000 22.4567
#
#
#
# Elastic Compliance Matrix: (Units=1/GPa)
#
#
# Indices 1 2 3 4 5 6 
#
# 1 0.009864 -0.007901 0.001172 0.000000 0.000000 0.000000
# 2 -0.007901 0.032624 -0.011092 0.000000 0.000000 0.000000
# 3 0.001172 -0.011092 0.014966 0.000000 0.000000 0.000000
# 4 0.000000 0.000000 0.000000 0.029352 0.000000 0.000000
# 5 0.000000 0.000000 0.000000 0.000000 0.032105 0.000000
# 6 0.000000 0.000000 0.000000 0.000000 0.000000 0.044530
#
#
# Mechanical properties :
#
#
# Convention : Reuss Voigt Hill
#
# Bulk Modulus (GPa) = 45.84825 50.29598 48.07212
# Shear Modulus (GPa) = 24.23013 29.69586 26.96299
#
# Velocity S-wave (km/s) = 3.07325 3.40227 3.24193
# Velocity P-wave (km/s) = 5.51949 5.91939 5.72293
#
# Compressibility (1/GPa) = 0.02181108
#
# Stress axis : x y z
#
# Youngs Moduli (GPa) = 101.37913 30.65234 66.81771
#
# Poissons Ratio (x) = 0.24219 -0.07828
# Poissons Ratio (y) = 0.80103 0.74112
# Poissons Ratio (z) = -0.11878 0.33999
#
# Static dielectric constant tensor:
#      x y z
#    x 2.073220 0.000000 0.000000 
#    y 0.000000 2.020160 0.000000 
#    z 0.000000 0.000000 2.038410 
# 
# From -- ./inp_files/5927.got.cif
#   From: 2010.05.17/outbox.cif.g08.bks.cpg/sg46_3_cif.got.tgz:5927.got - 2010.06.03 19:58:25.
