data_PCOD9380006
_publ_section_title
;
Structure prediction by ZEFSAII (Michael W. Deem and Ramdas Pophale) SiO2 
 PCOD9380006
Probable space group: I M A 2
;
_chemical_formula_sum "Si O2"
_cell_formula_units_Z 56
_cell_length_a 14.368778
_cell_length_b 11.358194
_cell_length_c 17.470552
_cell_angle_alpha 90.000000
_cell_angle_beta 90.000000
_cell_angle_gamma 90.000000
_cell_volume 2851.252928
_symmetry_space_group_name_H-M "I M A 2"
_symmetry_group_IT_number 46
_symmetry_cell_setting 'orthorhombic'
loop_
_space_group_symop_operation_xyz
x,y,z
-x,-y,z
1/2-x,y,z
1/2+x,-y,z
1/2+x,1/2+y,1/2+z
1/2-x,1/2-y,1/2+z
-x,1/2+y,1/2+z
x,1/2-y,1/2+z
loop_
_atom_site_type_symbol
_atom_site_label
_atom_site_fract_x
_atom_site_fract_y
_atom_site_fract_z
Si Si1 0.997104 0.134618 0.091950
Si Si2 0.856943 0.052902 0.835231
Si Si3 0.527727 0.229396 0.745127
Si Si4 0.357297 0.320190 0.835204
Si Si5 0.142877 0.138976 0.958469
Si Si6 0.854487 0.238443 0.972869
Si Si7 0.862705 0.408391 0.850791
O O1 0.988422 0.231274 0.158199
O O2 0.913330 0.167598 0.034491
O O3 0.085741 0.137532 0.035758
O O4 0.000000 0.000000 0.122849
O O5 0.750000 0.026252 0.809609
O O6 0.921911 0.106452 0.768325
O O7 0.891999 0.947090 0.890026
O O8 0.850759 0.157030 0.897578
O O9 0.427439 0.245500 0.784132
O O10 0.592340 0.329265 0.784770
O O11 0.250000 0.309809 0.809143
O O12 0.361060 0.266870 0.920206
O O13 0.385489 0.455951 0.837089
O O14 0.250000 0.104355 0.971826
O O15 0.750000 0.258203 0.001902
O O16 0.893100 0.358296 0.934288
O O17 0.750000 0.397529 0.848961
#
# Coordination Sequence:
#
# PCOD9380006 Si02
#       7
#     8   8   8   8   8   8   8
#     4  12  23  33  53  89 126 154 187 250 324 369
#     4   9  18  37  61  83 108 151 205 248 287 350
#     4  11  22  34  55  86 120 151 188 244 309 361
#     4  10  21  36  58  82 108 151 199 242 293 365
#     4  10  21  38  62  85 109 155 209 249 292 356
#     4   9  18  33  56  81 111 152 198 244 294 355
#     4   9  18  36  59  83 109 148 199 247 295 358
#
# _framework density 19.640488999999999
#
# number of rings (size 3 to 8) (size 9 to 14) (size 15 to 20)
#    0.000    2.000    1.429    4.286    0.000    1.714 
#    0.000    0.000    6.286    0.000    0.000    0.000 
#    0.000    0.000    0.000    0.000    0.000    0.000 
#
# Total GULP energy -156062.568907 kJ/mol
# GULP energy per Si atom -5573.663175 kJ/mol
# Density = 1.959579 g / cm^3
# Si number density = 19.640489 Si / 1000 Ang^3
#
#
#
# Elastic Constant Matrix: (Units=GPa)
#
#
# Indices 1 2 3 4 5 6 
#
# 1 74.8049 21.4463 36.7197 0.0000 0.0000 0.0000
# 2 21.4463 47.1106 31.4781 0.0000 0.0000 0.0000
# 3 36.7197 31.4781 87.7401 0.0000 0.0000 0.0000
# 4 0.0000 0.0000 0.0000 26.2432 0.0000 0.0000
# 5 0.0000 0.0000 0.0000 0.0000 62.1225 0.0000
# 6 0.0000 0.0000 0.0000 0.0000 0.0000 24.3500
#
#
#
# Elastic Compliance Matrix: (Units=1/GPa)
#
#
# Indices 1 2 3 4 5 6 
#
# 1 0.017383 -0.004015 -0.005835 0.000000 0.000000 0.000000
# 2 -0.004015 0.028847 -0.008669 0.000000 0.000000 0.000000
# 3 -0.005835 -0.008669 0.016949 0.000000 0.000000 0.000000
# 4 0.000000 0.000000 0.000000 0.038105 0.000000 0.000000
# 5 0.000000 0.000000 0.000000 0.000000 0.016097 0.000000
# 6 0.000000 0.000000 0.000000 0.000000 0.000000 0.041068
#
#
# Mechanical properties :
#
#
# Convention : Reuss Voigt Hill
#
# Bulk Modulus (GPa) = 38.25216 43.21598 40.73407
# Shear Modulus (GPa) = 24.48578 30.54389 27.51484
#
# Velocity S-wave (km/s) = 3.53469 3.94782 3.74695
# Velocity P-wave (km/s) = 6.01475 6.54459 6.28525
#
# Compressibility (1/GPa) = 0.02614232
#
# Stress axis : x y z
#
# Youngs Moduli (GPa) = 57.52688 34.66601 58.99990
#
# Poissons Ratio (x) = 0.13918 0.34424
# Poissons Ratio (y) = 0.23097 0.51147
# Poissons Ratio (z) = 0.33564 0.30052
#
# Static dielectric constant tensor:
#      x y z
#    x 1.745250 0.000000 0.000000 
#    y 0.000000 1.765470 0.000000 
#    z 0.000000 0.000000 1.659300 
# 
# From -- ./inp_files/15925.got.cif
#   From: 2010.05.17/outbox.cif.g08.bks.cpg/sg46_8_cif.got.tgz:15925.got - 2010.06.03 19:58:25.
