data_PCOD9380408
_publ_section_title
;
Structure prediction by ZEFSAII (Michael W. Deem and Ramdas Pophale) SiO2 
 PCOD9380408
Probable space group: I M A 2
;
_chemical_formula_sum "Si O2"
_cell_formula_units_Z 64
_cell_length_a 8.789944
_cell_length_b 31.425655
_cell_length_c 12.124967
_cell_angle_alpha 90.000000
_cell_angle_beta 90.000000
_cell_angle_gamma 90.000000
_cell_volume 3349.276574
_symmetry_space_group_name_H-M "I M A 2"
_symmetry_group_IT_number 46
_symmetry_cell_setting 'orthorhombic'
loop_
_space_group_symop_operation_xyz
x,y,z
-x,-y,z
1/2-x,y,z
1/2+x,-y,z
1/2+x,1/2+y,1/2+z
1/2-x,1/2-y,1/2+z
-x,1/2+y,1/2+z
x,1/2-y,1/2+z
loop_
_atom_site_type_symbol
_atom_site_label
_atom_site_fract_x
_atom_site_fract_y
_atom_site_fract_z
Si Si1 0.567306 0.876081 0.165050
Si Si2 0.433828 0.371651 0.407871
Si Si3 0.068750 0.069990 0.523700
Si Si4 0.433132 0.044698 0.770704
Si Si5 0.431673 0.294958 0.814586
Si Si6 0.070651 0.795830 0.765619
Si Si7 0.430462 0.543926 0.794029
Si Si8 0.428850 0.837203 0.525808
O O1 0.750000 0.881739 0.172516
O O2 0.529841 0.831876 0.226306
O O3 0.490004 0.915282 0.227417
O O4 0.525386 0.874540 0.036488
O O5 0.250000 0.368208 0.399792
O O6 0.480553 0.414479 0.342673
O O7 0.506616 0.330715 0.350365
O O8 0.250000 0.064624 0.511246
O O9 0.021290 0.052150 0.643058
O O10 0.985585 0.049190 0.420199
O O11 0.025880 0.119698 0.522177
O O12 0.250000 0.042735 0.774039
O O13 0.500000 0.000000 0.810115
O O14 0.250000 0.295490 0.830842
O O15 0.484940 0.248738 0.776593
O O16 0.514932 0.307284 0.927629
O O17 0.250000 0.789345 0.784786
O O18 0.050430 0.814819 0.643327
O O19 0.500000 0.500000 0.749538
O O20 0.250000 0.542095 0.790220
O O21 0.250000 0.847546 0.511918
#
# Coordination Sequence:
#
# PCOD9380408 Si02
#       8
#     8   8   8   8   8   8   8   8
#     4  10  23  43  65  91 123 161 210 260 309 369
#     4  10  22  43  65  90 124 164 211 257 307 369
#     4  11  21  38  63  93 127 162 206 256 310 369
#     4  10  22  38  61  90 123 161 202 254 306 366
#     4  11  24  41  65  93 125 165 209 258 308 367
#     4  11  25  42  63  94 130 164 205 257 310 369
#     4  12  25  41  64  92 126 165 207 257 312 371
#     4  11  23  40  64  95 129 164 202 256 314 367
#
# _framework density 19.108605000000001
#
# number of rings (size 3 to 8) (size 9 to 14) (size 15 to 20)
#    0.000    1.250    2.500    3.000    1.750    5.500 
#    0.000    1.250    0.000    0.000    0.000    0.000 
#    0.000    0.000    0.000    0.000    0.000    0.000 
#
# Total GULP energy -178965.269220 kJ/mol
# GULP energy per Si atom -5592.664663 kJ/mol
# Density = 1.906511 g / cm^3
# Si number density = 19.108605 Si / 1000 Ang^3
#
#
#
# Elastic Constant Matrix: (Units=GPa)
#
#
# Indices 1 2 3 4 5 6 
#
# 1 52.9322 46.5190 53.9811 -0.0001 -0.0020 0.0000
# 2 46.5190 148.7856 56.9952 -0.0003 -0.0035 0.0000
# 3 53.9811 56.9952 127.8509 -0.0009 -0.0097 0.0000
# 4 -0.0001 -0.0003 -0.0009 26.8888 0.0079 -0.0002
# 5 -0.0020 -0.0035 -0.0097 0.0079 -74.6121 -0.0001
# 6 0.0000 0.0000 0.0000 -0.0002 -0.0001 36.0772
#
#
#
# Elastic Compliance Matrix: (Units=1/GPa)
#
#
# Indices 1 2 3 4 5 6 
#
# 1 0.038382 -0.006986 -0.013092 0.000000 0.000001 0.000000
# 2 -0.006986 0.009377 -0.001231 0.000000 0.000000 0.000000
# 3 -0.013092 -0.001231 0.013898 0.000000 -0.000001 0.000000
# 4 0.000000 0.000000 0.000000 0.037190 0.000004 0.000000
# 5 0.000001 0.000000 -0.000001 0.000004 -0.013403 0.000000
# 6 0.000000 0.000000 0.000000 0.000000 0.000000 0.027718
#
#
# Mechanical properties :
#
#
# Convention : Reuss Voigt Hill
#
# Bulk Modulus (GPa) = 52.51794 71.61770 62.06782
# Shear Modulus (GPa) = 30.84038 9.14234 19.99136
#
# Velocity S-wave (km/s) = 4.02176 2.18970 3.23801
# Velocity P-wave (km/s) = 7.00783 6.62976 6.82141
#
# Compressibility (1/GPa) = 0.01904111
#
# Stress axis : x y z
#
# Youngs Moduli (GPa) = 26.05363 106.64879 71.95411
#
# Poissons Ratio (x) = 0.74500 0.94200
# Poissons Ratio (y) = 0.18200 0.08855
# Poissons Ratio (z) = 0.34109 0.13124
#
# Static dielectric constant tensor:
#      x y z
#    x 1.660480 0.000000 0.000000 
#    y 0.000000 1.638810 0.000000 
#    z 0.000000 0.000000 1.647420 
# 
# From -- ./inp_files/9687.got.cif
#   From: 2010.05.17/outbox.cif.g08.bks.cpg/sg46_5_cif.got.tgz:9687.got - 2010.06.03 19:58:25.
