data_PCOD9380796
_publ_section_title
;
Structure prediction by ZEFSAII (Michael W. Deem and Ramdas Pophale) SiO2 
 PCOD9380796
Probable space group: I M A 2
;
_chemical_formula_sum "Si O2"
_cell_formula_units_Z 48
_cell_length_a 14.475516
_cell_length_b 9.406779
_cell_length_c 19.562754
_cell_angle_alpha 90.000000
_cell_angle_beta 90.000000
_cell_angle_gamma 90.000000
_cell_volume 2663.820694
_symmetry_space_group_name_H-M "I M A 2"
_symmetry_group_IT_number 46
_symmetry_cell_setting 'orthorhombic'
loop_
_space_group_symop_operation_xyz
x,y,z
-x,-y,z
1/2-x,y,z
1/2+x,-y,z
1/2+x,1/2+y,1/2+z
1/2-x,1/2-y,1/2+z
-x,1/2+y,1/2+z
x,1/2-y,1/2+z
loop_
_atom_site_type_symbol
_atom_site_label
_atom_site_fract_x
_atom_site_fract_y
_atom_site_fract_z
Si Si1 0.936513 0.138020 0.860050
Si Si2 0.250000 0.556515 0.426678
Si Si3 0.950552 0.353718 0.735680
Si Si4 0.445501 0.640931 0.983755
Si Si5 0.250000 0.645571 0.662718
Si Si6 0.040696 0.339628 0.591969
Si Si7 0.750000 0.325087 0.030711
Si Si8 0.250000 0.382990 0.557760
O O1 0.836637 0.075262 0.877969
O O2 0.946230 0.230627 0.791734
O O3 0.952866 0.249192 0.921448
O O4 0.000000 0.000000 0.860059
O O5 0.250000 0.683022 0.483130
O O6 0.250000 0.421645 0.477106
O O7 0.844923 0.368540 0.706399
O O8 0.000000 0.500000 0.761973
O O9 0.014772 0.316354 0.670781
O O10 0.500000 0.500000 0.967416
O O11 0.485374 0.727501 0.047527
O O12 0.342261 0.598921 0.006148
O O13 0.250000 0.781813 0.610940
O O14 0.250000 0.518832 0.608094
O O15 0.148952 0.320502 0.575162
O O16 0.000000 0.500000 0.575901
#
# Coordination Sequence:
#
# PCOD9380796 Si02
#       8
#     8   4   8   8   4   8   4   4
#     4  11  23  41  60  85 121 162 205 250 298 370
#     4   9  19  36  62  87 108 157 210 241 293 368
#     4  11  22  36  60  89 121 160 204 246 309 364
#     4  11  22  38  62  89 120 153 200 256 305 357
#     4  11  17  36  61  85 118 158 201 238 285 378
#     4  11  20  36  61  90 118 157 201 250 311 368
#     4   9  18  35  60  86 114 152 197 240 299 363
#     4  11  18  33  63  94 118 147 204 259 301 355
#
# _framework density 18.01923
#
# number of rings (size 3 to 8) (size 9 to 14) (size 15 to 20)
#    0.000    1.333    5.000    4.500    0.000    1.333 
#    0.000    2.500    0.000    0.000    0.000    0.000 
#    0.000    0.000    0.000    0.000    0.000    0.000 
#
# Total GULP energy -133726.753991 kJ/mol
# GULP energy per Si atom -5571.948083 kJ/mol
# Density = 1.797822 g / cm^3
# Si number density = 18.019230 Si / 1000 Ang^3
#
#
#
# Elastic Constant Matrix: (Units=GPa)
#
#
# Indices 1 2 3 4 5 6 
#
# 1 181.0032 65.9562 60.7067 0.0000 0.0000 0.0000
# 2 65.9562 74.4877 60.1892 0.0000 0.0000 0.0000
# 3 60.7067 60.1892 76.9854 0.0000 0.0000 0.0000
# 4 0.0000 0.0000 0.0000 24.7561 0.0000 0.0000
# 5 0.0000 0.0000 0.0000 0.0000 19.4512 0.0000
# 6 0.0000 0.0000 0.0000 0.0000 0.0000 4.5226
#
#
#
# Elastic Compliance Matrix: (Units=1/GPa)
#
#
# Indices 1 2 3 4 5 6 
#
# 1 0.008287 -0.005588 -0.002167 0.000000 0.000000 0.000000
# 2 -0.005588 0.040223 -0.027042 0.000000 0.000000 0.000000
# 3 -0.002167 -0.027042 0.035840 0.000000 0.000000 0.000000
# 4 0.000000 0.000000 0.000000 0.040394 0.000000 0.000000
# 5 0.000000 0.000000 0.000000 0.000000 0.051411 0.000000
# 6 0.000000 0.000000 0.000000 0.000000 0.000000 0.221111
#
#
# Mechanical properties :
#
#
# Convention : Reuss Voigt Hill
#
# Bulk Modulus (GPa) = 67.75478 78.46449 73.10963
# Shear Modulus (GPa) = 10.59822 19.45426 15.02624
#
# Velocity S-wave (km/s) = 2.42784 3.28935 2.89087
# Velocity P-wave (km/s) = 6.74849 7.62009 7.19750
#
# Compressibility (1/GPa) = 0.01475911
#
# Stress axis : x y z
#
# Youngs Moduli (GPa) = 120.66385 24.86120 27.90205
#
# Poissons Ratio (x) = 0.13891 0.06045
# Poissons Ratio (y) = 0.67422 0.75451
# Poissons Ratio (z) = 0.26142 0.67228
#
# Static dielectric constant tensor:
#      x y z
#    x 1.653320 0.000000 0.000000 
#    y 0.000000 1.611070 0.000000 
#    z 0.000000 0.000000 1.608810 
# 
# From -- ./inp_files/19449.got.cif
#   From: 2010.05.17/outbox.cif.g08.bks.cpg/sg46_10_cif.got.tgz:19449.got - 2010.06.03 19:58:25.
