data_PCOD9380953
_publ_section_title
;
Structure prediction by ZEFSAII (Michael W. Deem and Ramdas Pophale) SiO2 
 PCOD9380953
Probable space group: I M A 2
;
_chemical_formula_sum "Si O2"
_cell_formula_units_Z 28
_cell_length_a 12.966738
_cell_length_b 9.704175
_cell_length_c 9.749539
_cell_angle_alpha 90.000000
_cell_angle_beta 90.000000
_cell_angle_gamma 90.000000
_cell_volume 1226.799065
_symmetry_space_group_name_H-M "I M A 2"
_symmetry_group_IT_number 46
_symmetry_cell_setting 'orthorhombic'
loop_
_space_group_symop_operation_xyz
x,y,z
-x,-y,z
1/2-x,y,z
1/2+x,-y,z
1/2+x,1/2+y,1/2+z
1/2-x,1/2-y,1/2+z
-x,1/2+y,1/2+z
x,1/2-y,1/2+z
loop_
_atom_site_type_symbol
_atom_site_label
_atom_site_fract_x
_atom_site_fract_y
_atom_site_fract_z
Si Si1 0.750000 0.941380 0.701130
Si Si2 0.750000 0.515020 0.529639
Si Si3 0.250000 0.696989 0.000510
Si Si4 0.037024 0.656883 0.845464
Si Si5 0.919792 0.728766 0.594840
O O1 0.750000 0.959198 0.864969
O O2 0.848359 0.852565 0.650312
O O3 0.750000 0.086395 0.622918
O O4 0.750000 0.353362 0.552845
O O5 0.849081 0.592564 0.592550
O O6 0.149959 0.673291 0.905984
O O7 0.000000 0.500000 0.852596
O O8 0.017401 0.711226 0.693259
O O9 0.959252 0.740275 0.943684
#
# Coordination Sequence:
#
# PCOD9380953 Si02
#       5
#     4   4   4   8   8
#     4  11  23  52  79 111 151 204 267 311 395 462
#     4  11  27  48  81 116 155 202 268 317 396 471
#     4  12  30  46  78 119 154 202 259 340 379 477
#     4  12  28  48  79 114 159 202 265 323 397 462
#     4  11  26  51  78 110 155 214 248 322 391 475
#
# _framework density 22.823625
#
# number of rings (size 3 to 8) (size 9 to 14) (size 15 to 20)
#    0.000    0.571    5.714    0.000    8.000    2.286 
#    0.000    0.000    0.000    0.000    0.000    0.000 
#    0.000    0.000    0.000    0.000    0.000    0.000 
#
# Total GULP energy -78521.802462 kJ/mol
# GULP energy per Si atom -5608.700176 kJ/mol
# Density = 2.277168 g / cm^3
# Si number density = 22.823625 Si / 1000 Ang^3
#
#
#
# Elastic Constant Matrix: (Units=GPa)
#
#
# Indices 1 2 3 4 5 6 
#
# 1 95.2712 39.6810 13.9151 0.0000 0.0000 0.0000
# 2 39.6810 164.1818 28.7182 0.0000 0.0000 0.0000
# 3 13.9151 28.7182 100.9259 0.0000 0.0000 0.0000
# 4 0.0000 0.0000 0.0000 34.6124 0.0000 0.0000
# 5 0.0000 0.0000 0.0000 0.0000 40.1857 0.0000
# 6 0.0000 0.0000 0.0000 0.0000 0.0000 15.7325
#
#
#
# Elastic Compliance Matrix: (Units=1/GPa)
#
#
# Indices 1 2 3 4 5 6 
#
# 1 0.011741 -0.002688 -0.000854 0.000000 0.000000 0.000000
# 2 -0.002688 0.007025 -0.001628 0.000000 0.000000 0.000000
# 3 -0.000854 -0.001628 0.010489 0.000000 0.000000 0.000000
# 4 0.000000 0.000000 0.000000 0.028891 0.000000 0.000000
# 5 0.000000 0.000000 0.000000 0.000000 0.024884 0.000000
# 6 0.000000 0.000000 0.000000 0.000000 0.000000 0.063563
#
#
# Mechanical properties :
#
#
# Convention : Reuss Voigt Hill
#
# Bulk Modulus (GPa) = 52.86956 58.33418 55.60187
# Shear Modulus (GPa) = 30.62981 36.64376 33.63679
#
# Velocity S-wave (km/s) = 3.66734 4.01124 3.84314
# Velocity P-wave (km/s) = 6.41461 6.86058 6.64134
#
# Compressibility (1/GPa) = 0.01891447
#
# Stress axis : x y z
#
# Youngs Moduli (GPa) = 85.17351 142.34124 95.33493
#
# Poissons Ratio (x) = 0.38265 0.08140
# Poissons Ratio (y) = 0.22897 0.15524
# Poissons Ratio (z) = 0.07272 0.23179
#
# Static dielectric constant tensor:
#      x y z
#    x 1.810380 0.000000 0.000000 
#    y 0.000000 1.803270 0.000000 
#    z 0.000000 0.000000 1.792020 
# 
# From -- ./inp_files/4247.got.cif
#   From: 2010.05.17/outbox.cif.g08.bks.cpg/sg46_3_cif.got.tgz:4247.got - 2010.06.03 19:58:25.
