data_PCOD9380548
_publ_section_title
;
Structure prediction by ZEFSAII (Michael W. Deem and Ramdas Pophale) SiO2 
 PCOD9380548
Probable space group: I M A 2
;
_chemical_formula_sum "Si O2"
_cell_formula_units_Z 64
_cell_length_a 8.503378
_cell_length_b 24.352290
_cell_length_c 15.879204
_cell_angle_alpha 90.000000
_cell_angle_beta 90.000000
_cell_angle_gamma 90.000000
_cell_volume 3288.213592
_symmetry_space_group_name_H-M "I M A 2"
_symmetry_group_IT_number 46
_symmetry_cell_setting 'orthorhombic'
loop_
_space_group_symop_operation_xyz
x,y,z
-x,-y,z
1/2-x,y,z
1/2+x,-y,z
1/2+x,1/2+y,1/2+z
1/2-x,1/2-y,1/2+z
-x,1/2+y,1/2+z
x,1/2-y,1/2+z
loop_
_atom_site_type_symbol
_atom_site_label
_atom_site_fract_x
_atom_site_fract_y
_atom_site_fract_z
Si Si1 0.060073 0.438425 0.078290
Si Si2 0.063214 0.754239 0.991282
Si Si3 0.061443 0.561688 0.586544
Si Si4 0.937607 0.858951 0.425464
Si Si5 0.441421 0.129030 0.740609
Si Si6 0.438269 0.249811 0.681202
Si Si7 0.438902 0.129813 0.928636
Si Si8 0.937579 0.364731 0.745772
O O1 0.250000 0.439139 0.079418
O O2 0.004521 0.410284 0.165278
O O3 0.000000 0.500000 0.070066
O O4 0.012524 0.400264 0.999685
O O5 0.250000 0.758718 0.001824
O O6 0.019051 0.699674 0.940321
O O7 0.999351 0.808840 0.946961
O O8 0.983641 0.749692 0.082998
O O9 0.250000 0.561729 0.585037
O O10 0.010361 0.597753 0.667228
O O11 0.000000 0.500000 0.592909
O O12 0.001075 0.590538 0.501796
O O13 0.750000 0.851124 0.431279
O O14 0.982797 0.880563 0.333579
O O15 0.250000 0.128512 0.738764
O O16 0.488553 0.191722 0.720767
O O17 0.490538 0.112918 0.834600
O O18 0.250000 0.254668 0.689735
O O19 0.517117 0.302163 0.724230
O O20 0.250000 0.130174 0.931244
O O21 0.750000 0.369234 0.754047
#
# Coordination Sequence:
#
# PCOD9380548 Si02
#       8
#     8   8   8   8   8   8   8   8
#     4  10  22  42  63  87 120 158 205 257 306 363
#     4  12  23  37  60  93 131 163 202 255 312 367
#     4  11  25  44  64  88 123 164 210 262 313 367
#     4  11  23  41  65  90 122 165 210 252 307 375
#     4   9  20  39  62  91 123 157 202 250 297 364
#     4  11  20  37  65  92 125 166 206 244 303 379
#     4  11  22  39  66  94 124 164 207 252 309 372
#     4  11  24  41  62  93 129 158 200 259 315 369
#
# _framework density 19.463456000000001
#
# number of rings (size 3 to 8) (size 9 to 14) (size 15 to 20)
#    0.000    1.250    2.500    3.750    0.000    4.500 
#    0.000    6.875    0.000    0.000    0.000    0.000 
#    0.000    0.000    0.000    0.000    0.000    0.000 
#
# Total GULP energy -178952.068208 kJ/mol
# GULP energy per Si atom -5592.252132 kJ/mol
# Density = 1.941916 g / cm^3
# Si number density = 19.463456 Si / 1000 Ang^3
#
#
#
# Elastic Constant Matrix: (Units=GPa)
#
#
# Indices 1 2 3 4 5 6 
#
# 1 21.9626 12.5271 -1.5187 0.0000 0.0000 0.0000
# 2 12.5271 109.5836 40.7238 0.0000 0.0000 0.0000
# 3 -1.5187 40.7238 128.6980 0.0000 -0.0001 0.0000
# 4 0.0000 0.0000 0.0000 -0.8787 0.0000 0.0000
# 5 0.0000 0.0000 -0.0001 0.0000 34.4749 0.0000
# 6 0.0000 0.0000 0.0000 0.0000 0.0000 31.7150
#
#
#
# Elastic Compliance Matrix: (Units=1/GPa)
#
#
# Indices 1 2 3 4 5 6 
#
# 1 0.049517 -0.006661 0.002692 -0.000001 0.000000 0.000000
# 2 -0.006661 0.011238 -0.003635 0.000000 0.000000 0.000000
# 3 0.002692 -0.003635 0.008952 0.000000 0.000000 0.000000
# 4 -0.000001 0.000000 0.000000 -1.137988 0.000000 0.000000
# 5 0.000000 0.000000 0.000000 0.000000 0.029007 0.000000
# 6 0.000000 0.000000 0.000000 0.000000 0.000000 0.031531
#
#
# Mechanical properties :
#
#
# Convention : Reuss Voigt Hill
#
# Bulk Modulus (GPa) = 18.34860 40.41206 29.38033
# Shear Modulus (GPa) = -5.13152 26.96303 10.91576
#
# Velocity S-wave (km/s) = -1.62549 3.72602 2.37076
# Velocity P-wave (km/s) = 2.43407 6.27049 4.75625
#
# Compressibility (1/GPa) = 0.05450008
#
# Stress axis : x y z
#
# Youngs Moduli (GPa) = 20.19488 88.98707 111.70737
#
# Poissons Ratio (x) = 0.59275 -0.30073
# Poissons Ratio (y) = 0.13452 0.40600
# Poissons Ratio (z) = -0.05437 0.32342
#
# Static dielectric constant tensor:
#      x y z
#    x 1.662330 0.000000 0.000000 
#    y 0.000000 1.642160 0.000000 
#    z 0.000000 0.000000 1.686050 
# 
# From -- ./inp_files/14533.got.cif
#   From: 2010.05.17/outbox.cif.g08.bks.cpg/sg46_8_cif.got.tgz:14533.got - 2010.06.03 19:58:25.
