data_PCOD9380354
_publ_section_title
;
Structure prediction by ZEFSAII (Michael W. Deem and Ramdas Pophale) SiO2 
 PCOD9380354
Probable space group: I M A 2
;
_chemical_formula_sum "Si O2"
_cell_formula_units_Z 56
_cell_length_a 18.893098
_cell_length_b 5.415559
_cell_length_c 21.129688
_cell_angle_alpha 90.000000
_cell_angle_beta 90.000000
_cell_angle_gamma 90.000000
_cell_volume 2161.919672
_symmetry_space_group_name_H-M "I M A 2"
_symmetry_group_IT_number 46
_symmetry_cell_setting 'orthorhombic'
loop_
_space_group_symop_operation_xyz
x,y,z
-x,-y,z
1/2-x,y,z
1/2+x,-y,z
1/2+x,1/2+y,1/2+z
1/2-x,1/2-y,1/2+z
-x,1/2+y,1/2+z
x,1/2-y,1/2+z
loop_
_atom_site_type_symbol
_atom_site_label
_atom_site_fract_x
_atom_site_fract_y
_atom_site_fract_z
Si Si1 0.920400 0.011678 0.558430
Si Si2 0.467686 0.749124 0.310089
Si Si3 0.665267 0.682263 0.892010
Si Si4 0.947120 0.175893 0.171558
Si Si5 0.835898 0.315308 0.462492
Si Si6 0.170212 0.486691 0.274541
Si Si7 0.831787 0.795836 0.143500
O O1 0.934463 0.090893 0.629930
O O2 0.875071 0.226603 0.525503
O O3 0.867438 0.786444 0.576341
O O4 0.000000 0.000000 0.529047
O O5 0.500000 0.500000 0.339213
O O6 0.489312 0.763467 0.235561
O O7 0.385425 0.691948 0.296132
O O8 0.500000 0.000000 0.338625
O O9 0.750000 0.675876 0.898119
O O10 0.641556 0.416959 0.917262
O O11 0.641810 0.920734 0.933468
O O12 0.650867 0.753554 0.819383
O O13 0.874951 0.022666 0.173606
O O14 0.000000 0.000000 0.132682
O O15 0.750000 0.316029 0.468794
O O16 0.250000 0.565509 0.291188
O O17 0.169275 0.402108 0.201999
O O18 0.750000 0.858207 0.131038
#
# Coordination Sequence:
#
# PCOD9380354 Si02
#       7
#     8   8   8   8   8   8   8
#     4  12  24  42  67  93 134 179 226 277 345 411
#     4  11  23  40  64  94 136 179 220 264 331 404
#     4   9  21  43  69  96 131 176 224 279 342 397
#     4  11  22  38  63  90 133 180 224 263 338 412
#     4  10  23  43  68  96 129 175 230 284 336 393
#     4  10  21  42  70 101 138 179 230 281 334 408
#     4  11  24  40  63 103 140 174 222 280 336 404
#
# _framework density 25.902906999999999
#
# number of rings (size 3 to 8) (size 9 to 14) (size 15 to 20)
#    0.000    1.429    2.857    2.571    2.000    4.000 
#    0.000    7.143    0.000    0.857    0.000    0.000 
#    0.000    0.000    0.000    0.000    0.000    0.000 
#
# Total GULP energy -156310.527375 kJ/mol
# GULP energy per Si atom -5582.518835 kJ/mol
# Density = 2.584395 g / cm^3
# Si number density = 25.902907 Si / 1000 Ang^3
#
#
#
# Elastic Constant Matrix: (Units=GPa)
#
#
# Indices 1 2 3 4 5 6 
#
# 1 159.9376 37.1728 1.2939 0.0000 0.0000 0.0000
# 2 37.1728 120.1718 2.3572 0.0000 0.0000 0.0000
# 3 1.2939 2.3572 60.0657 0.0000 0.0000 0.0000
# 4 0.0000 0.0000 0.0000 28.7084 0.0000 0.0000
# 5 0.0000 0.0000 0.0000 0.0000 21.1650 0.0000
# 6 0.0000 0.0000 0.0000 0.0000 0.0000 29.5307
#
#
#
# Elastic Compliance Matrix: (Units=1/GPa)
#
#
# Indices 1 2 3 4 5 6 
#
# 1 0.006737 -0.002083 -0.000063 0.000000 0.000000 0.000000
# 2 -0.002083 0.008972 -0.000307 0.000000 0.000000 0.000000
# 3 -0.000063 -0.000307 0.016662 0.000000 0.000000 0.000000
# 4 0.000000 0.000000 0.000000 0.034833 0.000000 0.000000
# 5 0.000000 0.000000 0.000000 0.000000 0.047248 0.000000
# 6 0.000000 0.000000 0.000000 0.000000 0.000000 0.033863
#
#
# Mechanical properties :
#
#
# Convention : Reuss Voigt Hill
#
# Bulk Modulus (GPa) = 36.41142 46.86921 41.64032
# Shear Modulus (GPa) = 30.79276 35.83756 33.31516
#
# Velocity S-wave (km/s) = 3.45160 3.72362 3.59019
# Velocity P-wave (km/s) = 5.47468 6.05150 5.77030
#
# Compressibility (1/GPa) = 0.02746391
#
# Stress axis : x y z
#
# Youngs Moduli (GPa) = 148.43361 111.46168 60.01735
#
# Poissons Ratio (x) = 0.23214 0.00380
# Poissons Ratio (y) = 0.30915 0.01844
# Poissons Ratio (z) = 0.00941 0.03424
#
# Static dielectric constant tensor:
#      x y z
#    x 2.138110 0.000000 0.000000 
#    y 0.000000 2.168850 0.000000 
#    z 0.000000 0.000000 2.179960 
# 
# From -- ./inp_files/23844.got.cif
#   From: 2010.05.17/outbox.cif.g08.bks.cpg/sg46_12_cif.got.tgz:23844.got - 2010.06.03 19:58:25.
