data_PCOD9380021
_publ_section_title
;
Structure prediction by ZEFSAII (Michael W. Deem and Ramdas Pophale) SiO2 
 PCOD9380021
Probable space group: I M A 2
;
_chemical_formula_sum "Si O2"
_cell_formula_units_Z 48
_cell_length_a 14.879823
_cell_length_b 12.406048
_cell_length_c 12.195762
_cell_angle_alpha 90.000000
_cell_angle_beta 90.000000
_cell_angle_gamma 90.000000
_cell_volume 2251.335206
_symmetry_space_group_name_H-M "I M A 2"
_symmetry_group_IT_number 46
_symmetry_cell_setting 'orthorhombic'
loop_
_space_group_symop_operation_xyz
x,y,z
-x,-y,z
1/2-x,y,z
1/2+x,-y,z
1/2+x,1/2+y,1/2+z
1/2-x,1/2-y,1/2+z
-x,1/2+y,1/2+z
x,1/2-y,1/2+z
loop_
_atom_site_type_symbol
_atom_site_label
_atom_site_fract_x
_atom_site_fract_y
_atom_site_fract_z
Si Si1 0.896748 0.029026 0.102980
Si Si2 0.139909 0.474757 0.258306
Si Si3 0.139513 0.404385 0.017273
Si Si4 0.359114 0.823439 0.898121
Si Si5 0.144670 0.585581 0.850229
Si Si6 0.646374 0.669367 0.455654
O O1 0.861447 0.060895 0.221640
O O2 0.885198 0.123959 0.014187
O O3 0.000000 0.000000 0.115334
O O4 0.854312 0.921640 0.049647
O O5 0.250000 0.472928 0.260016
O O6 0.110929 0.446159 0.136468
O O7 0.113164 0.591786 0.303867
O O8 0.106703 0.387629 0.347880
O O9 0.250000 0.401911 0.019431
O O10 0.109492 0.487079 0.923250
O O11 0.107307 0.282948 0.993471
O O12 0.250000 0.821441 0.896209
O O13 0.393951 0.703203 0.878205
O O14 0.250000 0.592342 0.878890
O O15 0.750000 0.692074 0.427490
#
# Coordination Sequence:
#
# PCOD9380021 Si02
#       6
#     8   8   8   8   8   8
#     4  11  23  40  56  83 118 159 196 235 297 357
#     4   8  15  29  50  80 111 136 174 232 289 336
#     4   9  18  30  53  87 112 137 181 237 293 342
#     4   9  19  37  62  86 112 149 196 250 297 345
#     4  10  21  36  61  90 116 148 197 251 294 343
#     4   9  18  34  57  81 110 148 189 236 287 344
#
# _framework density 21.320681
#
# number of rings (size 3 to 8) (size 9 to 14) (size 15 to 20)
#    0.000    2.667    0.000    2.500    4.667    0.000 
#    3.000    0.000    0.000    4.000    0.000    0.000 
#    0.000    0.000    0.000    0.000    0.000    0.000 
#
# Total GULP energy -133990.939158 kJ/mol
# GULP energy per Si atom -5582.955798 kJ/mol
# Density = 2.127215 g / cm^3
# Si number density = 21.320681 Si / 1000 Ang^3
#
#
#
# Elastic Constant Matrix: (Units=GPa)
#
#
# Indices 1 2 3 4 5 6 
#
# 1 36.2151 -6.1909 -22.0043 0.0000 0.0000 0.0000
# 2 -6.1909 204.0563 115.0633 0.0000 0.0000 0.0000
# 3 -22.0043 115.0633 142.1877 0.0000 0.0000 0.0000
# 4 0.0000 0.0000 0.0000 10.7016 0.0000 0.0000
# 5 0.0000 0.0000 0.0000 0.0000 -15.6271 0.0000
# 6 0.0000 0.0000 0.0000 0.0000 0.0000 2.4830
#
#
#
# Elastic Compliance Matrix: (Units=1/GPa)
#
#
# Indices 1 2 3 4 5 6 
#
# 1 0.031652 -0.003314 0.007580 0.000000 0.000000 0.000000
# 2 -0.003314 0.009361 -0.008088 0.000000 0.000000 0.000000
# 3 0.007580 -0.008088 0.014751 0.000000 0.000000 0.000000
# 4 0.000000 0.000000 0.000000 0.093444 0.000000 0.000000
# 5 0.000000 0.000000 0.000000 0.000000 -0.063991 0.000000
# 6 0.000000 0.000000 0.000000 0.000000 0.000000 0.402741
#
#
# Mechanical properties :
#
#
# Convention : Reuss Voigt Hill
#
# Bulk Modulus (GPa) = 20.78131 61.79949 41.29040
# Shear Modulus (GPa) = 9.77250 19.21756 14.49503
#
# Velocity S-wave (km/s) = 2.14325 3.00552 2.61024
# Velocity P-wave (km/s) = 3.98659 6.41037 5.33787
#
# Compressibility (1/GPa) = 0.04812017
#
# Stress axis : x y z
#
# Youngs Moduli (GPa) = 31.59361 106.83067 67.79229
#
# Poissons Ratio (x) = 0.35403 -0.51387
# Poissons Ratio (y) = 0.10470 0.54829
# Poissons Ratio (z) = -0.23948 0.86402
#
# Static dielectric constant tensor:
#      x y z
#    x 1.844200 0.000000 0.000000 
#    y 0.000000 1.768750 0.000000 
#    z 0.000000 0.000000 1.725420 
# 
# From -- ./inp_files/11776.got.cif
#   From: 2010.05.17/outbox.cif.g08.bks.cpg/sg46_6_cif.got.tgz:11776.got - 2010.06.03 19:58:25.
