data_PCOD9380245
_publ_section_title
;
Structure prediction by ZEFSAII (Michael W. Deem and Ramdas Pophale) SiO2 
 PCOD9380245
Probable space group: I M A 2
;
_chemical_formula_sum "Si O2"
_cell_formula_units_Z 64
_cell_length_a 13.710043
_cell_length_b 23.775761
_cell_length_c 9.979946
_cell_angle_alpha 90.000000
_cell_angle_beta 90.000000
_cell_angle_gamma 90.000000
_cell_volume 3253.130120
_symmetry_space_group_name_H-M "I M A 2"
_symmetry_group_IT_number 46
_symmetry_cell_setting 'orthorhombic'
loop_
_space_group_symop_operation_xyz
x,y,z
-x,-y,z
1/2-x,y,z
1/2+x,-y,z
1/2+x,1/2+y,1/2+z
1/2-x,1/2-y,1/2+z
-x,1/2+y,1/2+z
x,1/2-y,1/2+z
loop_
_atom_site_type_symbol
_atom_site_label
_atom_site_fract_x
_atom_site_fract_y
_atom_site_fract_z
Si Si1 0.133586 0.708691 0.062620
Si Si2 0.633139 0.192201 0.262664
Si Si3 0.550306 0.843930 0.635685
Si Si4 0.867122 0.963134 0.132172
Si Si5 0.867509 0.717073 0.628782
Si Si6 0.867414 0.624669 0.852799
Si Si7 0.367073 0.907803 0.083918
Si Si8 0.452986 0.373489 0.432035
O O1 0.250000 0.699477 0.069989
O O2 0.109521 0.764795 0.144679
O O3 0.066900 0.661168 0.127255
O O4 0.099966 0.711620 0.908262
O O5 0.750000 0.192741 0.272604
O O6 0.606822 0.130309 0.213063
O O7 0.594568 0.780590 0.637306
O O8 0.588017 0.872135 0.499948
O O9 0.573454 0.872281 0.776735
O O10 0.750000 0.962139 0.132656
O O11 0.897212 0.930213 0.267100
O O12 0.902647 0.924855 0.009954
O O13 0.894739 0.027944 0.113665
O O14 0.750000 0.717194 0.614581
O O15 0.891876 0.679508 0.760848
O O16 0.914060 0.682979 0.504629
O O17 0.750000 0.624655 0.865343
O O18 0.250000 0.903478 0.060581
O O19 0.432255 0.882500 0.964334
#
# Coordination Sequence:
#
# PCOD9380245 Si02
#       8
#     8   8   8   8   8   8   8   8
#     4  10  23  38  55  86 125 159 193 236 293 354
#     4   9  20  37  59  83 114 152 192 237 285 343
#     4  12  24  33  58  89 123 161 193 241 300 353
#     4   9  20  41  67  87 112 152 202 254 296 348
#     4  10  22  39  59  87 123 162 201 239 287 356
#     4   9  20  38  59  86 119 154 197 247 299 347
#     4  10  21  39  67  91 111 153 207 245 289 351
#     4  11  23  37  59  90 121 157 198 247 296 347
#
# _framework density 19.673361
#
# number of rings (size 3 to 8) (size 9 to 14) (size 15 to 20)
#    0.000    2.000    0.000    3.375    8.750    3.500 
#    0.000    0.000    5.500    0.000    0.000    0.000 
#    0.000    0.000    0.000    0.000    0.000    0.000 
#
# Total GULP energy -178713.811188 kJ/mol
# GULP energy per Si atom -5584.806600 kJ/mol
# Density = 1.962858 g / cm^3
# Si number density = 19.673361 Si / 1000 Ang^3
#
#
#
# Elastic Constant Matrix: (Units=GPa)
#
#
# Indices 1 2 3 4 5 6 
#
# 1 77.6083 23.5142 26.3885 0.0000 0.0000 0.0000
# 2 23.5142 74.8249 65.0704 0.0001 0.0000 0.0000
# 3 26.3885 65.0704 168.6813 -0.0002 0.0001 0.0001
# 4 0.0000 0.0001 -0.0002 5.8411 0.0001 0.0000
# 5 0.0000 0.0000 0.0001 0.0001 24.7719 0.0000
# 6 0.0000 0.0000 0.0001 0.0000 0.0000 24.5364
#
#
#
# Elastic Compliance Matrix: (Units=1/GPa)
#
#
# Indices 1 2 3 4 5 6 
#
# 1 0.014305 -0.003836 -0.000758 0.000000 0.000000 0.000000
# 2 -0.003836 0.021140 -0.007555 0.000000 0.000000 0.000000
# 3 -0.000758 -0.007555 0.008961 0.000000 0.000000 0.000000
# 4 0.000000 0.000000 0.000000 0.171202 0.000000 0.000000
# 5 0.000000 0.000000 0.000000 0.000000 0.040368 0.000000
# 6 0.000000 0.000000 0.000000 0.000000 0.000000 0.040756
#
#
# Mechanical properties :
#
#
# Convention : Reuss Voigt Hill
#
# Bulk Modulus (GPa) = 49.73073 61.22896 55.47984
# Shear Modulus (GPa) = 15.25627 24.77261 20.01444
#
# Velocity S-wave (km/s) = 2.78776 3.55236 3.19303
# Velocity P-wave (km/s) = 5.97455 6.92936 6.46959
#
# Compressibility (1/GPa) = 0.02010829
#
# Stress axis : x y z
#
# Youngs Moduli (GPa) = 69.90403 47.30354 111.59137
#
# Poissons Ratio (x) = 0.18147 0.08459
# Poissons Ratio (y) = 0.26818 0.84305
# Poissons Ratio (z) = 0.05299 0.35737
#
# Static dielectric constant tensor:
#      x y z
#    x 1.760880 0.000000 0.000000 
#    y 0.000000 1.670440 0.000000 
#    z 0.000000 0.000000 1.671140 
# 
# From -- ./inp_files/6075.got.cif
#   From: 2010.05.17/outbox.cif.g08.bks.cpg/sg46_4_cif.got.tgz:6075.got - 2010.06.03 19:58:25.
