data_PCOD9380417
_publ_section_title
;
Structure prediction by ZEFSAII (Michael W. Deem and Ramdas Pophale) SiO2 
 PCOD9380417
Probable space group: I M A 2
;
_chemical_formula_sum "Si O2"
_cell_formula_units_Z 64
_cell_length_a 16.396302
_cell_length_b 8.964794
_cell_length_c 20.054584
_cell_angle_alpha 90.000000
_cell_angle_beta 90.000000
_cell_angle_gamma 90.000000
_cell_volume 2947.812669
_symmetry_space_group_name_H-M "I M A 2"
_symmetry_group_IT_number 46
_symmetry_cell_setting 'orthorhombic'
loop_
_space_group_symop_operation_xyz
x,y,z
-x,-y,z
1/2-x,y,z
1/2+x,-y,z
1/2+x,1/2+y,1/2+z
1/2-x,1/2-y,1/2+z
-x,1/2+y,1/2+z
x,1/2-y,1/2+z
loop_
_atom_site_type_symbol
_atom_site_label
_atom_site_fract_x
_atom_site_fract_y
_atom_site_fract_z
Si Si1 0.342943 0.803499 0.125000
Si Si2 0.659441 0.192937 0.473871
Si Si3 0.912680 0.925118 0.405508
Si Si4 0.567640 0.127022 0.867353
Si Si5 0.087481 0.422444 0.560965
Si Si6 0.529760 0.844449 0.269985
Si Si7 0.159231 0.384153 0.420759
Si Si8 0.514018 0.825637 0.648339
O O1 0.250000 0.783007 0.149791
O O2 0.422245 0.737530 0.161061
O O3 0.364162 0.977551 0.114704
O O4 0.348290 0.722409 0.052204
O O5 0.750000 0.245732 0.454599
O O6 0.591353 0.280031 0.432495
O O7 0.649287 0.023797 0.448082
O O8 0.907940 0.912516 0.324964
O O9 0.903338 0.752751 0.421306
O O10 0.000000 0.000000 0.419469
O O11 0.537071 0.246728 0.812757
O O12 0.500000 0.000000 0.875871
O O13 0.643861 0.011273 0.865086
O O14 0.143554 0.439513 0.495904
O O15 0.000000 0.500000 0.548398
O O16 0.061034 0.260018 0.588675
O O17 0.560363 0.727487 0.215347
O O18 0.500000 0.000000 0.237106
O O19 0.250000 0.325227 0.413159
O O20 0.500000 0.000000 0.637973
#
# Coordination Sequence:
#
# PCOD9380417 Si02
#       8
#     8   8   8   8   8   8   8   8
#     4  10  22  41  64  93 134 173 213 267 326 389
#     4  11  22  38  60  95 135 169 205 263 330 390
#     4  11  23  38  64  92 128 165 216 264 322 386
#     4  12  21  37  64  95 128 167 210 259 317 385
#     4  10  22  38  63  93 126 171 220 259 313 386
#     4  11  22  43  69  91 119 165 224 270 309 381
#     4  12  24  37  60  99 139 169 205 266 336 394
#     4  11  26  43  69  95 125 168 231 275 325 386
#
# _framework density 21.711013999999999
#
# number of rings (size 3 to 8) (size 9 to 14) (size 15 to 20)
#    0.000    1.000    5.000    3.000    7.000    0.000 
#    0.000    1.875    0.000    2.250    0.000    0.000 
#    0.000    0.000    0.000    0.000    0.000    0.000 
#
# Total GULP energy -178156.598581 kJ/mol
# GULP energy per Si atom -5567.393706 kJ/mol
# Density = 2.166160 g / cm^3
# Si number density = 21.711014 Si / 1000 Ang^3
#
#
#
# Elastic Constant Matrix: (Units=GPa)
#
#
# Indices 1 2 3 4 5 6 
#
# 1 77.6503 7.9971 4.7489 0.0000 0.0000 0.0000
# 2 7.9971 155.9293 19.1910 0.0000 0.0000 0.0000
# 3 4.7489 19.1910 52.6744 0.0000 0.0000 0.0000
# 4 0.0000 0.0000 0.0000 37.0570 0.0000 0.0000
# 5 0.0000 0.0000 0.0000 0.0000 1.6853 0.0000
# 6 0.0000 0.0000 0.0000 0.0000 0.0000 22.0969
#
#
#
# Elastic Compliance Matrix: (Units=1/GPa)
#
#
# Indices 1 2 3 4 5 6 
#
# 1 0.012994 -0.000547 -0.000972 0.000000 0.000000 0.000000
# 2 -0.000547 0.006737 -0.002405 0.000000 0.000000 0.000000
# 3 -0.000972 -0.002405 0.019949 0.000000 0.000000 0.000000
# 4 0.000000 0.000000 0.000000 0.026985 0.000000 0.000000
# 5 0.000000 0.000000 0.000000 0.000000 0.593363 0.000000
# 6 0.000000 0.000000 0.000000 0.000000 0.000000 0.045255
#
#
# Mechanical properties :
#
#
# Convention : Reuss Voigt Hill
#
# Bulk Modulus (GPa) = 31.41580 38.90310 35.15945
# Shear Modulus (GPa) = 6.90853 29.12232 18.01543
#
# Velocity S-wave (km/s) = 1.78576 3.66643 2.88372
# Velocity P-wave (km/s) = 4.33051 5.99009 5.22659
#
# Compressibility (1/GPa) = 0.03183112
#
# Stress axis : x y z
#
# Youngs Moduli (GPa) = 76.95844 148.42888 50.12895
#
# Poissons Ratio (x) = 0.08115 0.04874
# Poissons Ratio (y) = 0.04208 0.12057
# Poissons Ratio (z) = 0.07483 0.35702
#
# Static dielectric constant tensor:
#      x y z
#    x 1.862000 0.000000 0.000000 
#    y 0.000000 1.882920 0.000000 
#    z 0.000000 0.000000 1.875580 
# 
# From -- ./inp_files/22239.got.cif
#   From: 2010.05.17/outbox.cif.g08.bks.cpg/sg46_12_cif.got.tgz:22239.got - 2010.06.03 19:58:25.
