data_PCOD9380623
_publ_section_title
;
Structure prediction by ZEFSAII (Michael W. Deem and Ramdas Pophale) SiO2 
 PCOD9380623
Probable space group: I M A 2
;
_chemical_formula_sum "Si O2"
_cell_formula_units_Z 60
_cell_length_a 9.614350
_cell_length_b 17.686975
_cell_length_c 16.972989
_cell_angle_alpha 90.000000
_cell_angle_beta 90.000000
_cell_angle_gamma 90.000000
_cell_volume 2886.235870
_symmetry_space_group_name_H-M "I M A 2"
_symmetry_group_IT_number 46
_symmetry_cell_setting 'orthorhombic'
loop_
_space_group_symop_operation_xyz
x,y,z
-x,-y,z
1/2-x,y,z
1/2+x,-y,z
1/2+x,1/2+y,1/2+z
1/2-x,1/2-y,1/2+z
-x,1/2+y,1/2+z
x,1/2-y,1/2+z
loop_
_atom_site_type_symbol
_atom_site_label
_atom_site_fract_x
_atom_site_fract_y
_atom_site_fract_z
Si Si1 0.583632 0.924266 0.051940
Si Si2 0.085663 0.817333 0.165384
Si Si3 0.410612 0.147008 0.887053
Si Si4 0.750000 0.504113 0.015123
Si Si5 0.408848 0.924996 0.317550
Si Si6 0.912684 0.831464 0.711368
Si Si7 0.007738 0.394659 0.051332
Si Si8 0.414337 0.788511 0.437108
O O1 0.750000 0.927943 0.070517
O O2 0.506759 0.855092 0.096339
O O3 0.500000 0.000000 0.074616
O O4 0.569525 0.912229 0.957552
O O5 0.250000 0.804678 0.145115
O O6 0.084921 0.880521 0.235073
O O7 0.012466 0.741363 0.199160
O O8 0.250000 0.172289 0.893988
O O9 0.433360 0.127952 0.795570
O O10 0.511073 0.216372 0.903544
O O11 0.870600 0.567794 0.001930
O O12 0.629515 0.442737 0.039171
O O13 0.250000 0.948989 0.335912
O O14 0.442378 0.861427 0.382221
O O15 0.500000 0.000000 0.318540
O O16 0.750000 0.807490 0.706709
O O17 0.942169 0.889365 0.640861
O O18 0.974761 0.310689 0.021546
O O19 0.250000 0.777256 0.440051
#
# Coordination Sequence:
#
# PCOD9380623 Si02
#       8
#     8   8   8   4   8   8   8   8
#     4  11  24  44  68  95 128 167 218 270 327 384
#     4  11  23  41  66  93 128 166 216 267 320 382
#     4  10  24  44  65  94 128 167 214 266 318 384
#     4  10  24  42  60  92 130 160 216 260 318 376
#     4  10  23  38  57  90 126 164 204 254 308 372
#     4  11  23  43  65  93 128 169 216 266 321 380
#     4  11  23  41  64  92 124 172 209 262 315 382
#     4  11  23  40  63  93 130 166 210 258 315 380
#
# _framework density 20.788321
#
# number of rings (size 3 to 8) (size 9 to 14) (size 15 to 20)
#    0.000    1.333    2.667    2.000    3.733    5.867 
#    2.400    0.000    0.000    0.000    0.000    0.000 
#    0.000    0.000    0.000    0.000    0.000    0.000 
#
# Total GULP energy -167079.404676 kJ/mol
# GULP energy per Si atom -5569.313489 kJ/mol
# Density = 2.074101 g / cm^3
# Si number density = 20.788321 Si / 1000 Ang^3
#
#
#
# Elastic Constant Matrix: (Units=GPa)
#
#
# Indices 1 2 3 4 5 6 
#
# 1 131.1634 28.5412 18.6108 0.0000 0.0000 0.0000
# 2 28.5412 42.5875 -13.4781 0.0000 0.0000 0.0000
# 3 18.6108 -13.4781 70.0862 0.0000 0.0000 0.0000
# 4 0.0000 0.0000 0.0000 2.8478 0.0000 0.0000
# 5 0.0000 0.0000 0.0000 0.0000 23.5970 0.0000
# 6 0.0000 0.0000 0.0000 0.0000 0.0000 45.4167
#
#
#
# Elastic Compliance Matrix: (Units=1/GPa)
#
#
# Indices 1 2 3 4 5 6 
#
# 1 0.009958 -0.007997 -0.004182 0.000000 0.000000 0.000000
# 2 -0.007997 0.031425 0.008167 0.000000 0.000000 0.000000
# 3 -0.004182 0.008167 0.016949 0.000000 0.000000 0.000000
# 4 0.000000 0.000000 0.000000 0.351150 0.000000 0.000000
# 5 0.000000 0.000000 0.000000 0.000000 0.042378 0.000000
# 6 0.000000 0.000000 0.000000 0.000000 0.000000 0.022018
#
#
# Mechanical properties :
#
#
# Convention : Reuss Voigt Hill
#
# Bulk Modulus (GPa) = 19.87775 34.57612 27.22693
# Shear Modulus (GPa) = 10.02663 28.38316 19.20489
#
# Velocity S-wave (km/s) = 2.19856 3.69906 3.04276
# Velocity P-wave (km/s) = 4.00345 5.90869 5.04680
#
# Compressibility (1/GPa) = 0.05030751
#
# Stress axis : x y z
#
# Youngs Moduli (GPa) = 100.42592 31.82178 58.99990
#
# Poissons Ratio (x) = 0.25448 0.24674
# Poissons Ratio (y) = 0.80309 -0.48184
# Poissons Ratio (z) = 0.41998 -0.25988
#
# Static dielectric constant tensor:
#      x y z
#    x 1.701850 0.000000 0.000000 
#    y 0.000000 1.730560 0.000000 
#    z 0.000000 0.000000 1.854350 
# 
# From -- ./inp_files/18359.got.cif
#   From: 2010.05.17/outbox.cif.g08.bks.cpg/sg46_10_cif.got.tgz:18359.got - 2010.06.03 19:58:25.
