data_PCOD9380662
_publ_section_title
;
Structure prediction by ZEFSAII (Michael W. Deem and Ramdas Pophale) SiO2 
 PCOD9380662
Probable space group: I M A 2
;
_chemical_formula_sum "Si O2"
_cell_formula_units_Z 40
_cell_length_a 8.733555
_cell_length_b 29.178822
_cell_length_c 8.013246
_cell_angle_alpha 90.000000
_cell_angle_beta 90.000000
_cell_angle_gamma 90.000000
_cell_volume 2042.054317
_symmetry_space_group_name_H-M "I M A 2"
_symmetry_group_IT_number 46
_symmetry_cell_setting 'orthorhombic'
loop_
_space_group_symop_operation_xyz
x,y,z
-x,-y,z
1/2-x,y,z
1/2+x,-y,z
1/2+x,1/2+y,1/2+z
1/2-x,1/2-y,1/2+z
-x,1/2+y,1/2+z
x,1/2-y,1/2+z
loop_
_atom_site_type_symbol
_atom_site_label
_atom_site_fract_x
_atom_site_fract_y
_atom_site_fract_z
Si Si1 0.933802 0.050932 0.490740
Si Si2 0.433485 0.894941 0.155552
Si Si3 0.068122 0.205542 0.676787
Si Si4 0.067459 0.393634 0.302814
Si Si5 0.067850 0.701141 0.814085
O O1 0.750000 0.049826 0.495143
O O2 0.980156 0.076172 0.318596
O O3 0.992593 0.078875 0.650776
O O4 0.000000 0.000000 0.494269
O O5 0.250000 0.898917 0.137182
O O6 0.469475 0.841796 0.195872
O O7 0.511356 0.909581 0.983791
O O8 0.250000 0.213588 0.690956
O O9 0.027397 0.160179 0.780989
O O10 0.979504 0.250587 0.735458
O O11 0.022242 0.195691 0.486603
O O12 0.250000 0.397790 0.289933
O O13 0.250000 0.699986 0.846888
#
# Coordination Sequence:
#
# PCOD9380662 Si02
#       5
#     8   8   8   8   8
#     4  11  24  45  70  96 128 166 215 270 327 384
#     4  10  23  42  65  93 128 170 214 268 321 379
#     4  11  23  38  58  90 130 171 214 266 324 380
#     4  11  24  41  65  95 130 172 213 263 323 384
#     4  11  22  38  61  90 125 172 220 264 319 382
#
# _framework density 19.588118000000001
#
# number of rings (size 3 to 8) (size 9 to 14) (size 15 to 20)
#    0.000    1.200    2.000    3.600    0.000    9.600 
#    0.000    2.000    0.000    0.000    0.000    0.000 
#    0.000    0.000    0.000    0.000    0.000    0.000 
#
# Total GULP energy -111860.936382 kJ/mol
# GULP energy per Si atom -5593.046819 kJ/mol
# Density = 1.954353 g / cm^3
# Si number density = 19.588118 Si / 1000 Ang^3
#
#
#
# Elastic Constant Matrix: (Units=GPa)
#
#
# Indices 1 2 3 4 5 6 
#
# 1 29.1920 39.0373 27.2709 0.0006 0.0004 -0.0004
# 2 39.0373 116.8828 48.2845 0.0014 0.0030 -0.0005
# 3 27.2709 48.2845 138.5805 0.0046 0.0034 -0.0006
# 4 0.0006 0.0014 0.0046 23.0288 -0.0031 -0.0004
# 5 0.0004 0.0030 0.0034 -0.0031 74.1730 -0.0018
# 6 -0.0004 -0.0005 -0.0006 -0.0004 -0.0018 28.8237
#
#
#
# Elastic Compliance Matrix: (Units=1/GPa)
#
#
# Indices 1 2 3 4 5 6 
#
# 1 0.066194 -0.019539 -0.006218 0.000001 0.000001 0.000001
# 2 -0.019539 0.015762 -0.001647 0.000000 0.000000 0.000000
# 3 -0.006218 -0.001647 0.009013 -0.000002 0.000000 0.000000
# 4 0.000001 0.000000 -0.000002 0.043424 0.000002 0.000001
# 5 0.000001 0.000000 0.000000 0.000002 0.013482 0.000001
# 6 0.000001 0.000000 0.000000 0.000001 0.000001 0.034694
#
#
# Mechanical properties :
#
#
# Convention : Reuss Voigt Hill
#
# Bulk Modulus (GPa) = 27.65423 57.09343 42.37383
# Shear Modulus (GPa) = 20.04570 36.54260 28.29415
#
# Velocity S-wave (km/s) = 3.20247 4.32389 3.80472
# Velocity P-wave (km/s) = 5.27474 7.35787 6.40161
#
# Compressibility (1/GPa) = 0.03616084
#
# Stress axis : x y z
#
# Youngs Moduli (GPa) = 15.10716 63.44530 110.94558
#
# Poissons Ratio (x) = 1.23966 0.68989
# Poissons Ratio (y) = 0.29518 0.18269
# Poissons Ratio (z) = 0.09394 0.10447
#
# Static dielectric constant tensor:
#      x y z
#    x 1.650110 0.000000 0.000000 
#    y 0.000000 1.680610 0.000000 
#    z 0.000000 0.000000 1.667920 
# 
# From -- ./inp_files/3534.got.cif
#   From: 2010.05.17/outbox.cif.g08.bks.cpg/sg46_2_cif.got.tgz:3534.got - 2010.06.03 19:58:25.
