data_PCOD9380961
_publ_section_title
;
Structure prediction by ZEFSAII (Michael W. Deem and Ramdas Pophale) SiO2 
 PCOD9380961
Probable space group: I M A 2
;
_chemical_formula_sum "Si O2"
_cell_formula_units_Z 56
_cell_length_a 32.084880
_cell_length_b 5.546294
_cell_length_c 14.435010
_cell_angle_alpha 90.000000
_cell_angle_beta 90.000000
_cell_angle_gamma 90.000000
_cell_volume 2568.741461
_symmetry_space_group_name_H-M "I M A 2"
_symmetry_group_IT_number 46
_symmetry_cell_setting 'orthorhombic'
loop_
_space_group_symop_operation_xyz
x,y,z
-x,-y,z
1/2-x,y,z
1/2+x,-y,z
1/2+x,1/2+y,1/2+z
1/2-x,1/2-y,1/2+z
-x,1/2+y,1/2+z
x,1/2-y,1/2+z
loop_
_atom_site_type_symbol
_atom_site_label
_atom_site_fract_x
_atom_site_fract_y
_atom_site_fract_z
Si Si1 0.160315 0.051152 0.147810
Si Si2 0.839685 0.948847 0.355554
Si Si3 0.086021 0.108254 0.646492
Si Si4 0.750000 0.505044 0.562830
Si Si5 0.474730 0.250000 0.001682
Si Si6 0.413980 0.391746 0.356872
Si Si7 0.389488 0.750001 0.001682
Si Si8 0.250000 0.494946 0.940534
O O1 0.152054 0.949450 0.251682
O O2 0.134248 0.301598 0.147290
O O3 0.209003 0.032737 0.126512
O O4 0.139869 0.922616 0.060470
O O5 0.865752 0.698403 0.356075
O O6 0.790997 0.967258 0.376852
O O7 0.860131 0.077387 0.442893
O O8 0.055492 0.286675 0.591192
O O9 0.073006 0.072094 0.751682
O O10 0.084489 0.878503 0.581023
O O11 0.750000 0.749994 0.501681
O O12 0.750000 0.249994 0.501683
O O13 0.500000 0.500000 0.013269
O O14 0.444509 0.286675 0.912172
O O15 0.500000 0.000000 0.990097
O O16 0.415511 0.621497 0.422341
#
# Coordination Sequence:
#
# PCOD9380961 Si02
#       8
#     8   8   8   4   8   8   8   4
#     4  11  24  42  69 104 141 190 240 293 353 422
#     4  11  24  42  69 104 141 190 240 293 353 422
#     4  11  25  45  73 104 142 191 239 293 364 438
#     4  12  25  44  69 103 147 193 238 298 353 410
#     4  12  27  48  74 106 146 187 235 304 366 431
#     4  11  25  45  73 104 142 191 239 293 364 438
#     4  12  19  43  70 101 138 190 243 290 350 426
#     4  12  25  44  69 103 147 193 238 298 353 410
#
# _framework density 21.800557999999999
#
# number of rings (size 3 to 8) (size 9 to 14) (size 15 to 20)
#    0.000    0.571    4.286    3.857    0.000    1.143 
#    0.000    1.429    0.000    0.000    0.000    0.000 
#    0.000    0.000    0.000    0.000    0.000    0.000 
#
# Total GULP energy -156108.437969 kJ/mol
# GULP energy per Si atom -5575.301356 kJ/mol
# Density = 2.175094 g / cm^3
# Si number density = 21.800558 Si / 1000 Ang^3
#
#
#
# Elastic Constant Matrix: (Units=GPa)
#
#
# Indices 1 2 3 4 5 6 
#
# 1 124.2713 27.1464 36.9210 0.0000 0.0000 0.0000
# 2 27.1464 81.9172 44.5128 0.0000 0.0000 0.0000
# 3 36.9210 44.5128 214.2052 0.0000 0.0000 0.0000
# 4 0.0000 0.0000 0.0000 26.2567 0.0000 0.0000
# 5 0.0000 0.0000 0.0000 0.0000 -0.0217 0.0000
# 6 0.0000 0.0000 0.0000 0.0000 0.0000 -20.0706
#
#
#
# Elastic Compliance Matrix: (Units=1/GPa)
#
#
# Indices 1 2 3 4 5 6 
#
# 1 0.008874 -0.002378 -0.001035 0.000000 0.000000 0.000000
# 2 -0.002378 0.014399 -0.002582 0.000000 0.000000 0.000000
# 3 -0.001035 -0.002582 0.005383 0.000000 0.000000 0.000000
# 4 0.000000 0.000000 0.000000 0.038085 0.000000 0.000000
# 5 0.000000 0.000000 0.000000 0.000000-46.187589 0.000000
# 6 0.000000 0.000000 0.000000 0.000000 0.000000 -0.049824
#
#
# Mechanical properties :
#
#
# Convention : Reuss Voigt Hill
#
# Bulk Modulus (GPa) = 60.00692 70.83935 65.42313
# Shear Modulus (GPa) = -0.10834 22.02047 10.95607
#
# Velocity S-wave (km/s) = -0.22316 3.18164 2.24422
# Velocity P-wave (km/s) = 5.24583 6.78689 6.06550
#
# Compressibility (1/GPa) = 0.01666475
#
# Stress axis : x y z
#
# Youngs Moduli (GPa) = 112.68872 69.45080 185.75371
#
# Poissons Ratio (x) = 0.16516 0.19232
# Poissons Ratio (y) = 0.26799 0.47966
# Poissons Ratio (z) = 0.11667 0.17934
#
# Static dielectric constant tensor:
#      x y z
#    x 1.894290 0.000000 0.000000 
#    y 0.000000 1.922600 0.000000 
#    z 0.000000 0.000000 1.768750 
# 
# From -- ./inp_files/17732.got.cif
#   From: 2010.05.17/outbox.cif.g08.bks.cpg/sg46_9_cif.got.tgz:17732.got - 2010.06.03 19:58:25.
