data_PCOD9380753
_publ_section_title
;
Structure prediction by ZEFSAII (Michael W. Deem and Ramdas Pophale) SiO2 
 PCOD9380753
Probable space group: I M A 2
;
_chemical_formula_sum "Si O2"
_cell_formula_units_Z 60
_cell_length_a 27.548465
_cell_length_b 11.469717
_cell_length_c 8.960019
_cell_angle_alpha 90.000000
_cell_angle_beta 90.000000
_cell_angle_gamma 90.000000
_cell_volume 2831.124956
_symmetry_space_group_name_H-M "I M A 2"
_symmetry_group_IT_number 46
_symmetry_cell_setting 'orthorhombic'
loop_
_space_group_symop_operation_xyz
x,y,z
-x,-y,z
1/2-x,y,z
1/2+x,-y,z
1/2+x,1/2+y,1/2+z
1/2-x,1/2-y,1/2+z
-x,1/2+y,1/2+z
x,1/2-y,1/2+z
loop_
_atom_site_type_symbol
_atom_site_label
_atom_site_fract_x
_atom_site_fract_y
_atom_site_fract_z
Si Si1 0.860987 0.851152 0.378810
Si Si2 0.807633 0.830330 0.071831
Si Si3 0.750000 0.226557 0.263402
Si Si4 0.383289 0.569469 0.070454
Si Si5 0.047721 0.315328 0.358118
Si Si6 0.674738 0.205095 0.014868
Si Si7 0.991685 0.368438 0.053641
Si Si8 0.378792 0.002568 0.908878
O O1 0.825648 0.859372 0.237888
O O2 0.831563 0.789727 0.513376
O O3 0.905810 0.768614 0.330307
O O4 0.881009 0.972299 0.441863
O O5 0.750000 0.827076 0.061903
O O6 0.832381 0.924539 0.963562
O O7 0.791942 0.288226 0.368722
O O8 0.707506 0.169804 0.155037
O O9 0.434323 0.636421 0.075410
O O10 0.377749 0.510055 0.231186
O O11 0.341454 0.662610 0.044069
O O12 0.072184 0.425239 0.443400
O O13 0.021684 0.358288 0.208138
O O14 0.011199 0.235627 0.451639
O O15 0.629065 0.121927 0.985143
O O16 0.000000 0.500000 0.992857
#
# Coordination Sequence:
#
# PCOD9380753 Si02
#       8
#     8   8   4   8   8   8   8   8
#     4  11  23  45  70 101 141 178 227 293 353 418
#     4  11  25  42  70 102 135 181 233 283 350 429
#     4  10  24  46  68  98 144 194 246 296 338 442
#     4  12  26  45  69 100 143 184 230 297 357 424
#     4  11  23  47  73 102 139 185 232 293 365 427
#     4  11  25  44  69 102 144 190 244 291 365 414
#     4  12  25  46  74 104 143 181 236 293 361 446
#     4  11  24  44  70  98 142 188 228 300 357 419
#
# _framework density 21.192990000000002
#
# number of rings (size 3 to 8) (size 9 to 14) (size 15 to 20)
#    0.000    0.800    4.000    3.600    5.600    0.000 
#    3.600    0.667    0.000    0.000    0.000    0.000 
#    0.000    0.000    0.000    0.000    0.000    0.000 
#
# Total GULP energy -167133.170182 kJ/mol
# GULP energy per Si atom -5571.105673 kJ/mol
# Density = 2.114475 g / cm^3
# Si number density = 21.192990 Si / 1000 Ang^3
#
#
#
# Elastic Constant Matrix: (Units=GPa)
#
#
# Indices 1 2 3 4 5 6 
#
# 1 76.1592 33.5088 38.3008 0.0000 0.0000 0.0000
# 2 33.5088 94.2870 44.0126 0.0000 0.0000 0.0000
# 3 38.3008 44.0126 45.6557 0.0000 0.0000 0.0000
# 4 0.0000 0.0000 0.0000 26.1278 0.0000 0.0000
# 5 0.0000 0.0000 0.0000 0.0000 50.8857 0.0000
# 6 0.0000 0.0000 0.0000 0.0000 0.0000 10.7488
#
#
#
# Elastic Compliance Matrix: (Units=1/GPa)
#
#
# Indices 1 2 3 4 5 6 
#
# 1 0.022829 0.001503 -0.020600 0.000000 0.000000 0.000000
# 2 0.001503 0.019382 -0.019945 0.000000 0.000000 0.000000
# 3 -0.020600 -0.019945 0.058412 0.000000 0.000000 0.000000
# 4 0.000000 0.000000 0.000000 0.038273 0.000000 0.000000
# 5 0.000000 0.000000 0.000000 0.000000 0.019652 0.000000
# 6 0.000000 0.000000 0.000000 0.000000 0.000000 0.093034
#
#
# Mechanical properties :
#
#
# Convention : Reuss Voigt Hill
#
# Bulk Modulus (GPa) = 44.36941 49.74960 47.05950
# Shear Modulus (GPa) = 14.82883 24.23778 19.53331
#
# Velocity S-wave (km/s) = 2.64806 3.38549 3.03922
# Velocity P-wave (km/s) = 5.50736 6.22957 5.87956
#
# Compressibility (1/GPa) = 0.02253805
#
# Stress axis : x y z
#
# Youngs Moduli (GPa) = 43.80370 51.59371 17.11971
#
# Poissons Ratio (x) = -0.07753 0.35267
# Poissons Ratio (y) = -0.06583 0.34146
# Poissons Ratio (z) = 0.90236 1.02905
#
# Static dielectric constant tensor:
#      x y z
#    x 1.680570 0.000000 0.000000 
#    y 0.000000 1.811890 0.000000 
#    z 0.000000 0.000000 1.746600 
# 
# From -- ./inp_files/8202.got.cif
#   From: 2010.05.17/outbox.cif.g08.bks.cpg/sg46_5_cif.got.tgz:8202.got - 2010.06.03 19:58:25.
