data_PCOD9380929
_publ_section_title
;
Structure prediction by ZEFSAII (Michael W. Deem and Ramdas Pophale) SiO2 
 PCOD9380929
Probable space group: I M A 2
;
_chemical_formula_sum "Si O2"
_cell_formula_units_Z 32
_cell_length_a 14.538772
_cell_length_b 10.269134
_cell_length_c 7.971853
_cell_angle_alpha 90.000000
_cell_angle_beta 90.000000
_cell_angle_gamma 90.000000
_cell_volume 1190.202419
_symmetry_space_group_name_H-M "I M A 2"
_symmetry_group_IT_number 46
_symmetry_cell_setting 'orthorhombic'
loop_
_space_group_symop_operation_xyz
x,y,z
-x,-y,z
1/2-x,y,z
1/2+x,-y,z
1/2+x,1/2+y,1/2+z
1/2-x,1/2-y,1/2+z
-x,1/2+y,1/2+z
x,1/2-y,1/2+z
loop_
_atom_site_type_symbol
_atom_site_label
_atom_site_fract_x
_atom_site_fract_y
_atom_site_fract_z
Si Si1 0.851881 0.816195 0.204150
Si Si2 0.104531 0.545521 0.500274
Si Si3 0.353743 0.589703 0.861506
Si Si4 0.462715 0.645898 0.179066
O O1 0.750000 0.754341 0.219290
O O2 0.945580 0.733611 0.204957
O O3 0.847685 0.906422 0.034398
O O4 0.861336 0.931001 0.345049
O O5 0.127997 0.628354 0.667497
O O6 0.112876 0.625556 0.329732
O O7 0.000000 0.500000 0.523913
O O8 0.250000 0.619470 0.909287
O O9 0.423139 0.648123 0.992659
O O10 0.500000 0.500000 0.186535
#
# Coordination Sequence:
#
# PCOD9380929 Si02
#       4
#     8   8   8   8
#     4   9  22  47  73 108 147 187 250 311 355 437
#     4   9  20  43  67 103 146 192 234 307 372 429
#     4   9  21  44  72 104 146 191 246 304 363 437
#     4  11  23  40  69 109 148 192 236 308 378 431
#
# _framework density 26.886182999999999
#
# number of rings (size 3 to 8) (size 9 to 14) (size 15 to 20)
#    1.500    1.000    0.000    0.750    0.000    7.000 
#    4.500   12.500    0.000    6.000    0.000    0.000 
#    0.000    0.000    0.000    0.000    0.000    0.000 
#
# Total GULP energy -89279.697904 kJ/mol
# GULP energy per Si atom -5579.981119 kJ/mol
# Density = 2.682499 g / cm^3
# Si number density = 26.886183 Si / 1000 Ang^3
#
#
#
# Elastic Constant Matrix: (Units=GPa)
#
#
# Indices 1 2 3 4 5 6 
#
# 1 185.7791 41.7884 43.7246 0.0000 0.0000 0.0000
# 2 41.7884 93.9672 45.2057 0.0000 0.0000 0.0000
# 3 43.7246 45.2057 140.6090 0.0000 0.0000 0.0000
# 4 0.0000 0.0000 0.0000 -6.1989 0.0000 0.0000
# 5 0.0000 0.0000 0.0000 0.0000 18.5634 0.0000
# 6 0.0000 0.0000 0.0000 0.0000 0.0000 42.0970
#
#
#
# Elastic Compliance Matrix: (Units=1/GPa)
#
#
# Indices 1 2 3 4 5 6 
#
# 1 0.006154 -0.002148 -0.001223 0.000000 0.000000 0.000000
# 2 -0.002148 0.013339 -0.003620 0.000000 0.000000 0.000000
# 3 -0.001223 -0.003620 0.008656 0.000000 0.000000 0.000000
# 4 0.000000 0.000000 0.000000 -0.161319 0.000000 0.000000
# 5 0.000000 0.000000 0.000000 0.000000 0.053869 0.000000
# 6 0.000000 0.000000 0.000000 0.000000 0.000000 0.023755
#
#
# Mechanical properties :
#
#
# Convention : Reuss Voigt Hill
#
# Bulk Modulus (GPa) = 70.59330 75.75474 73.17402
# Shear Modulus (GPa) = -135.72163 30.20142 -52.76010
#
# Velocity S-wave (km/s) = -7.11264 3.35521 -4.43465
# Velocity P-wave (km/s) = 6.41401 6.57626 1.02656
#
# Compressibility (1/GPa) = 0.01416565
#
# Stress axis : x y z
#
# Youngs Moduli (GPa) = 162.50119 74.96733 115.52431
#
# Poissons Ratio (x) = 0.16106 0.14128
# Poissons Ratio (y) = 0.34911 0.41825
# Poissons Ratio (z) = 0.19873 0.27142
#
# Static dielectric constant tensor:
#      x y z
#    x 2.082410 0.000000 0.000000 
#    y 0.000000 2.567900 0.000000 
#    z 0.000000 0.000000 2.359090 
# 
# From -- ./inp_files/10742.got.cif
#   From: 2010.05.17/outbox.cif.g08.bks.cpg/sg46_6_cif.got.tgz:10742.got - 2010.06.03 19:58:25.
