data_PCOD9380855
_publ_section_title
;
Structure prediction by ZEFSAII (Michael W. Deem and Ramdas Pophale) SiO2 
 PCOD9380855
Probable space group: I M A 2
;
_chemical_formula_sum "Si O2"
_cell_formula_units_Z 40
_cell_length_a 14.716813
_cell_length_b 18.121087
_cell_length_c 7.123284
_cell_angle_alpha 90.000000
_cell_angle_beta 90.000000
_cell_angle_gamma 90.000000
_cell_volume 1899.670491
_symmetry_space_group_name_H-M "I M A 2"
_symmetry_group_IT_number 46
_symmetry_cell_setting 'orthorhombic'
loop_
_space_group_symop_operation_xyz
x,y,z
-x,-y,z
1/2-x,y,z
1/2+x,-y,z
1/2+x,1/2+y,1/2+z
1/2-x,1/2-y,1/2+z
-x,1/2+y,1/2+z
x,1/2-y,1/2+z
loop_
_atom_site_type_symbol
_atom_site_label
_atom_site_fract_x
_atom_site_fract_y
_atom_site_fract_z
Si Si1 0.550711 0.681775 0.639700
Si Si2 0.151961 0.808552 0.164184
Si Si3 0.970135 0.579821 0.003078
Si Si4 0.653153 0.360177 0.095699
Si Si5 0.143729 0.335652 0.260996
O O1 0.445667 0.677990 0.571316
O O2 0.550077 0.633548 0.828345
O O3 0.616262 0.653590 0.476948
O O4 0.584321 0.764768 0.690052
O O5 0.250000 0.829313 0.076317
O O6 0.153470 0.720364 0.187544
O O7 0.150845 0.844615 0.370361
O O8 0.000000 0.500000 0.930423
O O9 0.885239 0.593459 0.139282
O O10 0.058104 0.601311 0.128555
O O11 0.750000 0.397262 0.138249
O O12 0.250000 0.318849 0.240423
#
# Coordination Sequence:
#
# PCOD9380855 Si02
#       5
#     8   8   8   8   8
#     4  11  21  40  66  97 131 175 234 285 340 404
#     4   9  16  29  54  87 115 146 195 262 321 384
#     4  11  25  42  63  93 137 178 215 283 351 409
#     4   9  17  31  54  84 113 148 196 249 318 386
#     4  12  24  40  68 101 132 179 243 292 333 404
#
# _framework density 21.056284000000002
#
# number of rings (size 3 to 8) (size 9 to 14) (size 15 to 20)
#    0.000    1.600    4.000    1.800    0.000    2.400 
#    0.000    0.000    0.000    4.800    0.000    0.000 
#    0.000    0.000    0.000    0.000    0.000    0.000 
#
# Total GULP energy -111481.936424 kJ/mol
# GULP energy per Si atom -5574.096821 kJ/mol
# Density = 2.100836 g / cm^3
# Si number density = 21.056284 Si / 1000 Ang^3
#
#
#
# Elastic Constant Matrix: (Units=GPa)
#
#
# Indices 1 2 3 4 5 6 
#
# 1 146.9775 8.7530 23.5155 0.0000 0.0000 0.0000
# 2 8.7530 45.1777 9.7059 0.0000 0.0000 0.0000
# 3 23.5155 9.7059 69.4355 0.0000 0.0000 0.0000
# 4 0.0000 0.0000 0.0000 29.8171 0.0000 0.0000
# 5 0.0000 0.0000 0.0000 0.0000 25.1275 0.0000
# 6 0.0000 0.0000 0.0000 0.0000 0.0000 13.2241
#
#
#
# Elastic Compliance Matrix: (Units=1/GPa)
#
#
# Indices 1 2 3 4 5 6 
#
# 1 0.007229 -0.000902 -0.002322 0.000000 0.000000 0.000000
# 2 -0.000902 0.022933 -0.002900 0.000000 0.000000 0.000000
# 3 -0.002322 -0.002900 0.015594 0.000000 0.000000 0.000000
# 4 0.000000 0.000000 0.000000 0.033538 0.000000 0.000000
# 5 0.000000 0.000000 0.000000 0.000000 0.039797 0.000000
# 6 0.000000 0.000000 0.000000 0.000000 0.000000 0.075620
#
#
# Mechanical properties :
#
#
# Convention : Reuss Voigt Hill
#
# Bulk Modulus (GPa) = 29.84441 38.39328 34.11884
# Shear Modulus (GPa) = 22.92242 28.27481 25.59862
#
# Velocity S-wave (km/s) = 3.30301 3.66843 3.49051
# Velocity P-wave (km/s) = 5.36199 6.01800 5.69944
#
# Compressibility (1/GPa) = 0.03350712
#
# Stress axis : x y z
#
# Youngs Moduli (GPa) = 138.33177 43.60608 64.12844
#
# Poissons Ratio (x) = 0.03932 0.14892
# Poissons Ratio (y) = 0.12473 0.18599
# Poissons Ratio (z) = 0.32123 0.12647
#
# Static dielectric constant tensor:
#      x y z
#    x 1.820170 0.000000 0.000000 
#    y 0.000000 1.755450 0.000000 
#    z 0.000000 0.000000 1.774430 
# 
# From -- ./inp_files/5547.got.cif
#   From: 2010.05.17/outbox.cif.g08.bks.cpg/sg46_3_cif.got.tgz:5547.got - 2010.06.03 19:58:25.
