data_PCOD9380969
_publ_section_title
;
Structure prediction by ZEFSAII (Michael W. Deem and Ramdas Pophale) SiO2 
 PCOD9380969
Probable space group: I M A 2
;
_chemical_formula_sum "Si O2"
_cell_formula_units_Z 48
_cell_length_a 31.115859
_cell_length_b 7.505149
_cell_length_c 9.345843
_cell_angle_alpha 90.000000
_cell_angle_beta 90.000000
_cell_angle_gamma 90.000000
_cell_volume 2182.526847
_symmetry_space_group_name_H-M "I M A 2"
_symmetry_group_IT_number 46
_symmetry_cell_setting 'orthorhombic'
loop_
_space_group_symop_operation_xyz
x,y,z
-x,-y,z
1/2-x,y,z
1/2+x,-y,z
1/2+x,1/2+y,1/2+z
1/2-x,1/2-y,1/2+z
-x,1/2+y,1/2+z
x,1/2-y,1/2+z
loop_
_atom_site_type_symbol
_atom_site_label
_atom_site_fract_x
_atom_site_fract_y
_atom_site_fract_z
Si Si1 0.163874 0.081421 0.552330
Si Si2 0.513330 0.804205 0.318419
Si Si3 0.069267 0.148801 0.583925
Si Si4 0.420941 0.790395 0.728380
Si Si5 0.300215 0.115755 0.875312
Si Si6 0.361990 0.668570 0.503540
O O1 0.117758 0.183826 0.537922
O O2 0.180007 0.103153 0.715450
O O3 0.193559 0.187080 0.441579
O O4 0.157530 0.869672 0.521774
O O5 0.531148 0.805995 0.477217
O O6 0.553587 0.732896 0.230418
O O7 0.467940 0.711639 0.298708
O O8 0.500000 0.000000 0.268426
O O9 0.071646 0.937670 0.606797
O O10 0.395077 0.639839 0.637638
O O11 0.389481 0.838756 0.857530
O O12 0.250000 0.072053 0.867881
O O13 0.324894 0.976453 0.979619
#
# Coordination Sequence:
#
# PCOD9380969 Si02
#       6
#     8   8   8   8   8   8
#     4  11  26  49  73 107 150 192 240 301 375 439
#     4  12  24  37  64 101 135 184 237 296 341 421
#     4  11  24  44  63  97 141 187 241 291 353 431
#     4  11  24  45  68  98 145 191 244 291 362 423
#     4  12  27  47  77 112 141 188 249 306 375 448
#     4  11  24  48  72 104 146 202 237 304 365 443
#
# _framework density 21.992856
#
# number of rings (size 3 to 8) (size 9 to 14) (size 15 to 20)
#    0.000    0.667    3.333    6.000    4.667    2.667 
#    0.000    0.000    0.000    0.000    0.000    0.000 
#    0.000    0.000    0.000    0.000    0.000    0.000 
#
# Total GULP energy -133953.069812 kJ/mol
# GULP energy per Si atom -5581.377909 kJ/mol
# Density = 2.194280 g / cm^3
# Si number density = 21.992856 Si / 1000 Ang^3
#
#
#
# Elastic Constant Matrix: (Units=GPa)
#
#
# Indices 1 2 3 4 5 6 
#
# 1 136.7534 28.4744 31.5279 0.0000 0.0000 0.0000
# 2 28.4744 73.1111 -3.2250 0.0000 0.0000 0.0000
# 3 31.5279 -3.2250 73.7785 0.0000 0.0000 0.0000
# 4 0.0000 0.0000 0.0000 25.4643 0.0000 0.0000
# 5 0.0000 0.0000 0.0000 0.0000 34.1331 0.0000
# 6 0.0000 0.0000 0.0000 0.0000 0.0000 36.7853
#
#
#
# Elastic Compliance Matrix: (Units=1/GPa)
#
#
# Indices 1 2 3 4 5 6 
#
# 1 0.009004 -0.003683 -0.004008 0.000000 0.000000 0.000000
# 2 -0.003683 0.015211 0.002239 0.000000 0.000000 0.000000
# 3 -0.004008 0.002239 0.015365 0.000000 0.000000 0.000000
# 4 0.000000 0.000000 0.000000 0.039271 0.000000 0.000000
# 5 0.000000 0.000000 0.000000 0.000000 0.029297 0.000000
# 6 0.000000 0.000000 0.000000 0.000000 0.000000 0.027185
#
#
# Mechanical properties :
#
#
# Convention : Reuss Voigt Hill
#
# Bulk Modulus (GPa) = 34.87522 44.13305 39.50414
# Shear Modulus (GPa) = 32.09328 34.40091 33.24710
#
# Velocity S-wave (km/s) = 3.82417 3.95927 3.89231
# Velocity P-wave (km/s) = 5.94903 6.40403 6.18072
#
# Compressibility (1/GPa) = 0.02867366
#
# Stress axis : x y z
#
# Youngs Moduli (GPa) = 111.06767 65.74128 65.08341
#
# Poissons Ratio (x) = 0.24215 0.26089
# Poissons Ratio (y) = 0.40911 -0.14572
# Poissons Ratio (z) = 0.44521 -0.14719
#
# Static dielectric constant tensor:
#      x y z
#    x 0.594040 0.000000 0.000000 
#    y 0.000000 1.782470 0.000000 
#    z 0.000000 0.000000 1.765970 
# 
# From -- ./inp_files/8392.got.cif
#   From: 2010.05.17/outbox.cif.g08.bks.cpg/sg46_5_cif.got.tgz:8392.got - 2010.06.03 19:58:25.
