data_PCOD9380251
_publ_section_title
;
Structure prediction by ZEFSAII (Michael W. Deem and Ramdas Pophale) SiO2 
 PCOD9380251
Probable space group: I M A 2
;
_chemical_formula_sum "Si O2"
_cell_formula_units_Z 48
_cell_length_a 16.433944
_cell_length_b 9.619199
_cell_length_c 14.252916
_cell_angle_alpha 90.000000
_cell_angle_beta 90.000000
_cell_angle_gamma 90.000000
_cell_volume 2253.120597
_symmetry_space_group_name_H-M "I M A 2"
_symmetry_group_IT_number 46
_symmetry_cell_setting 'orthorhombic'
loop_
_space_group_symop_operation_xyz
x,y,z
-x,-y,z
1/2-x,y,z
1/2+x,-y,z
1/2+x,1/2+y,1/2+z
1/2-x,1/2-y,1/2+z
-x,1/2+y,1/2+z
x,1/2-y,1/2+z
loop_
_atom_site_type_symbol
_atom_site_label
_atom_site_fract_x
_atom_site_fract_y
_atom_site_fract_z
Si Si1 0.652141 0.215772 0.014800
Si Si2 0.656505 0.930732 0.715018
Si Si3 0.588527 0.314609 0.319621
Si Si4 0.088144 0.321164 0.817316
Si Si5 0.843812 0.427487 0.709599
Si Si6 0.152661 0.043611 0.505231
O O1 0.750000 0.206133 0.006531
O O2 0.629838 0.142121 0.112046
O O3 0.610130 0.145978 0.925695
O O4 0.631173 0.379884 0.012907
O O5 0.750000 0.982137 0.713170
O O6 0.648024 0.800771 0.783708
O O7 0.635273 0.892845 0.607809
O O8 0.600707 0.054355 0.752823
O O9 0.500574 0.245676 0.313603
O O10 0.650439 0.194537 0.286501
O O11 0.101144 0.447194 0.745137
O O12 0.107817 0.381604 0.919923
O O13 0.750000 0.474549 0.701949
O O14 0.250000 0.052680 0.487765
#
# Coordination Sequence:
#
# PCOD9380251 Si02
#       6
#     8   8   8   8   8   8
#     4  10  21  39  69  99 127 176 234 279 322 398
#     4  11  24  45  71  98 133 183 232 282 337 408
#     4  12  24  42  66 100 136 176 228 278 349 409
#     4  12  26  42  65 104 145 176 219 288 357 400
#     4  11  22  41  68  99 132 178 233 277 325 404
#     4  10  21  41  69  97 129 178 230 274 332 403
#
# _framework density 21.303788000000001
#
# number of rings (size 3 to 8) (size 9 to 14) (size 15 to 20)
#    0.000    1.000    3.333    4.000    0.000    2.667 
#    3.000    3.333    0.000    0.000    0.000    0.000 
#    0.000    0.000    0.000    0.000    0.000    0.000 
#
# Total GULP energy -134289.587707 kJ/mol
# GULP energy per Si atom -5595.399488 kJ/mol
# Density = 2.125530 g / cm^3
# Si number density = 21.303788 Si / 1000 Ang^3
#
#
#
# Elastic Constant Matrix: (Units=GPa)
#
#
# Indices 1 2 3 4 5 6 
#
# 1 72.7505 45.0164 65.2973 0.0000 0.0000 0.0000
# 2 45.0164 108.0957 62.2525 0.0000 0.0000 0.0000
# 3 65.2973 62.2525 168.1127 0.0000 0.0000 0.0000
# 4 0.0000 0.0000 0.0000 37.6019 0.0000 0.0000
# 5 0.0000 0.0000 0.0000 0.0000 -28.2324 0.0000
# 6 0.0000 0.0000 0.0000 0.0000 0.0000 20.5675
#
#
#
# Elastic Compliance Matrix: (Units=1/GPa)
#
#
# Indices 1 2 3 4 5 6 
#
# 1 0.023650 -0.005795 -0.007040 0.000000 0.000000 0.000000
# 2 -0.005795 0.013178 -0.002629 0.000000 0.000000 0.000000
# 3 -0.007040 -0.002629 0.009657 0.000000 0.000000 0.000000
# 4 0.000000 0.000000 0.000000 0.026594 0.000000 0.000000
# 5 0.000000 0.000000 0.000000 0.000000 -0.035420 0.000000
# 6 0.000000 0.000000 0.000000 0.000000 0.000000 0.048620
#
#
# Mechanical properties :
#
#
# Convention : Reuss Voigt Hill
#
# Bulk Modulus (GPa) = 64.28053 77.12128 70.70091
# Shear Modulus (GPa) = 40.85175 17.74692 29.29934
#
# Velocity S-wave (km/s) = 4.38377 2.88938 3.71254
# Velocity P-wave (km/s) = 7.47409 6.88554 7.18584
#
# Compressibility (1/GPa) = 0.01555681
#
# Stress axis : x y z
#
# Youngs Moduli (GPa) = 42.28286 75.88157 103.55617
#
# Poissons Ratio (x) = 0.43970 0.72907
# Poissons Ratio (y) = 0.24501 0.27228
# Poissons Ratio (z) = 0.29769 0.19952
#
# Static dielectric constant tensor:
#      x y z
#    x 1.780610 0.000000 0.000000 
#    y 0.000000 1.752320 0.000000 
#    z 0.000000 0.000000 1.766710 
# 
# From -- ./inp_files/16519.got.cif
#   From: 2010.05.17/outbox.cif.g08.bks.cpg/sg46_9_cif.got.tgz:16519.got - 2010.06.03 19:58:25.
