data_PCOD9380114
_publ_section_title
;
Structure prediction by ZEFSAII (Michael W. Deem and Ramdas Pophale) SiO2 
 PCOD9380114
Probable space group: I M A 2
;
_chemical_formula_sum "Si O2"
_cell_formula_units_Z 32
_cell_length_a 18.884691
_cell_length_b 13.490186
_cell_length_c 4.938068
_cell_angle_alpha 90.000000
_cell_angle_beta 90.000000
_cell_angle_gamma 90.000000
_cell_volume 1258.012299
_symmetry_space_group_name_H-M "I M A 2"
_symmetry_group_IT_number 46
_symmetry_cell_setting 'orthorhombic'
loop_
_space_group_symop_operation_xyz
x,y,z
-x,-y,z
1/2-x,y,z
1/2+x,-y,z
1/2+x,1/2+y,1/2+z
1/2-x,1/2-y,1/2+z
-x,1/2+y,1/2+z
x,1/2-y,1/2+z
loop_
_atom_site_type_symbol
_atom_site_label
_atom_site_fract_x
_atom_site_fract_y
_atom_site_fract_z
Si Si1 0.028007 0.105622 0.060370
Si Si2 0.827059 0.528548 0.475587
Si Si3 0.381151 0.685393 0.362096
Si Si4 0.355103 0.183563 0.369398
O O1 0.060989 0.170205 0.303336
O O2 0.962884 0.154120 0.908188
O O3 0.097971 0.077837 0.879196
O O4 0.000000 0.000000 0.167917
O O5 0.750000 0.554277 0.362443
O O6 0.837849 0.411800 0.448133
O O7 0.827790 0.575295 0.780548
O O8 0.367127 0.722336 0.060679
O O9 0.332936 0.238863 0.635751
#
# Coordination Sequence:
#
# PCOD9380114 Si02
#       4
#     8   8   8   8
#     4   8  18  39  60  92 121 164 203 261 307 364
#     4   9  22  43  62  95 130 164 210 258 312 377
#     4  11  23  42  68  93 124 166 211 261 312 368
#     4  10  21  38  59  85 118 157 197 245 303 359
#
# _framework density 25.436951000000001
#
# number of rings (size 3 to 8) (size 9 to 14) (size 15 to 20)
#    1.500    1.000    0.000    1.500    0.000    4.000 
#    0.000    7.500    0.000    0.000    0.000    0.000 
#    0.000    0.000    0.000    0.000    0.000    0.000 
#
# Total GULP energy -89231.882793 kJ/mol
# GULP energy per Si atom -5576.992675 kJ/mol
# Density = 2.537906 g / cm^3
# Si number density = 25.436951 Si / 1000 Ang^3
#
#
#
# Elastic Constant Matrix: (Units=GPa)
#
#
# Indices 1 2 3 4 5 6 
#
# 1 130.0513 39.0803 17.3181 0.0000 0.0000 0.0000
# 2 39.0803 116.4054 11.3532 0.0000 0.0000 0.0000
# 3 17.3181 11.3532 64.7894 0.0000 0.0000 0.0000
# 4 0.0000 0.0000 0.0000 23.8777 0.0000 0.0000
# 5 0.0000 0.0000 0.0000 0.0000 8.5932 0.0000
# 6 0.0000 0.0000 0.0000 0.0000 0.0000 10.5082
#
#
#
# Elastic Compliance Matrix: (Units=1/GPa)
#
#
# Indices 1 2 3 4 5 6 
#
# 1 0.008767 -0.002762 -0.001859 0.000000 0.000000 0.000000
# 2 -0.002762 0.009610 -0.000946 0.000000 0.000000 0.000000
# 3 -0.001859 -0.000946 0.016097 0.000000 0.000000 0.000000
# 4 0.000000 0.000000 0.000000 0.041880 0.000000 0.000000
# 5 0.000000 0.000000 0.000000 0.000000 0.116371 0.000000
# 6 0.000000 0.000000 0.000000 0.000000 0.000000 0.095164
#
#
# Mechanical properties :
#
#
# Convention : Reuss Voigt Hill
#
# Bulk Modulus (GPa) = 42.84446 49.63882 46.24164
# Shear Modulus (GPa) = 16.29707 24.82877 20.56292
#
# Velocity S-wave (km/s) = 2.53392 3.12763 2.84630
# Velocity P-wave (km/s) = 5.04390 5.70961 5.38705
#
# Compressibility (1/GPa) = 0.02334024
#
# Stress axis : x y z
#
# Youngs Moduli (GPa) = 114.06637 104.05665 62.12200
#
# Poissons Ratio (x) = 0.28739 0.11551
# Poissons Ratio (y) = 0.31504 0.05875
# Poissons Ratio (z) = 0.21209 0.09841
#
# Static dielectric constant tensor:
#      x y z
#    x 2.064920 0.000000 0.000000 
#    y 0.000000 2.005320 0.000000 
#    z 0.000000 0.000000 2.063080 
# 
# From -- ./inp_files/1518.got.cif
#   From: 2010.05.17/outbox.cif.g08.bks.cpg/sg46_1_cif.got.tgz:1518.got - 2010.06.03 19:58:25.
