data_PCOD9380886
_publ_section_title
;
Structure prediction by ZEFSAII (Michael W. Deem and Ramdas Pophale) SiO2 
 PCOD9380886
Probable space group: I M A 2
;
_chemical_formula_sum "Si O2"
_cell_formula_units_Z 48
_cell_length_a 8.804842
_cell_length_b 32.518430
_cell_length_c 9.241242
_cell_angle_alpha 90.000000
_cell_angle_beta 90.000000
_cell_angle_gamma 90.000000
_cell_volume 2645.949066
_symmetry_space_group_name_H-M "I M A 2"
_symmetry_group_IT_number 46
_symmetry_cell_setting 'orthorhombic'
loop_
_space_group_symop_operation_xyz
x,y,z
-x,-y,z
1/2-x,y,z
1/2+x,-y,z
1/2+x,1/2+y,1/2+z
1/2-x,1/2-y,1/2+z
-x,1/2+y,1/2+z
x,1/2-y,1/2+z
loop_
_atom_site_type_symbol
_atom_site_label
_atom_site_fract_x
_atom_site_fract_y
_atom_site_fract_z
Si Si1 0.934560 0.131921 0.480490
Si Si2 0.073911 0.542272 0.992453
Si Si3 0.068000 0.210874 0.977572
Si Si4 0.564975 0.366901 0.642097
Si Si5 0.925764 0.457850 0.640186
Si Si6 0.433696 0.713053 0.156852
O O1 0.750000 0.129549 0.482325
O O2 0.990758 0.087101 0.533697
O O3 0.975482 0.138175 0.312027
O O4 0.978356 0.170671 0.576538
O O5 0.250000 0.541019 0.033568
O O6 0.065984 0.542263 0.816278
O O7 0.000000 0.500000 0.044210
O O8 0.250000 0.212849 0.976654
O O9 0.001302 0.213489 0.816733
O O10 0.010550 0.168725 0.050165
O O11 0.999169 0.248581 0.068626
O O12 0.750000 0.364751 0.631558
O O13 0.515269 0.412933 0.595332
O O14 0.750000 0.459267 0.600297
O O15 0.000000 0.500000 0.588251
O O16 0.250000 0.715453 0.161405
#
# Coordination Sequence:
#
# PCOD9380886 Si02
#       6
#     8   8   8   8   8   8
#     4   8  16  31  54  79 103 133 177 221 252 296
#     4   8  13  24  42  70 103 133 165 207 253 298
#     4  12  25  39  55  81 112 137 168 223 279 318
#     4   9  17  33  55  79 106 142 183 219 259 320
#     4   8  14  24  43  71 104 137 173 215 259 307
#     4  11  22  39  61  80 101 140 184 217 258 325
#
# _framework density 18.140940000000001
#
# number of rings (size 3 to 8) (size 9 to 14) (size 15 to 20)
#    0.000    2.667    0.000    5.000    0.000    2.000 
#    0.000    5.000    0.000    1.000    0.000    2.333 
#    0.000    0.000    0.000    0.000    0.000    0.000 
#
# Total GULP energy -133766.442392 kJ/mol
# GULP energy per Si atom -5573.601766 kJ/mol
# Density = 1.809965 g / cm^3
# Si number density = 18.140940 Si / 1000 Ang^3
#
#
#
# Elastic Constant Matrix: (Units=GPa)
#
#
# Indices 1 2 3 4 5 6 
#
# 1 65.7869 71.0462 35.8687 -0.0001 0.0000 0.0000
# 2 71.0462 230.4824 88.5837 -0.0001 0.0001 0.0000
# 3 35.8687 88.5837 86.0887 -0.0003 0.0000 0.0001
# 4 -0.0001 -0.0001 -0.0003 24.8532 0.0000 0.0000
# 5 0.0000 0.0001 0.0000 0.0000 15.6831 -0.0001
# 6 0.0000 0.0000 0.0001 0.0000 -0.0001 29.5740
#
#
#
# Elastic Compliance Matrix: (Units=1/GPa)
#
#
# Indices 1 2 3 4 5 6 
#
# 1 0.023542 -0.005768 -0.003873 0.000000 0.000000 0.000000
# 2 -0.005768 0.008590 -0.006436 0.000000 0.000000 0.000000
# 3 -0.003873 -0.006436 0.019852 0.000000 0.000000 0.000000
# 4 0.000000 0.000000 0.000000 0.040236 0.000000 0.000000
# 5 0.000000 0.000000 0.000000 0.000000 0.063763 0.000000
# 6 0.000000 0.000000 0.000000 0.000000 0.000000 0.033813
#
#
# Mechanical properties :
#
#
# Convention : Reuss Voigt Hill
#
# Bulk Modulus (GPa) = 50.43028 85.92835 68.17932
# Shear Modulus (GPa) = 21.87593 26.47935 24.17764
#
# Velocity S-wave (km/s) = 3.47636 3.82468 3.65467
# Velocity P-wave (km/s) = 6.63121 8.18377 7.44805
#
# Compressibility (1/GPa) = 0.01982935
#
# Stress axis : x y z
#
# Youngs Moduli (GPa) = 42.47800 116.40958 50.37173
#
# Poissons Ratio (x) = 0.67145 0.19511
# Poissons Ratio (y) = 0.24501 0.32420
# Poissons Ratio (z) = 0.16454 0.74922
#
# Static dielectric constant tensor:
#      x y z
#    x 1.616630 0.000000 0.000000 
#    y 0.000000 1.653620 0.000000 
#    z 0.000000 0.000000 1.606810 
# 
# From -- ./inp_files/3934.got.cif
#   From: 2010.05.17/outbox.cif.g08.bks.cpg/sg46_2_cif.got.tgz:3934.got - 2010.06.03 19:58:25.
