data_PCOD9380512
_publ_section_title
;
Structure prediction by ZEFSAII (Michael W. Deem and Ramdas Pophale) SiO2 
 PCOD9380512
Probable space group: I M A 2
;
_chemical_formula_sum "Si O2"
_cell_formula_units_Z 40
_cell_length_a 26.516168
_cell_length_b 5.518444
_cell_length_c 9.868187
_cell_angle_alpha 90.000000
_cell_angle_beta 90.000000
_cell_angle_gamma 90.000000
_cell_volume 1443.991951
_symmetry_space_group_name_H-M "I M A 2"
_symmetry_group_IT_number 46
_symmetry_cell_setting 'orthorhombic'
loop_
_space_group_symop_operation_xyz
x,y,z
-x,-y,z
1/2-x,y,z
1/2+x,-y,z
1/2+x,1/2+y,1/2+z
1/2-x,1/2-y,1/2+z
-x,1/2+y,1/2+z
x,1/2-y,1/2+z
loop_
_atom_site_type_symbol
_atom_site_label
_atom_site_fract_x
_atom_site_fract_y
_atom_site_fract_z
Si Si1 0.835189 0.938044 0.519130
Si Si2 0.408505 0.227236 0.835975
Si Si3 0.001696 0.747830 0.127584
Si Si4 0.250000 0.061692 0.064438
Si Si5 0.115479 0.769550 0.227051
Si Si6 0.750000 0.182556 0.342173
O O1 0.890826 0.823388 0.484345
O O2 0.798652 0.733772 0.578947
O O3 0.848233 0.162300 0.614734
O O4 0.799300 0.051950 0.403109
O O5 0.462072 0.232197 0.754347
O O6 0.379918 0.448516 0.760283
O O7 0.385245 0.956872 0.833228
O O8 0.000000 0.500000 0.043692
O O9 0.057612 0.757335 0.182695
O O10 0.000000 0.000000 0.046960
O O11 0.250000 0.858978 0.181910
O O12 0.250000 0.945482 0.913239
#
# Coordination Sequence:
#
# PCOD9380512 Si02
#       6
#     8   8   8   4   8   4
#     4  11  26  44  74 111 153 213 273 341 422 506
#     4  10  22  40  70 102 151 198 259 320 400 483
#     4   8  16  36  60  95 139 191 238 315 374 469
#     4  11  28  52  73 120 156 218 276 364 426 507
#     4  10  22  40  69 104 150 197 257 320 398 486
#     4  11  28  48  79 106 164 200 280 348 424 501
#
# _framework density 27.700984999999999
#
# number of rings (size 3 to 8) (size 9 to 14) (size 15 to 20)
#    0.000    2.000    0.000    1.200    8.400    3.200 
#    0.000    9.000    0.000   24.000    0.000    0.000 
#    0.000    0.000    0.000    0.000    0.000    0.000 
#
# Total GULP energy -111552.069727 kJ/mol
# GULP energy per Si atom -5577.603486 kJ/mol
# Density = 2.763794 g / cm^3
# Si number density = 27.700985 Si / 1000 Ang^3
#
#
#
# Elastic Constant Matrix: (Units=GPa)
#
#
# Indices 1 2 3 4 5 6 
#
# 1 167.1799 4.9303 30.3193 0.0000 0.0000 0.0000
# 2 4.9303 181.0460 25.3073 0.0000 0.0000 0.0000
# 3 30.3193 25.3073 60.6371 0.0000 0.0000 0.0000
# 4 0.0000 0.0000 0.0000 40.8694 0.0000 0.0000
# 5 0.0000 0.0000 0.0000 0.0000 25.6872 0.0000
# 6 0.0000 0.0000 0.0000 0.0000 0.0000 52.9311
#
#
#
# Elastic Compliance Matrix: (Units=1/GPa)
#
#
# Indices 1 2 3 4 5 6 
#
# 1 0.006593 0.000299 -0.003421 0.000000 0.000000 0.000000
# 2 0.000299 0.005879 -0.002603 0.000000 0.000000 0.000000
# 3 -0.003421 -0.002603 0.019289 0.000000 0.000000 0.000000
# 4 0.000000 0.000000 0.000000 0.024468 0.000000 0.000000
# 5 0.000000 0.000000 0.000000 0.000000 0.038930 0.000000
# 6 0.000000 0.000000 0.000000 0.000000 0.000000 0.018892
#
#
# Mechanical properties :
#
#
# Convention : Reuss Voigt Hill
#
# Bulk Modulus (GPa) = 49.23767 58.88631 54.06199
# Shear Modulus (GPa) = 37.80059 47.11795 42.45927
#
# Velocity S-wave (km/s) = 3.69805 4.12873 3.91931
# Velocity P-wave (km/s) = 6.00395 6.63570 6.32771
#
# Compressibility (1/GPa) = 0.02030965
#
# Stress axis : x y z
#
# Youngs Moduli (GPa) = 151.67000 170.09135 51.84381
#
# Poissons Ratio (x) = -0.05081 0.17738
# Poissons Ratio (y) = -0.04530 0.13495
# Poissons Ratio (z) = 0.51892 0.44276
#
# Static dielectric constant tensor:
#      x y z
#    x 1.409010 0.000000 0.000000 
#    y 0.000000 2.248940 0.000000 
#    z 0.000000 0.000000 2.381870 
# 
# From -- ./inp_files/12950.got.cif
#   From: 2010.05.17/outbox.cif.g08.bks.cpg/sg46_7_cif.got.tgz:12950.got - 2010.06.03 19:58:25.
