data_PCOD9380921
_publ_section_title
;
Structure prediction by ZEFSAII (Michael W. Deem and Ramdas Pophale) SiO2 
 PCOD9380921
Probable space group: I M A 2
;
_chemical_formula_sum "Si O2"
_cell_formula_units_Z 52
_cell_length_a 28.247417
_cell_length_b 9.571295
_cell_length_c 11.131748
_cell_angle_alpha 90.000000
_cell_angle_beta 90.000000
_cell_angle_gamma 90.000000
_cell_volume 3009.627936
_symmetry_space_group_name_H-M "I M A 2"
_symmetry_group_IT_number 46
_symmetry_cell_setting 'orthorhombic'
loop_
_space_group_symop_operation_xyz
x,y,z
-x,-y,z
1/2-x,y,z
1/2+x,-y,z
1/2+x,1/2+y,1/2+z
1/2-x,1/2-y,1/2+z
-x,1/2+y,1/2+z
x,1/2-y,1/2+z
loop_
_atom_site_type_symbol
_atom_site_label
_atom_site_fract_x
_atom_site_fract_y
_atom_site_fract_z
Si Si1 0.601679 0.472202 0.752210
Si Si2 0.947803 0.190861 0.804666
Si Si3 0.804448 0.651839 0.479333
Si Si4 0.304288 0.134041 0.256064
Si Si5 0.000000 0.000000 0.619743
Si Si6 0.456857 0.184768 0.414964
Si Si7 0.403122 0.467995 0.478394
O O1 0.588990 0.311136 0.770379
O O2 0.656577 0.513719 0.765777
O O3 0.571940 0.568672 0.842281
O O4 0.586811 0.515170 0.618532
O O5 0.995884 0.267285 0.846208
O O6 0.962738 0.084981 0.699802
O O7 0.926832 0.095195 0.909323
O O8 0.750000 0.601538 0.470581
O O9 0.810423 0.763650 0.371003
O O10 0.810578 0.700312 0.620401
O O11 0.846466 0.541088 0.461299
O O12 0.250000 0.084347 0.260133
O O13 0.973239 0.887473 0.537768
O O14 0.425274 0.321858 0.434819
#
# Coordination Sequence:
#
# PCOD9380921 Si02
#       7
#     8   8   8   8   4   8   8
#     4  11  23  39  60  87 118 157 194 244 304 354
#     4  12  24  40  56  85 118 159 198 244 296 349
#     4   9  18  34  60  89 118 151 198 250 296 353
#     4   9  18  36  61  91 120 153 198 248 300 356
#     4  12  24  38  60  82 120 156 200 246 288 346
#     4  12  22  39  59  85 114 155 201 241 288 353
#     4  11  23  39  60  85 118 155 196 242 299 354
#
# _framework density 17.277882999999999
#
# number of rings (size 3 to 8) (size 9 to 14) (size 15 to 20)
#    0.000    1.231    4.615    1.846    0.000    1.231 
#    0.000    0.769    0.000    0.000    0.000    1.077 
#    0.000    0.000    0.000    0.000    0.000    0.000 
#
# Total GULP energy -145014.665566 kJ/mol
# GULP energy per Si atom -5577.487137 kJ/mol
# Density = 1.723856 g / cm^3
# Si number density = 17.277883 Si / 1000 Ang^3
#
#
#
# Elastic Constant Matrix: (Units=GPa)
#
#
# Indices 1 2 3 4 5 6 
#
# 1 67.0304 2.3681 14.1782 0.0000 0.0000 0.0000
# 2 2.3681 38.6565 -6.9753 0.0000 0.0000 0.0000
# 3 14.1782 -6.9753 55.1047 0.0000 0.0000 0.0000
# 4 0.0000 0.0000 0.0000 38.4385 0.0000 0.0000
# 5 0.0000 0.0000 0.0000 0.0000 33.9525 0.0000
# 6 0.0000 0.0000 0.0000 0.0000 0.0000 203.5163
#
#
#
# Elastic Compliance Matrix: (Units=1/GPa)
#
#
# Indices 1 2 3 4 5 6 
#
# 1 0.015892 -0.001751 -0.004311 0.000000 0.000000 0.000000
# 2 -0.001751 0.026667 0.003826 0.000000 0.000000 0.000000
# 3 -0.004311 0.003826 0.019741 0.000000 0.000000 0.000000
# 4 0.000000 0.000000 0.000000 0.026016 0.000000 0.000000
# 5 0.000000 0.000000 0.000000 0.000000 0.029453 0.000000
# 6 0.000000 0.000000 0.000000 0.000000 0.000000 0.004914
#
#
# Mechanical properties :
#
#
# Convention : Reuss Voigt Hill
#
# Bulk Modulus (GPa) = 17.29279 19.99265 18.64272
# Shear Modulus (GPa) = 34.14612 65.26284 49.70448
#
# Velocity S-wave (km/s) = 4.45037 6.15260 5.36937
# Velocity P-wave (km/s) = 6.03640 7.87839 7.01809
#
# Compressibility (1/GPa) = 0.05782758
#
# Stress axis : x y z
#
# Youngs Moduli (GPa) = 62.92362 37.50016 50.65667
#
# Poissons Ratio (x) = 0.06568 0.21837
# Poissons Ratio (y) = 0.11021 -0.19382
# Poissons Ratio (z) = 0.27125 -0.14348
#
# Static dielectric constant tensor:
#      x y z
#    x 1.586210 0.000000 0.000000 
#    y 0.000000 1.549440 0.000000 
#    z 0.000000 0.000000 1.606850 
# 
# From -- ./inp_files/13016.got.cif
#   From: 2010.05.17/outbox.cif.g08.bks.cpg/sg46_7_cif.got.tgz:13016.got - 2010.06.03 19:58:25.
