data_PCOD9380690
_publ_section_title
;
Structure prediction by ZEFSAII (Michael W. Deem and Ramdas Pophale) SiO2 
 PCOD9380690
Probable space group: I M A 2
;
_chemical_formula_sum "Si O2"
_cell_formula_units_Z 48
_cell_length_a 16.629959
_cell_length_b 9.432381
_cell_length_c 13.836355
_cell_angle_alpha 90.000000
_cell_angle_beta 90.000000
_cell_angle_gamma 90.000000
_cell_volume 2170.372158
_symmetry_space_group_name_H-M "I M A 2"
_symmetry_group_IT_number 46
_symmetry_cell_setting 'orthorhombic'
loop_
_space_group_symop_operation_xyz
x,y,z
-x,-y,z
1/2-x,y,z
1/2+x,-y,z
1/2+x,1/2+y,1/2+z
1/2-x,1/2-y,1/2+z
-x,1/2+y,1/2+z
x,1/2-y,1/2+z
loop_
_atom_site_type_symbol
_atom_site_label
_atom_site_fract_x
_atom_site_fract_y
_atom_site_fract_z
Si Si1 0.567492 0.797610 0.402140
Si Si2 0.881424 0.283918 0.408881
Si Si3 0.844033 0.795925 0.594158
Si Si4 0.596215 0.028048 0.095330
Si Si5 0.594507 0.964684 0.779721
Si Si6 0.840304 0.468624 0.793922
O O1 0.473240 0.772010 0.407315
O O2 0.603140 0.845166 0.503599
O O3 0.600925 0.645810 0.368421
O O4 0.597948 0.908943 0.323904
O O5 0.873432 0.372665 0.507774
O O6 0.866991 0.392741 0.320625
O O7 0.835024 0.142726 0.381285
O O8 0.750000 0.813404 0.574846
O O9 0.864067 0.628125 0.601329
O O10 0.868730 0.886404 0.687731
O O11 0.500000 0.000000 0.085480
O O12 0.621558 0.098215 0.197033
O O13 0.500000 0.000000 0.762846
O O14 0.750000 0.523467 0.775020
#
# Coordination Sequence:
#
# PCOD9380690 Si02
#       6
#     8   8   8   8   8   8
#     4  11  22  46  69 100 135 182 242 281 344 421
#     4  11  24  46  73 102 136 185 239 293 343 412
#     4  12  25  41  72 107 143 184 231 294 353 416
#     4  12  23  46  73 102 133 184 244 285 349 421
#     4  10  23  43  70  99 135 183 240 286 338 413
#     4  12  28  44  68 106 147 185 226 291 360 415
#
# _framework density 22.116022000000001
#
# number of rings (size 3 to 8) (size 9 to 14) (size 15 to 20)
#    0.000    0.667    5.000    3.000    2.333    5.333 
#    0.000    0.000    0.000    0.000    0.000    0.000 
#    0.000    0.000    0.000    0.000    0.000    0.000 
#
# Total GULP energy -134139.588332 kJ/mol
# GULP energy per Si atom -5589.149514 kJ/mol
# Density = 2.206569 g / cm^3
# Si number density = 22.116022 Si / 1000 Ang^3
#
#
#
# Elastic Constant Matrix: (Units=GPa)
#
#
# Indices 1 2 3 4 5 6 
#
# 1 53.3841 24.2993 34.0428 0.0000 0.0000 0.0000
# 2 24.2993 89.5419 27.8570 0.0000 0.0000 0.0000
# 3 34.0428 27.8570 121.2334 0.0000 0.0000 0.0000
# 4 0.0000 0.0000 0.0000 40.3022 0.0000 0.0000
# 5 0.0000 0.0000 0.0000 0.0000 7.5815 0.0000
# 6 0.0000 0.0000 0.0000 0.0000 0.0000 15.5150
#
#
#
# Elastic Compliance Matrix: (Units=1/GPa)
#
#
# Indices 1 2 3 4 5 6 
#
# 1 0.024655 -0.004886 -0.005801 0.000000 0.000000 0.000000
# 2 -0.004886 0.012996 -0.001614 0.000000 0.000000 0.000000
# 3 -0.005801 -0.001614 0.010248 0.000000 0.000000 0.000000
# 4 0.000000 0.000000 0.000000 0.024813 0.000000 0.000000
# 5 0.000000 0.000000 0.000000 0.000000 0.131900 0.000000
# 6 0.000000 0.000000 0.000000 0.000000 0.000000 0.064454
#
#
# Mechanical properties :
#
#
# Convention : Reuss Voigt Hill
#
# Bulk Modulus (GPa) = 42.92252 48.50640 45.71446
# Shear Modulus (GPa) = 16.58740 24.54375 20.56558
#
# Velocity S-wave (km/s) = 2.74162 3.33494 3.05273
# Velocity P-wave (km/s) = 5.42881 6.06707 5.75679
#
# Compressibility (1/GPa) = 0.02329779
#
# Stress axis : x y z
#
# Youngs Moduli (GPa) = 40.55934 76.94597 97.57747
#
# Poissons Ratio (x) = 0.37597 0.56600
# Poissons Ratio (y) = 0.19818 0.15751
# Poissons Ratio (z) = 0.23527 0.12420
#
# Static dielectric constant tensor:
#      x y z
#    x 1.834990 0.000000 0.000000 
#    y 0.000000 1.838800 0.000000 
#    z 0.000000 0.000000 1.867750 
# 
# From -- ./inp_files/16534.got.cif
#   From: 2010.05.17/outbox.cif.g08.bks.cpg/sg46_9_cif.got.tgz:16534.got - 2010.06.03 19:58:25.
