data_PCOD9380442
_publ_section_title
;
Structure prediction by ZEFSAII (Michael W. Deem and Ramdas Pophale) SiO2 
 PCOD9380442
Probable space group: I M A 2
;
_chemical_formula_sum "Si O2"
_cell_formula_units_Z 48
_cell_length_a 9.186048
_cell_length_b 23.350978
_cell_length_c 11.931272
_cell_angle_alpha 90.000000
_cell_angle_beta 90.000000
_cell_angle_gamma 90.000000
_cell_volume 2559.296081
_symmetry_space_group_name_H-M "I M A 2"
_symmetry_group_IT_number 46
_symmetry_cell_setting 'orthorhombic'
loop_
_space_group_symop_operation_xyz
x,y,z
-x,-y,z
1/2-x,y,z
1/2+x,-y,z
1/2+x,1/2+y,1/2+z
1/2-x,1/2-y,1/2+z
-x,1/2+y,1/2+z
x,1/2-y,1/2+z
loop_
_atom_site_type_symbol
_atom_site_label
_atom_site_fract_x
_atom_site_fract_y
_atom_site_fract_z
Si Si1 0.573867 0.360705 0.868120
Si Si2 0.085893 0.556086 0.670424
Si Si3 0.076428 0.654883 0.256714
Si Si4 0.415668 0.836146 0.018964
Si Si5 0.075763 0.938106 0.581788
Si Si6 0.576742 0.770582 0.213431
O O1 0.750000 0.351758 0.862151
O O2 0.529776 0.408753 0.777102
O O3 0.496995 0.303597 0.820301
O O4 0.538791 0.390121 0.986774
O O5 0.250000 0.539619 0.698838
O O6 0.086160 0.600199 0.568958
O O7 0.000000 0.500000 0.644380
O O8 0.250000 0.664682 0.238151
O O9 0.048536 0.659062 0.389129
O O10 0.041989 0.594167 0.198773
O O11 0.983900 0.706484 0.206211
O O12 0.250000 0.812672 0.031335
O O13 0.522062 0.801381 0.099828
O O14 0.250000 0.947110 0.573877
O O15 0.000000 0.000000 0.568392
O O16 0.750000 0.772749 0.223684
#
# Coordination Sequence:
#
# PCOD9380442 Si02
#       6
#     8   8   8   8   8   8
#     4   9  19  37  58  83 116 156 198 235 284 354
#     4   9  17  30  51  78 107 142 184 231 279 329
#     4  10  22  40  61  83 113 159 202 235 286 361
#     4   9  20  39  58  78 110 152 196 234 279 353
#     4  10  22  39  61  89 121 160 202 243 292 353
#     4  11  23  37  58  89 119 145 189 252 309 348
#
# _framework density 18.755157000000001
#
# number of rings (size 3 to 8) (size 9 to 14) (size 15 to 20)
#    0.000    2.333    0.000    3.000    2.333    5.333 
#    0.000    0.000    0.000    0.000    0.000    0.000 
#    0.000    0.000    0.000    0.000    0.000    0.000 
#
# Total GULP energy -133811.831499 kJ/mol
# GULP energy per Si atom -5575.492979 kJ/mol
# Density = 1.871247 g / cm^3
# Si number density = 18.755157 Si / 1000 Ang^3
#
#
#
# Elastic Constant Matrix: (Units=GPa)
#
#
# Indices 1 2 3 4 5 6 
#
# 1 41.6112 37.3257 29.8679 0.0000 0.0000 0.0000
# 2 37.3257 76.2022 29.3205 0.0001 -0.0001 0.0000
# 3 29.8679 29.3205 73.3029 -0.0001 0.0003 0.0001
# 4 0.0000 0.0001 -0.0001 4.5744 0.0000 0.0000
# 5 0.0000 -0.0001 0.0003 0.0000 11.6733 0.0000
# 6 0.0000 0.0000 0.0001 0.0000 0.0000 32.2422
#
#
#
# Elastic Compliance Matrix: (Units=1/GPa)
#
#
# Indices 1 2 3 4 5 6 
#
# 1 0.051410 -0.020236 -0.012853 0.000000 0.000000 0.000000
# 2 -0.020236 0.023476 -0.001145 0.000000 0.000000 0.000000
# 3 -0.012853 -0.001145 0.019337 0.000000 0.000000 0.000000
# 4 0.000000 0.000000 0.000000 0.218609 0.000000 0.000000
# 5 0.000000 0.000000 0.000000 0.000000 0.085666 0.000000
# 6 0.000000 0.000000 0.000000 0.000000 0.000000 0.031015
#
#
# Mechanical properties :
#
#
# Convention : Reuss Voigt Hill
#
# Bulk Modulus (GPa) = 38.82809 42.68271 40.75540
# Shear Modulus (GPa) = 9.87040 16.00479 12.93760
#
# Velocity S-wave (km/s) = 2.29656 2.92439 2.62928
# Velocity P-wave (km/s) = 5.27066 5.84893 5.56731
#
# Compressibility (1/GPa) = 0.02575455
#
# Stress axis : x y z
#
# Youngs Moduli (GPa) = 19.45156 42.59742 51.71449
#
# Poissons Ratio (x) = 0.86201 0.66469
# Poissons Ratio (y) = 0.39363 0.05919
# Poissons Ratio (z) = 0.25001 0.04876
#
# Static dielectric constant tensor:
#      x y z
#    x 1.643200 0.000000 0.000000 
#    y 0.000000 1.643330 0.000000 
#    z 0.000000 0.000000 1.678620 
# 
# From -- ./inp_files/9290.got.cif
#   From: 2010.05.17/outbox.cif.g08.bks.cpg/sg46_5_cif.got.tgz:9290.got - 2010.06.03 19:58:25.
