data_PCOD9380884
_publ_section_title
;
Structure prediction by ZEFSAII (Michael W. Deem and Ramdas Pophale) SiO2 
 PCOD9380884
Probable space group: I M A 2
;
_chemical_formula_sum "Si O2"
_cell_formula_units_Z 64
_cell_length_a 19.873045
_cell_length_b 15.067896
_cell_length_c 10.853893
_cell_angle_alpha 90.000000
_cell_angle_beta 90.000000
_cell_angle_gamma 90.000000
_cell_volume 3250.143721
_symmetry_space_group_name_H-M "I M A 2"
_symmetry_group_IT_number 46
_symmetry_cell_setting 'orthorhombic'
loop_
_space_group_symop_operation_xyz
x,y,z
-x,-y,z
1/2-x,y,z
1/2+x,-y,z
1/2+x,1/2+y,1/2+z
1/2-x,1/2-y,1/2+z
-x,1/2+y,1/2+z
x,1/2-y,1/2+z
loop_
_atom_site_type_symbol
_atom_site_label
_atom_site_fract_x
_atom_site_fract_y
_atom_site_fract_z
Si Si1 0.046052 0.263550 0.861580
Si Si2 0.534162 0.237857 0.099935
Si Si3 0.325907 0.471962 0.180844
Si Si4 0.568889 0.555346 0.391248
Si Si5 0.823898 0.080485 0.317229
Si Si6 0.172513 0.381599 0.928704
Si Si7 0.174506 0.670427 0.071229
Si Si8 0.064494 0.953044 0.125331
O O1 0.064013 0.160559 0.879326
O O2 0.114027 0.322725 0.867701
O O3 0.006519 0.267348 0.730067
O O4 0.002242 0.287323 0.984876
O O5 0.540927 0.135767 0.056801
O O6 0.608971 0.277695 0.116799
O O7 0.250000 0.452655 0.222536
O O8 0.377760 0.471993 0.289953
O O9 0.342265 0.401077 0.073105
O O10 0.326264 0.571004 0.125332
O O11 0.500000 0.500000 0.368445
O O12 0.591541 0.523078 0.526691
O O13 0.750000 0.092394 0.261729
O O14 0.831885 0.152661 0.424759
O O15 0.882502 0.081843 0.220676
O O16 0.826697 0.980774 0.372344
O O17 0.250000 0.347317 0.917142
O O18 0.250000 0.707668 0.095865
O O19 0.000000 0.000000 0.186418
#
# Coordination Sequence:
#
# PCOD9380884 Si02
#       8
#     8   8   8   8   8   8   8   8
#     4  12  24  40  63  94 126 166 213 263 314 377
#     4  12  24  40  63  94 126 166 213 263 314 377
#     4   9  19  39  63  88 120 160 206 255 313 379
#     4  11  22  39  58  83 126 164 202 255 323 376
#     4   9  19  39  63  88 120 160 206 255 313 379
#     4   9  20  39  64  91 121 159 208 262 310 373
#     4   9  20  39  64  91 121 159 208 262 310 373
#     4  11  22  39  58  83 126 164 202 255 323 376
#
# _framework density 19.691438000000002
#
# number of rings (size 3 to 8) (size 9 to 14) (size 15 to 20)
#    0.000    1.750    2.500    4.500    0.000    1.500 
#    0.000    3.750    0.000    0.000    0.000    0.000 
#    0.000    0.000    0.000    0.000    0.000    0.000 
#
# Total GULP energy -178403.198005 kJ/mol
# GULP energy per Si atom -5575.099938 kJ/mol
# Density = 1.964662 g / cm^3
# Si number density = 19.691438 Si / 1000 Ang^3
#
#
#
# Elastic Constant Matrix: (Units=GPa)
#
#
# Indices 1 2 3 4 5 6 
#
# 1 136.2226 31.0876 59.3821 0.0000 0.0000 0.0000
# 2 31.0876 72.6682 3.8552 0.0000 0.0000 0.0000
# 3 59.3821 3.8552 89.3019 0.0000 0.0000 0.0000
# 4 0.0000 0.0000 0.0000 16.3028 0.0000 0.0000
# 5 0.0000 0.0000 0.0000 0.0000 -0.1891 0.0000
# 6 0.0000 0.0000 0.0000 0.0000 0.0000 35.4717
#
#
#
# Elastic Compliance Matrix: (Units=1/GPa)
#
#
# Indices 1 2 3 4 5 6 
#
# 1 0.011694 -0.004601 -0.007577 0.000000 0.000000 0.000000
# 2 -0.004601 0.015603 0.002386 0.000000 0.000000 0.000000
# 3 -0.007577 0.002386 0.016134 0.000000 0.000000 0.000000
# 4 0.000000 0.000000 0.000000 0.061339 0.000000 0.000000
# 5 0.000000 0.000000 0.000000 0.000000 -5.288983 0.000000
# 6 0.000000 0.000000 0.000000 0.000000 0.000000 0.028192
#
#
# Mechanical properties :
#
#
# Convention : Reuss Voigt Hill
#
# Bulk Modulus (GPa) = 41.93644 54.09362 48.01503
# Shear Modulus (GPa) = -0.97495 23.90827 11.46666
#
# Velocity S-wave (km/s) = -0.70441 3.48824 2.41574
# Velocity P-wave (km/s) = 4.54769 6.61468 5.67607
#
# Compressibility (1/GPa) = 0.02384561
#
# Stress axis : x y z
#
# Youngs Moduli (GPa) = 85.51375 64.09096 61.98223
#
# Poissons Ratio (x) = 0.29487 0.46967
# Poissons Ratio (y) = 0.39343 -0.14787
# Poissons Ratio (z) = 0.64797 -0.15290
#
# Static dielectric constant tensor:
#      x y z
#    x 1.713760 0.000000 0.000000 
#    y 0.000000 1.689030 0.000000 
#    z 0.000000 0.000000 1.734080 
# 
# From -- ./inp_files/12002.got.cif
#   From: 2010.05.17/outbox.cif.g08.bks.cpg/sg46_7_cif.got.tgz:12002.got - 2010.06.03 19:58:25.
