data_PCOD9380766
_publ_section_title
;
Structure prediction by ZEFSAII (Michael W. Deem and Ramdas Pophale) SiO2 
 PCOD9380766
Probable space group: I M A 2
;
_chemical_formula_sum "Si O2"
_cell_formula_units_Z 60
_cell_length_a 18.619045
_cell_length_b 25.756329
_cell_length_c 5.137708
_cell_angle_alpha 90.000000
_cell_angle_beta 90.000000
_cell_angle_gamma 90.000000
_cell_volume 2463.830251
_symmetry_space_group_name_H-M "I M A 2"
_symmetry_group_IT_number 46
_symmetry_cell_setting 'orthorhombic'
loop_
_space_group_symop_operation_xyz
x,y,z
-x,-y,z
1/2-x,y,z
1/2+x,-y,z
1/2+x,1/2+y,1/2+z
1/2-x,1/2-y,1/2+z
-x,1/2+y,1/2+z
x,1/2-y,1/2+z
loop_
_atom_site_type_symbol
_atom_site_label
_atom_site_fract_x
_atom_site_fract_y
_atom_site_fract_z
Si Si1 0.132224 0.150857 0.492880
Si Si2 0.928033 0.367122 0.667357
Si Si3 0.038505 0.423119 0.333272
Si Si4 0.750000 0.786289 0.779419
Si Si5 0.069709 0.971660 0.430725
Si Si6 0.507990 0.718738 0.952855
Si Si7 0.167889 0.051810 0.190226
Si Si8 0.666275 0.213740 0.886379
O O1 0.071990 0.114953 0.622248
O O2 0.183538 0.176247 0.707946
O O3 0.169154 0.111152 0.294919
O O4 0.087310 0.198383 0.379782
O O5 0.878370 0.337484 0.461678
O O6 0.002189 0.386968 0.545710
O O7 0.899921 0.420079 0.795419
O O8 0.108013 0.450691 0.461889
O O9 0.971247 0.452458 0.193729
O O10 0.750000 0.739495 0.563813
O O11 0.132739 0.014014 0.409986
O O12 0.000000 0.000000 0.294415
O O13 0.499439 0.733743 0.252917
O O14 0.451000 0.675187 0.877344
O O15 0.250000 0.037454 0.122810
O O16 0.750000 0.199112 0.891877
O O17 0.654330 0.255804 0.117212
#
# Coordination Sequence:
#
# PCOD9380766 Si02
#       8
#     8   8   8   4   8   8   8   8
#     4  12  25  44  71 105 150 205 254 326 391 468
#     4  12  25  42  75 107 148 195 255 323 395 474
#     4  12  25  46  77 108 154 199 261 336 405 473
#     4  12  30  48  70 106 158 214 264 320 392 474
#     4  12  25  48  73 109 148 200 255 330 404 476
#     4  12  24  40  65 107 149 194 260 314 376 470
#     4  12  28  50  79 111 153 205 270 328 416 497
#     4  10  24  47  73 108 157 206 254 318 401 483
#
# _framework density 24.352328
#
# number of rings (size 3 to 8) (size 9 to 14) (size 15 to 20)
#    0.000    0.267    6.000    2.400    6.533    0.533 
#    0.000    0.667    0.000    0.000    0.000    0.000 
#    0.000    0.000    0.000    0.000    0.000    0.000 
#
# Total GULP energy -167740.663371 kJ/mol
# GULP energy per Si atom -5591.355446 kJ/mol
# Density = 2.429690 g / cm^3
# Si number density = 24.352328 Si / 1000 Ang^3
#
#
#
# Elastic Constant Matrix: (Units=GPa)
#
#
# Indices 1 2 3 4 5 6 
#
# 1 134.9820 31.0777 24.0759 0.0000 0.0000 0.0000
# 2 31.0777 115.8641 27.3714 0.0000 0.0000 0.0000
# 3 24.0759 27.3714 101.5977 0.0000 0.0000 0.0000
# 4 0.0000 0.0000 0.0000 33.7079 0.0000 0.0000
# 5 0.0000 0.0000 0.0000 0.0000 25.6356 0.0000
# 6 0.0000 0.0000 0.0000 0.0000 0.0000 30.3683
#
#
#
# Elastic Compliance Matrix: (Units=1/GPa)
#
#
# Indices 1 2 3 4 5 6 
#
# 1 0.008084 -0.001832 -0.001422 0.000000 0.000000 0.000000
# 2 -0.001832 0.009633 -0.002161 0.000000 0.000000 0.000000
# 3 -0.001422 -0.002161 0.010762 0.000000 0.000000 0.000000
# 4 0.000000 0.000000 0.000000 0.029667 0.000000 0.000000
# 5 0.000000 0.000000 0.000000 0.000000 0.039008 0.000000
# 6 0.000000 0.000000 0.000000 0.000000 0.000000 0.032929
#
#
# Mechanical properties :
#
#
# Convention : Reuss Voigt Hill
#
# Bulk Modulus (GPa) = 56.66384 57.49931 57.08158
# Shear Modulus (GPa) = 34.06090 35.93694 34.99892
#
# Velocity S-wave (km/s) = 3.74394 3.84566 3.79514
# Velocity P-wave (km/s) = 6.48138 6.58646 6.53413
#
# Compressibility (1/GPa) = 0.01764794
#
# Stress axis : x y z
#
# Youngs Moduli (GPa) = 123.70253 103.81213 92.92040
#
# Poissons Ratio (x) = 0.19022 0.13213
# Poissons Ratio (y) = 0.22667 0.20080
# Poissons Ratio (z) = 0.17591 0.22433
#
# Static dielectric constant tensor:
#      x y z
#    x 1.972050 0.000000 0.000000 
#    y 0.000000 1.988590 0.000000 
#    z 0.000000 0.000000 2.009020 
# 
# From -- ./inp_files/1812.got.cif
#   From: 2010.05.17/outbox.cif.g08.bks.cpg/sg46_1_cif.got.tgz:1812.got - 2010.06.03 19:58:25.
