data_PCOD9380232
_publ_section_title
;
Structure prediction by ZEFSAII (Michael W. Deem and Ramdas Pophale) SiO2 
 PCOD9380232
Probable space group: I M A 2
;
_chemical_formula_sum "Si O2"
_cell_formula_units_Z 64
_cell_length_a 13.888460
_cell_length_b 21.231516
_cell_length_c 9.036958
_cell_angle_alpha 90.000000
_cell_angle_beta 90.000000
_cell_angle_gamma 90.000000
_cell_volume 2664.755465
_symmetry_space_group_name_H-M "I M A 2"
_symmetry_group_IT_number 46
_symmetry_cell_setting 'orthorhombic'
loop_
_space_group_symop_operation_xyz
x,y,z
-x,-y,z
1/2-x,y,z
1/2+x,-y,z
1/2+x,1/2+y,1/2+z
1/2-x,1/2-y,1/2+z
-x,1/2+y,1/2+z
x,1/2-y,1/2+z
loop_
_atom_site_type_symbol
_atom_site_label
_atom_site_fract_x
_atom_site_fract_y
_atom_site_fract_z
Si Si1 0.863488 0.399642 0.718870
Si Si2 0.635400 0.689923 0.461098
Si Si3 0.453564 0.298413 0.143477
Si Si4 0.108392 0.527210 0.132168
Si Si5 0.350450 0.403016 0.989308
Si Si6 0.889628 0.025195 0.967776
Si Si7 0.417115 0.079817 0.175508
Si Si8 0.140653 0.668450 0.008212
O O1 0.750000 0.417022 0.754928
O O2 0.867353 0.406637 0.539068
O O3 0.027200 0.568739 0.736224
O O4 0.877241 0.340893 0.831345
O O5 0.750000 0.679868 0.435426
O O6 0.574620 0.701007 0.313162
O O7 0.616715 0.750118 0.562661
O O8 0.588280 0.631361 0.546908
O O9 0.562891 0.288288 0.091008
O O10 0.430924 0.367772 0.080562
O O11 0.145481 0.520431 0.300875
O O12 0.128811 0.597141 0.074205
O O13 0.000000 0.500000 0.137633
O O14 0.150827 0.477007 0.018422
O O15 0.250000 0.376056 0.044081
O O16 0.363421 0.392857 0.816853
O O17 0.859824 0.978373 0.101332
O O18 0.000000 0.000000 0.957987
O O19 0.250000 0.689347 0.031566
#
# Coordination Sequence:
#
# PCOD9380232 Si02
#       8
#     8   8   8   8   8   8   8   8
#     4  10  21  39  64  95 134 182 222 264 324 396
#     4  12  27  47  74 100 130 170 222 286 352 411
#     4  12  26  48  70  99 133 169 223 284 346 405
#     4  11  20  38  62  98 140 185 226 275 330 393
#     4  12  23  38  65  96 133 177 225 277 337 401
#     4   9  21  35  60  94 140 179 221 270 323 390
#     4  11  22  42  64 100 134 178 223 279 337 399
#     4  11  24  44  69 100 139 185 227 272 335 407
#
# _framework density 24.017213999999999
#
# number of rings (size 3 to 8) (size 9 to 14) (size 15 to 20)
#    0.000    1.000    2.500    4.125    3.500    4.000 
#    0.000    1.250    0.000    0.000    0.000    0.000 
#    0.000    0.000    0.000    0.000    0.000    0.000 
#
# Total GULP energy -178235.042081 kJ/mol
# GULP energy per Si atom -5569.845065 kJ/mol
# Density = 2.396255 g / cm^3
# Si number density = 24.017214 Si / 1000 Ang^3
#
#
#
# Elastic Constant Matrix: (Units=GPa)
#
#
# Indices 1 2 3 4 5 6 
#
# 1 173.3466 1.9410 20.9258 0.0000 0.0000 0.0000
# 2 1.9410 37.7234 12.8152 0.0000 0.0000 0.0000
# 3 20.9258 12.8152 134.1876 0.0001 0.0000 0.0000
# 4 0.0000 0.0000 0.0001 27.3011 0.0000 0.0000
# 5 0.0000 0.0000 0.0000 0.0000 24.1327 0.0000
# 6 0.0000 0.0000 0.0000 0.0000 0.0000 10.4436
#
#
#
# Elastic Compliance Matrix: (Units=1/GPa)
#
#
# Indices 1 2 3 4 5 6 
#
# 1 0.005879 0.000009 -0.000918 0.000000 0.000000 0.000000
# 2 0.000009 0.027398 -0.002618 0.000000 0.000000 0.000000
# 3 -0.000918 -0.002618 0.007845 0.000000 0.000000 0.000000
# 4 0.000000 0.000000 0.000000 0.036629 0.000000 0.000000
# 5 0.000000 0.000000 0.000000 0.000000 0.041438 0.000000
# 6 0.000000 0.000000 0.000000 0.000000 0.000000 0.095752
#
#
# Mechanical properties :
#
#
# Convention : Reuss Voigt Hill
#
# Bulk Modulus (GPa) = 29.35170 46.29127 37.82149
# Shear Modulus (GPa) = 21.42701 33.01386 27.22043
#
# Velocity S-wave (km/s) = 2.99013 3.71157 3.37021
# Velocity P-wave (km/s) = 4.91618 6.13871 5.56114
#
# Compressibility (1/GPa) = 0.03406957
#
# Stress axis : x y z
#
# Youngs Moduli (GPa) = 170.08323 36.49948 127.46333
#
# Poissons Ratio (x) = -0.00034 0.11698
# Poissons Ratio (y) = -0.00158 0.33370
# Poissons Ratio (z) = 0.15609 0.09555
#
# Static dielectric constant tensor:
#      x y z
#    x 2.051050 0.000000 0.000000 
#    y 0.000000 2.011330 0.000000 
#    z 0.000000 0.000000 1.889810 
# 
# From -- ./inp_files/6085.got.cif
#   From: 2010.05.17/outbox.cif.g08.bks.cpg/sg46_4_cif.got.tgz:6085.got - 2010.06.03 19:58:25.
