data_PCOD9380448
_publ_section_title
;
Structure prediction by ZEFSAII (Michael W. Deem and Ramdas Pophale) SiO2 
 PCOD9380448
Probable space group: I M A 2
;
_chemical_formula_sum "Si O2"
_cell_formula_units_Z 64
_cell_length_a 21.179498
_cell_length_b 9.713742
_cell_length_c 17.607445
_cell_angle_alpha 90.000000
_cell_angle_beta 90.000000
_cell_angle_gamma 90.000000
_cell_volume 3622.418031
_symmetry_space_group_name_H-M "I M A 2"
_symmetry_group_IT_number 46
_symmetry_cell_setting 'orthorhombic'
loop_
_space_group_symop_operation_xyz
x,y,z
-x,-y,z
1/2-x,y,z
1/2+x,-y,z
1/2+x,1/2+y,1/2+z
1/2-x,1/2-y,1/2+z
-x,1/2+y,1/2+z
x,1/2-y,1/2+z
loop_
_atom_site_type_symbol
_atom_site_label
_atom_site_fract_x
_atom_site_fract_y
_atom_site_fract_z
Si Si1 0.823087 0.475099 0.466900
Si Si2 0.002413 0.154089 0.158202
Si Si3 0.176918 0.012548 0.623253
Si Si4 0.899572 0.264354 0.048929
Si Si5 0.609704 0.763088 0.041863
Si Si6 0.466131 0.149164 0.796417
Si Si7 0.177165 0.065904 0.798817
Si Si8 0.492244 0.152779 0.432144
O O1 0.750000 0.468964 0.488225
O O2 0.859155 0.348052 0.504051
O O3 0.851447 0.618364 0.498882
O O4 0.827004 0.474238 0.375007
O O5 0.937443 0.189894 0.116328
O O6 0.057178 0.164165 0.094615
O O7 0.016466 0.267786 0.221000
O O8 0.000000 0.000000 0.189807
O O9 0.250000 0.007016 0.601891
O O10 0.149067 0.158224 0.594304
O O11 0.172814 0.000314 0.714873
O O12 0.140193 0.888753 0.583602
O O13 0.951752 0.324022 0.991780
O O14 0.572107 0.673267 0.979626
O O15 0.389453 0.147841 0.802926
O O16 0.492868 0.231405 0.868235
O O17 0.500000 0.000000 0.794017
O O18 0.250000 0.127239 0.802014
O O19 0.500000 0.000000 0.399891
#
# Coordination Sequence:
#
# PCOD9380448 Si02
#       8
#     8   8   8   8   8   8   8   8
#     4  11  22  40  63  89 124 165 210 257 311 379
#     4  11  23  38  60  88 127 160 201 262 318 371
#     4  11  22  40  63  89 124 165 210 257 311 379
#     4  11  23  38  60  92 123 159 208 260 318 371
#     4  11  21  38  62  86 119 163 210 250 314 369
#     4  12  23  39  66  93 121 168 214 261 322 383
#     4  10  22  39  62  93 126 164 208 257 310 380
#     4  11  23  38  60  88 127 160 201 262 318 371
#
# _framework density 17.667756000000001
#
# number of rings (size 3 to 8) (size 9 to 14) (size 15 to 20)
#    0.000    1.000    5.000    2.625    0.000    0.000 
#    0.000    0.000    0.000    0.000    0.000    7.000 
#    0.000    0.000    0.000    0.000    0.000    0.000 
#
# Total GULP energy -178521.132458 kJ/mol
# GULP energy per Si atom -5578.785389 kJ/mol
# Density = 1.762754 g / cm^3
# Si number density = 17.667756 Si / 1000 Ang^3
#
#
#
# Elastic Constant Matrix: (Units=GPa)
#
#
# Indices 1 2 3 4 5 6 
#
# 1 80.2176 28.1889 12.5257 0.0000 0.0000 0.0000
# 2 28.1889 103.0317 19.5251 0.0000 0.0000 0.0000
# 3 12.5257 19.5251 70.4927 0.0000 0.0000 0.0000
# 4 0.0000 0.0000 0.0000 30.6270 0.0000 0.0000
# 5 0.0000 0.0000 0.0000 0.0000 49.6376 0.0000
# 6 0.0000 0.0000 0.0000 0.0000 0.0000 19.8291
#
#
#
# Elastic Compliance Matrix: (Units=1/GPa)
#
#
# Indices 1 2 3 4 5 6 
#
# 1 0.013941 -0.003530 -0.001499 0.000000 0.000000 0.000000
# 2 -0.003530 0.011137 -0.002458 0.000000 0.000000 0.000000
# 3 -0.001499 -0.002458 0.015133 0.000000 0.000000 0.000000
# 4 0.000000 0.000000 0.000000 0.032651 0.000000 0.000000
# 5 0.000000 0.000000 0.000000 0.000000 0.020146 0.000000
# 6 0.000000 0.000000 0.000000 0.000000 0.000000 0.050431
#
#
# Mechanical properties :
#
#
# Convention : Reuss Voigt Hill
#
# Bulk Modulus (GPa) = 39.62417 41.58016 40.60217
# Shear Modulus (GPa) = 29.97157 32.91891 31.44524
#
# Velocity S-wave (km/s) = 4.12321 4.32119 4.22336
# Velocity P-wave (km/s) = 6.71892 6.96293 6.84201
#
# Compressibility (1/GPa) = 0.02523712
#
# Stress axis : x y z
#
# Youngs Moduli (GPa) = 71.73267 89.78886 66.08086
#
# Poissons Ratio (x) = 0.31695 0.09908
# Poissons Ratio (y) = 0.25321 0.16240
# Poissons Ratio (z) = 0.10755 0.22066
#
# Static dielectric constant tensor:
#      x y z
#    x 1.610540 0.000000 0.000000 
#    y 0.000000 1.588090 0.000000 
#    z 0.000000 0.000000 1.595820 
# 
# From -- ./inp_files/20218.got.cif
#   From: 2010.05.17/outbox.cif.g08.bks.cpg/sg46_11_cif.got.tgz:20218.got - 2010.06.03 19:58:25.
