data_PCOD9380016
_publ_section_title
;
Structure prediction by ZEFSAII (Michael W. Deem and Ramdas Pophale) SiO2 
 PCOD9380016
Probable space group: I M A 2
;
_chemical_formula_sum "Si O2"
_cell_formula_units_Z 64
_cell_length_a 8.436072
_cell_length_b 25.767664
_cell_length_c 15.418493
_cell_angle_alpha 90.000000
_cell_angle_beta 90.000000
_cell_angle_gamma 90.000000
_cell_volume 3351.639148
_symmetry_space_group_name_H-M "I M A 2"
_symmetry_group_IT_number 46
_symmetry_cell_setting 'orthorhombic'
loop_
_space_group_symop_operation_xyz
x,y,z
-x,-y,z
1/2-x,y,z
1/2+x,-y,z
1/2+x,1/2+y,1/2+z
1/2-x,1/2-y,1/2+z
-x,1/2+y,1/2+z
x,1/2-y,1/2+z
loop_
_atom_site_type_symbol
_atom_site_label
_atom_site_fract_x
_atom_site_fract_y
_atom_site_fract_z
Si Si1 0.439969 0.164890 0.531480
Si Si2 0.558326 0.235284 0.247250
Si Si3 0.059668 0.058767 0.205911
Si Si4 0.939040 0.943508 0.843694
Si Si5 0.439753 0.863935 0.353258
Si Si6 0.439626 0.851198 0.724640
Si Si7 0.440660 0.280299 0.553222
Si Si8 0.443559 0.106188 0.021087
O O1 0.250000 0.164790 0.536164
O O2 0.495596 0.131248 0.450309
O O3 0.506636 0.147768 0.624438
O O4 0.496817 0.224774 0.517579
O O5 0.750000 0.234521 0.242820
O O6 0.506565 0.192189 0.315851
O O7 0.508056 0.294845 0.262180
O O8 0.491169 0.219030 0.153739
O O9 0.250000 0.059437 0.206771
O O10 0.998352 0.092993 0.285870
O O11 0.005846 0.083878 0.114233
O O12 0.000000 0.000000 0.211428
O O13 0.750000 0.944891 0.846201
O O14 0.998038 0.928010 0.940122
O O15 0.991399 0.898542 0.778512
O O16 0.000000 0.000000 0.818512
O O17 0.250000 0.864715 0.355325
O O18 0.250000 0.853156 0.728068
O O19 0.250000 0.280190 0.548569
O O20 0.496928 0.333968 0.511138
O O21 0.250000 0.106092 0.021058
#
# Coordination Sequence:
#
# PCOD9380016 Si02
#       8
#     8   8   8   8   8   8   8   8
#     4  10  21  36  59  88 119 156 196 242 297 351
#     4   9  19  34  54  83 118 153 190 234 287 345
#     4  11  22  39  61  85 118 158 201 246 294 347
#     4  11  23  40  61  86 117 154 201 249 296 350
#     4  11  22  37  57  86 122 159 198 241 292 350
#     4  10  21  40  61  85 118 155 196 245 299 351
#     4   9  17  33  55  83 117 153 193 234 282 342
#     4   9  19  35  57  86 119 155 194 239 288 345
#
# _framework density 19.095134000000002
#
# number of rings (size 3 to 8) (size 9 to 14) (size 15 to 20)
#    0.000    2.000    1.250    2.250    1.750    1.500 
#    0.000    3.750    0.000    0.000    0.000    0.000 
#    0.000    0.000    0.000    0.000    0.000    0.000 
#
# Total GULP energy -178687.002548 kJ/mol
# GULP energy per Si atom -5583.968830 kJ/mol
# Density = 1.905167 g / cm^3
# Si number density = 19.095134 Si / 1000 Ang^3
#
#
#
# Elastic Constant Matrix: (Units=GPa)
#
#
# Indices 1 2 3 4 5 6 
#
# 1 32.5498 22.2210 12.0055 0.0000 0.0000 0.0000
# 2 22.2210 127.6666 58.4536 0.0000 0.0000 0.0000
# 3 12.0055 58.4536 85.5478 0.0001 0.0000 0.0000
# 4 0.0000 0.0000 0.0001 38.7725 0.0000 0.0000
# 5 0.0000 0.0000 0.0000 0.0000 22.2011 0.0000
# 6 0.0000 0.0000 0.0000 0.0000 0.0000 18.7971
#
#
#
# Elastic Compliance Matrix: (Units=1/GPa)
#
#
# Indices 1 2 3 4 5 6 
#
# 1 0.034934 -0.005582 -0.001088 0.000000 0.000000 0.000000
# 2 -0.005582 0.012291 -0.007615 0.000000 0.000000 0.000000
# 3 -0.001088 -0.007615 0.017045 0.000000 0.000000 0.000000
# 4 0.000000 0.000000 0.000000 0.025791 0.000000 0.000000
# 5 0.000000 0.000000 0.000000 0.000000 0.045043 0.000000
# 6 0.000000 0.000000 0.000000 0.000000 0.000000 0.053200
#
#
# Mechanical properties :
#
#
# Convention : Reuss Voigt Hill
#
# Bulk Modulus (GPa) = 28.01134 47.90270 37.95702
# Shear Modulus (GPa) = 21.85547 26.15975 24.00761
#
# Velocity S-wave (km/s) = 3.38680 3.70533 3.54964
# Velocity P-wave (km/s) = 5.47678 6.59141 6.05978
#
# Compressibility (1/GPa) = 0.03569983
#
# Stress axis : x y z
#
# Youngs Moduli (GPa) = 28.62510 81.35964 58.66719
#
# Poissons Ratio (x) = 0.45417 0.06385
# Poissons Ratio (y) = 0.15979 0.44675
# Poissons Ratio (z) = 0.03115 0.61955
#
# Static dielectric constant tensor:
#      x y z
#    x 1.641300 0.000000 0.000000 
#    y 0.000000 1.646000 0.000000 
#    z 0.000000 0.000000 1.648000 
# 
# From -- ./inp_files/14489.got.cif
#   From: 2010.05.17/outbox.cif.g08.bks.cpg/sg46_8_cif.got.tgz:14489.got - 2010.06.03 19:58:25.
