data_PCOD9380430
_publ_section_title
;
Structure prediction by ZEFSAII (Michael W. Deem and Ramdas Pophale) SiO2 
 PCOD9380430
Probable space group: I M A 2
;
_chemical_formula_sum "Si O2"
_cell_formula_units_Z 32
_cell_length_a 14.390148
_cell_length_b 12.089193
_cell_length_c 9.254301
_cell_angle_alpha 90.000000
_cell_angle_beta 90.000000
_cell_angle_gamma 90.000000
_cell_volume 1609.927032
_symmetry_space_group_name_H-M "I M A 2"
_symmetry_group_IT_number 46
_symmetry_cell_setting 'orthorhombic'
loop_
_space_group_symop_operation_xyz
x,y,z
-x,-y,z
1/2-x,y,z
1/2+x,-y,z
1/2+x,1/2+y,1/2+z
1/2-x,1/2-y,1/2+z
-x,1/2+y,1/2+z
x,1/2-y,1/2+z
loop_
_atom_site_type_symbol
_atom_site_label
_atom_site_fract_x
_atom_site_fract_y
_atom_site_fract_z
Si Si1 0.001294 0.327860 0.500000
Si Si2 0.750000 0.606008 0.172945
Si Si3 0.542061 0.881500 0.317425
Si Si4 0.750000 0.837504 0.338396
Si Si5 0.644630 0.491605 0.388281
O O1 0.025371 0.207336 0.442704
O O2 0.993882 0.335523 0.671965
O O3 0.085348 0.410666 0.459173
O O4 0.912220 0.380925 0.420137
O O5 0.750000 0.711965 0.279384
O O6 0.662455 0.530234 0.221997
O O7 0.750000 0.649513 0.011915
O O8 0.652645 0.889259 0.288787
O O9 0.500000 0.000000 0.351125
O O10 0.750000 0.484453 0.445806
#
# Coordination Sequence:
#
# PCOD9380430 Si02
#       5
#     8   4   8   4   8
#     4  11  23  42  67  96 128 172 219 267 331 389
#     4  10  22  38  69  94 127 178 213 275 327 387
#     4  12  26  42  66  97 131 173 216 275 325 393
#     4  12  24  40  61 100 131 168 231 271 325 389
#     4   9  20  41  69  90 128 172 214 265 329 387
#
# _framework density 19.876677000000001
#
# number of rings (size 3 to 8) (size 9 to 14) (size 15 to 20)
#    0.750    0.500    5.000    1.500    1.750    2.000 
#    2.250    0.000    0.000    0.000    0.000    0.000 
#    0.000    0.000    0.000    0.000    0.000    0.000 
#
# Total GULP energy -89258.214822 kJ/mol
# GULP energy per Si atom -5578.638426 kJ/mol
# Density = 1.983144 g / cm^3
# Si number density = 19.876677 Si / 1000 Ang^3
#
#
#
# Elastic Constant Matrix: (Units=GPa)
#
#
# Indices 1 2 3 4 5 6 
#
# 1 134.9877 54.8788 2.1253 0.0000 0.0000 0.0000
# 2 54.8788 115.9470 16.0879 0.0000 0.0000 0.0000
# 3 2.1253 16.0879 78.9253 0.0000 0.0000 0.0000
# 4 0.0000 0.0000 0.0000 -1.0866 0.0000 0.0000
# 5 0.0000 0.0000 0.0000 0.0000 23.9365 0.0000
# 6 0.0000 0.0000 0.0000 0.0000 0.0000 31.4202
#
#
#
# Elastic Compliance Matrix: (Units=1/GPa)
#
#
# Indices 1 2 3 4 5 6 
#
# 1 0.009206 -0.004449 0.000659 0.000000 0.000000 0.000000
# 2 -0.004449 0.011026 -0.002128 0.000000 0.000000 0.000000
# 3 0.000659 -0.002128 0.013086 0.000000 0.000000 0.000000
# 4 0.000000 0.000000 0.000000 -0.920294 0.000000 0.000000
# 5 0.000000 0.000000 0.000000 0.000000 0.041777 0.000000
# 6 0.000000 0.000000 0.000000 0.000000 0.000000 0.031827
#
#
# Mechanical properties :
#
#
# Convention : Reuss Voigt Hill
#
# Bulk Modulus (GPa) = 46.54856 52.89377 49.72116
# Shear Modulus (GPa) = -6.29425 27.97189 10.83882
#
# Velocity S-wave (km/s) = -1.78144 3.75543 2.33771
# Velocity P-wave (km/s) = 4.38613 6.74337 5.68820
#
# Compressibility (1/GPa) = 0.02148294
#
# Stress axis : x y z
#
# Youngs Moduli (GPa) = 108.62023 90.69852 76.41671
#
# Poissons Ratio (x) = 0.40351 -0.05035
# Poissons Ratio (y) = 0.48324 0.16258
# Poissons Ratio (z) = -0.07157 0.19297
#
# Static dielectric constant tensor:
#      x y z
#    x 1.726770 0.000000 0.000000 
#    y 0.000000 1.668370 0.000000 
#    z 0.000000 0.000000 1.726760 
# 
# From -- ./inp_files/5226.got.cif
#   From: 2010.05.17/outbox.cif.g08.bks.cpg/sg46_3_cif.got.tgz:5226.got - 2010.06.03 19:58:25.
