data_PCOD9380159
_publ_section_title
;
Structure prediction by ZEFSAII (Michael W. Deem and Ramdas Pophale) SiO2 
 PCOD9380159
Probable space group: I M A 2
;
_chemical_formula_sum "Si O2"
_cell_formula_units_Z 48
_cell_length_a 13.641594
_cell_length_b 19.324090
_cell_length_c 7.967824
_cell_angle_alpha 90.000000
_cell_angle_beta 90.000000
_cell_angle_gamma 90.000000
_cell_volume 2100.409162
_symmetry_space_group_name_H-M "I M A 2"
_symmetry_group_IT_number 46
_symmetry_cell_setting 'orthorhombic'
loop_
_space_group_symop_operation_xyz
x,y,z
-x,-y,z
1/2-x,y,z
1/2+x,-y,z
1/2+x,1/2+y,1/2+z
1/2-x,1/2-y,1/2+z
-x,1/2+y,1/2+z
x,1/2-y,1/2+z
loop_
_atom_site_type_symbol
_atom_site_label
_atom_site_fract_x
_atom_site_fract_y
_atom_site_fract_z
Si Si1 0.136980 0.945310 0.919840
Si Si2 0.490299 0.194089 0.304974
Si Si3 0.862200 0.710869 0.506657
Si Si4 0.486297 0.346362 0.241401
Si Si5 0.865021 0.066463 0.301901
Si Si6 0.863211 0.543541 0.099344
O O1 0.250000 0.920640 0.912366
O O2 0.129751 0.005086 0.779975
O O3 0.061958 0.887096 0.859735
O O4 0.116761 0.963508 0.114125
O O5 0.424514 0.220455 0.461691
O O6 0.531969 0.268501 0.237306
O O7 0.571248 0.136008 0.323266
O O8 0.411224 0.173603 0.163897
O O9 0.750000 0.725393 0.535705
O O10 0.883874 0.666983 0.341072
O O11 0.450128 0.400846 0.103247
O O12 0.750000 0.085307 0.311162
O O13 0.880260 0.010190 0.447485
O O14 0.750000 0.568634 0.079762
#
# Coordination Sequence:
#
# PCOD9380159 Si02
#       6
#     8   8   8   8   8   8
#     4  10  21  41  65  96 134 181 232 286 357 428
#     4  10  22  39  64  99 135 178 241 287 365 428
#     4  10  21  38  63  92 135 183 234 293 354 430
#     4  10  22  39  66  97 134 185 230 295 355 435
#     4  10  21  42  70 103 141 180 236 300 358 434
#     4  10  22  41  69  99 137 184 232 291 358 426
#
# _framework density 22.852689000000002
#
# number of rings (size 3 to 8) (size 9 to 14) (size 15 to 20)
#    1.000    1.000    1.667    1.500    2.333    0.667 
#    0.000    5.833    0.000    5.000    0.000    0.000 
#    0.000    0.000    0.000    0.000    0.000    0.000 
#
# Total GULP energy -133802.249181 kJ/mol
# GULP energy per Si atom -5575.093716 kJ/mol
# Density = 2.280068 g / cm^3
# Si number density = 22.852689 Si / 1000 Ang^3
#
#
#
# Elastic Constant Matrix: (Units=GPa)
#
#
# Indices 1 2 3 4 5 6 
#
# 1 118.8360 63.5811 62.7344 0.0000 0.0000 0.0000
# 2 63.5811 103.7952 72.4514 0.0000 0.0000 0.0000
# 3 62.7344 72.4514 106.2361 0.0000 0.0000 0.0000
# 4 0.0000 0.0000 0.0000 26.8914 0.0000 0.0000
# 5 0.0000 0.0000 0.0000 0.0000 31.5159 0.0000
# 6 0.0000 0.0000 0.0000 0.0000 0.0000 25.5345
#
#
#
# Elastic Compliance Matrix: (Units=1/GPa)
#
#
# Indices 1 2 3 4 5 6 
#
# 1 0.013543 -0.005179 -0.004466 0.000000 0.000000 0.000000
# 2 -0.005179 0.020368 -0.010832 0.000000 0.000000 0.000000
# 3 -0.004466 -0.010832 0.019437 0.000000 0.000000 0.000000
# 4 0.000000 0.000000 0.000000 0.037187 0.000000 0.000000
# 5 0.000000 0.000000 0.000000 0.000000 0.031730 0.000000
# 6 0.000000 0.000000 0.000000 0.000000 0.000000 0.039163
#
#
# Mechanical properties :
#
#
# Convention : Reuss Voigt Hill
#
# Bulk Modulus (GPa) = 80.67820 80.71121 80.69471
# Shear Modulus (GPa) = 24.21145 25.46173 24.83659
#
# Velocity S-wave (km/s) = 3.25846 3.34154 3.30026
# Velocity P-wave (km/s) = 7.03825 7.09102 7.06468
#
# Compressibility (1/GPa) = 0.01239492
#
# Stress axis : x y z
#
# Youngs Moduli (GPa) = 73.83714 49.09635 51.44705
#
# Poissons Ratio (x) = 0.25428 0.22974
# Poissons Ratio (y) = 0.38241 0.55729
# Poissons Ratio (z) = 0.32972 0.53183
#
# Static dielectric constant tensor:
#      x y z
#    x 1.807340 0.000000 0.000000 
#    y 0.000000 1.915440 0.000000 
#    z 0.000000 0.000000 2.094480 
# 
# From -- ./inp_files/5808.got.cif
#   From: 2010.05.17/outbox.cif.g08.bks.cpg/sg46_3_cif.got.tgz:5808.got - 2010.06.03 19:58:25.
