data_PCOD9380474
_publ_section_title
;
Structure prediction by ZEFSAII (Michael W. Deem and Ramdas Pophale) SiO2 
 PCOD9380474
Probable space group: I M A 2
;
_chemical_formula_sum "Si O2"
_cell_formula_units_Z 64
_cell_length_a 16.398450
_cell_length_b 10.673658
_cell_length_c 18.756409
_cell_angle_alpha 90.000000
_cell_angle_beta 90.000000
_cell_angle_gamma 90.000000
_cell_volume 3282.961408
_symmetry_space_group_name_H-M "I M A 2"
_symmetry_group_IT_number 46
_symmetry_cell_setting 'orthorhombic'
loop_
_space_group_symop_operation_xyz
x,y,z
-x,-y,z
1/2-x,y,z
1/2+x,-y,z
1/2+x,1/2+y,1/2+z
1/2-x,1/2-y,1/2+z
-x,1/2+y,1/2+z
x,1/2-y,1/2+z
loop_
_atom_site_type_symbol
_atom_site_label
_atom_site_fract_x
_atom_site_fract_y
_atom_site_fract_z
Si Si1 0.153139 0.177980 0.108870
Si Si2 0.156318 0.478007 0.462924
Si Si3 0.026580 0.642444 0.251388
Si Si4 0.066544 0.738159 0.455328
Si Si5 0.000280 0.350171 0.092986
Si Si6 0.846268 0.556395 0.761099
Si Si7 0.845857 0.299380 0.822457
Si Si8 0.594990 0.742572 0.365124
O O1 0.250000 0.212273 0.113336
O O2 0.091842 0.292673 0.092787
O O3 0.127853 0.115632 0.184939
O O4 0.145027 0.084535 0.041119
O O5 0.250000 0.524369 0.458198
O O6 0.092968 0.592127 0.453591
O O7 0.143746 0.370021 0.403021
O O8 0.107852 0.677122 0.293699
O O9 0.000000 0.500000 0.250619
O O10 0.034360 0.682596 0.170473
O O11 0.952904 0.703449 0.294087
O O12 0.130701 0.809520 0.405329
O O13 0.056599 0.785899 0.534666
O O14 0.978413 0.766461 0.420313
O O15 0.000000 0.500000 0.082862
O O16 0.750000 0.539390 0.751487
O O17 0.880857 0.419094 0.779564
O O18 0.857139 0.639840 0.832889
O O19 0.750000 0.289425 0.813358
#
# Coordination Sequence:
#
# PCOD9380474 Si02
#       8
#     8   8   8   8   8   8   8   8
#     4  10  22  43  67  94 130 170 214 263 319 382
#     4  11  23  40  65  96 128 168 214 267 325 382
#     4  10  22  40  62  89 124 164 212 256 312 382
#     4  11  24  38  61  93 128 165 212 262 319 380
#     4  11  24  43  62  93 128 168 218 260 318 385
#     4  10  22  40  65  95 125 166 215 265 320 386
#     4  10  23  43  65  94 130 166 210 268 327 380
#     4  11  20  37  62  91 122 164 208 261 317 370
#
# _framework density 19.494592999999998
#
# number of rings (size 3 to 8) (size 9 to 14) (size 15 to 20)
#    0.000    1.500    2.500    2.625    3.500    1.500 
#    0.000    5.000    0.000    0.000    0.000    0.000 
#    0.000    0.000    0.000    0.000    0.000    0.000 
#
# Total GULP energy -178370.411841 kJ/mol
# GULP energy per Si atom -5574.075370 kJ/mol
# Density = 1.945022 g / cm^3
# Si number density = 19.494593 Si / 1000 Ang^3
#
#
#
# Elastic Constant Matrix: (Units=GPa)
#
#
# Indices 1 2 3 4 5 6 
#
# 1 63.9754 29.7659 33.8002 0.0000 0.0000 0.0000
# 2 29.7659 66.9291 57.6183 0.0000 0.0000 0.0000
# 3 33.8002 57.6183 136.0530 0.0000 0.0000 0.0000
# 4 0.0000 0.0000 0.0000 29.2319 0.0000 0.0000
# 5 0.0000 0.0000 0.0000 0.0000 38.3127 0.0000
# 6 0.0000 0.0000 0.0000 0.0000 0.0000 -26.7533
#
#
#
# Elastic Compliance Matrix: (Units=1/GPa)
#
#
# Indices 1 2 3 4 5 6 
#
# 1 0.020014 -0.007272 -0.001893 0.000000 0.000000 0.000000
# 2 -0.007272 0.026156 -0.009271 0.000000 0.000000 0.000000
# 3 -0.001893 -0.009271 0.011746 0.000000 0.000000 0.000000
# 4 0.000000 0.000000 0.000000 0.034209 0.000000 0.000000
# 5 0.000000 0.000000 0.000000 0.000000 0.026101 0.000000
# 6 0.000000 0.000000 0.000000 0.000000 0.000000 -0.037379
#
#
# Mechanical properties :
#
#
# Convention : Reuss Voigt Hill
#
# Bulk Modulus (GPa) = 47.51307 56.59181 52.05244
# Shear Modulus (GPa) = 40.08536 17.87645 28.98090
#
# Velocity S-wave (km/s) = 4.53949 3.03148 3.85984
# Velocity P-wave (km/s) = 7.20425 6.43006 6.82814
#
# Compressibility (1/GPa) = 0.02104684
#
# Stress axis : x y z
#
# Youngs Moduli (GPa) = 49.96433 38.23211 85.13295
#
# Poissons Ratio (x) = 0.27801 0.16113
# Poissons Ratio (y) = 0.36333 0.78923
# Poissons Ratio (z) = 0.09457 0.35443
#
# Static dielectric constant tensor:
#      x y z
#    x 1.687340 0.000000 0.000000 
#    y 0.000000 1.645050 0.000000 
#    z 0.000000 0.000000 1.715960 
# 
# From -- ./inp_files/19661.got.cif
#   From: 2010.05.17/outbox.cif.g08.bks.cpg/sg46_10_cif.got.tgz:19661.got - 2010.06.03 19:58:25.
