data_PCOD9380622
_publ_section_title
;
Structure prediction by ZEFSAII (Michael W. Deem and Ramdas Pophale) SiO2 
 PCOD9380622
Probable space group: I M A 2
;
_chemical_formula_sum "Si O2"
_cell_formula_units_Z 48
_cell_length_a 15.539822
_cell_length_b 20.161725
_cell_length_c 7.566700
_cell_angle_alpha 90.000000
_cell_angle_beta 90.000000
_cell_angle_gamma 90.000000
_cell_volume 2370.719884
_symmetry_space_group_name_H-M "I M A 2"
_symmetry_group_IT_number 46
_symmetry_cell_setting 'orthorhombic'
loop_
_space_group_symop_operation_xyz
x,y,z
-x,-y,z
1/2-x,y,z
1/2+x,-y,z
1/2+x,1/2+y,1/2+z
1/2-x,1/2-y,1/2+z
-x,1/2+y,1/2+z
x,1/2-y,1/2+z
loop_
_atom_site_type_symbol
_atom_site_label
_atom_site_fract_x
_atom_site_fract_y
_atom_site_fract_z
Si Si1 0.350792 0.660092 0.302960
Si Si2 0.489144 0.150611 0.357551
Si Si3 0.950320 0.271005 0.579034
Si Si4 0.846018 0.059835 0.278628
Si Si5 0.400861 0.516865 0.386045
Si Si6 0.846282 0.936801 0.549722
O O1 0.250000 0.658166 0.268763
O O2 0.375140 0.683157 0.499663
O O3 0.398629 0.716633 0.193533
O O4 0.389042 0.586821 0.284076
O O5 0.501967 0.221556 0.448501
O O6 0.480145 0.176969 0.156943
O O7 0.577681 0.108729 0.340072
O O8 0.418306 0.110721 0.465104
O O9 0.750000 0.090295 0.284683
O O10 0.860302 0.029254 0.080900
O O11 0.847659 0.000247 0.419741
O O12 0.500000 0.500000 0.415628
O O13 0.364469 0.461983 0.249789
O O14 0.750000 0.907909 0.543103
#
# Coordination Sequence:
#
# PCOD9380622 Si02
#       6
#     8   8   8   8   8   8
#     4  11  21  36  56  89 124 162 209 256 313 389
#     4  11  22  43  61  89 127 167 214 268 326 388
#     4  10  23  36  60  85 122 170 208 257 323 389
#     4  11  23  39  64  97 130 166 206 260 327 398
#     4  12  23  38  63  92 130 169 213 266 327 387
#     4  11  24  42  65  92 123 164 218 274 330 382
#
# _framework density 20.247014
#
# number of rings (size 3 to 8) (size 9 to 14) (size 15 to 20)
#    0.000    1.000    1.667    6.500    0.000    4.667 
#    0.000    0.833    0.000    0.000    0.000    0.000 
#    0.000    0.000    0.000    0.000    0.000    0.000 
#
# Total GULP energy -133753.050780 kJ/mol
# GULP energy per Si atom -5573.043782 kJ/mol
# Density = 2.020093 g / cm^3
# Si number density = 20.247014 Si / 1000 Ang^3
#
#
#
# Elastic Constant Matrix: (Units=GPa)
#
#
# Indices 1 2 3 4 5 6 
#
# 1 99.9724 21.9257 9.3226 0.0000 0.0000 0.0000
# 2 21.9257 48.5474 -6.1523 0.0000 0.0000 0.0000
# 3 9.3226 -6.1523 51.6887 0.0000 0.0000 0.0000
# 4 0.0000 0.0000 0.0000 44.6905 0.0000 0.0000
# 5 0.0000 0.0000 0.0000 0.0000 10.0625 0.0000
# 6 0.0000 0.0000 0.0000 0.0000 0.0000 -7.2188
#
#
#
# Elastic Compliance Matrix: (Units=1/GPa)
#
#
# Indices 1 2 3 4 5 6 
#
# 1 0.011469 -0.005525 -0.002726 0.000000 0.000000 0.000000
# 2 -0.005525 0.023576 0.003803 0.000000 0.000000 0.000000
# 3 -0.002726 0.003803 0.020291 0.000000 0.000000 0.000000
# 4 0.000000 0.000000 0.000000 0.022376 0.000000 0.000000
# 5 0.000000 0.000000 0.000000 0.000000 0.099379 0.000000
# 6 0.000000 0.000000 0.000000 0.000000 0.000000 -0.138526
#
#
# Mechanical properties :
#
#
# Convention : Reuss Voigt Hill
#
# Bulk Modulus (GPa) = 21.53412 27.82230 24.67821
# Shear Modulus (GPa) = 79.44025 21.18099 50.31062
#
# Velocity S-wave (km/s) = 6.27062 3.23790 4.99023
# Velocity P-wave (km/s) = 7.94270 5.26782 6.73930
#
# Compressibility (1/GPa) = 0.04643794
#
# Stress axis : x y z
#
# Youngs Moduli (GPa) = 87.19345 42.41657 49.28321
#
# Poissons Ratio (x) = 0.23436 0.13435
# Poissons Ratio (y) = 0.48176 -0.18741
# Poissons Ratio (z) = 0.23770 -0.16129
#
# Static dielectric constant tensor:
#      x y z
#    x 1.693670 0.000000 0.000000 
#    y 0.000000 1.685120 0.000000 
#    z 0.000000 0.000000 1.935280 
# 
# From -- ./inp_files/5820.got.cif
#   From: 2010.05.17/outbox.cif.g08.bks.cpg/sg46_3_cif.got.tgz:5820.got - 2010.06.03 19:58:25.
