data_PCOD9380344
_publ_section_title
;
Structure prediction by ZEFSAII (Michael W. Deem and Ramdas Pophale) SiO2 
 PCOD9380344
Probable space group: I M A 2
;
_chemical_formula_sum "Si O2"
_cell_formula_units_Z 60
_cell_length_a 17.403545
_cell_length_b 18.362114
_cell_length_c 8.519853
_cell_angle_alpha 90.000000
_cell_angle_beta 90.000000
_cell_angle_gamma 90.000000
_cell_volume 2722.654298
_symmetry_space_group_name_H-M "I M A 2"
_symmetry_group_IT_number 46
_symmetry_cell_setting 'orthorhombic'
loop_
_space_group_symop_operation_xyz
x,y,z
-x,-y,z
1/2-x,y,z
1/2+x,-y,z
1/2+x,1/2+y,1/2+z
1/2-x,1/2-y,1/2+z
-x,1/2+y,1/2+z
x,1/2-y,1/2+z
loop_
_atom_site_type_symbol
_atom_site_label
_atom_site_fract_x
_atom_site_fract_y
_atom_site_fract_z
Si Si1 0.664319 0.066356 0.966030
Si Si2 0.944602 0.831006 0.672847
Si Si3 0.527694 0.688102 0.538767
Si Si4 0.933342 0.061377 0.653290
Si Si5 0.421969 0.041568 0.201113
Si Si6 0.250000 0.801915 0.456743
Si Si7 0.855883 0.288880 0.652387
Si Si8 0.840304 0.943800 0.517743
O O1 0.750000 0.041744 0.918085
O O2 0.605413 0.069174 0.822566
O O3 0.670505 0.147427 0.033583
O O4 0.629893 0.014095 0.100588
O O5 0.920931 0.756247 0.591571
O O6 0.877909 0.890830 0.647624
O O7 0.020076 0.868670 0.595844
O O8 0.969424 0.816421 0.851285
O O9 0.553812 0.609472 0.595917
O O10 0.447084 0.706541 0.625859
O O11 0.867264 0.027063 0.546649
O O12 0.000000 0.000000 0.665083
O O13 0.377149 0.073020 0.349840
O O14 0.500000 0.000000 0.251623
O O15 0.183215 0.784973 0.591624
O O16 0.318193 0.806439 0.319831
O O17 0.750000 0.938143 0.517272
#
# Coordination Sequence:
#
# PCOD9380344 Si02
#       8
#     8   8   8   8   8   4   8   8
#     4  12  22  39  64  97 136 178 222 275 332 395
#     4  11  23  43  69 100 132 173 229 274 335 407
#     4  12  24  42  71  99 129 178 229 278 330 394
#     4  10  21  42  66  94 130 177 223 271 325 405
#     4  12  23  43  69  98 132 176 229 282 331 407
#     4  10  22  40  56  88 134 180 206 260 334 378
#     4  11  22  40  61  90 137 177 224 270 319 404
#     4  11  25  46  66  99 136 171 220 288 349 404
#
# _framework density 22.037320000000001
#
# number of rings (size 3 to 8) (size 9 to 14) (size 15 to 20)
#    0.000    0.800    4.000    5.600    0.000    0.000 
#    2.400    4.000    0.000    0.000    0.000    0.000 
#    0.000    0.000    0.000    0.000    0.000    0.000 
#
# Total GULP energy -167189.424850 kJ/mol
# GULP energy per Si atom -5572.980828 kJ/mol
# Density = 2.198716 g / cm^3
# Si number density = 22.037320 Si / 1000 Ang^3
#
#
#
# Elastic Constant Matrix: (Units=GPa)
#
#
# Indices 1 2 3 4 5 6 
#
# 1 109.1415 17.2444 12.0536 0.0000 0.0000 0.0000
# 2 17.2444 57.8273 -2.3875 0.0000 0.0000 0.0000
# 3 12.0536 -2.3875 45.6261 0.0000 0.0000 0.0000
# 4 0.0000 0.0000 0.0000 25.6164 0.0000 0.0000
# 5 0.0000 0.0000 0.0000 0.0000 18.6917 0.0000
# 6 0.0000 0.0000 0.0000 0.0000 0.0000 122.9628
#
#
#
# Elastic Compliance Matrix: (Units=1/GPa)
#
#
# Indices 1 2 3 4 5 6 
#
# 1 0.009958 -0.003085 -0.002792 0.000000 0.000000 0.000000
# 2 -0.003085 0.018286 0.001772 0.000000 0.000000 0.000000
# 3 -0.002792 0.001772 0.022748 0.000000 0.000000 0.000000
# 4 0.000000 0.000000 0.000000 0.039038 0.000000 0.000000
# 5 0.000000 0.000000 0.000000 0.000000 0.053500 0.000000
# 6 0.000000 0.000000 0.000000 0.000000 0.000000 0.008133
#
#
# Mechanical properties :
#
#
# Convention : Reuss Voigt Hill
#
# Bulk Modulus (GPa) = 23.37467 29.60176 26.48822
# Shear Modulus (GPa) = 28.71377 45.83313 37.27345
#
# Velocity S-wave (km/s) = 3.61357 4.56543 4.11710
# Velocity P-wave (km/s) = 5.29532 6.42281 5.88613
#
# Compressibility (1/GPa) = 0.04278135
#
# Stress axis : x y z
#
# Youngs Moduli (GPa) = 100.41979 54.68678 43.96056
#
# Poissons Ratio (x) = 0.16870 0.12275
# Poissons Ratio (y) = 0.30978 -0.07789
# Poissons Ratio (z) = 0.28039 -0.09690
#
# Static dielectric constant tensor:
#      x y z
#    x 1.839180 0.000000 0.000000 
#    y 0.000000 1.870210 0.000000 
#    z 0.000000 0.000000 1.801640 
# 
# From -- ./inp_files/6816.got.cif
#   From: 2010.05.17/outbox.cif.g08.bks.cpg/sg46_4_cif.got.tgz:6816.got - 2010.06.03 19:58:25.
