data_PCOD9380744
_publ_section_title
;
Structure prediction by ZEFSAII (Michael W. Deem and Ramdas Pophale) SiO2 
 PCOD9380744
Probable space group: I M A 2
;
_chemical_formula_sum "Si O2"
_cell_formula_units_Z 40
_cell_length_a 7.734269
_cell_length_b 25.786061
_cell_length_c 9.791587
_cell_angle_alpha 90.000000
_cell_angle_beta 90.000000
_cell_angle_gamma 90.000000
_cell_volume 1952.798198
_symmetry_space_group_name_H-M "I M A 2"
_symmetry_group_IT_number 46
_symmetry_cell_setting 'orthorhombic'
loop_
_space_group_symop_operation_xyz
x,y,z
-x,-y,z
1/2-x,y,z
1/2+x,-y,z
1/2+x,1/2+y,1/2+z
1/2-x,1/2-y,1/2+z
-x,1/2+y,1/2+z
x,1/2-y,1/2+z
loop_
_atom_site_type_symbol
_atom_site_label
_atom_site_fract_x
_atom_site_fract_y
_atom_site_fract_z
Si Si1 0.051362 0.358002 0.655840
Si Si2 0.055546 0.440507 0.447208
Si Si3 0.457730 0.555984 0.861209
Si Si4 0.750000 0.214643 0.262442
Si Si5 0.250000 0.815402 0.583636
Si Si6 0.554160 0.085174 0.651230
O O1 0.250000 0.340474 0.629192
O O2 0.972761 0.393437 0.532946
O O3 0.047951 0.398703 0.779755
O O4 0.919757 0.313223 0.699717
O O5 0.250000 0.439455 0.498951
O O6 0.000000 0.500000 0.463019
O O7 0.045301 0.425131 0.289029
O O8 0.500000 0.500000 0.800944
O O9 0.250000 0.564847 0.859881
O O10 0.518253 0.557889 0.017634
O O11 0.750000 0.206805 0.428234
O O12 0.750000 0.272322 0.200986
O O13 0.411056 0.854918 0.608752
O O14 0.750000 0.064592 0.677782
#
# Coordination Sequence:
#
# PCOD9380744 Si02
#       6
#     8   8   8   4   4   8
#     4  11  24  42  64  96 134 171 219 273 324 394
#     4  11  24  37  58  96 133 179 223 260 323 389
#     4  11  20  36  60  91 129 173 217 260 325 395
#     4  12  24  48  74  98 130 172 220 288 337 392
#     4  10  24  44  74 100 118 178 224 264 361 382
#     4   9  20  40  59  90 127 163 218 264 320 395
#
# _framework density 20.483426999999999
#
# number of rings (size 3 to 8) (size 9 to 14) (size 15 to 20)
#    0.600    0.800    3.000    2.400    5.600    4.800 
#    0.000    2.000    0.000    0.000    0.000    0.000 
#    0.000    0.000    0.000    0.000    0.000    0.000 
#
# Total GULP energy -111531.981221 kJ/mol
# GULP energy per Si atom -5576.599061 kJ/mol
# Density = 2.043681 g / cm^3
# Si number density = 20.483427 Si / 1000 Ang^3
#
#
#
# Elastic Constant Matrix: (Units=GPa)
#
#
# Indices 1 2 3 4 5 6 
#
# 1 62.9781 6.2609 2.1642 -0.0054 -0.0003 0.0005
# 2 6.2609 95.8636 15.5957 -0.0227 -0.0008 0.0018
# 3 2.1642 15.5957 98.4773 -0.0649 -0.0035 0.0007
# 4 -0.0054 -0.0227 -0.0649 -82.3537 -0.0138 0.0303
# 5 -0.0003 -0.0008 -0.0035 -0.0138 100.4815 0.0063
# 6 0.0005 0.0018 0.0007 0.0303 0.0063 -58.6590
#
#
#
# Elastic Compliance Matrix: (Units=1/GPa)
#
#
# Indices 1 2 3 4 5 6 
#
# 1 0.015986 -0.001013 -0.000191 -0.000001 0.000000 0.000000
# 2 -0.001013 0.010772 -0.001684 -0.000002 0.000000 0.000000
# 3 -0.000191 -0.001684 0.010425 -0.000008 0.000000 0.000000
# 4 -0.000001 -0.000002 -0.000008 -0.012143 -0.000002 -0.000006
# 5 0.000000 0.000000 0.000000 -0.000002 0.009952 0.000001
# 6 0.000000 0.000000 0.000000 -0.000006 0.000001 -0.017048
#
#
# Mechanical properties :
#
#
# Convention : Reuss Voigt Hill
#
# Bulk Modulus (GPa) = 31.83919 33.92894 32.88407
# Shear Modulus (GPa) = 146.24719 7.44699 76.84709
#
# Velocity S-wave (km/s) = 8.45889 1.90880 6.13173
# Velocity P-wave (km/s) = 10.53477 4.63228 8.13755
#
# Compressibility (1/GPa) = 0.03140783
#
# Stress axis : x y z
#
# Youngs Moduli (GPa) = 62.55551 92.83714 95.91914
#
# Poissons Ratio (x) = 0.09404 0.01831
# Poissons Ratio (y) = 0.06337 0.16149
# Poissons Ratio (z) = 0.01194 0.15630
#
# Static dielectric constant tensor:
#      x y z
#    x 1.704860 0.000000 0.000000 
#    y 0.000000 1.904840 0.000020 
#    z 0.000000 0.000020 1.748840 
# 
# From -- ./inp_files/3688.got.cif
#   From: 2010.05.17/outbox.cif.g08.bks.cpg/sg46_2_cif.got.tgz:3688.got - 2010.06.03 19:58:25.
