data_PCOD9380517
_publ_section_title
;
Structure prediction by ZEFSAII (Michael W. Deem and Ramdas Pophale) SiO2 
 PCOD9380517
Probable space group: I M A 2
;
_chemical_formula_sum "Si O2"
_cell_formula_units_Z 40
_cell_length_a 28.628512
_cell_length_b 5.190010
_cell_length_c 11.411746
_cell_angle_alpha 90.000000
_cell_angle_beta 90.000000
_cell_angle_gamma 90.000000
_cell_volume 1695.583052
_symmetry_space_group_name_H-M "I M A 2"
_symmetry_group_IT_number 46
_symmetry_cell_setting 'orthorhombic'
loop_
_space_group_symop_operation_xyz
x,y,z
-x,-y,z
1/2-x,y,z
1/2+x,-y,z
1/2+x,1/2+y,1/2+z
1/2-x,1/2-y,1/2+z
-x,1/2+y,1/2+z
x,1/2-y,1/2+z
loop_
_atom_site_type_symbol
_atom_site_label
_atom_site_fract_x
_atom_site_fract_y
_atom_site_fract_z
Si Si1 0.129846 0.026516 0.627520
Si Si2 0.045231 0.376887 0.297766
Si Si3 0.071893 0.633919 0.914078
Si Si4 0.828012 0.197382 0.308227
Si Si5 0.698003 0.793358 0.949995
O O1 0.094350 0.132432 0.726206
O O2 0.158769 0.226459 0.546938
O O3 0.092537 0.896610 0.541980
O O4 0.168283 0.827475 0.680095
O O5 0.049116 0.591457 0.398310
O O6 0.000000 0.500000 0.229520
O O7 0.043513 0.104456 0.362202
O O8 0.118066 0.647718 0.834885
O O9 0.810316 0.429099 0.391413
O O10 0.804857 0.929111 0.348187
O O11 0.750000 0.784027 0.001387
#
# Coordination Sequence:
#
# PCOD9380517 Si02
#       5
#     8   8   8   8   8
#     4  10  22  42  66  90 122 172 213 257 321 387
#     4  11  24  40  62  95 129 164 211 264 318 380
#     4  10  22  41  62  87 123 162 207 262 316 377
#     4  10  22  41  62  89 125 164 213 267 320 380
#     4  11  24  40  62  95 131 168 216 270 322 382
#
# _framework density 23.590705
#
# number of rings (size 3 to 8) (size 9 to 14) (size 15 to 20)
#    0.000    1.600    0.000    6.000    0.000   17.600 
#    0.000    0.000    0.000    0.000    0.000    0.000 
#    0.000    0.000    0.000    0.000    0.000    0.000 
#
# Total GULP energy -111520.186684 kJ/mol
# GULP energy per Si atom -5576.009334 kJ/mol
# Density = 2.353701 g / cm^3
# Si number density = 23.590705 Si / 1000 Ang^3
#
#
#
# Elastic Constant Matrix: (Units=GPa)
#
#
# Indices 1 2 3 4 5 6 
#
# 1 130.0586 42.5401 10.5644 0.0000 0.0000 0.0000
# 2 42.5401 143.3560 30.6753 0.0000 0.0000 0.0000
# 3 10.5644 30.6753 72.6606 0.0000 0.0000 0.0000
# 4 0.0000 0.0000 0.0000 11.3564 0.0000 0.0000
# 5 0.0000 0.0000 0.0000 0.0000 12.5415 0.0000
# 6 0.0000 0.0000 0.0000 0.0000 0.0000 24.6859
#
#
#
# Elastic Compliance Matrix: (Units=1/GPa)
#
#
# Indices 1 2 3 4 5 6 
#
# 1 0.008518 -0.002487 -0.000188 0.000000 0.000000 0.000000
# 2 -0.002487 0.008395 -0.003182 0.000000 0.000000 0.000000
# 3 -0.000188 -0.003182 0.015134 0.000000 0.000000 0.000000
# 4 0.000000 0.000000 0.000000 0.088056 0.000000 0.000000
# 5 0.000000 0.000000 0.000000 0.000000 0.079735 0.000000
# 6 0.000000 0.000000 0.000000 0.000000 0.000000 0.040509
#
#
# Mechanical properties :
#
#
# Convention : Reuss Voigt Hill
#
# Bulk Modulus (GPa) = 49.18870 57.07055 53.12962
# Shear Modulus (GPa) = 19.31702 27.20310 23.26006
#
# Velocity S-wave (km/s) = 2.86464 3.39946 3.14345
# Velocity P-wave (km/s) = 5.64249 6.29705 5.97874
#
# Compressibility (1/GPa) = 0.02032987
#
# Stress axis : x y z
#
# Youngs Moduli (GPa) = 117.40269 119.12290 66.07852
#
# Poissons Ratio (x) = 0.29629 0.01245
# Poissons Ratio (y) = 0.29201 0.21029
# Poissons Ratio (z) = 0.02211 0.37909
#
# Static dielectric constant tensor:
#      x y z
#    x 1.975720 0.000000 0.000000 
#    y 0.000000 1.938300 0.000000 
#    z 0.000000 0.000000 2.023410 
# 
# From -- ./inp_files/13130.got.cif
#   From: 2010.05.17/outbox.cif.g08.bks.cpg/sg46_7_cif.got.tgz:13130.got - 2010.06.03 19:58:25.
