data_PCOD9380911
_publ_section_title
;
Structure prediction by ZEFSAII (Michael W. Deem and Ramdas Pophale) SiO2 
 PCOD9380911
Probable space group: I M A 2
;
_chemical_formula_sum "Si O2"
_cell_formula_units_Z 32
_cell_length_a 10.127809
_cell_length_b 7.453002
_cell_length_c 20.249468
_cell_angle_alpha 90.000000
_cell_angle_beta 90.000000
_cell_angle_gamma 90.000000
_cell_volume 1528.482103
_symmetry_space_group_name_H-M "I M A 2"
_symmetry_group_IT_number 46
_symmetry_cell_setting 'orthorhombic'
loop_
_space_group_symop_operation_xyz
x,y,z
-x,-y,z
1/2-x,y,z
1/2+x,-y,z
1/2+x,1/2+y,1/2+z
1/2-x,1/2-y,1/2+z
-x,1/2+y,1/2+z
x,1/2-y,1/2+z
loop_
_atom_site_type_symbol
_atom_site_label
_atom_site_fract_x
_atom_site_fract_y
_atom_site_fract_z
Si Si1 0.520255 0.212681 0.832050
Si Si2 0.750000 0.980290 0.005580
Si Si3 0.500000 0.000000 0.091561
Si Si4 0.405069 0.827155 0.682449
Si Si5 0.750000 0.325331 0.930529
Si Si6 0.750000 0.703473 0.891070
O O1 0.572541 0.236614 0.758103
O O2 0.623121 0.279541 0.886106
O O3 0.379172 0.301756 0.845723
O O4 0.500000 0.000000 0.840826
O O5 0.750000 0.194128 0.992522
O O6 0.750000 0.882453 0.935001
O O7 0.619235 0.932832 0.045594
O O8 0.553584 0.163601 0.135542
O O9 0.250000 0.872596 0.673971
O O10 0.500000 0.000000 0.672206
O O11 0.750000 0.537058 0.941362
#
# Coordination Sequence:
#
# PCOD9380911 Si02
#       6
#     8   4   4   8   4   4
#     4  11  22  43  70 104 149 175 225 302 360 417
#     4  12  26  48  68 102 146 192 240 292 348 426
#     4  12  28  48  76  94 150 198 238 290 350 438
#     4  11  27  46  73 110 142 189 240 298 360 425
#     4  12  24  43  69 103 139 184 238 291 348 420
#     4  12  26  41  73 107 137 190 234 291 358 418
#
# _framework density 20.935803
#
# number of rings (size 3 to 8) (size 9 to 14) (size 15 to 20)
#    0.000    0.500    5.000    2.250   10.500    2.000 
#    0.000    0.000    0.000    0.000    0.000    0.000 
#    0.000    0.000    0.000    0.000    0.000    0.000 
#
# Total GULP energy -89547.969795 kJ/mol
# GULP energy per Si atom -5596.748112 kJ/mol
# Density = 2.088815 g / cm^3
# Si number density = 20.935803 Si / 1000 Ang^3
#
#
#
# Elastic Constant Matrix: (Units=GPa)
#
#
# Indices 1 2 3 4 5 6 
#
# 1 191.2525 15.6728 42.3163 0.0000 0.0000 0.0000
# 2 15.6728 68.6857 13.2914 0.0000 0.0000 0.0000
# 3 42.3163 13.2914 52.6075 0.0000 0.0000 0.0000
# 4 0.0000 0.0000 0.0000 31.1168 0.0000 0.0000
# 5 0.0000 0.0000 0.0000 0.0000 35.2304 0.0000
# 6 0.0000 0.0000 0.0000 0.0000 0.0000 136.2805
#
#
#
# Elastic Compliance Matrix: (Units=1/GPa)
#
#
# Indices 1 2 3 4 5 6 
#
# 1 0.006376 -0.000486 -0.005006 0.000000 0.000000 0.000000
# 2 -0.000486 0.015345 -0.003486 0.000000 0.000000 0.000000
# 3 -0.005006 -0.003486 0.023916 0.000000 0.000000 0.000000
# 4 0.000000 0.000000 0.000000 0.032137 0.000000 0.000000
# 5 0.000000 0.000000 0.000000 0.000000 0.028385 0.000000
# 6 0.000000 0.000000 0.000000 0.000000 0.000000 0.007338
#
#
# Mechanical properties :
#
#
# Convention : Reuss Voigt Hill
#
# Bulk Modulus (GPa) = 36.12598 50.56741 43.34670
# Shear Modulus (GPa) = 35.54192 56.60989 46.07591
#
# Velocity S-wave (km/s) = 4.12474 5.20562 4.69638
# Velocity P-wave (km/s) = 6.32279 7.76771 7.08219
#
# Compressibility (1/GPa) = 0.02768091
#
# Stress axis : x y z
#
# Youngs Moduli (GPa) = 156.83441 65.16975 41.81290
#
# Poissons Ratio (x) = 0.03169 0.20931
# Poissons Ratio (y) = 0.07626 0.14575
# Poissons Ratio (z) = 0.78511 0.22716
#
# Static dielectric constant tensor:
#      x y z
#    x 1.729560 0.000000 0.000000 
#    y 0.000000 1.756230 0.000000 
#    z 0.000000 0.000000 1.701530 
# 
# From -- ./inp_files/20696.got.cif
#   From: 2010.05.17/outbox.cif.g08.bks.cpg/sg46_11_cif.got.tgz:20696.got - 2010.06.03 19:58:25.
