data_PCOD9380412
_publ_section_title
;
Structure prediction by ZEFSAII (Michael W. Deem and Ramdas Pophale) SiO2 
 PCOD9380412
Probable space group: I M A 2
;
_chemical_formula_sum "Si O2"
_cell_formula_units_Z 56
_cell_length_a 24.329128
_cell_length_b 20.951324
_cell_length_c 5.372788
_cell_angle_alpha 90.000000
_cell_angle_beta 90.000000
_cell_angle_gamma 90.000000
_cell_volume 2738.657491
_symmetry_space_group_name_H-M "I M A 2"
_symmetry_group_IT_number 46
_symmetry_cell_setting 'orthorhombic'
loop_
_space_group_symop_operation_xyz
x,y,z
-x,-y,z
1/2-x,y,z
1/2+x,-y,z
1/2+x,1/2+y,1/2+z
1/2-x,1/2-y,1/2+z
-x,1/2+y,1/2+z
x,1/2-y,1/2+z
loop_
_atom_site_type_symbol
_atom_site_label
_atom_site_fract_x
_atom_site_fract_y
_atom_site_fract_z
Si Si1 0.688567 0.500399 0.186420
Si Si2 0.407833 0.076245 0.918580
Si Si3 0.404751 0.970752 0.304530
Si Si4 0.583651 0.210549 0.716600
Si Si5 0.658502 0.119058 0.984226
Si Si6 0.250000 0.792224 0.200569
Si Si7 0.500000 0.000000 0.617783
Si Si8 0.958412 0.791031 0.797921
O O1 0.750000 0.519375 0.114784
O O2 0.651320 0.555399 0.309982
O O3 0.690863 0.441187 0.376268
O O4 0.650543 0.474738 0.964813
O O5 0.420340 0.149716 0.874119
O O6 0.456475 0.039477 0.774796
O O7 0.410721 0.041598 0.186247
O O8 0.460158 0.956700 0.451384
O O9 0.393656 0.914638 0.112264
O O10 0.588826 0.236425 0.436639
O O11 0.632496 0.161746 0.767941
O O12 0.522095 0.186070 0.776561
O O13 0.696845 0.162936 0.154879
O O14 0.250000 0.758243 0.469067
O O15 0.950385 0.759067 0.525875
#
# Coordination Sequence:
#
# PCOD9380412 Si02
#       8
#     8   8   8   8   8   4   4   8
#     4  10  23  42  64  95 124 169 219 282 344 389
#     4  10  23  41  63 100 128 169 220 274 336 410
#     4  10  24  36  65  94 127 174 208 288 335 401
#     4  10  23  39  57  88 126 174 221 266 317 390
#     4  11  24  39  62  90 128 174 230 283 331 386
#     4  12  28  44  66  92 132 192 244 294 326 382
#     4  10  22  38  62 100 134 166 218 274 342 400
#     4  10  24  41  67  95 133 175 209 263 330 410
#
# _framework density 20.447975
#
# number of rings (size 3 to 8) (size 9 to 14) (size 15 to 20)
#    0.000    1.714    0.714    1.286   17.000    1.714 
#    0.000    0.000    0.000    0.857    0.000    0.000 
#    0.000    0.000    0.000    0.000    0.000    0.000 
#
# Total GULP energy -156353.465437 kJ/mol
# GULP energy per Si atom -5584.052337 kJ/mol
# Density = 2.040143 g / cm^3
# Si number density = 20.447975 Si / 1000 Ang^3
#
#
#
# Elastic Constant Matrix: (Units=GPa)
#
#
# Indices 1 2 3 4 5 6 
#
# 1 125.7031 31.4103 13.9741 0.0000 0.0000 0.0000
# 2 31.4103 72.9981 3.2896 0.0000 0.0000 0.0000
# 3 13.9741 3.2896 60.7021 0.0000 0.0000 0.0000
# 4 0.0000 0.0000 0.0000 9.0994 0.0000 0.0000
# 5 0.0000 0.0000 0.0000 0.0000 5.9630 0.0000
# 6 0.0000 0.0000 0.0000 0.0000 0.0000 -8.3631
#
#
#
# Elastic Compliance Matrix: (Units=1/GPa)
#
#
# Indices 1 2 3 4 5 6 
#
# 1 0.009126 -0.003841 -0.001893 0.000000 0.000000 0.000000
# 2 -0.003841 0.015349 0.000052 0.000000 0.000000 0.000000
# 3 -0.001893 0.000052 0.016907 0.000000 0.000000 0.000000
# 4 0.000000 0.000000 0.000000 0.109897 0.000000 0.000000
# 5 0.000000 0.000000 0.000000 0.000000 0.167701 0.000000
# 6 0.000000 0.000000 0.000000 0.000000 0.000000 -0.119573
#
#
# Mechanical properties :
#
#
# Convention : Reuss Voigt Hill
#
# Bulk Modulus (GPa) = 33.31239 39.63904 36.47571
# Shear Modulus (GPa) = 22.64742 15.38849 19.01795
#
# Velocity S-wave (km/s) = 3.33162 2.74627 3.05301
# Velocity P-wave (km/s) = 5.57909 5.42986 5.50498
#
# Compressibility (1/GPa) = 0.03001886
#
# Stress axis : x y z
#
# Youngs Moduli (GPa) = 109.58301 65.14876 59.14796
#
# Poissons Ratio (x) = 0.25026 0.11194
# Poissons Ratio (y) = 0.42094 -0.00310
# Poissons Ratio (z) = 0.20740 -0.00342
#
# Static dielectric constant tensor:
#      x y z
#    x 1.756300 0.000000 0.000000 
#    y 0.000000 1.732550 0.000000 
#    z 0.000000 0.000000 1.810030 
# 
# From -- ./inp_files/2390.got.cif
#   From: 2010.05.17/outbox.cif.g08.bks.cpg/sg46_2_cif.got.tgz:2390.got - 2010.06.03 19:58:25.
