data_PCOD9380349
_publ_section_title
;
Structure prediction by ZEFSAII (Michael W. Deem and Ramdas Pophale) SiO2 
 PCOD9380349
Probable space group: I M A 2
;
_chemical_formula_sum "Si O2"
_cell_formula_units_Z 32
_cell_length_a 21.869306
_cell_length_b 6.990151
_cell_length_c 9.570421
_cell_angle_alpha 90.000000
_cell_angle_beta 90.000000
_cell_angle_gamma 90.000000
_cell_volume 1463.027877
_symmetry_space_group_name_H-M "I M A 2"
_symmetry_group_IT_number 46
_symmetry_cell_setting 'orthorhombic'
loop_
_space_group_symop_operation_xyz
x,y,z
-x,-y,z
1/2-x,y,z
1/2+x,-y,z
1/2+x,1/2+y,1/2+z
1/2-x,1/2-y,1/2+z
-x,1/2+y,1/2+z
x,1/2-y,1/2+z
loop_
_atom_site_type_symbol
_atom_site_label
_atom_site_fract_x
_atom_site_fract_y
_atom_site_fract_z
Si Si1 0.087044 0.676378 0.246660
Si Si2 0.494467 0.770393 0.001966
Si Si3 0.321574 0.007093 0.168369
Si Si4 0.125683 0.291698 0.391587
O O1 0.058182 0.758896 0.388325
O O2 0.111604 0.467951 0.286484
O O3 0.138364 0.815287 0.184193
O O4 0.030141 0.679239 0.142008
O O5 0.560352 0.711088 0.944368
O O6 0.500000 0.000000 0.025030
O O7 0.250000 0.964490 0.162618
O O8 0.337217 0.136826 0.303444
O O9 0.341469 0.120667 0.028120
#
# Coordination Sequence:
#
# PCOD9380349 Si02
#       4
#     8   8   8   8
#     4  11  23  46  68 104 137 184 229 294 357 416
#     4  10  21  42  69 103 137 170 234 289 358 409
#     4  12  27  47  69 102 145 193 241 281 345 431
#     4  11  26  46  71 105 140 186 239 297 356 417
#
# _framework density 21.872446
#
# number of rings (size 3 to 8) (size 9 to 14) (size 15 to 20)
#    0.000    1.000    5.000    2.250    3.500    2.000 
#    0.000    0.000    0.000    0.000    0.000    0.000 
#    0.000    0.000    0.000    0.000    0.000    0.000 
#
# Total GULP energy -89596.052001 kJ/mol
# GULP energy per Si atom -5599.753250 kJ/mol
# Density = 2.182266 g / cm^3
# Si number density = 21.872446 Si / 1000 Ang^3
#
#
#
# Elastic Constant Matrix: (Units=GPa)
#
#
# Indices 1 2 3 4 5 6 
#
# 1 135.2038 53.5117 24.7693 0.0000 0.0000 0.0000
# 2 53.5117 93.6487 29.2031 0.0000 0.0000 0.0000
# 3 24.7693 29.2031 86.9541 0.0000 0.0000 0.0000
# 4 0.0000 0.0000 0.0000 36.5740 0.0000 0.0000
# 5 0.0000 0.0000 0.0000 0.0000 28.5015 0.0000
# 6 0.0000 0.0000 0.0000 0.0000 0.0000 30.5014
#
#
#
# Elastic Compliance Matrix: (Units=1/GPa)
#
#
# Indices 1 2 3 4 5 6 
#
# 1 0.009635 -0.005194 -0.001000 0.000000 0.000000 0.000000
# 2 -0.005194 0.014727 -0.003467 0.000000 0.000000 0.000000
# 3 -0.001000 -0.003467 0.012949 0.000000 0.000000 0.000000
# 4 0.000000 0.000000 0.000000 0.027342 0.000000 0.000000
# 5 0.000000 0.000000 0.000000 0.000000 0.035086 0.000000
# 6 0.000000 0.000000 0.000000 0.000000 0.000000 0.032785
#
#
# Mechanical properties :
#
#
# Convention : Reuss Voigt Hill
#
# Bulk Modulus (GPa) = 55.58501 58.97498 57.27999
# Shear Modulus (GPa) = 31.67721 33.00356 32.34038
#
# Velocity S-wave (km/s) = 3.80974 3.88868 3.84942
# Velocity P-wave (km/s) = 6.69482 6.86907 6.78251
#
# Compressibility (1/GPa) = 0.01799046
#
# Stress axis : x y z
#
# Youngs Moduli (GPa) = 103.78767 67.90309 77.22311
#
# Poissons Ratio (x) = 0.35266 0.07725
# Poissons Ratio (y) = 0.53903 0.26770
# Poissons Ratio (z) = 0.10382 0.23539
#
# Static dielectric constant tensor:
#      x y z
#    x 1.746510 0.000000 0.000000 
#    y 0.000000 1.825870 0.000000 
#    z 0.000000 0.000000 1.795420 
# 
# From -- ./inp_files/7093.got.cif
#   From: 2010.05.17/outbox.cif.g08.bks.cpg/sg46_4_cif.got.tgz:7093.got - 2010.06.03 19:58:25.
