data_PCOD9380081
_publ_section_title
;
Structure prediction by ZEFSAII (Michael W. Deem and Ramdas Pophale) SiO2 
 PCOD9380081
Probable space group: I M A 2
;
_chemical_formula_sum "Si O2"
_cell_formula_units_Z 60
_cell_length_a 27.640907
_cell_length_b 19.828159
_cell_length_c 5.061444
_cell_angle_alpha 90.000000
_cell_angle_beta 90.000000
_cell_angle_gamma 90.000000
_cell_volume 2774.017003
_symmetry_space_group_name_H-M "I M A 2"
_symmetry_group_IT_number 46
_symmetry_cell_setting 'orthorhombic'
loop_
_space_group_symop_operation_xyz
x,y,z
-x,-y,z
1/2-x,y,z
1/2+x,-y,z
1/2+x,1/2+y,1/2+z
1/2-x,1/2-y,1/2+z
-x,1/2+y,1/2+z
x,1/2-y,1/2+z
loop_
_atom_site_type_symbol
_atom_site_label
_atom_site_fract_x
_atom_site_fract_y
_atom_site_fract_z
Si Si1 0.502155 0.702829 0.896500
Si Si2 0.696061 0.510837 0.521274
Si Si3 0.643425 0.295193 0.445473
Si Si4 0.750000 0.206987 0.829618
Si Si5 0.100951 0.934016 0.854412
Si Si6 0.616129 0.792705 0.353705
Si Si7 0.541622 0.053656 0.357011
Si Si8 0.804159 0.899326 0.521268
O O1 0.491094 0.751931 0.651639
O O2 0.559949 0.687767 0.890064
O O3 0.476289 0.630809 0.886694
O O4 0.750000 0.481371 0.481414
O O5 0.651742 0.464130 0.446001
O O6 0.692836 0.537697 0.819605
O O7 0.692321 0.573935 0.319421
O O8 0.638522 0.266285 0.739183
O O9 0.698135 0.323418 0.401039
O O10 0.606335 0.353630 0.379383
O O11 0.750000 0.226489 0.520990
O O12 0.085424 0.954810 0.562763
O O13 0.060484 0.957289 0.061328
O O14 0.623637 0.729755 0.552323
O O15 0.653428 0.849213 0.442920
O O16 0.500000 0.000000 0.418664
O O17 0.750000 0.869679 0.484601
#
# Coordination Sequence:
#
# PCOD9380081 Si02
#       8
#     8   8   8   4   8   8   8   8
#     4  10  23  43  68  92 127 171 215 266 326 390
#     4  10  23  41  63  93 128 170 213 252 311 382
#     4  10  21  38  61  92 127 163 205 256 311 380
#     4   8  16  32  54  84 124 164 196 240 304 362
#     4  12  26  42  68  96 122 171 212 259 330 372
#     4  10  21  37  61  96 122 164 211 253 318 381
#     4  12  28  47  65 100 132 167 220 276 332 380
#     4  10  21  39  62  91 130 172 205 258 317 370
#
# _framework density 21.629283000000001
#
# number of rings (size 3 to 8) (size 9 to 14) (size 15 to 20)
#    0.000    1.600    0.000    3.600    4.667    3.733 
#    0.000    0.000    0.000    0.000    0.000    0.000 
#    0.000    0.000    0.000    0.000    0.000    0.000 
#
# Total GULP energy -167755.048598 kJ/mol
# GULP energy per Si atom -5591.834953 kJ/mol
# Density = 2.158005 g / cm^3
# Si number density = 21.629283 Si / 1000 Ang^3
#
#
#
# Elastic Constant Matrix: (Units=GPa)
#
#
# Indices 1 2 3 4 5 6 
#
# 1 75.8175 36.2512 1.2047 0.0000 0.0000 0.0000
# 2 36.2512 39.9653 -3.9915 0.0000 0.0000 0.0000
# 3 1.2047 -3.9915 76.6018 0.0000 0.0000 0.0000
# 4 0.0000 0.0000 0.0000 15.8469 0.0000 0.0000
# 5 0.0000 0.0000 0.0000 0.0000 30.3972 0.0000
# 6 0.0000 0.0000 0.0000 0.0000 0.0000 50.4524
#
#
#
# Elastic Compliance Matrix: (Units=1/GPa)
#
#
# Indices 1 2 3 4 5 6 
#
# 1 0.023458 -0.021426 -0.001485 0.000000 0.000000 0.000000
# 2 -0.021426 0.044723 0.002667 0.000000 0.000000 0.000000
# 3 -0.001485 0.002667 0.013217 0.000000 0.000000 0.000000
# 4 0.000000 0.000000 0.000000 0.063104 0.000000 0.000000
# 5 0.000000 0.000000 0.000000 0.000000 0.032898 0.000000
# 6 0.000000 0.000000 0.000000 0.000000 0.000000 0.019821
#
#
# Mechanical properties :
#
#
# Convention : Reuss Voigt Hill
#
# Bulk Modulus (GPa) = 24.44424 28.81259 26.62842
# Shear Modulus (GPa) = 19.89299 29.93399 24.91349
#
# Velocity S-wave (km/s) = 3.03599 3.72419 3.39756
# Velocity P-wave (km/s) = 4.85959 5.64295 5.26585
#
# Compressibility (1/GPa) = 0.04090943
#
# Stress axis : x y z
#
# Youngs Moduli (GPa) = 42.62968 22.35980 75.66088
#
# Poissons Ratio (x) = 0.47909 0.11238
# Poissons Ratio (y) = 0.91339 -0.20182
# Poissons Ratio (z) = 0.06332 -0.05964
#
# Static dielectric constant tensor:
#      x y z
#    x 1.797530 0.000000 0.000000 
#    y 0.000000 1.751210 0.000000 
#    z 0.000000 0.000000 1.742080 
# 
# From -- ./inp_files/2585.got.cif
#   From: 2010.05.17/outbox.cif.g08.bks.cpg/sg46_2_cif.got.tgz:2585.got - 2010.06.03 19:58:25.
