data_PCOD9380852
_publ_section_title
;
Structure prediction by ZEFSAII (Michael W. Deem and Ramdas Pophale) SiO2 
 PCOD9380852
Probable space group: I M A 2
;
_chemical_formula_sum "Si O2"
_cell_formula_units_Z 64
_cell_length_a 21.201701
_cell_length_b 15.216190
_cell_length_c 8.156559
_cell_angle_alpha 90.000000
_cell_angle_beta 90.000000
_cell_angle_gamma 90.000000
_cell_volume 2631.380246
_symmetry_space_group_name_H-M "I M A 2"
_symmetry_group_IT_number 46
_symmetry_cell_setting 'orthorhombic'
loop_
_space_group_symop_operation_xyz
x,y,z
-x,-y,z
1/2-x,y,z
1/2+x,-y,z
1/2+x,1/2+y,1/2+z
1/2-x,1/2-y,1/2+z
-x,1/2+y,1/2+z
x,1/2-y,1/2+z
loop_
_atom_site_type_symbol
_atom_site_label
_atom_site_fract_x
_atom_site_fract_y
_atom_site_fract_z
Si Si1 0.498431 0.673573 0.197520
Si Si2 0.823596 0.711309 0.660821
Si Si3 0.368416 0.451207 0.832940
Si Si4 0.621929 0.875557 0.840651
Si Si5 0.497783 0.136143 0.308734
Si Si6 0.644352 0.190034 0.822546
Si Si7 0.640138 0.373906 0.688355
Si Si8 0.820369 0.478962 0.160418
O O1 0.548486 0.614641 0.295409
O O2 0.523791 0.772157 0.227592
O O3 0.429473 0.676876 0.276841
O O4 0.494468 0.650880 0.005314
O O5 0.750000 0.715028 0.616790
O O6 0.833728 0.641606 0.808880
O O7 0.847842 0.807151 0.710568
O O8 0.862791 0.668361 0.513030
O O9 0.441117 0.431849 0.787972
O O10 0.336297 0.528867 0.728417
O O11 0.365780 0.489583 0.015745
O O12 0.656446 0.967998 0.819322
O O13 0.565002 0.118672 0.225777
O O14 0.661580 0.292005 0.800758
O O15 0.677699 0.123626 0.698544
O O16 0.653720 0.157912 0.006305
O O17 0.750000 0.505880 0.115372
#
# Coordination Sequence:
#
# PCOD9380852 Si02
#       8
#     8   8   8   8   8   8   8   8
#     4  11  21  40  67  98 140 178 227 277 347 412
#     4  12  25  41  63  95 137 188 234 282 340 415
#     4  12  24  42  66  98 138 178 234 281 347 416
#     4  12  24  42  65  96 137 182 231 285 343 416
#     4  11  21  39  63 101 140 185 223 279 341 423
#     4  11  25  46  72 100 137 176 228 294 357 420
#     4  11  24  44  71 100 136 175 222 291 358 421
#     4  12  26  48  70  99 136 184 239 292 348 419
#
# _framework density 24.321836999999999
#
# number of rings (size 3 to 8) (size 9 to 14) (size 15 to 20)
#    0.000    0.500    2.500    8.625    1.750    0.500 
#    2.250    3.750    0.000    0.000    0.000    0.000 
#    0.000    0.000    0.000    0.000    0.000    0.000 
#
# Total GULP energy -179229.765884 kJ/mol
# GULP energy per Si atom -5600.930184 kJ/mol
# Density = 2.426648 g / cm^3
# Si number density = 24.321837 Si / 1000 Ang^3
#
#
#
# Elastic Constant Matrix: (Units=GPa)
#
#
# Indices 1 2 3 4 5 6 
#
# 1 57.3820 -10.3627 -20.5281 0.0000 0.0000 0.0000
# 2 -10.3627 102.4268 -3.4482 0.0000 0.0000 0.0000
# 3 -20.5281 -3.4482 88.4080 0.0000 0.0000 0.0000
# 4 0.0000 0.0000 0.0000 37.8241 0.0000 0.0000
# 5 0.0000 0.0000 0.0000 0.0000 9.7392 0.0000
# 6 0.0000 0.0000 0.0000 0.0000 0.0000 21.1161
#
#
#
# Elastic Compliance Matrix: (Units=1/GPa)
#
#
# Indices 1 2 3 4 5 6 
#
# 1 0.019456 0.002123 0.004601 0.000000 0.000000 0.000000
# 2 0.002123 0.010008 0.000883 0.000000 0.000000 0.000000
# 3 0.004601 0.000883 0.012414 0.000000 0.000000 0.000000
# 4 0.000000 0.000000 0.000000 0.026438 0.000000 0.000000
# 5 0.000000 0.000000 0.000000 0.000000 0.102677 0.000000
# 6 0.000000 0.000000 0.000000 0.000000 0.000000 0.047357
#
#
# Mechanical properties :
#
#
# Convention : Reuss Voigt Hill
#
# Bulk Modulus (GPa) = 17.51551 19.94874 18.73212
# Shear Modulus (GPa) = 22.50559 32.57295 27.53927
#
# Velocity S-wave (km/s) = 3.04521 3.66354 3.36860
# Velocity P-wave (km/s) = 4.42511 5.11030 4.78000
#
# Compressibility (1/GPa) = 0.05709226
#
# Stress axis : x y z
#
# Youngs Moduli (GPa) = 51.39712 99.92379 80.55498
#
# Poissons Ratio (x) = -0.21217 -0.37060
# Poissons Ratio (y) = -0.10913 -0.07116
# Poissons Ratio (z) = -0.23645 -0.08827
#
# Static dielectric constant tensor:
#      x y z
#    x 1.933270 0.000000 0.000000 
#    y 0.000000 1.962420 0.000000 
#    z 0.000000 0.000000 1.948420 
# 
# From -- ./inp_files/7980.got.cif
#   From: 2010.05.17/outbox.cif.g08.bks.cpg/sg46_4_cif.got.tgz:7980.got - 2010.06.03 19:58:25.
