data_PCOD9380571
_publ_section_title
;
Structure prediction by ZEFSAII (Michael W. Deem and Ramdas Pophale) SiO2 
 PCOD9380571
Probable space group: I M A 2
;
_chemical_formula_sum "Si O2"
_cell_formula_units_Z 44
_cell_length_a 23.411974
_cell_length_b 4.966289
_cell_length_c 15.148962
_cell_angle_alpha 90.000000
_cell_angle_beta 90.000000
_cell_angle_gamma 90.000000
_cell_volume 1761.379340
_symmetry_space_group_name_H-M "I M A 2"
_symmetry_group_IT_number 46
_symmetry_cell_setting 'orthorhombic'
loop_
_space_group_symop_operation_xyz
x,y,z
-x,-y,z
1/2-x,y,z
1/2+x,-y,z
1/2+x,1/2+y,1/2+z
1/2-x,1/2-y,1/2+z
-x,1/2+y,1/2+z
x,1/2-y,1/2+z
loop_
_atom_site_type_symbol
_atom_site_label
_atom_site_fract_x
_atom_site_fract_y
_atom_site_fract_z
Si Si1 0.315621 0.714939 0.667580
Si Si2 0.931636 0.525478 0.908095
Si Si3 0.126382 0.263362 0.240065
Si Si4 0.334111 0.811902 0.957885
Si Si5 0.750000 0.806737 0.420920
Si Si6 0.039894 0.252818 0.586743
O O1 0.250000 0.807406 0.666732
O O2 0.354019 0.936692 0.716341
O O3 0.333222 0.673194 0.565313
O O4 0.299839 0.067612 0.921305
O O5 0.904425 0.694096 0.829978
O O6 0.000000 0.500000 0.895799
O O7 0.897086 0.246614 0.919500
O O8 0.923854 0.666128 0.002621
O O9 0.179233 0.062917 0.221453
O O10 0.080373 0.177235 0.166641
O O11 0.299042 0.542837 0.932984
O O12 0.000000 0.500000 0.562975
O O13 0.000000 0.000000 0.611047
#
# Coordination Sequence:
#
# PCOD9380571 Si02
#       6
#     8   8   8   8   4   8
#     4  12  25  47  76 109 150 192 256 317 380 443
#     4  11  28  50  74 114 158 202 254 311 378 458
#     4  12  27  48  74 108 154 197 254 308 377 451
#     4  11  23  45  78 109 147 197 243 309 380 443
#     4  10  22  42  76 110 144 190 250 308 374 440
#     4  11  25  45  76 107 143 198 249 301 372 449
#
# _framework density 24.980423999999999
#
# number of rings (size 3 to 8) (size 9 to 14) (size 15 to 20)
#    0.000    0.727    3.636    3.273    2.545    5.091 
#    9.818    0.000    0.000    0.000    0.000    0.000 
#    0.000    0.000    0.000    0.000    0.000    0.000 
#
# Total GULP energy -122909.912693 kJ/mol
# GULP energy per Si atom -5586.814213 kJ/mol
# Density = 2.492357 g / cm^3
# Si number density = 24.980424 Si / 1000 Ang^3
#
#
#
# Elastic Constant Matrix: (Units=GPa)
#
#
# Indices 1 2 3 4 5 6 
#
# 1 131.5707 17.2369 34.3188 0.0000 0.0000 0.0000
# 2 17.2369 152.4663 -19.9640 0.0000 0.0000 0.0000
# 3 34.3188 -19.9640 97.5182 0.0000 0.0000 0.0000
# 4 0.0000 0.0000 0.0000 16.5607 0.0000 0.0000
# 5 0.0000 0.0000 0.0000 0.0000 -0.7234 0.0000
# 6 0.0000 0.0000 0.0000 0.0000 0.0000 52.1443
#
#
#
# Elastic Compliance Matrix: (Units=1/GPa)
#
#
# Indices 1 2 3 4 5 6 
#
# 1 0.008656 -0.001415 -0.003336 0.000000 0.000000 0.000000
# 2 -0.001415 0.006971 0.001925 0.000000 0.000000 0.000000
# 3 -0.003336 0.001925 0.011823 0.000000 0.000000 0.000000
# 4 0.000000 0.000000 0.000000 0.060384 0.000000 0.000000
# 5 0.000000 0.000000 0.000000 0.000000 -1.382314 0.000000
# 6 0.000000 0.000000 0.000000 0.000000 0.000000 0.019178
#
#
# Mechanical properties :
#
#
# Convention : Reuss Voigt Hill
#
# Bulk Modulus (GPa) = 45.87748 49.41539 47.64643
# Shear Modulus (GPa) = -3.96076 36.92722 16.48323
#
# Velocity S-wave (km/s) = -1.26055 3.84897 2.57153
# Velocity P-wave (km/s) = 4.03566 6.29105 5.28507
#
# Compressibility (1/GPa) = 0.02179719
#
# Stress axis : x y z
#
# Youngs Moduli (GPa) = 115.52581 143.45274 84.58338
#
# Poissons Ratio (x) = 0.20305 0.28217
# Poissons Ratio (y) = 0.16352 -0.16284
# Poissons Ratio (z) = 0.38540 -0.27618
#
# Static dielectric constant tensor:
#      x y z
#    x 1.970980 0.000000 0.000000 
#    y 0.000000 1.949170 0.000000 
#    z 0.000000 0.000000 1.976990 
# 
# From -- ./inp_files/17504.got.cif
#   From: 2010.05.17/outbox.cif.g08.bks.cpg/sg46_9_cif.got.tgz:17504.got - 2010.06.03 19:58:25.
