data_PCOD9380930
_publ_section_title
;
Structure prediction by ZEFSAII (Michael W. Deem and Ramdas Pophale) SiO2 
 PCOD9380930
Probable space group: I M A 2
;
_chemical_formula_sum "Si O2"
_cell_formula_units_Z 40
_cell_length_a 11.070573
_cell_length_b 12.568179
_cell_length_c 14.584440
_cell_angle_alpha 90.000000
_cell_angle_beta 90.000000
_cell_angle_gamma 90.000000
_cell_volume 2029.234398
_symmetry_space_group_name_H-M "I M A 2"
_symmetry_group_IT_number 46
_symmetry_cell_setting 'orthorhombic'
loop_
_space_group_symop_operation_xyz
x,y,z
-x,-y,z
1/2-x,y,z
1/2+x,-y,z
1/2+x,1/2+y,1/2+z
1/2-x,1/2-y,1/2+z
-x,1/2+y,1/2+z
x,1/2-y,1/2+z
loop_
_atom_site_type_symbol
_atom_site_label
_atom_site_fract_x
_atom_site_fract_y
_atom_site_fract_z
Si Si1 0.000000 0.000000 0.716610
Si Si2 0.997018 0.126194 0.022727
Si Si3 0.888300 0.314545 0.335675
Si Si4 0.004483 0.625206 0.731466
Si Si5 0.250000 0.421221 0.151248
Si Si6 0.750000 0.774437 0.279474
Si Si7 0.750000 0.756488 0.995615
O O1 0.027041 0.897866 0.780911
O O2 0.877413 0.982920 0.658174
O O3 0.130741 0.174606 0.014425
O O4 0.918046 0.177762 0.942901
O O5 0.953467 0.142669 0.126694
O O6 0.000000 0.000000 0.006401
O O7 0.750000 0.344746 0.319005
O O8 0.915712 0.197106 0.298239
O O9 0.868793 0.668707 0.741676
O O10 0.000000 0.500000 0.751082
O O11 0.250000 0.344897 0.240726
O O12 0.250000 0.344461 0.063115
O O13 0.750000 0.775618 0.389133
#
# Coordination Sequence:
#
# PCOD9380930 Si02
#       7
#     4   8   8   8   4   4   4
#     4  12  22  44  72 106 142 180 222 296 350 412
#     4  11  23  40  70 101 127 173 234 289 341 404
#     4  12  25  41  67 104 138 174 228 289 348 407
#     4  11  25  45  68  95 137 180 226 281 345 416
#     4  12  24  44  73 104 145 179 232 292 356 413
#     4  12  22  44  71  92 131 183 228 278 344 423
#     4  12  22  44  70  96 136 184 234 282 348 434
#
# _framework density 19.711867999999999
#
# number of rings (size 3 to 8) (size 9 to 14) (size 15 to 20)
#    0.000    0.400    8.000    0.000    2.800    0.800 
#    1.800    0.000    0.000    0.000    0.000    0.000 
#    0.000    0.000    0.000    0.000    0.000    0.000 
#
# Total GULP energy -111820.750865 kJ/mol
# GULP energy per Si atom -5591.037543 kJ/mol
# Density = 1.966700 g / cm^3
# Si number density = 19.711868 Si / 1000 Ang^3
#
#
#
# Elastic Constant Matrix: (Units=GPa)
#
#
# Indices 1 2 3 4 5 6 
#
# 1 93.9206 23.2671 14.8766 0.0000 0.0000 0.0000
# 2 23.2671 91.2127 58.5361 0.0000 0.0000 0.0000
# 3 14.8766 58.5361 143.1926 0.0000 0.0000 0.0000
# 4 0.0000 0.0000 0.0000 13.5060 0.0000 0.0000
# 5 0.0000 0.0000 0.0000 0.0000 21.8819 0.0000
# 6 0.0000 0.0000 0.0000 0.0000 0.0000 30.6674
#
#
#
# Elastic Compliance Matrix: (Units=1/GPa)
#
#
# Indices 1 2 3 4 5 6 
#
# 1 0.011366 -0.002903 0.000006 0.000000 0.000000 0.000000
# 2 -0.002903 0.015604 -0.006077 0.000000 0.000000 0.000000
# 3 0.000006 -0.006077 0.009467 0.000000 0.000000 0.000000
# 4 0.000000 0.000000 0.000000 0.074041 0.000000 0.000000
# 5 0.000000 0.000000 0.000000 0.000000 0.045700 0.000000
# 6 0.000000 0.000000 0.000000 0.000000 0.000000 0.032608
#
#
# Mechanical properties :
#
#
# Convention : Reuss Voigt Hill
#
# Bulk Modulus (GPa) = 54.08833 57.96505 56.02669
# Shear Modulus (GPa) = 23.48553 28.65413 26.06983
#
# Velocity S-wave (km/s) = 3.45547 3.81681 3.64063
# Velocity P-wave (km/s) = 6.58934 6.99243 6.79388
#
# Compressibility (1/GPa) = 0.01848828
#
# Stress axis : x y z
#
# Youngs Moduli (GPa) = 87.98552 64.08634 105.62682
#
# Poissons Ratio (x) = 0.18604 -0.00063
# Poissons Ratio (y) = 0.25542 0.64191
# Poissons Ratio (z) = -0.00052 0.38946
#
# Static dielectric constant tensor:
#      x y z
#    x 1.688110 0.000000 0.000000 
#    y 0.000000 1.674270 0.000000 
#    z 0.000000 0.000000 1.690990 
# 
# From -- ./inp_files/15065.got.cif
#   From: 2010.05.17/outbox.cif.g08.bks.cpg/sg46_8_cif.got.tgz:15065.got - 2010.06.03 19:58:25.
