data_PCOD9380209
_publ_section_title
;
Structure prediction by ZEFSAII (Michael W. Deem and Ramdas Pophale) SiO2 
 PCOD9380209
Probable space group: I M A 2
;
_chemical_formula_sum "Si O2"
_cell_formula_units_Z 40
_cell_length_a 7.705305
_cell_length_b 19.272233
_cell_length_c 11.204569
_cell_angle_alpha 90.000000
_cell_angle_beta 90.000000
_cell_angle_gamma 90.000000
_cell_volume 1663.860942
_symmetry_space_group_name_H-M "I M A 2"
_symmetry_group_IT_number 46
_symmetry_cell_setting 'orthorhombic'
loop_
_space_group_symop_operation_xyz
x,y,z
-x,-y,z
1/2-x,y,z
1/2+x,-y,z
1/2+x,1/2+y,1/2+z
1/2-x,1/2-y,1/2+z
-x,1/2+y,1/2+z
x,1/2-y,1/2+z
loop_
_atom_site_type_symbol
_atom_site_label
_atom_site_fract_x
_atom_site_fract_y
_atom_site_fract_z
Si Si1 0.457666 0.580314 0.952840
Si Si2 0.948176 0.580992 0.480510
Si Si3 0.448329 0.779649 0.070167
Si Si4 0.542778 0.418184 0.214072
Si Si5 0.963505 0.286953 0.827449
O O1 0.500000 0.500000 0.933724
O O2 0.250000 0.584138 0.959368
O O3 0.513844 0.633189 0.851181
O O4 0.519978 0.606297 0.084012
O O5 0.750000 0.587068 0.516803
O O6 0.000000 0.500000 0.489566
O O7 0.052650 0.636850 0.556910
O O8 0.967269 0.603073 0.341139
O O9 0.250000 0.718041 0.822924
O O10 0.525960 0.761425 0.198817
O O11 0.524988 0.751787 0.946644
O O12 0.500000 0.500000 0.208043
O O13 0.750000 0.407514 0.222944
O O14 0.750000 0.253575 0.571514
#
# Coordination Sequence:
#
# PCOD9380209 Si02
#       5
#     8   8   8   8   8
#     4   9  18  33  55  86 118 152 194 242 291 345
#     4  11  22  37  58  86 119 154 195 244 297 350
#     4  10  21  39  62  87 116 156 199 242 291 348
#     4   9  16  28  51  81 116 150 188 232 283 340
#     4   9  20  37  61  88 116 154 199 240 287 349
#
# _framework density 24.040472000000001
#
# number of rings (size 3 to 8) (size 9 to 14) (size 15 to 20)
#    0.000    2.400    0.000    3.600    2.800    1.600 
#    0.000    5.000    0.000    0.000    0.000    0.000 
#    0.000    0.000    0.000    0.000    0.000    0.000 
#
# Total GULP energy -111662.982624 kJ/mol
# GULP energy per Si atom -5583.149131 kJ/mol
# Density = 2.398576 g / cm^3
# Si number density = 24.040472 Si / 1000 Ang^3
#
#
#
# Elastic Constant Matrix: (Units=GPa)
#
#
# Indices 1 2 3 4 5 6 
#
# 1 55.9086 -2.5636 -5.8178 0.0000 0.0000 0.0000
# 2 -2.5636 105.6053 61.4874 -0.0002 0.0000 0.0000
# 3 -5.8178 61.4874 181.6252 -0.0001 0.0000 0.0000
# 4 0.0000 -0.0002 -0.0001 38.9587 0.0000 0.0000
# 5 0.0000 0.0000 0.0000 0.0000 4.5735 0.0000
# 6 0.0000 0.0000 0.0000 0.0000 0.0000 12.2538
#
#
#
# Elastic Compliance Matrix: (Units=1/GPa)
#
#
# Indices 1 2 3 4 5 6 
#
# 1 0.017947 0.000126 0.000532 0.000000 0.000000 0.000000
# 2 0.000126 0.011795 -0.003989 0.000000 0.000000 0.000000
# 3 0.000532 -0.003989 0.006873 0.000000 0.000000 0.000000
# 4 0.000000 0.000000 0.000000 0.025668 0.000000 0.000000
# 5 0.000000 0.000000 0.000000 0.000000 0.218650 0.000000
# 6 0.000000 0.000000 0.000000 0.000000 0.000000 0.081608
#
#
# Mechanical properties :
#
#
# Convention : Reuss Voigt Hill
#
# Bulk Modulus (GPa) = 33.38477 49.92791 41.65634
# Shear Modulus (GPa) = 13.18608 30.49273 21.83940
#
# Velocity S-wave (km/s) = 2.34454 3.56531 3.01731
# Velocity P-wave (km/s) = 4.60936 6.14508 5.43177
#
# Compressibility (1/GPa) = 0.02995378
#
# Stress axis : x y z
#
# Youngs Moduli (GPa) = 55.71812 84.78298 145.48993
#
# Poissons Ratio (x) = -0.01066 -0.07745
# Poissons Ratio (y) = -0.00701 0.58036
# Poissons Ratio (z) = -0.02966 0.33820
#
# Static dielectric constant tensor:
#      x y z
#    x 1.887010 0.000000 0.000000 
#    y 0.000000 1.941600 0.000000 
#    z 0.000000 0.000000 1.937180 
# 
# From -- ./inp_files/9047.got.cif
#   From: 2010.05.17/outbox.cif.g08.bks.cpg/sg46_5_cif.got.tgz:9047.got - 2010.06.03 19:58:25.
