data_PCOD9380056
_publ_section_title
;
Structure prediction by ZEFSAII (Michael W. Deem and Ramdas Pophale) SiO2 
 PCOD9380056
Probable space group: I M A 2
;
_chemical_formula_sum "Si O2"
_cell_formula_units_Z 64
_cell_length_a 18.102984
_cell_length_b 14.638563
_cell_length_c 12.161723
_cell_angle_alpha 90.000000
_cell_angle_beta 90.000000
_cell_angle_gamma 90.000000
_cell_volume 3222.876927
_symmetry_space_group_name_H-M "I M A 2"
_symmetry_group_IT_number 46
_symmetry_cell_setting 'orthorhombic'
loop_
_space_group_symop_operation_xyz
x,y,z
-x,-y,z
1/2-x,y,z
1/2+x,-y,z
1/2+x,1/2+y,1/2+z
1/2-x,1/2-y,1/2+z
-x,1/2+y,1/2+z
x,1/2-y,1/2+z
loop_
_atom_site_type_symbol
_atom_site_label
_atom_site_fract_x
_atom_site_fract_y
_atom_site_fract_z
Si Si1 0.837392 0.864491 0.902450
Si Si2 0.832869 0.613872 0.157746
Si Si3 0.436743 0.291743 0.997627
Si Si4 0.930681 0.044769 0.889862
Si Si5 0.560017 0.169020 0.084712
Si Si6 0.669772 0.098529 0.719932
Si Si7 0.835551 0.192192 0.484789
Si Si8 0.036448 0.896429 0.332972
O O1 0.750000 0.867419 0.923939
O O2 0.847768 0.837112 0.773931
O O3 0.880539 0.790197 0.972550
O O4 0.872730 0.964920 0.918423
O O5 0.750000 0.637524 0.119416
O O6 0.832751 0.508722 0.193550
O O7 0.892266 0.633245 0.065608
O O8 0.473605 0.332259 0.887975
O O9 0.501758 0.250984 0.072760
O O10 0.893233 0.116960 0.807921
O O11 0.962290 0.091119 0.998307
O O12 0.000000 0.000000 0.828433
O O13 0.557960 0.130352 0.207767
O O14 0.633621 0.209076 0.025285
O O15 0.750000 0.121503 0.767747
O O16 0.662687 0.143504 0.602967
O O17 0.750000 0.194502 0.445906
O O18 0.890573 0.134004 0.405131
O O19 0.000000 0.000000 0.338291
#
# Coordination Sequence:
#
# PCOD9380056 Si02
#       8
#     8   8   8   8   8   8   8   8
#     4  10  21  37  59  90 120 157 209 260 311 375
#     4   9  18  34  57  87 122 155 200 260 312 365
#     4  11  21  37  62  89 122 169 211 261 313 373
#     4  11  21  37  61  87 122 161 200 259 319 374
#     4  11  25  40  61  90 129 169 211 263 318 383
#     4   9  20  38  62  90 118 152 203 260 311 369
#     4  10  24  43  66  94 128 169 218 270 321 383
#     4  11  25  43  65  93 133 176 217 265 327 400
#
# _framework density 19.858032999999999
#
# number of rings (size 3 to 8) (size 9 to 14) (size 15 to 20)
#    0.000    1.750    1.250    3.375    3.500    6.000 
#    0.000    0.625    0.000    0.000    0.000    0.000 
#    0.000    0.000    0.000    0.000    0.000    0.000 
#
# Total GULP energy -178314.926188 kJ/mol
# GULP energy per Si atom -5572.341443 kJ/mol
# Density = 1.981284 g / cm^3
# Si number density = 19.858033 Si / 1000 Ang^3
#
#
#
# Elastic Constant Matrix: (Units=GPa)
#
#
# Indices 1 2 3 4 5 6 
#
# 1 95.5733 8.1523 32.6123 0.0000 0.0000 0.0000
# 2 8.1523 44.4726 10.7349 0.0000 0.0000 0.0000
# 3 32.6123 10.7349 76.5586 0.0000 0.0000 0.0000
# 4 0.0000 0.0000 0.0000 23.9877 0.0000 0.0000
# 5 0.0000 0.0000 0.0000 0.0000 16.9610 0.0000
# 6 0.0000 0.0000 0.0000 0.0000 0.0000 24.3761
#
#
#
# Elastic Compliance Matrix: (Units=1/GPa)
#
#
# Indices 1 2 3 4 5 6 
#
# 1 0.012288 -0.001024 -0.005091 0.000000 0.000000 0.000000
# 2 -0.001024 0.023359 -0.002839 0.000000 0.000000 0.000000
# 3 -0.005091 -0.002839 0.015629 0.000000 0.000000 0.000000
# 4 0.000000 0.000000 0.000000 0.041688 0.000000 0.000000
# 5 0.000000 0.000000 0.000000 0.000000 0.058959 0.000000
# 6 0.000000 0.000000 0.000000 0.000000 0.000000 0.041024
#
#
# Mechanical properties :
#
#
# Convention : Reuss Voigt Hill
#
# Bulk Modulus (GPa) = 29.96916 35.51149 32.74032
# Shear Modulus (GPa) = 22.52503 24.07196 23.29850
#
# Velocity S-wave (km/s) = 3.37160 3.48545 3.42899
# Velocity P-wave (km/s) = 5.50285 5.84117 5.67453
#
# Compressibility (1/GPa) = 0.03336764
#
# Stress axis : x y z
#
# Youngs Moduli (GPa) = 81.38296 42.81051 63.98552
#
# Poissons Ratio (x) = 0.04382 0.32573
# Poissons Ratio (y) = 0.08331 0.18167
# Poissons Ratio (z) = 0.41430 0.12155
#
# Static dielectric constant tensor:
#      x y z
#    x 1.764820 0.000000 0.000000 
#    y 0.000000 1.861670 0.000000 
#    z 0.000000 0.000000 1.727880 
# 
# From -- ./inp_files/11964.got.cif
#   From: 2010.05.17/outbox.cif.g08.bks.cpg/sg46_6_cif.got.tgz:11964.got - 2010.06.03 19:58:25.
