data_PCOD9380859
_publ_section_title
;
Structure prediction by ZEFSAII (Michael W. Deem and Ramdas Pophale) SiO2 
 PCOD9380859
Probable space group: I M A 2
;
_chemical_formula_sum "Si O2"
_cell_formula_units_Z 56
_cell_length_a 19.275461
_cell_length_b 13.909486
_cell_length_c 9.311752
_cell_angle_alpha 90.000000
_cell_angle_beta 90.000000
_cell_angle_gamma 90.000000
_cell_volume 2496.590170
_symmetry_space_group_name_H-M "I M A 2"
_symmetry_group_IT_number 46
_symmetry_cell_setting 'orthorhombic'
loop_
_space_group_symop_operation_xyz
x,y,z
-x,-y,z
1/2-x,y,z
1/2+x,-y,z
1/2+x,1/2+y,1/2+z
1/2-x,1/2-y,1/2+z
-x,1/2+y,1/2+z
x,1/2-y,1/2+z
loop_
_atom_site_type_symbol
_atom_site_label
_atom_site_fract_x
_atom_site_fract_y
_atom_site_fract_z
Si Si1 0.040231 0.095853 0.861250
Si Si2 0.333458 0.847336 0.067038
Si Si3 0.091426 0.734848 0.306435
Si Si4 0.393654 0.335287 0.119561
Si Si5 0.891373 0.557187 0.645830
Si Si6 0.176693 0.194704 0.330705
Si Si7 0.998697 0.895473 0.403201
O O1 0.089152 0.075689 0.723522
O O2 0.980281 0.172271 0.814583
O O3 0.087910 0.114435 0.001112
O O4 0.000000 0.000000 0.904517
O O5 0.250000 0.851646 0.089068
O O6 0.371536 0.763342 0.158672
O O7 0.371290 0.948495 0.105897
O O8 0.353766 0.820212 0.905021
O O9 0.068044 0.840157 0.365227
O O10 0.378728 0.259430 0.245499
O O11 0.335925 0.332137 0.996327
O O12 0.459406 0.326944 0.015077
O O13 0.826810 0.600143 0.733201
O O14 0.953345 0.579382 0.760256
O O15 0.250000 0.245986 0.319481
O O16 0.000000 0.000000 0.474462
#
# Coordination Sequence:
#
# PCOD9380859 Si02
#       7
#     8   8   8   8   8   8   8
#     4  12  23  43  71 106 139 165 227 305 360 404
#     4  12  26  46  66  97 142 195 237 271 335 431
#     4  12  24  42  72 101 137 181 229 288 352 407
#     4  11  24  38  66 101 138 174 221 283 350 413
#     4  11  22  44  72 103 132 182 232 292 352 408
#     4  11  23  43  66  95 140 187 228 270 333 423
#     4  11  21  41  70 105 140 167 227 299 357 402
#
# _framework density 22.430592999999998
#
# number of rings (size 3 to 8) (size 9 to 14) (size 15 to 20)
#    0.000    0.571    2.857    7.286    0.000    0.000 
#    0.000    2.143    0.000    0.000    0.000    0.000 
#    0.000    0.000    0.000    0.000    0.000    0.000 
#
# Total GULP energy -155976.116680 kJ/mol
# GULP energy per Si atom -5570.575596 kJ/mol
# Density = 2.237954 g / cm^3
# Si number density = 22.430593 Si / 1000 Ang^3
#
#
#
# Elastic Constant Matrix: (Units=GPa)
#
#
# Indices 1 2 3 4 5 6 
#
# 1 98.8067 19.5923 46.5612 0.0000 0.0000 0.0000
# 2 19.5923 73.5057 22.2558 0.0000 0.0000 0.0000
# 3 46.5612 22.2558 163.4337 0.0000 0.0000 0.0000
# 4 0.0000 0.0000 0.0000 33.0113 0.0000 0.0000
# 5 0.0000 0.0000 0.0000 0.0000 -15.0663 0.0000
# 6 0.0000 0.0000 0.0000 0.0000 0.0000 15.6519
#
#
#
# Elastic Compliance Matrix: (Units=1/GPa)
#
#
# Indices 1 2 3 4 5 6 
#
# 1 0.012041 -0.002264 -0.003122 0.000000 0.000000 0.000000
# 2 -0.002264 0.014615 -0.001345 0.000000 0.000000 0.000000
# 3 -0.003122 -0.001345 0.007191 0.000000 0.000000 0.000000
# 4 0.000000 0.000000 0.000000 0.030293 0.000000 0.000000
# 5 0.000000 0.000000 0.000000 0.000000 -0.066373 0.000000
# 6 0.000000 0.000000 0.000000 0.000000 0.000000 0.063890
#
#
# Mechanical properties :
#
#
# Convention : Reuss Voigt Hill
#
# Bulk Modulus (GPa) = 49.05650 56.95163 53.00406
# Shear Modulus (GPa) = 61.03909 23.20850 42.12379
#
# Velocity S-wave (km/s) = 5.22221 3.22013 4.33825
# Velocity P-wave (km/s) = 7.63412 6.26665 6.98394
#
# Compressibility (1/GPa) = 0.02038466
#
# Stress axis : x y z
#
# Youngs Moduli (GPa) = 83.04991 68.42208 139.05636
#
# Poissons Ratio (x) = 0.15492 0.43414
# Poissons Ratio (y) = 0.18804 0.18706
# Poissons Ratio (z) = 0.25929 0.09204
#
# Static dielectric constant tensor:
#      x y z
#    x 1.856400 0.000000 0.000000 
#    y 0.000000 1.961860 0.000000 
#    z 0.000000 0.000000 1.823320 
# 
# From -- ./inp_files/7410.got.cif
#   From: 2010.05.17/outbox.cif.g08.bks.cpg/sg46_4_cif.got.tgz:7410.got - 2010.06.03 19:58:25.
