data_PCOD9380748
_publ_section_title
;
Structure prediction by ZEFSAII (Michael W. Deem and Ramdas Pophale) SiO2 
 PCOD9380748
Probable space group: I M A 2
;
_chemical_formula_sum "Si O2"
_cell_formula_units_Z 48
_cell_length_a 24.667712
_cell_length_b 5.604531
_cell_length_c 16.878573
_cell_angle_alpha 90.000000
_cell_angle_beta 90.000000
_cell_angle_gamma 90.000000
_cell_volume 2333.478863
_symmetry_space_group_name_H-M "I M A 2"
_symmetry_group_IT_number 46
_symmetry_cell_setting 'orthorhombic'
loop_
_space_group_symop_operation_xyz
x,y,z
-x,-y,z
1/2-x,y,z
1/2+x,-y,z
1/2+x,1/2+y,1/2+z
1/2-x,1/2-y,1/2+z
-x,1/2+y,1/2+z
x,1/2-y,1/2+z
loop_
_atom_site_type_symbol
_atom_site_label
_atom_site_fract_x
_atom_site_fract_y
_atom_site_fract_z
Si Si1 0.564477 0.010247 0.273780
Si Si2 0.250000 0.601611 0.427147
Si Si3 0.158918 0.948880 0.386719
Si Si4 0.839560 0.914113 0.571115
Si Si5 0.750000 0.525390 0.596220
Si Si6 0.250000 0.227479 0.314398
Si Si7 0.935503 0.989658 0.682825
Si Si8 0.250000 0.628036 0.181713
O O1 0.598885 0.056755 0.352882
O O2 0.576622 0.746001 0.237218
O O3 0.500000 0.000000 0.287717
O O4 0.577126 0.247146 0.220043
O O5 0.250000 0.644501 0.519826
O O6 0.250000 0.328177 0.405708
O O7 0.195286 0.710546 0.391288
O O8 0.159798 0.036947 0.477539
O O9 0.193018 0.094410 0.320580
O O10 0.805130 0.673269 0.585122
O O11 0.899538 0.938075 0.605597
O O12 0.803435 0.080570 0.629221
O O13 0.750000 0.413960 0.684121
O O14 0.250000 0.448274 0.254245
O O15 0.000000 0.000000 0.667561
#
# Coordination Sequence:
#
# PCOD9380748 Si02
#       8
#     8   4   8   8   4   4   8   4
#     4  10  24  45  67  94 131 172 224 281 333 392
#     4  11  21  38  62  90 133 171 210 268 329 393
#     4  11  23  39  64  94 130 176 213 273 334 397
#     4  11  23  39  64  94 132 171 215 272 332 395
#     4  11  21  40  61  94 137 169 213 271 334 396
#     4  11  23  39  58  92 131 166 212 259 322 397
#     4  10  24  45  67  95 130 172 224 282 333 391
#     4  11  23  37  59  94 127 170 211 258 323 396
#
# _framework density 20.570145
#
# number of rings (size 3 to 8) (size 9 to 14) (size 15 to 20)
#    0.000    1.333    3.333    2.000    7.000    3.333 
#    0.000    0.000    0.000    6.000    0.000    0.000 
#    0.000    0.000    0.000    0.000    0.000    0.000 
#
# Total GULP energy -133601.965997 kJ/mol
# GULP energy per Si atom -5566.748583 kJ/mol
# Density = 2.052333 g / cm^3
# Si number density = 20.570145 Si / 1000 Ang^3
#
#
#
# Elastic Constant Matrix: (Units=GPa)
#
#
# Indices 1 2 3 4 5 6 
#
# 1 79.0115 26.0963 53.1613 0.0000 0.0000 0.0000
# 2 26.0963 71.4465 23.6083 0.0000 0.0000 0.0000
# 3 53.1613 23.6083 103.9307 0.0000 0.0000 0.0000
# 4 0.0000 0.0000 0.0000 29.8147 0.0000 0.0000
# 5 0.0000 0.0000 0.0000 0.0000 29.2822 0.0000
# 6 0.0000 0.0000 0.0000 0.0000 0.0000 54.6502
#
#
#
# Elastic Compliance Matrix: (Units=1/GPa)
#
#
# Indices 1 2 3 4 5 6 
#
# 1 0.020473 -0.004344 -0.009485 0.000000 0.000000 0.000000
# 2 -0.004344 0.016054 -0.001425 0.000000 0.000000 0.000000
# 3 -0.009485 -0.001425 0.014797 0.000000 0.000000 0.000000
# 4 0.000000 0.000000 0.000000 0.033540 0.000000 0.000000
# 5 0.000000 0.000000 0.000000 0.000000 0.034150 0.000000
# 6 0.000000 0.000000 0.000000 0.000000 0.000000 0.018298
#
#
# Mechanical properties :
#
#
# Convention : Reuss Voigt Hill
#
# Bulk Modulus (GPa) = 48.03922 51.12450 49.58186
# Shear Modulus (GPa) = 28.61061 32.85095 30.73078
#
# Velocity S-wave (km/s) = 3.73350 4.00061 3.86936
# Velocity P-wave (km/s) = 6.47996 6.80055 6.64219
#
# Compressibility (1/GPa) = 0.02081632
#
# Stress axis : x y z
#
# Youngs Moduli (GPa) = 48.84444 62.29030 67.57957
#
# Poissons Ratio (x) = 0.27057 0.64103
# Poissons Ratio (y) = 0.21216 0.09629
# Poissons Ratio (z) = 0.46331 0.08876
#
# Static dielectric constant tensor:
#      x y z
#    x 1.773420 0.000000 0.000000 
#    y 0.000000 1.939310 0.000000 
#    z 0.000000 0.000000 1.736260 
# 
# From -- ./inp_files/20366.got.cif
#   From: 2010.05.17/outbox.cif.g08.bks.cpg/sg46_11_cif.got.tgz:20366.got - 2010.06.03 19:58:25.
