data_PCOD9380521
_publ_section_title
;
Structure prediction by ZEFSAII (Michael W. Deem and Ramdas Pophale) SiO2 
 PCOD9380521
Probable space group: I M A 2
;
_chemical_formula_sum "Si O2"
_cell_formula_units_Z 56
_cell_length_a 21.500006
_cell_length_b 6.857263
_cell_length_c 16.004786
_cell_angle_alpha 90.000000
_cell_angle_beta 90.000000
_cell_angle_gamma 90.000000
_cell_volume 2359.604736
_symmetry_space_group_name_H-M "I M A 2"
_symmetry_group_IT_number 46
_symmetry_cell_setting 'orthorhombic'
loop_
_space_group_symop_operation_xyz
x,y,z
-x,-y,z
1/2-x,y,z
1/2+x,-y,z
1/2+x,1/2+y,1/2+z
1/2-x,1/2-y,1/2+z
-x,1/2+y,1/2+z
x,1/2-y,1/2+z
loop_
_atom_site_type_symbol
_atom_site_label
_atom_site_fract_x
_atom_site_fract_y
_atom_site_fract_z
Si Si1 0.181929 0.605146 0.680650
Si Si2 0.445786 0.360713 0.409706
Si Si3 0.180509 0.361975 0.319766
Si Si4 0.181899 0.435359 0.128562
Si Si5 0.436486 0.588843 0.578934
Si Si6 0.081460 0.507881 0.000586
Si Si7 0.681066 0.182399 0.372200
O O1 0.250000 0.531323 0.654588
O O2 0.181333 0.834115 0.653285
O O3 0.121586 0.530915 0.634544
O O4 0.176547 0.586379 0.780416
O O5 0.500000 0.500000 0.368740
O O6 0.385769 0.301238 0.356520
O O7 0.427799 0.496858 0.487531
O O8 0.461151 0.152998 0.453402
O O9 0.250000 0.289403 0.345736
O O10 0.176776 0.340788 0.219925
O O11 0.179826 0.589167 0.348839
O O12 0.250000 0.393054 0.092783
O O13 0.128713 0.392383 0.062208
O O14 0.500000 0.500000 0.613904
O O15 0.442241 0.820718 0.562683
O O16 0.126534 0.613819 0.932875
O O17 0.750000 0.144025 0.408560
#
# Coordination Sequence:
#
# PCOD9380521 Si02
#       7
#     8   8   8   8   8   8   8
#     4   8  16  34  62  96 129 165 205 260 319 379
#     4  11  25  42  63  91 128 167 221 263 320 378
#     4   9  18  38  65  95 133 172 207 262 320 380
#     4   8  16  33  63  97 131 163 203 256 325 385
#     4  10  22  41  64  89 127 167 217 260 320 380
#     4  11  21  39  66  93 122 171 215 265 321 376
#     4   9  17  34  64  98 132 163 207 262 319 379
#
# _framework density 23.732786999999998
#
# number of rings (size 3 to 8) (size 9 to 14) (size 15 to 20)
#    0.000    2.571    1.429    2.143    0.000    4.571 
#    2.571    4.286    9.429    0.000    0.000    0.000 
#    0.000    0.000    0.000    0.000    0.000    0.000 
#
# Total GULP energy -156223.678691 kJ/mol
# GULP energy per Si atom -5579.417096 kJ/mol
# Density = 2.367877 g / cm^3
# Si number density = 23.732787 Si / 1000 Ang^3
#
#
#
# Elastic Constant Matrix: (Units=GPa)
#
#
# Indices 1 2 3 4 5 6 
#
# 1 154.4126 30.6962 37.7402 0.0000 0.0000 0.0000
# 2 30.6962 127.8814 2.7658 0.0000 0.0000 0.0000
# 3 37.7402 2.7658 34.5829 0.0000 0.0000 0.0000
# 4 0.0000 0.0000 0.0000 26.6353 0.0000 0.0000
# 5 0.0000 0.0000 0.0000 0.0000 -59.6058 0.0000
# 6 0.0000 0.0000 0.0000 0.0000 0.0000 13.3708
#
#
#
# Elastic Compliance Matrix: (Units=1/GPa)
#
#
# Indices 1 2 3 4 5 6 
#
# 1 0.009326 -0.002022 -0.010016 0.000000 0.000000 0.000000
# 2 -0.002022 0.008272 0.001545 0.000000 0.000000 0.000000
# 3 -0.010016 0.001545 0.039723 0.000000 0.000000 0.000000
# 4 0.000000 0.000000 0.000000 0.037544 0.000000 0.000000
# 5 0.000000 0.000000 0.000000 0.000000 -0.016777 0.000000
# 6 0.000000 0.000000 0.000000 0.000000 0.000000 0.074790
#
#
# Mechanical properties :
#
#
# Convention : Reuss Voigt Hill
#
# Bulk Modulus (GPa) = 27.52172 51.03124 39.27648
# Shear Modulus (GPa) = 26.88538 12.45836 19.67187
#
# Velocity S-wave (km/s) = 3.36942 2.29365 2.88217
# Velocity P-wave (km/s) = 5.17291 5.34449 5.25940
#
# Compressibility (1/GPa) = 0.03633494
#
# Stress axis : x y z
#
# Youngs Moduli (GPa) = 107.22615 120.89442 25.17456
#
# Poissons Ratio (x) = 0.24445 0.25214
# Poissons Ratio (y) = 0.21681 -0.03890
# Poissons Ratio (z) = 1.07396 -0.18679
#
# Static dielectric constant tensor:
#      x y z
#    x 2.217140 0.000000 0.000000 
#    y 0.000000 2.038510 0.000000 
#    z 0.000000 0.000000 1.836260 
# 
# From -- ./inp_files/16821.got.cif
#   From: 2010.05.17/outbox.cif.g08.bks.cpg/sg46_9_cif.got.tgz:16821.got - 2010.06.03 19:58:25.
