data_PCOD9380507
_publ_section_title
;
Structure prediction by ZEFSAII (Michael W. Deem and Ramdas Pophale) SiO2 
 PCOD9380507
Probable space group: I M A 2
;
_chemical_formula_sum "Si O2"
_cell_formula_units_Z 40
_cell_length_a 17.891035
_cell_length_b 5.103232
_cell_length_c 19.254270
_cell_angle_alpha 90.000000
_cell_angle_beta 90.000000
_cell_angle_gamma 90.000000
_cell_volume 1757.955330
_symmetry_space_group_name_H-M "I M A 2"
_symmetry_group_IT_number 46
_symmetry_cell_setting 'orthorhombic'
loop_
_space_group_symop_operation_xyz
x,y,z
-x,-y,z
1/2-x,y,z
1/2+x,-y,z
1/2+x,1/2+y,1/2+z
1/2-x,1/2-y,1/2+z
-x,1/2+y,1/2+z
x,1/2-y,1/2+z
loop_
_atom_site_type_symbol
_atom_site_label
_atom_site_fract_x
_atom_site_fract_y
_atom_site_fract_z
Si Si1 0.948614 0.254012 0.191980
Si Si2 0.163825 0.480420 0.595241
Si Si3 0.340496 0.067110 0.933944
Si Si4 0.664490 0.852215 0.729562
Si Si5 0.840622 0.438133 0.847489
O O1 0.896566 0.168723 0.128943
O O2 0.890697 0.406324 0.243422
O O3 0.000000 0.500000 0.172291
O O4 0.000000 0.000000 0.211041
O O5 0.250000 0.579644 0.598497
O O6 0.143080 0.439543 0.515594
O O7 0.162484 0.235087 0.648886
O O8 0.250000 0.066026 0.930152
O O9 0.366931 0.827807 0.885615
O O10 0.366085 0.337836 0.901361
O O11 0.750000 0.926857 0.746720
O O12 0.644403 0.595343 0.774730
O O13 0.750000 0.418231 0.846860
#
# Coordination Sequence:
#
# PCOD9380507 Si02
#       5
#     8   8   8   8   8
#     4  12  25  42  61  92 131 174 218 274 335 392
#     4  10  22  40  67  99 128 164 221 280 329 390
#     4   9  19  34  56  90 130 163 199 260 330 385
#     4  10  22  40  67  99 131 172 227 282 328 390
#     4   9  19  34  56  90 129 164 202 259 329 385
#
# _framework density 22.753708
#
# number of rings (size 3 to 8) (size 9 to 14) (size 15 to 20)
#    0.000    2.000    2.000    0.600    5.600    0.000 
#    0.000    0.000    0.000    4.800    0.000    0.000 
#    0.000    0.000    0.000    0.000    0.000    0.000 
#
# Total GULP energy -111497.901463 kJ/mol
# GULP energy per Si atom -5574.895073 kJ/mol
# Density = 2.270192 g / cm^3
# Si number density = 22.753708 Si / 1000 Ang^3
#
#
#
# Elastic Constant Matrix: (Units=GPa)
#
#
# Indices 1 2 3 4 5 6 
#
# 1 84.0073 22.1591 18.1505 0.0000 0.0000 0.0000
# 2 22.1591 121.1546 31.0545 0.0000 0.0000 0.0000
# 3 18.1505 31.0545 164.1715 0.0000 0.0000 0.0000
# 4 0.0000 0.0000 0.0000 25.7373 0.0000 0.0000
# 5 0.0000 0.0000 0.0000 0.0000 -14.2529 0.0000
# 6 0.0000 0.0000 0.0000 0.0000 0.0000 -322.4608
#
#
#
# Elastic Compliance Matrix: (Units=1/GPa)
#
#
# Indices 1 2 3 4 5 6 
#
# 1 0.012665 -0.002057 -0.001011 0.000000 0.000000 0.000000
# 2 -0.002057 0.009009 -0.001477 0.000000 0.000000 0.000000
# 3 -0.001011 -0.001477 0.006482 0.000000 0.000000 0.000000
# 4 0.000000 0.000000 0.000000 0.038854 0.000000 0.000000
# 5 0.000000 0.000000 0.000000 0.000000 -0.070161 0.000000
# 6 0.000000 0.000000 0.000000 0.000000 0.000000 -0.003101
#
#
# Mechanical properties :
#
#
# Convention : Reuss Voigt Hill
#
# Bulk Modulus (GPa) = 52.44951 56.89574 54.67262
# Shear Modulus (GPa) = 543.91995 -42.33066 250.79464
#
# Velocity S-wave (km/s) = 15.47791 -4.31790 10.51003
# Velocity P-wave (km/s) = 18.50735 0.44759 13.09050
#
# Compressibility (1/GPa) = 0.01906595
#
# Stress axis : x y z
#
# Youngs Moduli (GPa) = 78.95886 111.00407 154.26652
#
# Poissons Ratio (x) = 0.22836 0.15597
# Poissons Ratio (y) = 0.16244 0.22779
# Poissons Ratio (z) = 0.07983 0.16391
#
# Static dielectric constant tensor:
#      x y z
#    x 1.986250 0.000000 0.000000 
#    y 0.000000 1.930560 0.000000 
#    z 0.000000 0.000000 1.924630 
# 
# From -- ./inp_files/20102.got.cif
#   From: 2010.05.17/outbox.cif.g08.bks.cpg/sg46_11_cif.got.tgz:20102.got - 2010.06.03 19:58:25.
