data_PCOD9380598
_publ_section_title
;
Structure prediction by ZEFSAII (Michael W. Deem and Ramdas Pophale) SiO2 
 PCOD9380598
Probable space group: I M A 2
;
_chemical_formula_sum "Si O2"
_cell_formula_units_Z 56
_cell_length_a 19.063514
_cell_length_b 12.969937
_cell_length_c 9.284492
_cell_angle_alpha 90.000000
_cell_angle_beta 90.000000
_cell_angle_gamma 90.000000
_cell_volume 2295.614560
_symmetry_space_group_name_H-M "I M A 2"
_symmetry_group_IT_number 46
_symmetry_cell_setting 'orthorhombic'
loop_
_space_group_symop_operation_xyz
x,y,z
-x,-y,z
1/2-x,y,z
1/2+x,-y,z
1/2+x,1/2+y,1/2+z
1/2-x,1/2-y,1/2+z
-x,1/2+y,1/2+z
x,1/2-y,1/2+z
loop_
_atom_site_type_symbol
_atom_site_label
_atom_site_fract_x
_atom_site_fract_y
_atom_site_fract_z
Si Si1 0.330687 0.046663 0.272430
Si Si2 0.669972 0.740557 0.449139
Si Si3 0.572316 0.038536 0.033235
Si Si4 0.173144 0.847677 0.815254
Si Si5 0.112593 0.941770 0.554831
Si Si6 0.588845 0.847455 0.708931
Si Si7 0.550974 0.250726 0.683076
O O1 0.250000 0.019802 0.232790
O O2 0.329398 0.159797 0.343635
O O3 0.385233 0.035269 0.141815
O O4 0.359248 0.974475 0.401124
O O5 0.750000 0.717956 0.493573
O O6 0.629470 0.415377 0.426039
O O7 0.638131 0.650941 0.349506
O O8 0.544055 0.136242 0.123960
O O9 0.500000 0.000000 0.961890
O O10 0.624601 0.722699 0.084718
O O11 0.250000 0.819655 0.865966
O O12 0.174312 0.909565 0.664789
O O13 0.121647 0.754061 0.776850
O O14 0.063997 0.839948 0.563396
O O15 0.079259 0.041759 0.633702
O O16 0.518075 0.791182 0.759434
#
# Coordination Sequence:
#
# PCOD9380598 Si02
#       7
#     8   8   8   8   8   8   8
#     4  10  22  44  67  94 134 183 233 293 358 431
#     4  10  23  40  65 100 135 179 237 291 362 434
#     4  12  27  44  70 106 146 181 236 299 369 428
#     4  10  25  46  70 102 139 185 241 301 365 433
#     4   9  23  41  70  98 133 179 240 288 355 428
#     4  11  22  41  69  94 139 183 230 297 355 432
#     4  10  26  42  68 100 133 183 233 287 356 422
#
# _framework density 24.394338999999999
#
# number of rings (size 3 to 8) (size 9 to 14) (size 15 to 20)
#    0.857    0.857    0.000    2.571    6.000    6.286 
#    0.000    0.000    0.000    0.000    0.000    0.000 
#    0.000    0.000    0.000    0.000    0.000    0.000 
#
# Total GULP energy -156546.180406 kJ/mol
# GULP energy per Si atom -5590.935015 kJ/mol
# Density = 2.433882 g / cm^3
# Si number density = 24.394339 Si / 1000 Ang^3
#
#
#
# Elastic Constant Matrix: (Units=GPa)
#
#
# Indices 1 2 3 4 5 6 
#
# 1 142.9320 2.4103 5.7342 0.0000 0.0000 0.0000
# 2 2.4103 63.0600 -5.5162 0.0000 0.0000 0.0000
# 3 5.7342 -5.5162 71.7167 0.0000 0.0000 0.0000
# 4 0.0000 0.0000 0.0000 40.3109 0.0000 0.0000
# 5 0.0000 0.0000 0.0000 0.0000 16.2383 0.0000
# 6 0.0000 0.0000 0.0000 0.0000 0.0000 20.3730
#
#
#
# Elastic Compliance Matrix: (Units=1/GPa)
#
#
# Indices 1 2 3 4 5 6 
#
# 1 0.007025 -0.000320 -0.000586 0.000000 0.000000 0.000000
# 2 -0.000320 0.015980 0.001255 0.000000 0.000000 0.000000
# 3 -0.000586 0.001255 0.014087 0.000000 0.000000 0.000000
# 4 0.000000 0.000000 0.000000 0.024807 0.000000 0.000000
# 5 0.000000 0.000000 0.000000 0.000000 0.061583 0.000000
# 6 0.000000 0.000000 0.000000 0.000000 0.000000 0.049085
#
#
# Mechanical properties :
#
#
# Convention : Reuss Voigt Hill
#
# Bulk Modulus (GPa) = 26.46243 31.44059 28.95151
# Shear Modulus (GPa) = 27.10524 33.72314 30.41419
#
# Velocity S-wave (km/s) = 3.33698 3.72212 3.53480
# Velocity P-wave (km/s) = 5.07134 5.60256 5.34356
#
# Compressibility (1/GPa) = 0.03778943
#
# Stress axis : x y z
#
# Youngs Moduli (GPa) = 142.34375 62.57860 70.98671
#
# Poissons Ratio (x) = 0.02001 0.04162
# Poissons Ratio (y) = 0.04552 -0.08907
# Poissons Ratio (z) = 0.08346 -0.07852
#
# Static dielectric constant tensor:
#      x y z
#    x 1.918560 0.000000 0.000000 
#    y 0.000000 1.949320 0.000000 
#    z 0.000000 0.000000 1.938070 
# 
# From -- ./inp_files/12414.got.cif
#   From: 2010.05.17/outbox.cif.g08.bks.cpg/sg46_7_cif.got.tgz:12414.got - 2010.06.03 19:58:25.
