data_PCOD9380955
_publ_section_title
;
Structure prediction by ZEFSAII (Michael W. Deem and Ramdas Pophale) SiO2 
 PCOD9380955
Probable space group: I M A 2
;
_chemical_formula_sum "Si O2"
_cell_formula_units_Z 60
_cell_length_a 17.303711
_cell_length_b 11.117346
_cell_length_c 16.025157
_cell_angle_alpha 90.000000
_cell_angle_beta 90.000000
_cell_angle_gamma 90.000000
_cell_volume 3082.780962
_symmetry_space_group_name_H-M "I M A 2"
_symmetry_group_IT_number 46
_symmetry_cell_setting 'orthorhombic'
loop_
_space_group_symop_operation_xyz
x,y,z
-x,-y,z
1/2-x,y,z
1/2+x,-y,z
1/2+x,1/2+y,1/2+z
1/2-x,1/2-y,1/2+z
-x,1/2+y,1/2+z
x,1/2-y,1/2+z
loop_
_atom_site_type_symbol
_atom_site_label
_atom_site_fract_x
_atom_site_fract_y
_atom_site_fract_z
Si Si1 0.571224 0.822954 0.246190
Si Si2 0.576579 0.201931 0.001724
Si Si3 0.000000 0.500000 0.607197
Si Si4 0.838251 0.984815 0.365436
Si Si5 0.160923 0.124270 0.657665
Si Si6 0.408536 0.766260 0.320160
Si Si7 0.338972 0.835447 0.652098
Si Si8 0.444760 0.395379 0.012495
O O1 0.542808 0.903937 0.167792
O O2 0.639350 0.893737 0.292223
O O3 0.604805 0.693355 0.221055
O O4 0.496842 0.808911 0.305755
O O5 0.630459 0.278540 0.065365
O O6 0.500311 0.284580 0.993820
O O7 0.556418 0.078139 0.048451
O O8 0.602657 0.189978 0.905309
O O9 0.750000 0.971609 0.393860
O O10 0.901138 0.959383 0.436826
O O11 0.854810 0.118050 0.333130
O O12 0.250000 0.160534 0.667982
O O13 0.123308 0.155901 0.569376
O O14 0.157535 0.979817 0.655958
O O15 0.386657 0.707906 0.232097
O O16 0.250000 0.798850 0.661848
O O17 0.500000 0.500000 0.051760
#
# Coordination Sequence:
#
# PCOD9380955 Si02
#       8
#     8   8   4   8   8   8   8   8
#     4  12  22  41  67  92 133 175 230 271 332 411
#     4  12  24  41  69  96 131 172 228 283 334 404
#     4  12  24  42  66  98 130 178 224 280 330 400
#     4  12  23  38  63  96 131 169 223 288 336 386
#     4  11  24  40  64  96 131 171 217 279 343 397
#     4  12  23  41  69  96 128 182 233 274 329 418
#     4  11  24  43  66  98 137 178 223 280 349 403
#     4  12  20  39  65  93 122 166 223 273 329 400
#
# _framework density 19.462947
#
# number of rings (size 3 to 8) (size 9 to 14) (size 15 to 20)
#    0.000    0.267    8.000    1.200    0.000    3.200 
#    0.000    0.667    0.000    0.000    0.000    0.000 
#    0.000    0.000    0.000    0.000    0.000    0.000 
#
# Total GULP energy -167439.548158 kJ/mol
# GULP energy per Si atom -5581.318272 kJ/mol
# Density = 1.941865 g / cm^3
# Si number density = 19.462947 Si / 1000 Ang^3
#
#
#
# Elastic Constant Matrix: (Units=GPa)
#
#
# Indices 1 2 3 4 5 6 
#
# 1 99.5473 19.9565 21.4202 0.0000 0.0000 0.0000
# 2 19.9565 40.6693 9.3725 0.0000 0.0000 0.0000
# 3 21.4202 9.3725 80.9941 0.0000 0.0000 0.0000
# 4 0.0000 0.0000 0.0000 28.5054 0.0000 0.0000
# 5 0.0000 0.0000 0.0000 0.0000 19.8237 0.0000
# 6 0.0000 0.0000 0.0000 0.0000 0.0000 28.2879
#
#
#
# Elastic Compliance Matrix: (Units=1/GPa)
#
#
# Indices 1 2 3 4 5 6 
#
# 1 0.011606 -0.005124 -0.002476 0.000000 0.000000 0.000000
# 2 -0.005124 0.027525 -0.001830 0.000000 0.000000 0.000000
# 3 -0.002476 -0.001830 0.013213 0.000000 0.000000 0.000000
# 4 0.000000 0.000000 0.000000 0.035081 0.000000 0.000000
# 5 0.000000 0.000000 0.000000 0.000000 0.050445 0.000000
# 6 0.000000 0.000000 0.000000 0.000000 0.000000 0.035351
#
#
# Mechanical properties :
#
#
# Convention : Reuss Voigt Hill
#
# Bulk Modulus (GPa) = 29.86621 35.85657 32.86139
# Shear Modulus (GPa) = 24.60122 26.68750 25.64436
#
# Velocity S-wave (km/s) = 3.55914 3.70698 3.63381
# Velocity P-wave (km/s) = 5.68053 6.06509 5.87596
#
# Compressibility (1/GPa) = 0.03348265
#
# Stress axis : x y z
#
# Youngs Moduli (GPa) = 86.16546 36.33096 75.68161
#
# Poissons Ratio (x) = 0.18617 0.18741
# Poissons Ratio (y) = 0.44153 0.13849
# Poissons Ratio (z) = 0.21337 0.06648
#
# Static dielectric constant tensor:
#      x y z
#    x 1.675550 0.000000 0.000000 
#    y 0.000000 1.689260 0.000000 
#    z 0.000000 0.000000 1.722900 
# 
# From -- ./inp_files/16712.got.cif
#   From: 2010.05.17/outbox.cif.g08.bks.cpg/sg46_9_cif.got.tgz:16712.got - 2010.06.03 19:58:25.
