data_PCOD9380575
_publ_section_title
;
Structure prediction by ZEFSAII (Michael W. Deem and Ramdas Pophale) SiO2 
 PCOD9380575
Probable space group: I M A 2
;
_chemical_formula_sum "Si O2"
_cell_formula_units_Z 56
_cell_length_a 13.735378
_cell_length_b 15.097759
_cell_length_c 9.838918
_cell_angle_alpha 90.000000
_cell_angle_beta 90.000000
_cell_angle_gamma 90.000000
_cell_volume 2040.330142
_symmetry_space_group_name_H-M "I M A 2"
_symmetry_group_IT_number 46
_symmetry_cell_setting 'orthorhombic'
loop_
_space_group_symop_operation_xyz
x,y,z
-x,-y,z
1/2-x,y,z
1/2+x,-y,z
1/2+x,1/2+y,1/2+z
1/2-x,1/2-y,1/2+z
-x,1/2+y,1/2+z
x,1/2-y,1/2+z
loop_
_atom_site_type_symbol
_atom_site_label
_atom_site_fract_x
_atom_site_fract_y
_atom_site_fract_z
Si Si1 0.637719 0.856717 0.238190
Si Si2 0.633950 0.921166 0.945027
Si Si3 0.139534 0.546616 0.804167
Si Si4 0.115413 0.001891 0.602936
Si Si5 0.641847 0.398859 0.388043
Si Si6 0.132471 0.743207 0.716867
Si Si7 0.442665 0.327285 0.199068
O O1 0.750000 0.857642 0.281627
O O2 0.598587 0.760585 0.268940
O O3 0.591432 0.949559 0.284440
O O4 0.629783 0.860566 0.075150
O O5 0.750000 0.918958 0.902180
O O6 0.557138 0.892198 0.830841
O O7 0.605768 0.022135 0.982691
O O8 0.250000 0.536618 0.748900
O O9 0.107497 0.640682 0.742434
O O10 0.147885 0.547875 0.968175
O O11 0.128477 0.110053 0.607190
O O12 0.146135 0.949350 0.739440
O O13 0.000000 0.000000 0.600386
O O14 0.750000 0.386576 0.441783
O O15 0.614837 0.298554 0.356733
O O16 0.250000 0.752833 0.685682
O O17 0.044982 0.793654 0.634856
#
# Coordination Sequence:
#
# PCOD9380575 Si02
#       7
#     8   8   8   8   8   8   8
#     4  10  23  42  64  95 130 168 213 267 331 396
#     4   9  20  39  65  96 129 166 211 268 330 390
#     4  10  24  43  63  93 134 175 216 270 335 401
#     4  11  22  38  64  95 127 163 213 275 331 389
#     4   9  18  39  65  90 122 163 213 265 319 389
#     4  10  22  43  65  91 131 176 222 267 324 394
#     4  11  23  39  67  98 130 169 218 272 328 394
#
# _framework density 27.446539000000001
#
# number of rings (size 3 to 8) (size 9 to 14) (size 15 to 20)
#    0.000    2.000    1.429    0.857    4.000    1.714 
#    2.571    1.429    0.000    0.000    0.000    0.000 
#    0.000    0.000    0.000    0.000    0.000    0.000 
#
# Total GULP energy -155975.155766 kJ/mol
# GULP energy per Si atom -5570.541277 kJ/mol
# Density = 2.738407 g / cm^3
# Si number density = 27.446539 Si / 1000 Ang^3
#
#
#
# Elastic Constant Matrix: (Units=GPa)
#
#
# Indices 1 2 3 4 5 6 
#
# 1 115.3025 36.8114 8.1992 0.0000 0.0000 0.0000
# 2 36.8114 224.1730 13.0663 0.0000 0.0000 0.0000
# 3 8.1992 13.0663 60.3629 0.0000 0.0000 0.0000
# 4 0.0000 0.0000 0.0000 17.5422 0.0000 0.0000
# 5 0.0000 0.0000 0.0000 0.0000 13.5926 0.0000
# 6 0.0000 0.0000 0.0000 0.0000 0.0000 28.4653
#
#
#
# Elastic Compliance Matrix: (Units=1/GPa)
#
#
# Indices 1 2 3 4 5 6 
#
# 1 0.009204 -0.001457 -0.000935 0.000000 0.000000 0.000000
# 2 -0.001457 0.004748 -0.000830 0.000000 0.000000 0.000000
# 3 -0.000935 -0.000830 0.016873 0.000000 0.000000 0.000000
# 4 0.000000 0.000000 0.000000 0.057005 0.000000 0.000000
# 5 0.000000 0.000000 0.000000 0.000000 0.073570 0.000000
# 6 0.000000 0.000000 0.000000 0.000000 0.000000 0.035131
#
#
# Mechanical properties :
#
#
# Convention : Reuss Voigt Hill
#
# Bulk Modulus (GPa) = 41.01318 57.33248 49.17283
# Shear Modulus (GPa) = 23.68516 34.70411 29.19463
#
# Velocity S-wave (km/s) = 2.94080 3.55973 3.26497
# Velocity P-wave (km/s) = 5.14844 6.15059 5.67169
#
# Compressibility (1/GPa) = 0.02438241
#
# Stress axis : x y z
#
# Youngs Moduli (GPa) = 108.64284 210.59436 59.26592
#
# Poissons Ratio (x) = 0.30683 0.05541
# Poissons Ratio (y) = 0.15829 0.04919
# Poissons Ratio (z) = 0.10157 0.17479
#
# Static dielectric constant tensor:
#      x y z
#    x 2.277640 0.000000 0.000000 
#    y 0.000000 2.174480 0.000000 
#    z 0.000000 0.000000 2.157620 
# 
# From -- ./inp_files/11162.got.cif
#   From: 2010.05.17/outbox.cif.g08.bks.cpg/sg46_6_cif.got.tgz:11162.got - 2010.06.03 19:58:25.
