data_PCOD9380561
_publ_section_title
;
Structure prediction by ZEFSAII (Michael W. Deem and Ramdas Pophale) SiO2 
 PCOD9380561
Probable space group: I M A 2
;
_chemical_formula_sum "Si O2"
_cell_formula_units_Z 56
_cell_length_a 14.826229
_cell_length_b 14.632274
_cell_length_c 11.246560
_cell_angle_alpha 90.000000
_cell_angle_beta 90.000000
_cell_angle_gamma 90.000000
_cell_volume 2439.844979
_symmetry_space_group_name_H-M "I M A 2"
_symmetry_group_IT_number 46
_symmetry_cell_setting 'orthorhombic'
loop_
_space_group_symop_operation_xyz
x,y,z
-x,-y,z
1/2-x,y,z
1/2+x,-y,z
1/2+x,1/2+y,1/2+z
1/2-x,1/2-y,1/2+z
-x,1/2+y,1/2+z
x,1/2-y,1/2+z
loop_
_atom_site_type_symbol
_atom_site_label
_atom_site_fract_x
_atom_site_fract_y
_atom_site_fract_z
Si Si1 0.447076 0.822817 0.546310
Si Si2 0.027651 0.594444 0.822632
Si Si3 0.653492 0.669026 0.056784
Si Si4 0.649207 0.361298 0.618921
Si Si5 0.349634 0.145009 0.177212
Si Si6 0.106017 0.483610 0.456837
Si Si7 0.851333 0.478794 0.188377
O O1 0.413002 0.847115 0.414635
O O2 0.552615 0.815564 0.511019
O O3 0.408315 0.729353 0.596274
O O4 0.421003 0.902940 0.639004
O O5 0.095183 0.577725 0.713490
O O6 0.000000 0.500000 0.884710
O O7 0.934686 0.628315 0.762274
O O8 0.750000 0.682378 0.990368
O O9 0.655871 0.746110 0.158889
O O10 0.651400 0.565642 0.101813
O O11 0.750000 0.338823 0.657219
O O12 0.651626 0.423621 0.502708
O O13 0.250000 0.111837 0.216992
O O14 0.366146 0.098035 0.046727
O O15 0.127356 0.478517 0.317552
O O16 0.000000 0.500000 0.469801
O O17 0.750000 0.437996 0.190460
#
# Coordination Sequence:
#
# PCOD9380561 Si02
#       7
#     8   8   8   8   8   8   8
#     4  12  26  46  69 100 146 191 233 293 363 437
#     4  12  25  46  71 103 142 192 241 299 362 432
#     4  10  22  42  67  99 136 176 229 287 349 419
#     4  12  26  45  70 104 141 187 243 295 356 434
#     4  11  22  42  68 103 139 176 230 296 358 416
#     4  12  22  43  73 103 138 181 233 298 359 428
#     4  11  25  44  69 104 140 183 233 287 360 435
#
# _framework density 22.952278
#
# number of rings (size 3 to 8) (size 9 to 14) (size 15 to 20)
#    0.000    0.571    4.286    3.857    2.000    4.000 
#    0.000    2.857    0.000    0.000    0.000    0.000 
#    0.000    0.000    0.000    0.000    0.000    0.000 
#
# Total GULP energy -156248.219224 kJ/mol
# GULP energy per Si atom -5580.293544 kJ/mol
# Density = 2.290004 g / cm^3
# Si number density = 22.952278 Si / 1000 Ang^3
#
#
#
# Elastic Constant Matrix: (Units=GPa)
#
#
# Indices 1 2 3 4 5 6 
#
# 1 144.1078 7.0693 19.6717 0.0000 0.0000 0.0000
# 2 7.0693 91.7447 -2.1951 0.0000 0.0000 0.0000
# 3 19.6717 -2.1951 64.7209 0.0000 0.0000 0.0000
# 4 0.0000 0.0000 0.0000 7.1581 0.0000 0.0000
# 5 0.0000 0.0000 0.0000 0.0000 6.8226 0.0000
# 6 0.0000 0.0000 0.0000 0.0000 0.0000 53.7424
#
#
#
# Elastic Compliance Matrix: (Units=1/GPa)
#
#
# Indices 1 2 3 4 5 6 
#
# 1 0.007274 -0.000614 -0.002232 0.000000 0.000000 0.000000
# 2 -0.000614 0.010960 0.000558 0.000000 0.000000 0.000000
# 3 -0.002232 0.000558 0.016148 0.000000 0.000000 0.000000
# 4 0.000000 0.000000 0.000000 0.139702 0.000000 0.000000
# 5 0.000000 0.000000 0.000000 0.000000 0.146572 0.000000
# 6 0.000000 0.000000 0.000000 0.000000 0.000000 0.018607
#
#
# Mechanical properties :
#
#
# Convention : Reuss Voigt Hill
#
# Bulk Modulus (GPa) = 33.54792 38.85169 36.19981
# Shear Modulus (GPa) = 14.13332 31.94646 23.03989
#
# Velocity S-wave (km/s) = 2.48416 3.73482 3.17174
# Velocity P-wave (km/s) = 4.78291 5.96342 5.40549
#
# Compressibility (1/GPa) = 0.02980811
#
# Stress axis : x y z
#
# Youngs Moduli (GPa) = 137.47568 91.23695 61.92634
#
# Poissons Ratio (x) = 0.05601 0.13820
# Poissons Ratio (y) = 0.08439 -0.03457
# Poissons Ratio (z) = 0.30681 -0.05094
#
# Static dielectric constant tensor:
#      x y z
#    x 1.945710 0.000000 0.000000 
#    y 0.000000 1.869860 0.000000 
#    z 0.000000 0.000000 1.860560 
# 
# From -- ./inp_files/11158.got.cif
#   From: 2010.05.17/outbox.cif.g08.bks.cpg/sg46_6_cif.got.tgz:11158.got - 2010.06.03 19:58:25.
