data_PCOD9380294
_publ_section_title
;
Structure prediction by ZEFSAII (Michael W. Deem and Ramdas Pophale) SiO2 
 PCOD9380294
Probable space group: I M A 2
;
_chemical_formula_sum "Si O2"
_cell_formula_units_Z 48
_cell_length_a 28.077586
_cell_length_b 8.916809
_cell_length_c 9.277759
_cell_angle_alpha 90.000000
_cell_angle_beta 90.000000
_cell_angle_gamma 90.000000
_cell_volume 2322.802674
_symmetry_space_group_name_H-M "I M A 2"
_symmetry_group_IT_number 46
_symmetry_cell_setting 'orthorhombic'
loop_
_space_group_symop_operation_xyz
x,y,z
-x,-y,z
1/2-x,y,z
1/2+x,-y,z
1/2+x,1/2+y,1/2+z
1/2-x,1/2-y,1/2+z
-x,1/2+y,1/2+z
x,1/2-y,1/2+z
loop_
_atom_site_type_symbol
_atom_site_label
_atom_site_fract_x
_atom_site_fract_y
_atom_site_fract_z
Si Si1 0.659292 0.056843 0.686760
Si Si2 0.750000 0.946149 0.063424
Si Si3 0.435309 0.394996 0.205830
Si Si4 0.452549 0.587552 0.473405
Si Si5 0.250000 0.133221 0.723939
Si Si6 0.485224 0.346709 0.904618
Si Si7 0.346306 0.632827 0.521273
O O1 0.653355 0.197812 0.580916
O O2 0.619555 0.927674 0.681087
O O3 0.706307 0.962287 0.664229
O O4 0.659129 0.125661 0.848328
O O5 0.750000 0.804279 0.170471
O O6 0.799406 0.043106 0.079424
O O7 0.750000 0.882939 0.898520
O O8 0.448881 0.534599 0.307212
O O9 0.452782 0.255281 0.301887
O O10 0.458166 0.384336 0.050933
O O11 0.500000 0.500000 0.527255
O O12 0.468042 0.758690 0.459191
O O13 0.400605 0.566919 0.545770
O O14 0.500000 0.500000 0.831960
#
# Coordination Sequence:
#
# PCOD9380294 Si02
#       7
#     8   4   8   8   4   8   8
#     4  10  22  42  63  90 123 159 203 257 305 358
#     4  10  23  42  64  94 122 158 203 248 308 366
#     4  10  23  40  58  86 123 157 202 250 297 358
#     4   9  20  38  58  84 123 158 197 253 298 350
#     4  10  23  40  62  92 130 154 193 260 310 360
#     4  11  21  37  60  85 118 160 201 244 301 361
#     4  10  21  40  66  89 118 162 208 248 300 368
#
# _framework density 20.664691999999999
#
# number of rings (size 3 to 8) (size 9 to 14) (size 15 to 20)
#    0.000    2.000    0.000    3.000    0.000   11.333 
#    0.000   11.667    0.000    0.000    0.000    0.000 
#    0.000    0.000    0.000    0.000    0.000    0.000 
#
# Total GULP energy -133790.712058 kJ/mol
# GULP energy per Si atom -5574.613002 kJ/mol
# Density = 2.061766 g / cm^3
# Si number density = 20.664692 Si / 1000 Ang^3
#
#
#
# Elastic Constant Matrix: (Units=GPa)
#
#
# Indices 1 2 3 4 5 6 
#
# 1 205.5238 65.5044 36.8047 0.0000 0.0000 0.0000
# 2 65.5044 108.2642 26.8511 0.0000 0.0000 0.0000
# 3 36.8047 26.8511 70.3777 0.0000 0.0000 0.0000
# 4 0.0000 0.0000 0.0000 24.2656 0.0000 0.0000
# 5 0.0000 0.0000 0.0000 0.0000 13.8579 0.0000
# 6 0.0000 0.0000 0.0000 0.0000 0.0000 4.4339
#
#
#
# Elastic Compliance Matrix: (Units=1/GPa)
#
#
# Indices 1 2 3 4 5 6 
#
# 1 0.006279 -0.003297 -0.002026 0.000000 0.000000 0.000000
# 2 -0.003297 0.011933 -0.002829 0.000000 0.000000 0.000000
# 3 -0.002026 -0.002829 0.016348 0.000000 0.000000 0.000000
# 4 0.000000 0.000000 0.000000 0.041211 0.000000 0.000000
# 5 0.000000 0.000000 0.000000 0.000000 0.072161 0.000000
# 6 0.000000 0.000000 0.000000 0.000000 0.000000 0.225533
#
#
# Mechanical properties :
#
#
# Convention : Reuss Voigt Hill
#
# Bulk Modulus (GPa) = 54.77324 71.38734 63.08029
# Shear Modulus (GPa) = 12.63094 25.51184 19.07139
#
# Velocity S-wave (km/s) = 2.47499 3.51744 3.04122
# Velocity P-wave (km/s) = 5.89328 7.14962 6.55163
#
# Compressibility (1/GPa) = 0.01825709
#
# Stress axis : x y z
#
# Youngs Moduli (GPa) = 159.25764 83.80229 61.17045
#
# Poissons Ratio (x) = 0.27627 0.12393
# Poissons Ratio (y) = 0.52502 0.17303
# Poissons Ratio (z) = 0.32265 0.23705
#
# Static dielectric constant tensor:
#      x y z
#    x 1.867310 0.000000 0.000000 
#    y 0.000000 1.750180 0.000000 
#    z 0.000000 0.000000 1.716880 
# 
# From -- ./inp_files/8425.got.cif
#   From: 2010.05.17/outbox.cif.g08.bks.cpg/sg46_5_cif.got.tgz:8425.got - 2010.06.03 19:58:25.
