data_PCOD9380391
_publ_section_title
;
Structure prediction by ZEFSAII (Michael W. Deem and Ramdas Pophale) SiO2 
 PCOD9380391
Probable space group: I M A 2
;
_chemical_formula_sum "Si O2"
_cell_formula_units_Z 48
_cell_length_a 15.504622
_cell_length_b 25.811949
_cell_length_c 4.794524
_cell_angle_alpha 90.000000
_cell_angle_beta 90.000000
_cell_angle_gamma 90.000000
_cell_volume 1918.790139
_symmetry_space_group_name_H-M "I M A 2"
_symmetry_group_IT_number 46
_symmetry_cell_setting 'orthorhombic'
loop_
_space_group_symop_operation_xyz
x,y,z
-x,-y,z
1/2-x,y,z
1/2+x,-y,z
1/2+x,1/2+y,1/2+z
1/2-x,1/2-y,1/2+z
-x,1/2+y,1/2+z
x,1/2-y,1/2+z
loop_
_atom_site_type_symbol
_atom_site_label
_atom_site_fract_x
_atom_site_fract_y
_atom_site_fract_z
Si Si1 0.936959 0.344865 0.814160
Si Si2 0.750000 0.438790 0.077224
Si Si3 0.383168 0.490048 0.359223
Si Si4 0.750000 0.135815 0.094961
Si Si5 0.250000 0.426037 0.686593
Si Si6 0.980261 0.412938 0.324123
Si Si7 0.750000 0.856994 0.673448
Si Si8 0.100309 0.284059 0.941911
O O1 0.840128 0.336173 0.687397
O O2 0.991317 0.369555 0.558944
O O3 0.999252 0.300629 0.941262
O O4 0.932578 0.385885 0.066853
O O5 0.672565 0.477217 0.144537
O O6 0.750000 0.387535 0.281837
O O7 0.750000 0.417204 0.769861
O O8 0.330398 0.459789 0.589582
O O9 0.438207 0.444741 0.214606
O O10 0.434382 0.539295 0.483115
O O11 0.250000 0.410721 0.005069
O O12 0.250000 0.373591 0.496024
O O13 0.664842 0.826779 0.566336
O O14 0.117668 0.266661 0.627810
#
# Coordination Sequence:
#
# PCOD9380391 Si02
#       8
#     8   4   8   4   4   8   4   8
#     4  12  24  43  66  92 129 167 219 264 328 393
#     4  11  22  38  56  86 124 166 223 251 300 362
#     4  10  22  37  58  91 133 172 221 264 300 365
#     4  12  22  41  60  89 117 173 202 257 309 370
#     4  11  24  37  62  96 135 179 210 259 302 378
#     4  11  23  38  61  91 128 176 215 265 317 363
#     4  12  24  46  68  97 136 168 209 261 343 398
#     4  12  26  46  73 100 125 161 212 277 343 411
#
# _framework density 25.015763
#
# number of rings (size 3 to 8) (size 9 to 14) (size 15 to 20)
#    0.000    0.667    3.333    4.500    0.000    8.000 
#    0.000    0.833    0.000    0.000    0.000    0.000 
#    0.000    0.000    0.000    0.000    0.000    0.000 
#
# Total GULP energy -134107.986051 kJ/mol
# GULP energy per Si atom -5587.832752 kJ/mol
# Density = 2.495883 g / cm^3
# Si number density = 25.015763 Si / 1000 Ang^3
#
#
#
# Elastic Constant Matrix: (Units=GPa)
#
#
# Indices 1 2 3 4 5 6 
#
# 1 77.0058 6.5559 1.6325 0.0073 -0.0052 -0.0008
# 2 6.5559 48.2522 11.0330 0.0066 0.0031 0.0030
# 3 1.6325 11.0330 90.9778 0.0534 0.0275 0.0345
# 4 0.0073 0.0066 0.0534 40.4295 0.0036 0.0047
# 5 -0.0052 0.0031 0.0275 0.0036 17.8898 0.0045
# 6 -0.0008 0.0030 0.0345 0.0047 0.0045 46.3692
#
#
#
# Elastic Compliance Matrix: (Units=1/GPa)
#
#
# Indices 1 2 3 4 5 6 
#
# 1 0.013138 -0.001780 -0.000020 -0.000002 0.000004 0.000000
# 2 -0.001780 0.021557 -0.002582 0.000000 0.000000 0.000000
# 3 -0.000020 -0.002582 0.011305 -0.000014 -0.000017 -0.000008
# 4 -0.000002 0.000000 -0.000014 0.024734 -0.000005 -0.000002
# 5 0.000004 0.000000 -0.000017 -0.000005 0.055898 -0.000005
# 6 0.000000 0.000000 -0.000008 -0.000002 -0.000005 0.021566
#
#
# Mechanical properties :
#
#
# Convention : Reuss Voigt Hill
#
# Bulk Modulus (GPa) = 26.85653 28.29760 27.57707
# Shear Modulus (GPa) = 29.52028 34.07201 31.79614
#
# Velocity S-wave (km/s) = 3.43894 3.69456 3.56904
# Velocity P-wave (km/s) = 5.15049 5.43472 5.29451
#
# Compressibility (1/GPa) = 0.03723489
#
# Stress axis : x y z
#
# Youngs Moduli (GPa) = 76.11490 46.38914 88.45473
#
# Poissons Ratio (x) = 0.08260 0.00175
# Poissons Ratio (y) = 0.13552 0.22841
# Poissons Ratio (z) = 0.00151 0.11979
#
# Static dielectric constant tensor:
#      x y z
#    x 2.260990 -0.000010 0.000000 
#    y -0.000010 1.953140 -0.000010 
#    z 0.000000 -0.000010 1.884050 
# 
# From -- ./inp_files/1736.got.cif
#   From: 2010.05.17/outbox.cif.g08.bks.cpg/sg46_1_cif.got.tgz:1736.got - 2010.06.03 19:58:25.
