data_PCOD9380432
_publ_section_title
;
Structure prediction by ZEFSAII (Michael W. Deem and Ramdas Pophale) SiO2 
 PCOD9380432
Probable space group: I M A 2
;
_chemical_formula_sum "Si O2"
_cell_formula_units_Z 40
_cell_length_a 15.460955
_cell_length_b 13.680339
_cell_length_c 7.935427
_cell_angle_alpha 90.000000
_cell_angle_beta 90.000000
_cell_angle_gamma 90.000000
_cell_volume 1678.430939
_symmetry_space_group_name_H-M "I M A 2"
_symmetry_group_IT_number 46
_symmetry_cell_setting 'orthorhombic'
loop_
_space_group_symop_operation_xyz
x,y,z
-x,-y,z
1/2-x,y,z
1/2+x,-y,z
1/2+x,1/2+y,1/2+z
1/2-x,1/2-y,1/2+z
-x,1/2+y,1/2+z
x,1/2-y,1/2+z
loop_
_atom_site_type_symbol
_atom_site_label
_atom_site_fract_x
_atom_site_fract_y
_atom_site_fract_z
Si Si1 0.750000 0.911462 0.153450
Si Si2 0.148817 0.897458 0.453983
Si Si3 0.649087 0.931759 0.666121
Si Si4 0.852185 0.207388 0.814664
Si Si5 0.250000 0.283936 0.994459
Si Si6 0.092261 0.518021 0.506915
O O1 0.750000 0.831679 0.000133
O O2 0.750000 0.844684 0.320927
O O3 0.667164 0.979446 0.127827
O O4 0.250000 0.914060 0.410988
O O5 0.111935 0.817769 0.325382
O O6 0.113291 0.001652 0.514150
O O7 0.142846 0.835834 0.628377
O O8 0.750000 0.967600 0.697440
O O9 0.666539 0.823367 0.598943
O O10 0.598121 0.951429 0.835778
O O11 0.750000 0.212177 0.858927
O O12 0.893022 0.127103 0.938127
O O13 0.000000 0.500000 0.586309
#
# Coordination Sequence:
#
# PCOD9380432 Si02
#       6
#     4   8   8   8   4   8
#     4  12  22  42  61  94 123 160 221 256 318 374
#     4   8  14  25  48  74 113 135 179 226 274 351
#     4   8  16  37  59  90 107 151 208 244 312 363
#     4   9  16  30  49  79 109 145 180 230 285 350
#     4  10  22  38  73  86 117 168 205 278 308 374
#     4  11  21  37  61  86 124 163 202 256 312 372
#
# _framework density 23.831782
#
# number of rings (size 3 to 8) (size 9 to 14) (size 15 to 20)
#    0.600    2.000    2.000    2.400    0.000    1.600 
#    0.000    9.000    0.000    0.000    0.000    0.000 
#    0.000    0.000    0.000    0.000    0.000    0.000 
#
# Total GULP energy -111618.869307 kJ/mol
# GULP energy per Si atom -5580.943465 kJ/mol
# Density = 2.377754 g / cm^3
# Si number density = 23.831782 Si / 1000 Ang^3
#
#
#
# Elastic Constant Matrix: (Units=GPa)
#
#
# Indices 1 2 3 4 5 6 
#
# 1 78.5007 7.9485 10.8490 0.0000 0.0000 0.0000
# 2 7.9485 79.5941 3.6531 0.0000 0.0000 0.0000
# 3 10.8490 3.6531 91.5006 0.0000 0.0000 0.0000
# 4 0.0000 0.0000 0.0000 43.3224 0.0000 0.0000
# 5 0.0000 0.0000 0.0000 0.0000 5.4882 0.0000
# 6 0.0000 0.0000 0.0000 0.0000 0.0000 8.1806
#
#
#
# Elastic Compliance Matrix: (Units=1/GPa)
#
#
# Indices 1 2 3 4 5 6 
#
# 1 0.013071 -0.001236 -0.001500 0.000000 0.000000 0.000000
# 2 -0.001236 0.012704 -0.000361 0.000000 0.000000 0.000000
# 3 -0.001500 -0.000361 0.011121 0.000000 0.000000 0.000000
# 4 0.000000 0.000000 0.000000 0.023083 0.000000 0.000000
# 5 0.000000 0.000000 0.000000 0.000000 0.182210 0.000000
# 6 0.000000 0.000000 0.000000 0.000000 0.000000 0.122241
#
#
# Mechanical properties :
#
#
# Convention : Reuss Voigt Hill
#
# Bulk Modulus (GPa) = 32.57199 32.72184 32.64691
# Shear Modulus (GPa) = 13.12823 26.54121 19.83472
#
# Velocity S-wave (km/s) = 2.34961 3.34082 2.88806
# Velocity P-wave (km/s) = 4.58890 5.35178 4.98496
#
# Compressibility (1/GPa) = 0.03070123
#
# Stress axis : x y z
#
# Youngs Moduli (GPa) = 76.50347 78.71681 89.91837
#
# Poissons Ratio (x) = 0.09733 0.13492
# Poissons Ratio (y) = 0.09459 0.03242
# Poissons Ratio (z) = 0.11479 0.02838
#
# Static dielectric constant tensor:
#      x y z
#    x 1.869420 0.000000 0.000000 
#    y 0.000000 1.960690 0.000000 
#    z 0.000000 0.000000 2.009280 
# 
# From -- ./inp_files/5458.got.cif
#   From: 2010.05.17/outbox.cif.g08.bks.cpg/sg46_3_cif.got.tgz:5458.got - 2010.06.03 19:58:25.
