data_PCOD9380163
_publ_section_title
;
Structure prediction by ZEFSAII (Michael W. Deem and Ramdas Pophale) SiO2 
 PCOD9380163
Probable space group: I M A 2
;
_chemical_formula_sum "Si O2"
_cell_formula_units_Z 48
_cell_length_a 8.668130
_cell_length_b 27.704572
_cell_length_c 9.780293
_cell_angle_alpha 90.000000
_cell_angle_beta 90.000000
_cell_angle_gamma 90.000000
_cell_volume 2348.706377
_symmetry_space_group_name_H-M "I M A 2"
_symmetry_group_IT_number 46
_symmetry_cell_setting 'orthorhombic'
loop_
_space_group_symop_operation_xyz
x,y,z
-x,-y,z
1/2-x,y,z
1/2+x,-y,z
1/2+x,1/2+y,1/2+z
1/2-x,1/2-y,1/2+z
-x,1/2+y,1/2+z
x,1/2-y,1/2+z
loop_
_atom_site_type_symbol
_atom_site_label
_atom_site_fract_x
_atom_site_fract_y
_atom_site_fract_z
Si Si1 0.066378 0.776882 0.039890
Si Si2 0.065612 0.197455 0.738499
Si Si3 0.932722 0.446794 0.879587
Si Si4 0.933714 0.548607 0.452983
Si Si5 0.064207 0.414465 0.165224
Si Si6 0.434779 0.371185 0.666656
O O1 0.250000 0.774021 0.031019
O O2 0.000271 0.729587 0.114785
O O3 0.015714 0.820497 0.140441
O O4 0.001048 0.787211 0.887210
O O5 0.250000 0.203551 0.745871
O O6 0.034507 0.141444 0.702947
O O7 0.750000 0.447387 0.856545
O O8 0.000000 0.500000 0.848514
O O9 0.009626 0.403992 0.791608
O O10 0.974445 0.433563 0.034929
O O11 0.750000 0.545448 0.455751
O O12 0.983918 0.555297 0.297767
O O13 0.975771 0.595972 0.536082
O O14 0.000000 0.500000 0.514990
O O15 0.250000 0.419523 0.143620
O O16 0.250000 0.364259 0.673068
#
# Coordination Sequence:
#
# PCOD9380163 Si02
#       6
#     8   8   8   8   8   8
#     4  12  26  44  68 102 137 169 218 277 333 393
#     4  11  24  46  72  97 131 177 222 266 330 403
#     4  12  26  43  64  96 134 176 223 272 330 390
#     4  10  21  38  63  94 124 160 210 260 316 383
#     4  10  22  43  67  94 127 170 219 267 321 391
#     4  11  23  44  68  93 129 174 221 268 326 396
#
# _framework density 20.436782000000001
#
# number of rings (size 3 to 8) (size 9 to 14) (size 15 to 20)
#    0.000    1.000    1.667    5.000    2.333    6.000 
#    0.000    0.000    0.000    0.000    0.000    0.000 
#    0.000    0.000    0.000    0.000    0.000    0.000 
#
# Total GULP energy -134227.075586 kJ/mol
# GULP energy per Si atom -5592.794816 kJ/mol
# Density = 2.039027 g / cm^3
# Si number density = 20.436782 Si / 1000 Ang^3
#
#
#
# Elastic Constant Matrix: (Units=GPa)
#
#
# Indices 1 2 3 4 5 6 
#
# 1 66.0023 35.9945 10.9028 0.0000 0.0002 0.0000
# 2 35.9945 82.5873 -0.8550 -0.0003 -0.0004 -0.0001
# 3 10.9028 -0.8550 68.0695 0.0007 0.0006 0.0000
# 4 0.0000 -0.0003 0.0007 44.3513 0.0001 0.0000
# 5 0.0002 -0.0004 0.0006 0.0001 38.0855 0.0001
# 6 0.0000 -0.0001 0.0000 0.0000 0.0001 31.1956
#
#
#
# Elastic Compliance Matrix: (Units=1/GPa)
#
#
# Indices 1 2 3 4 5 6 
#
# 1 0.020641 -0.009032 -0.003420 0.000000 0.000000 0.000000
# 2 -0.009032 0.016062 0.001648 0.000000 0.000000 0.000000
# 3 -0.003420 0.001648 0.015259 0.000000 0.000000 0.000000
# 4 0.000000 0.000000 0.000000 0.022547 0.000000 0.000000
# 5 0.000000 0.000000 0.000000 0.000000 0.026257 0.000000
# 6 0.000000 0.000000 0.000000 0.000000 0.000000 0.032056
#
#
# Mechanical properties :
#
#
# Convention : Reuss Voigt Hill
#
# Bulk Modulus (GPa) = 32.94171 34.30484 33.62328
# Shear Modulus (GPa) = 30.38653 34.10093 32.24373
#
# Velocity S-wave (km/s) = 3.86016 4.08929 3.97637
# Velocity P-wave (km/s) = 6.00180 6.25449 6.12945
#
# Compressibility (1/GPa) = 0.03035665
#
# Stress axis : x y z
#
# Youngs Moduli (GPa) = 48.44671 62.25970 65.53385
#
# Poissons Ratio (x) = 0.56230 0.22410
# Poissons Ratio (y) = 0.43755 -0.10802
# Poissons Ratio (z) = 0.16567 -0.10263
#
# Static dielectric constant tensor:
#      x y z
#    x 1.686210 0.000000 0.000000 
#    y 0.000000 1.391020 0.000000 
#    z 0.000000 0.000000 1.738190 
# 
# From -- ./inp_files/3931.got.cif
#   From: 2010.05.17/outbox.cif.g08.bks.cpg/sg46_2_cif.got.tgz:3931.got - 2010.06.03 19:58:25.
