data_PCOD9380201
_publ_section_title
;
Structure prediction by ZEFSAII (Michael W. Deem and Ramdas Pophale) SiO2 
 PCOD9380201
Probable space group: I M A 2
;
_chemical_formula_sum "Si O2"
_cell_formula_units_Z 64
_cell_length_a 8.610692
_cell_length_b 15.850383
_cell_length_c 24.360538
_cell_angle_alpha 90.000000
_cell_angle_beta 90.000000
_cell_angle_gamma 90.000000
_cell_volume 3324.793610
_symmetry_space_group_name_H-M "I M A 2"
_symmetry_group_IT_number 46
_symmetry_cell_setting 'orthorhombic'
loop_
_space_group_symop_operation_xyz
x,y,z
-x,-y,z
1/2-x,y,z
1/2+x,-y,z
1/2+x,1/2+y,1/2+z
1/2-x,1/2-y,1/2+z
-x,1/2+y,1/2+z
x,1/2-y,1/2+z
loop_
_atom_site_type_symbol
_atom_site_label
_atom_site_fract_x
_atom_site_fract_y
_atom_site_fract_z
Si Si1 0.936664 0.848192 0.596970
Si Si2 0.936511 0.157734 0.095993
Si Si3 0.436750 0.247376 0.780378
Si Si4 0.562767 0.909324 0.476207
Si Si5 0.936618 0.590211 0.482087
Si Si6 0.060897 0.247479 0.907025
Si Si7 0.565124 0.409983 0.211490
Si Si8 0.564041 0.091430 0.216146
O O1 0.750000 0.850883 0.601191
O O2 0.983827 0.889080 0.538983
O O3 0.991833 0.751307 0.597214
O O4 0.009630 0.894264 0.649110
O O5 0.750000 0.163845 0.092984
O O6 0.977911 0.111137 0.152673
O O7 0.000287 0.110253 0.042771
O O8 0.250000 0.245396 0.778072
O O9 0.487416 0.243982 0.843861
O O10 0.501406 0.167435 0.747282
O O11 0.495556 0.333126 0.752392
O O12 0.750000 0.910783 0.474861
O O13 0.509144 0.832634 0.437626
O O14 0.500000 0.000000 0.459186
O O15 0.750000 0.588706 0.483822
O O16 0.987288 0.665903 0.441962
O O17 0.000000 0.500000 0.463638
O O18 0.250000 0.248214 0.907735
O O19 0.500000 0.500000 0.230574
O O20 0.750000 0.410452 0.213326
O O21 0.750000 0.092263 0.220471
O O22 0.500000 0.000000 0.231950
#
# Coordination Sequence:
#
# PCOD9380201 Si02
#       8
#     8   8   8   8   8   8   8   8
#     4  11  21  37  64  92 125 164 200 245 308 366
#     4  11  22  37  61  93 127 160 201 249 303 366
#     4  11  23  42  67  90 120 162 209 259 313 365
#     4  10  21  39  61  90 123 159 198 244 298 357
#     4  11  22  40  63  90 125 160 202 251 305 367
#     4   9  21  42  63  86 120 161 204 254 308 363
#     4  12  25  42  63  92 128 162 206 254 306 369
#     4  11  24  41  62  91 126 162 204 254 305 365
#
# _framework density 19.249314999999999
#
# number of rings (size 3 to 8) (size 9 to 14) (size 15 to 20)
#    0.000    1.250    2.500    3.750    0.000    5.500 
#    0.000    6.250    0.000    0.000    0.000    0.000 
#    0.000    0.000    0.000    0.000    0.000    0.000 
#
# Total GULP energy -178968.147874 kJ/mol
# GULP energy per Si atom -5592.754621 kJ/mol
# Density = 1.920550 g / cm^3
# Si number density = 19.249315 Si / 1000 Ang^3
#
#
#
# Elastic Constant Matrix: (Units=GPa)
#
#
# Indices 1 2 3 4 5 6 
#
# 1 62.9546 42.2994 41.8573 0.0000 0.0000 0.0000
# 2 42.2994 188.3000 77.1891 0.0000 0.0000 0.0000
# 3 41.8573 77.1891 144.3535 0.0000 0.0000 0.0000
# 4 0.0000 0.0000 0.0000 -5.9567 0.0000 0.0000
# 5 0.0000 0.0000 0.0000 0.0000 -18.7713 0.0000
# 6 0.0000 0.0000 0.0000 0.0000 0.0000 38.1165
#
#
#
# Elastic Compliance Matrix: (Units=1/GPa)
#
#
# Indices 1 2 3 4 5 6 
#
# 1 0.020782 -0.002815 -0.004521 0.000000 0.000000 0.000000
# 2 -0.002815 0.007183 -0.003025 0.000000 0.000000 0.000000
# 3 -0.004521 -0.003025 0.009856 0.000000 0.000000 0.000000
# 4 0.000000 0.000000 0.000000 -0.167877 0.000000 0.000000
# 5 0.000000 0.000000 0.000000 0.000000 -0.053273 0.000000
# 6 0.000000 0.000000 0.000000 0.000000 0.000000 0.026235
#
#
# Mechanical properties :
#
#
# Convention : Reuss Voigt Hill
#
# Bulk Modulus (GPa) = 58.48155 79.81106 69.14630
# Shear Modulus (GPa) = -38.26315 18.29518 -9.98399
#
# Velocity S-wave (km/s) = -4.46327 3.08625 -2.27990
# Velocity P-wave (km/s) = 1.97129 7.36558 5.39155
#
# Compressibility (1/GPa) = 0.01709941
#
# Stress axis : x y z
#
# Youngs Moduli (GPa) = 48.11931 139.21880 101.46586
#
# Poissons Ratio (x) = 0.39194 0.45868
# Poissons Ratio (y) = 0.13547 0.30689
# Poissons Ratio (z) = 0.21753 0.42107
#
# Static dielectric constant tensor:
#      x y z
#    x 1.650110 0.000000 0.000000 
#    y 0.000000 1.670100 0.000000 
#    z 0.000000 0.000000 1.655960 
# 
# From -- ./inp_files/23165.got.cif
#   From: 2010.05.17/outbox.cif.g08.bks.cpg/sg46_12_cif.got.tgz:23165.got - 2010.06.03 19:58:25.
