data_PCOD9380801
_publ_section_title
;
Structure prediction by ZEFSAII (Michael W. Deem and Ramdas Pophale) SiO2 
 PCOD9380801
Probable space group: I M A 2
;
_chemical_formula_sum "Si O2"
_cell_formula_units_Z 64
_cell_length_a 8.603158
_cell_length_b 23.856831
_cell_length_c 19.734034
_cell_angle_alpha 90.000000
_cell_angle_beta 90.000000
_cell_angle_gamma 90.000000
_cell_volume 4050.293781
_symmetry_space_group_name_H-M "I M A 2"
_symmetry_group_IT_number 46
_symmetry_cell_setting 'orthorhombic'
loop_
_space_group_symop_operation_xyz
x,y,z
-x,-y,z
1/2-x,y,z
1/2+x,-y,z
1/2+x,1/2+y,1/2+z
1/2-x,1/2-y,1/2+z
-x,1/2+y,1/2+z
x,1/2-y,1/2+z
loop_
_atom_site_type_symbol
_atom_site_label
_atom_site_fract_x
_atom_site_fract_y
_atom_site_fract_z
Si Si1 0.561657 0.229362 0.444530
Si Si2 0.936979 0.062505 0.933962
Si Si3 0.937976 0.333045 0.074421
Si Si4 0.437141 0.661377 0.531270
Si Si5 0.564026 0.880893 0.797173
Si Si6 0.563169 0.438288 0.161747
Si Si7 0.562953 0.245926 0.795470
Si Si8 0.565414 0.725436 0.654416
O O1 0.750000 0.228290 0.442690
O O2 0.511827 0.181715 0.497776
O O3 0.517831 0.288669 0.479098
O O4 0.509075 0.227916 0.367081
O O5 0.750000 0.061970 0.928741
O O6 0.004215 0.090089 0.865720
O O7 0.980190 0.102881 0.996712
O O8 0.000000 0.000000 0.941738
O O9 0.750000 0.329312 0.076990
O O10 0.983189 0.392840 0.104699
O O11 0.002586 0.283468 0.121766
O O12 0.250000 0.663702 0.538143
O O13 0.510888 0.676988 0.603052
O O14 0.750000 0.879462 0.796443
O O15 0.502881 0.915681 0.732863
O O16 0.498438 0.817846 0.792853
O O17 0.500000 0.500000 0.147876
O O18 0.750000 0.439539 0.165841
O O19 0.750000 0.244139 0.794225
O O20 0.502970 0.278115 0.729587
O O21 0.750000 0.727626 0.657282
#
# Coordination Sequence:
#
# PCOD9380801 Si02
#       8
#     8   8   8   8   8   8   8   8
#     4   8  15  30  52  73  92 122 166 204 241 296
#     4  11  22  37  54  73 100 136 176 212 252 299
#     4   9  18  34  52  70  94 130 167 204 249 299
#     4   9  18  35  53  70  96 133 171 205 247 301
#     4  12  23  34  48  71 104 136 174 212 246 293
#     4  11  22  35  52  70  98 136 174 210 248 294
#     4  11  19  32  52  74 101 135 168 203 251 304
#     4  11  21  31  48  75 103 129 163 209 254 297
#
# _framework density 15.801323
#
# number of rings (size 3 to 8) (size 9 to 14) (size 15 to 20)
#    0.000    1.750    2.500    4.500    0.000    1.500 
#    0.000    0.625    0.000    0.000    0.000    0.875 
#    0.000    2.000    0.000    0.000    0.000    0.000 
#
# Total GULP energy -178604.484567 kJ/mol
# GULP energy per Si atom -5581.390143 kJ/mol
# Density = 1.576536 g / cm^3
# Si number density = 15.801323 Si / 1000 Ang^3
#
#
#
# Elastic Constant Matrix: (Units=GPa)
#
#
# Indices 1 2 3 4 5 6 
#
# 1 53.1628 33.2590 38.4565 0.0000 0.0000 0.0000
# 2 33.2590 90.1813 68.6553 0.0000 0.0000 0.0000
# 3 38.4565 68.6553 149.7947 0.0000 0.0000 0.0000
# 4 0.0000 0.0000 0.0000 18.0469 0.0000 0.0000
# 5 0.0000 0.0000 0.0000 0.0000 5.1792 0.0000
# 6 0.0000 0.0000 0.0000 0.0000 0.0000 22.6251
#
#
#
# Elastic Compliance Matrix: (Units=1/GPa)
#
#
# Indices 1 2 3 4 5 6 
#
# 1 0.025557 -0.006805 -0.003442 0.000000 0.000000 0.000000
# 2 -0.006805 0.018843 -0.006889 0.000000 0.000000 0.000000
# 3 -0.003442 -0.006889 0.010717 0.000000 0.000000 0.000000
# 4 0.000000 0.000000 0.000000 0.055411 0.000000 0.000000
# 5 0.000000 0.000000 0.000000 0.000000 0.193081 0.000000
# 6 0.000000 0.000000 0.000000 0.000000 0.000000 0.044199
#
#
# Mechanical properties :
#
#
# Convention : Reuss Voigt Hill
#
# Bulk Modulus (GPa) = 47.97432 63.76450 55.86941
# Shear Modulus (GPa) = 12.85247 19.35477 16.10362
#
# Velocity S-wave (km/s) = 2.85507 3.50363 3.19585
# Velocity P-wave (km/s) = 6.42615 7.53716 7.00372
#
# Compressibility (1/GPa) = 0.02084449
#
# Stress axis : x y z
#
# Youngs Moduli (GPa) = 39.12749 53.06895 93.30780
#
# Poissons Ratio (x) = 0.36113 0.32121
# Poissons Ratio (y) = 0.26626 0.64284
# Poissons Ratio (z) = 0.13469 0.36562
#
# Static dielectric constant tensor:
#      x y z
#    x 1.533440 0.000000 0.000000 
#    y 0.000000 1.505850 0.000000 
#    z 0.000000 0.000000 1.536960 
# 
# From -- ./inp_files/21479.got.cif
#   From: 2010.05.17/outbox.cif.g08.bks.cpg/sg46_11_cif.got.tgz:21479.got - 2010.06.03 19:58:25.
