data_PCOD9380007
_publ_section_title
;
Structure prediction by ZEFSAII (Michael W. Deem and Ramdas Pophale) SiO2 
 PCOD9380007
Probable space group: I M A 2
;
_chemical_formula_sum "Si O2"
_cell_formula_units_Z 56
_cell_length_a 15.826872
_cell_length_b 11.487514
_cell_length_c 14.536780
_cell_angle_alpha 90.000000
_cell_angle_beta 90.000000
_cell_angle_gamma 90.000000
_cell_volume 2642.952522
_symmetry_space_group_name_H-M "I M A 2"
_symmetry_group_IT_number 46
_symmetry_cell_setting 'orthorhombic'
loop_
_space_group_symop_operation_xyz
x,y,z
-x,-y,z
1/2-x,y,z
1/2+x,-y,z
1/2+x,1/2+y,1/2+z
1/2-x,1/2-y,1/2+z
-x,1/2+y,1/2+z
x,1/2-y,1/2+z
loop_
_atom_site_type_symbol
_atom_site_label
_atom_site_fract_x
_atom_site_fract_y
_atom_site_fract_z
Si Si1 0.082424 0.543473 0.935150
Si Si2 0.654766 0.296117 0.087755
Si Si3 0.345427 0.892877 0.783093
Si Si4 0.344026 0.106845 0.279052
Si Si5 0.090611 0.435963 0.426620
Si Si6 0.490782 0.261633 0.830360
Si Si7 0.903417 0.040178 0.115606
O O1 0.137086 0.449317 0.879890
O O2 0.034424 0.619099 0.858518
O O3 0.000000 0.500000 0.992011
O O4 0.133584 0.632996 0.996754
O O5 0.750000 0.250480 0.083170
O O6 0.650690 0.386301 0.172786
O O7 0.600274 0.179563 0.102832
O O8 0.250000 0.848581 0.807481
O O9 0.428409 0.817400 0.808034
O O10 0.359094 0.012196 0.839304
O O11 0.250000 0.155791 0.276751
O O12 0.417643 0.201341 0.259434
O O13 0.352996 0.004808 0.203899
O O14 0.129990 0.475756 0.523051
O O15 0.000000 0.500000 0.427049
O O16 0.063549 0.303236 0.409833
O O17 0.000000 0.000000 0.127841
#
# Coordination Sequence:
#
# PCOD9380007 Si02
#       7
#     8   8   8   8   8   8   8
#     4  10  21  37  58  82 112 151 194 239 288 341
#     4  11  22  36  57  87 117 150 191 237 288 341
#     4  10  21  36  58  87 118 150 190 238 288 341
#     4  11  23  39  58  84 118 156 195 238 287 343
#     4   9  20  37  58  85 116 149 190 238 288 341
#     4  10  21  39  60  83 115 155 191 235 292 343
#     4  11  21  36  59  86 115 147 190 241 287 340
#
# _framework density 21.188424999999999
#
# number of rings (size 3 to 8) (size 9 to 14) (size 15 to 20)
#    0.000    1.714    0.000    6.429    0.000    6.857 
#    0.000    1.429    0.000    0.000    0.000    0.000 
#    0.000    0.000    0.000    0.000    0.000    0.000 
#
# Total GULP energy -155940.191426 kJ/mol
# GULP energy per Si atom -5569.292551 kJ/mol
# Density = 2.114020 g / cm^3
# Si number density = 21.188425 Si / 1000 Ang^3
#
#
#
# Elastic Constant Matrix: (Units=GPa)
#
#
# Indices 1 2 3 4 5 6 
#
# 1 120.6576 18.7200 26.7956 0.0000 0.0000 0.0000
# 2 18.7200 50.5892 13.7221 0.0000 0.0000 0.0000
# 3 26.7956 13.7221 69.2374 0.0000 0.0000 0.0000
# 4 0.0000 0.0000 0.0000 23.7497 0.0000 0.0000
# 5 0.0000 0.0000 0.0000 0.0000 13.4589 0.0000
# 6 0.0000 0.0000 0.0000 0.0000 0.0000 23.4140
#
#
#
# Elastic Compliance Matrix: (Units=1/GPa)
#
#
# Indices 1 2 3 4 5 6 
#
# 1 0.009387 -0.002629 -0.003112 0.000000 0.000000 0.000000
# 2 -0.002629 0.021627 -0.003269 0.000000 0.000000 0.000000
# 3 -0.003112 -0.003269 0.016295 0.000000 0.000000 0.000000
# 4 0.000000 0.000000 0.000000 0.042106 0.000000 0.000000
# 5 0.000000 0.000000 0.000000 0.000000 0.074301 0.000000
# 6 0.000000 0.000000 0.000000 0.000000 0.000000 0.042709
#
#
# Mechanical properties :
#
#
# Convention : Reuss Voigt Hill
#
# Bulk Modulus (GPa) = 34.14223 39.88439 37.01331
# Shear Modulus (GPa) = 21.34864 24.20763 22.77814
#
# Velocity S-wave (km/s) = 3.17765 3.38375 3.28232
# Velocity P-wave (km/s) = 5.44168 5.84216 5.64547
#
# Compressibility (1/GPa) = 0.02928924
#
# Stress axis : x y z
#
# Youngs Moduli (GPa) = 106.53124 46.23927 61.36812
#
# Poissons Ratio (x) = 0.12159 0.19096
# Poissons Ratio (y) = 0.28012 0.20058
# Poissons Ratio (z) = 0.33149 0.15113
#
# Static dielectric constant tensor:
#      x y z
#    x 1.875460 0.000000 0.000000 
#    y 0.000000 1.804260 0.000000 
#    z 0.000000 0.000000 1.806620 
# 
# From -- ./inp_files/15971.got.cif
#   From: 2010.05.17/outbox.cif.g08.bks.cpg/sg46_8_cif.got.tgz:15971.got - 2010.06.03 19:58:25.
