data_PCOD9380959
_publ_section_title
;
Structure prediction by ZEFSAII (Michael W. Deem and Ramdas Pophale) SiO2 
 PCOD9380959
Probable space group: I M A 2
;
_chemical_formula_sum "Si O2"
_cell_formula_units_Z 64
_cell_length_a 17.085870
_cell_length_b 16.631021
_cell_length_c 9.805490
_cell_angle_alpha 90.000000
_cell_angle_beta 90.000000
_cell_angle_gamma 90.000000
_cell_volume 2786.283549
_symmetry_space_group_name_H-M "I M A 2"
_symmetry_group_IT_number 46
_symmetry_cell_setting 'orthorhombic'
loop_
_space_group_symop_operation_xyz
x,y,z
-x,-y,z
1/2-x,y,z
1/2+x,-y,z
1/2+x,1/2+y,1/2+z
1/2-x,1/2-y,1/2+z
-x,1/2+y,1/2+z
x,1/2-y,1/2+z
loop_
_atom_site_type_symbol
_atom_site_label
_atom_site_fract_x
_atom_site_fract_y
_atom_site_fract_z
Si Si1 0.658456 0.497673 0.876070
Si Si2 0.341795 0.081637 0.818418
Si Si3 0.582859 0.269317 0.248512
Si Si4 0.159021 0.819707 0.014383
Si Si5 0.906614 0.495442 0.571750
Si Si6 0.080958 0.550158 0.136908
Si Si7 0.089150 0.240871 0.685362
Si Si8 0.338070 0.181830 0.424831
O O1 0.750000 0.475904 0.863730
O O2 0.619904 0.501829 0.728098
O O3 0.653485 0.586724 0.941769
O O4 0.612699 0.442780 0.983017
O O5 0.250000 0.101021 0.813530
O O6 0.390581 0.154699 0.753803
O O7 0.359786 0.002561 0.728421
O O8 0.369184 0.061665 0.971565
O O9 0.646103 0.222757 0.158877
O O10 0.608969 0.271053 0.403906
O O11 0.574478 0.361636 0.199636
O O12 0.498218 0.231654 0.219017
O O13 0.250000 0.822066 0.976399
O O14 0.125188 0.909400 0.021939
O O15 0.000000 0.500000 0.559639
O O16 0.000000 0.500000 0.138134
O O17 0.104870 0.229426 0.525806
O O18 0.146305 0.299520 0.767232
O O19 0.250000 0.204858 0.462847
#
# Coordination Sequence:
#
# PCOD9380959 Si02
#       8
#     8   8   8   8   8   8   8   8
#     4  11  25  43  68 101 139 180 231 288 349 413
#     4  12  23  42  71 101 136 181 228 285 350 414
#     4  12  27  46  74 102 140 186 235 286 352 416
#     4  12  28  49  71 104 145 186 235 288 349 421
#     4  12  27  46  73 102 138 181 238 295 351 410
#     4  12  23  45  72 102 134 182 233 294 346 414
#     4  12  25  44  70 101 143 181 234 284 348 419
#     4  11  24  42  65 101 146 186 228 280 347 424
#
# _framework density 22.969667000000001
#
# number of rings (size 3 to 8) (size 9 to 14) (size 15 to 20)
#    0.000    0.250    3.750    5.250    5.250    1.500 
#    0.000    0.000    0.000    0.000    0.000    0.000 
#    0.000    0.000    0.000    0.000    0.000    0.000 
#
# Total GULP energy -179332.558037 kJ/mol
# GULP energy per Si atom -5604.142439 kJ/mol
# Density = 2.291739 g / cm^3
# Si number density = 22.969667 Si / 1000 Ang^3
#
#
#
# Elastic Constant Matrix: (Units=GPa)
#
#
# Indices 1 2 3 4 5 6 
#
# 1 110.7734 -11.8612 4.3002 0.0000 0.0000 0.0000
# 2 -11.8612 38.3009 -18.0464 0.0000 0.0000 0.0000
# 3 4.3002 -18.0464 103.2086 0.0000 0.0000 0.0000
# 4 0.0000 0.0000 0.0000 29.3840 0.0000 0.0000
# 5 0.0000 0.0000 0.0000 0.0000 30.3668 0.0000
# 6 0.0000 0.0000 0.0000 0.0000 0.0000 15.9791
#
#
#
# Elastic Compliance Matrix: (Units=1/GPa)
#
#
# Indices 1 2 3 4 5 6 
#
# 1 0.009339 0.002952 0.000127 0.000000 0.000000 0.000000
# 2 0.002952 0.029386 0.005015 0.000000 0.000000 0.000000
# 3 0.000127 0.005015 0.010561 0.000000 0.000000 0.000000
# 4 0.000000 0.000000 0.000000 0.034032 0.000000 0.000000
# 5 0.000000 0.000000 0.000000 0.000000 0.032931 0.000000
# 6 0.000000 0.000000 0.000000 0.000000 0.000000 0.062582
#
#
# Mechanical properties :
#
#
# Convention : Reuss Voigt Hill
#
# Bulk Modulus (GPa) = 15.27324 22.34092 18.80708
# Shear Modulus (GPa) = 27.10517 33.67198 30.38858
#
# Velocity S-wave (km/s) = 3.43890 3.83290 3.64124
# Velocity P-wave (km/s) = 4.73622 5.41623 5.08760
#
# Compressibility (1/GPa) = 0.06547401
#
# Stress axis : x y z
#
# Youngs Moduli (GPa) = 107.08266 34.02953 94.69009
#
# Poissons Ratio (x) = -0.10045 -0.01203
# Poissons Ratio (y) = -0.31609 -0.47490
# Poissons Ratio (z) = -0.01360 -0.17067
#
# Static dielectric constant tensor:
#      x y z
#    x 1.837480 0.000000 0.000000 
#    y 0.000000 1.851020 0.000000 
#    z 0.000000 0.000000 1.833490 
# 
# From -- ./inp_files/6918.got.cif
#   From: 2010.05.17/outbox.cif.g08.bks.cpg/sg46_4_cif.got.tgz:6918.got - 2010.06.03 19:58:25.
