data_PCOD9380970
_publ_section_title
;
Structure prediction by ZEFSAII (Michael W. Deem and Ramdas Pophale) SiO2 
 PCOD9380970
Probable space group: I M A 2
;
_chemical_formula_sum "Si O2"
_cell_formula_units_Z 48
_cell_length_a 25.466244
_cell_length_b 8.973459
_cell_length_c 10.421878
_cell_angle_alpha 90.000000
_cell_angle_beta 90.000000
_cell_angle_gamma 90.000000
_cell_volume 2381.610650
_symmetry_space_group_name_H-M "I M A 2"
_symmetry_group_IT_number 46
_symmetry_cell_setting 'orthorhombic'
loop_
_space_group_symop_operation_xyz
x,y,z
-x,-y,z
1/2-x,y,z
1/2+x,-y,z
1/2+x,1/2+y,1/2+z
1/2-x,1/2-y,1/2+z
-x,1/2+y,1/2+z
x,1/2-y,1/2+z
loop_
_atom_site_type_symbol
_atom_site_label
_atom_site_fract_x
_atom_site_fract_y
_atom_site_fract_z
Si Si1 0.311865 0.925124 0.048440
Si Si2 0.978645 0.667352 0.271893
Si Si3 0.311573 0.076428 0.320459
Si Si4 0.521615 0.165624 0.511345
Si Si5 0.857434 0.099505 0.557888
Si Si6 0.642250 0.600074 0.310853
O O1 0.250000 0.950697 0.023457
O O2 0.323099 0.749240 0.055450
O O3 0.325164 0.999663 0.185031
O O4 0.345050 0.002083 0.935785
O O5 0.917602 0.658494 0.306261
O O6 0.000000 0.500000 0.261400
O O7 0.011617 0.745429 0.382275
O O8 0.989438 0.734397 0.131121
O O9 0.250000 0.049663 0.345264
O O10 0.322317 0.252234 0.311555
O O11 0.344071 0.002146 0.435309
O O12 0.582174 0.151590 0.550012
O O13 0.500000 0.000000 0.488003
O O14 0.849097 0.002262 0.685698
#
# Coordination Sequence:
#
# PCOD9380970 Si02
#       6
#     8   8   8   8   8   8
#     4  11  26  44  68 100 134 179 231 279 340 403
#     4  11  24  44  65  99 135 173 224 272 329 403
#     4  11  26  44  68 100 134 179 231 279 340 403
#     4  11  24  44  65  99 135 173 224 272 329 403
#     4  12  24  44  70  97 137 179 223 282 339 400
#     4  12  24  44  70  97 137 179 223 282 339 400
#
# _framework density 20.154427999999999
#
# number of rings (size 3 to 8) (size 9 to 14) (size 15 to 20)
#    0.000    0.667    3.333    5.000    4.667    6.000 
#    0.000    0.000    0.000    0.000    0.000    0.000 
#    0.000    0.000    0.000    0.000    0.000    0.000 
#
# Total GULP energy -134284.311340 kJ/mol
# GULP energy per Si atom -5595.179639 kJ/mol
# Density = 2.010856 g / cm^3
# Si number density = 20.154428 Si / 1000 Ang^3
#
#
#
# Elastic Constant Matrix: (Units=GPa)
#
#
# Indices 1 2 3 4 5 6 
#
# 1 60.6443 -4.3406 22.8408 0.0000 0.0000 0.0000
# 2 -4.3406 88.2590 46.8506 0.0000 0.0000 0.0000
# 3 22.8408 46.8506 112.8539 0.0000 0.0000 0.0000
# 4 0.0000 0.0000 0.0000 -42.4155 0.0000 0.0000
# 5 0.0000 0.0000 0.0000 0.0000 31.3692 0.0000
# 6 0.0000 0.0000 0.0000 0.0000 0.0000 25.8711
#
#
#
# Elastic Compliance Matrix: (Units=1/GPa)
#
#
# Indices 1 2 3 4 5 6 
#
# 1 0.018781 0.003773 -0.005367 0.000000 0.000000 0.000000
# 2 0.003773 0.015291 -0.007112 0.000000 0.000000 0.000000
# 3 -0.005367 -0.007112 0.012900 0.000000 0.000000 0.000000
# 4 0.000000 0.000000 0.000000 -0.023576 0.000000 0.000000
# 5 0.000000 0.000000 0.000000 0.000000 0.031878 0.000000
# 6 0.000000 0.000000 0.000000 0.000000 0.000000 0.038653
#
#
# Mechanical properties :
#
#
# Convention : Reuss Voigt Hill
#
# Bulk Modulus (GPa) = 33.83006 43.60655 38.71830
# Shear Modulus (GPa) = 41.25671 16.05871 28.65771
#
# Velocity S-wave (km/s) = 4.52932 2.82580 3.77491
# Velocity P-wave (km/s) = 6.64642 5.68595 6.18486
#
# Compressibility (1/GPa) = 0.02955951
#
# Stress axis : x y z
#
# Youngs Moduli (GPa) = 53.24469 65.39860 77.52145
#
# Poissons Ratio (x) = -0.24674 0.41609
# Poissons Ratio (y) = -0.20089 0.55129
# Poissons Ratio (z) = 0.28579 0.46508
#
# Static dielectric constant tensor:
#      x y z
#    x 1.710410 0.000000 0.000000 
#    y 0.000000 1.675660 0.000000 
#    z 0.000000 0.000000 1.695970 
# 
# From -- ./inp_files/12986.got.cif
#   From: 2010.05.17/outbox.cif.g08.bks.cpg/sg46_7_cif.got.tgz:12986.got - 2010.06.03 19:58:25.
