data_PCOD9380237
_publ_section_title
;
Structure prediction by ZEFSAII (Michael W. Deem and Ramdas Pophale) SiO2 
 PCOD9380237
Probable space group: I M A 2
;
_chemical_formula_sum "Si O2"
_cell_formula_units_Z 60
_cell_length_a 9.319963
_cell_length_b 19.658558
_cell_length_c 15.583298
_cell_angle_alpha 90.000000
_cell_angle_beta 90.000000
_cell_angle_gamma 90.000000
_cell_volume 2855.125627
_symmetry_space_group_name_H-M "I M A 2"
_symmetry_group_IT_number 46
_symmetry_cell_setting 'orthorhombic'
loop_
_space_group_symop_operation_xyz
x,y,z
-x,-y,z
1/2-x,y,z
1/2+x,-y,z
1/2+x,1/2+y,1/2+z
1/2-x,1/2-y,1/2+z
-x,1/2+y,1/2+z
x,1/2-y,1/2+z
loop_
_atom_site_type_symbol
_atom_site_label
_atom_site_fract_x
_atom_site_fract_y
_atom_site_fract_z
Si Si1 0.250000 0.476014 0.788161
Si Si2 0.923917 0.931077 0.572108
Si Si3 0.921758 0.713480 0.995224
Si Si4 0.917964 0.564613 0.416470
Si Si5 0.526975 0.402215 0.751750
Si Si6 0.077844 0.614714 0.246361
Si Si7 0.089251 0.756434 0.325584
Si Si8 0.417268 0.344109 0.582243
O O1 0.376510 0.418632 0.796788
O O2 0.370356 0.535497 0.770584
O O3 0.750000 0.938881 0.576002
O O4 0.959520 0.864474 0.515725
O O5 0.993115 0.914732 0.664932
O O6 0.000000 0.000000 0.539418
O O7 0.750000 0.717936 0.993183
O O8 0.969399 0.766771 0.069187
O O9 0.984978 0.738933 0.906138
O O10 0.750000 0.551336 0.396743
O O11 0.922894 0.622491 0.488411
O O12 0.000000 0.500000 0.454758
O O13 0.007249 0.583166 0.331691
O O14 0.585072 0.330009 0.783039
O O15 0.498306 0.390420 0.650567
O O16 0.250000 0.601481 0.239879
O O17 0.054788 0.695548 0.260091
O O18 0.250000 0.741570 0.358026
O O19 0.250000 0.343295 0.609970
#
# Coordination Sequence:
#
# PCOD9380237 Si02
#       8
#     4   8   8   8   8   8   8   8
#     4  10  24  40  64  90 132 162 218 262 314 372
#     4  11  24  44  69  97 128 169 216 270 326 385
#     4  10  23  44  67  96 127 165 218 266 318 388
#     4  11  23  38  60  92 130 169 209 261 316 381
#     4  11  22  43  62  95 124 174 211 263 314 382
#     4  11  23  42  66  93 127 166 215 268 322 382
#     4  11  24  43  64  95 130 168 216 267 322 378
#     4  10  21  39  65  94 127 164 211 259 315 380
#
# _framework density 21.014838000000001
#
# number of rings (size 3 to 8) (size 9 to 14) (size 15 to 20)
#    0.000    1.333    2.667    2.400    2.800    1.600 
#    4.800    0.000    0.000    0.000    0.000    0.000 
#    0.000    0.000    0.000    0.000    0.000    0.000 
#
# Total GULP energy -167044.508503 kJ/mol
# GULP energy per Si atom -5568.150283 kJ/mol
# Density = 2.096701 g / cm^3
# Si number density = 21.014838 Si / 1000 Ang^3
#
#
#
# Elastic Constant Matrix: (Units=GPa)
#
#
# Indices 1 2 3 4 5 6 
#
# 1 100.9462 30.8228 -3.5195 0.0000 0.0000 0.0000
# 2 30.8228 116.5978 -13.6899 0.0000 0.0000 0.0000
# 3 -3.5195 -13.6899 14.9777 0.0000 0.0000 0.0000
# 4 0.0000 0.0000 0.0000 19.1311 0.0000 0.0000
# 5 0.0000 0.0000 0.0000 0.0000 -199.0780 0.0000
# 6 0.0000 0.0000 0.0000 0.0000 0.0000 25.7715
#
#
#
# Elastic Compliance Matrix: (Units=1/GPa)
#
#
# Indices 1 2 3 4 5 6 
#
# 1 0.010776 -0.002858 -0.000080 0.000000 0.000000 0.000000
# 2 -0.002858 0.010366 0.008803 0.000000 0.000000 0.000000
# 3 -0.000080 0.008803 0.074793 0.000000 0.000000 0.000000
# 4 0.000000 0.000000 0.000000 0.052271 0.000000 0.000000
# 5 0.000000 0.000000 0.000000 0.000000 -0.005023 0.000000
# 6 0.000000 0.000000 0.000000 0.000000 0.000000 0.038803
#
#
# Mechanical properties :
#
#
# Convention : Reuss Voigt Hill
#
# Bulk Modulus (GPa) = 9.28819 28.86092 19.07456
# Shear Modulus (GPa) = 24.25493 -16.24118 4.00687
#
# Velocity S-wave (km/s) = 3.40101 -2.78302 1.38233
# Velocity P-wave (km/s) = 4.45555 1.85377 3.41236
#
# Compressibility (1/GPa) = 0.10766357
#
# Stress axis : x y z
#
# Youngs Moduli (GPa) = 92.79743 96.47320 13.37027
#
# Poissons Ratio (x) = 0.27573 0.00107
# Poissons Ratio (y) = 0.26522 -0.11769
# Poissons Ratio (z) = 0.00743 -0.84923
#
# Static dielectric constant tensor:
#      x y z
#    x 1.742940 0.000000 0.000000 
#    y 0.000000 1.790200 0.000000 
#    z 0.000000 0.000000 1.755670 
# 
# From -- ./inp_files/18354.got.cif
#   From: 2010.05.17/outbox.cif.g08.bks.cpg/sg46_10_cif.got.tgz:18354.got - 2010.06.03 19:58:25.
