data_PCOD9380940
_publ_section_title
;
Structure prediction by ZEFSAII (Michael W. Deem and Ramdas Pophale) SiO2 
 PCOD9380940
Probable space group: I M A 2
;
_chemical_formula_sum "Si O2"
_cell_formula_units_Z 40
_cell_length_a 16.731776
_cell_length_b 5.030318
_cell_length_c 22.807742
_cell_angle_alpha 90.000000
_cell_angle_beta 90.000000
_cell_angle_gamma 90.000000
_cell_volume 1919.639925
_symmetry_space_group_name_H-M "I M A 2"
_symmetry_group_IT_number 46
_symmetry_cell_setting 'orthorhombic'
loop_
_space_group_symop_operation_xyz
x,y,z
-x,-y,z
1/2-x,y,z
1/2+x,-y,z
1/2+x,1/2+y,1/2+z
1/2-x,1/2-y,1/2+z
-x,1/2+y,1/2+z
x,1/2-y,1/2+z
loop_
_atom_site_type_symbol
_atom_site_label
_atom_site_fract_x
_atom_site_fract_y
_atom_site_fract_z
Si Si1 0.343685 0.087812 0.596270
Si Si2 0.408285 0.411582 0.836768
Si Si3 0.592252 0.083921 0.029897
Si Si4 0.056472 0.246306 0.208380
Si Si5 0.656716 0.401909 0.401935
O O1 0.250000 0.029151 0.601968
O O2 0.357433 0.329247 0.551064
O O3 0.382828 0.178655 0.657228
O O4 0.389544 0.829611 0.572448
O O5 0.500000 0.500000 0.845328
O O6 0.400426 0.339678 0.768370
O O7 0.354969 0.655516 0.858246
O O8 0.387627 0.155489 0.874995
O O9 0.500000 0.000000 0.031263
O O10 0.618415 0.164468 0.964664
O O11 0.000000 0.500000 0.221032
O O12 0.000000 0.000000 0.190010
O O13 0.750000 0.461410 0.409514
#
# Coordination Sequence:
#
# PCOD9380940 Si02
#       5
#     8   8   8   8   8
#     4  12  25  42  66  98 132 165 211 268 323 374
#     4  11  23  43  67  94 126 170 219 261 312 379
#     4  12  25  44  67  93 129 173 217 258 314 385
#     4  11  23  43  68  93 127 170 217 263 313 380
#     4  12  25  42  65  96 133 168 210 266 324 376
#
# _framework density 20.837243000000001
#
# number of rings (size 3 to 8) (size 9 to 14) (size 15 to 20)
#    0.000    0.400    0.000   11.400    0.000    1.600 
#    0.000    0.000    0.000    0.000    0.000    0.000 
#    0.000    0.000    0.000    0.000    0.000    0.000 
#
# Total GULP energy -112074.637272 kJ/mol
# GULP energy per Si atom -5603.731864 kJ/mol
# Density = 2.078982 g / cm^3
# Si number density = 20.837243 Si / 1000 Ang^3
#
#
#
# Elastic Constant Matrix: (Units=GPa)
#
#
# Indices 1 2 3 4 5 6 
#
# 1 108.6067 32.3107 88.2641 0.0000 0.0000 0.0000
# 2 32.3107 129.3779 52.9709 0.0000 0.0000 0.0000
# 3 88.2641 52.9709 127.4686 0.0000 0.0000 0.0000
# 4 0.0000 0.0000 0.0000 41.6035 0.0000 0.0000
# 5 0.0000 0.0000 0.0000 0.0000 -28.5964 0.0000
# 6 0.0000 0.0000 0.0000 0.0000 0.0000 42.4917
#
#
#
# Elastic Compliance Matrix: (Units=1/GPa)
#
#
# Indices 1 2 3 4 5 6 
#
# 1 0.021136 0.000860 -0.014993 0.000000 0.000000 0.000000
# 2 0.000860 0.009349 -0.004481 0.000000 0.000000 0.000000
# 3 -0.014993 -0.004481 0.020089 0.000000 0.000000 0.000000
# 4 0.000000 0.000000 0.000000 0.024036 0.000000 0.000000
# 5 0.000000 0.000000 0.000000 0.000000 -0.034969 0.000000
# 6 0.000000 0.000000 0.000000 0.000000 0.000000 0.023534
#
#
# Mechanical properties :
#
#
# Convention : Reuss Voigt Hill
#
# Bulk Modulus (GPa) = 74.92344 79.17162 77.04753
# Shear Modulus (GPa) = 47.68651 23.89360 35.79006
#
# Velocity S-wave (km/s) = 4.78904 3.38994 4.14889
# Velocity P-wave (km/s) = 8.16177 7.30753 7.74643
#
# Compressibility (1/GPa) = 0.01334696
#
# Stress axis : x y z
#
# Youngs Moduli (GPa) = 47.31160 106.96348 49.77906
#
# Poissons Ratio (x) = -0.09199 0.74634
# Poissons Ratio (y) = -0.04069 0.22304
# Poissons Ratio (z) = 0.70935 0.47925
#
# Static dielectric constant tensor:
#      x y z
#    x 1.733100 0.000000 0.000000 
#    y 0.000000 1.722720 0.000000 
#    z 0.000000 0.000000 1.728980 
# 
# From -- ./inp_files/23548.got.cif
#   From: 2010.05.17/outbox.cif.g08.bks.cpg/sg46_12_cif.got.tgz:23548.got - 2010.06.03 19:58:25.
