data_PCOD9380563
_publ_section_title
;
Structure prediction by ZEFSAII (Michael W. Deem and Ramdas Pophale) SiO2 
 PCOD9380563
Probable space group: I M A 2
;
_chemical_formula_sum "Si O2"
_cell_formula_units_Z 64
_cell_length_a 15.142622
_cell_length_b 10.911627
_cell_length_c 18.604942
_cell_angle_alpha 90.000000
_cell_angle_beta 90.000000
_cell_angle_gamma 90.000000
_cell_volume 3074.106531
_symmetry_space_group_name_H-M "I M A 2"
_symmetry_group_IT_number 46
_symmetry_cell_setting 'orthorhombic'
loop_
_space_group_symop_operation_xyz
x,y,z
-x,-y,z
1/2-x,y,z
1/2+x,-y,z
1/2+x,1/2+y,1/2+z
1/2-x,1/2-y,1/2+z
-x,1/2+y,1/2+z
x,1/2-y,1/2+z
loop_
_atom_site_type_symbol
_atom_site_label
_atom_site_fract_x
_atom_site_fract_y
_atom_site_fract_z
Si Si1 0.142948 0.725973 0.023810
Si Si2 0.852270 0.273316 0.712809
Si Si3 0.102325 0.965978 0.647572
Si Si4 0.648223 0.239082 0.369198
Si Si5 0.026316 0.373752 0.665650
Si Si6 0.395555 0.477951 0.373498
Si Si7 0.645838 0.521781 0.535333
Si Si8 0.653030 0.684026 0.234623
O O1 0.250000 0.719284 0.026991
O O2 0.113375 0.613320 0.075089
O O3 0.127547 0.874335 0.031613
O O4 0.106005 0.699422 0.943844
O O5 0.882460 0.308592 0.792397
O O6 0.929671 0.312632 0.658906
O O7 0.857612 0.127100 0.706217
O O8 0.250000 0.688903 0.697960
O O9 0.149815 0.092857 0.665566
O O10 0.000000 0.000000 0.659061
O O11 0.750000 0.200990 0.372639
O O12 0.646342 0.386945 0.367216
O O13 0.082222 0.411409 0.593939
O O14 0.083021 0.287047 0.715708
O O15 0.000000 0.500000 0.702023
O O16 0.500000 0.500000 0.369863
O O17 0.371439 0.431544 0.453836
O O18 0.368710 0.390789 0.307415
O O19 0.750000 0.537962 0.553495
O O20 0.750000 0.737830 0.241574
#
# Coordination Sequence:
#
# PCOD9380563 Si02
#       8
#     8   8   8   8   8   8   8   8
#     4   9  19  37  65  97 126 168 215 265 334 406
#     4  11  22  40  67  94 126 169 215 274 337 402
#     4  12  22  37  61  97 134 168 213 273 339 405
#     4   9  18  36  63  93 124 160 210 263 323 392
#     4  12  26  43  62  91 129 177 229 282 334 406
#     4  11  20  36  64 102 135 166 213 277 336 397
#     4  10  22  42  68  97 134 178 226 276 335 402
#     4  12  24  40  66  98 135 175 221 282 348 404
#
# _framework density 20.819057000000001
#
# number of rings (size 3 to 8) (size 9 to 14) (size 15 to 20)
#    0.000    1.250    2.500    5.625    0.000    3.000 
#    0.000    0.625    2.750    0.000    0.000    0.000 
#    0.000    0.000    0.000    0.000    0.000    0.000 
#
# Total GULP energy -178225.680233 kJ/mol
# GULP energy per Si atom -5569.552507 kJ/mol
# Density = 2.077167 g / cm^3
# Si number density = 20.819057 Si / 1000 Ang^3
#
#
#
# Elastic Constant Matrix: (Units=GPa)
#
#
# Indices 1 2 3 4 5 6 
#
# 1 124.3807 28.9768 42.1657 0.0000 0.0000 0.0000
# 2 28.9768 77.0488 39.2600 0.0000 0.0000 0.0000
# 3 42.1657 39.2600 163.0907 0.0000 0.0000 0.0000
# 4 0.0000 0.0000 0.0000 32.4164 0.0000 0.0000
# 5 0.0000 0.0000 0.0000 0.0000 -76.3003 0.0000
# 6 0.0000 0.0000 0.0000 0.0000 0.0000 46.2860
#
#
#
# Elastic Compliance Matrix: (Units=1/GPa)
#
#
# Indices 1 2 3 4 5 6 
#
# 1 0.009239 -0.002573 -0.001769 0.000000 0.000000 0.000000
# 2 -0.002573 0.015510 -0.003068 0.000000 0.000000 0.000000
# 3 -0.001769 -0.003068 0.007328 0.000000 0.000000 0.000000
# 4 0.000000 0.000000 0.000000 0.030849 0.000000 0.000000
# 5 0.000000 0.000000 0.000000 0.000000 -0.013106 0.000000
# 6 0.000000 0.000000 0.000000 0.000000 0.000000 0.021605
#
#
# Mechanical properties :
#
#
# Convention : Reuss Voigt Hill
#
# Bulk Modulus (GPa) = 57.95384 65.03615 61.49499
# Shear Modulus (GPa) = 54.34943 17.42159 35.88551
#
# Velocity S-wave (km/s) = 5.11491 2.89590 4.15623
# Velocity P-wave (km/s) = 7.92341 6.51830 7.25495
#
# Compressibility (1/GPa) = 0.01725511
#
# Stress axis : x y z
#
# Youngs Moduli (GPa) = 108.23586 64.47462 136.46994
#
# Poissons Ratio (x) = 0.16590 0.24145
# Poissons Ratio (y) = 0.27851 0.41874
# Poissons Ratio (z) = 0.19150 0.19783
#
# Static dielectric constant tensor:
#      x y z
#    x 1.870600 0.000000 0.000000 
#    y 0.000000 1.835430 0.000000 
#    z 0.000000 0.000000 1.858920 
# 
# From -- ./inp_files/19630.got.cif
#   From: 2010.05.17/outbox.cif.g08.bks.cpg/sg46_10_cif.got.tgz:19630.got - 2010.06.03 19:58:25.
