data_PCOD9380352
_publ_section_title
;
Structure prediction by ZEFSAII (Michael W. Deem and Ramdas Pophale) SiO2 
 PCOD9380352
Probable space group: I M A 2
;
_chemical_formula_sum "Si O2"
_cell_formula_units_Z 64
_cell_length_a 17.700559
_cell_length_b 13.650033
_cell_length_c 12.668661
_cell_angle_alpha 90.000000
_cell_angle_beta 90.000000
_cell_angle_gamma 90.000000
_cell_volume 3060.915907
_symmetry_space_group_name_H-M "I M A 2"
_symmetry_group_IT_number 46
_symmetry_cell_setting 'orthorhombic'
loop_
_space_group_symop_operation_xyz
x,y,z
-x,-y,z
1/2-x,y,z
1/2+x,-y,z
1/2+x,1/2+y,1/2+z
1/2-x,1/2-y,1/2+z
-x,1/2+y,1/2+z
x,1/2-y,1/2+z
loop_
_atom_site_type_symbol
_atom_site_label
_atom_site_fract_x
_atom_site_fract_y
_atom_site_fract_z
Si Si1 0.159518 0.970304 0.065470
Si Si2 0.570027 0.426790 0.985590
Si Si3 0.159392 0.885741 0.839338
Si Si4 0.050839 0.902982 0.242926
Si Si5 0.617318 0.598718 0.254915
Si Si6 0.960641 0.193503 0.691758
Si Si7 0.160049 0.179431 0.975983
Si Si8 0.166581 0.112102 0.523917
O O1 0.250000 0.973789 0.073807
O O2 0.122741 0.928289 0.170582
O O3 0.132346 0.081571 0.037075
O O4 0.142293 0.901720 0.963477
O O5 0.500000 0.500000 0.004415
O O6 0.565731 0.386695 0.867260
O O7 0.567516 0.347519 0.078997
O O8 0.636800 0.505821 0.992993
O O9 0.250000 0.873156 0.827584
O O10 0.108754 0.809724 0.774981
O O11 0.132190 0.986958 0.785852
O O12 0.013493 0.806156 0.192966
O O13 0.000000 0.000000 0.237226
O O14 0.530485 0.626578 0.231030
O O15 0.647779 0.658956 0.353255
O O16 0.663891 0.616962 0.149709
O O17 0.250000 0.183717 0.000164
O O18 0.124296 0.286620 0.994608
O O19 0.250000 0.119489 0.478582
#
# Coordination Sequence:
#
# PCOD9380352 Si02
#       8
#     8   8   8   8   8   8   8   8
#     4   9  21  44  66  93 133 171 221 279 330 392
#     4  11  24  45  63  94 138 166 215 279 319 388
#     4  10  21  42  70 101 129 163 222 285 325 390
#     4  11  29  44  65  95 135 178 221 273 334 398
#     4  11  21  37  64  97 134 170 217 275 331 389
#     4  12  25  41  69  97 128 181 221 269 339 395
#     4   9  21  37  64 101 133 170 217 274 335 403
#     4  11  22  38  66  97 130 174 216 269 343 402
#
# _framework density 20.908774999999999
#
# number of rings (size 3 to 8) (size 9 to 14) (size 15 to 20)
#    0.000    1.500    2.500    2.250    7.000    3.000 
#    0.000    2.500    0.000    0.000    0.000    0.000 
#    0.000    0.000    0.000    0.000    0.000    0.000 
#
# Total GULP energy -178525.633502 kJ/mol
# GULP energy per Si atom -5578.926047 kJ/mol
# Density = 2.086119 g / cm^3
# Si number density = 20.908775 Si / 1000 Ang^3
#
#
#
# Elastic Constant Matrix: (Units=GPa)
#
#
# Indices 1 2 3 4 5 6 
#
# 1 50.1028 6.3397 5.1437 0.0000 0.0000 0.0000
# 2 6.3397 78.7345 45.1812 0.0000 0.0000 0.0000
# 3 5.1437 45.1812 71.4872 0.0000 0.0000 0.0000
# 4 0.0000 0.0000 0.0000 10.1573 0.0000 0.0000
# 5 0.0000 0.0000 0.0000 0.0000 27.8974 0.0000
# 6 0.0000 0.0000 0.0000 0.0000 0.0000 20.5781
#
#
#
# Elastic Compliance Matrix: (Units=1/GPa)
#
#
# Indices 1 2 3 4 5 6 
#
# 1 0.020185 -0.001242 -0.000667 0.000000 0.000000 0.000000
# 2 -0.001242 0.020005 -0.012554 0.000000 0.000000 0.000000
# 3 -0.000667 -0.012554 0.021971 0.000000 0.000000 0.000000
# 4 0.000000 0.000000 0.000000 0.098451 0.000000 0.000000
# 5 0.000000 0.000000 0.000000 0.000000 0.035846 0.000000
# 6 0.000000 0.000000 0.000000 0.000000 0.000000 0.048595
#
#
# Mechanical properties :
#
#
# Convention : Reuss Voigt Hill
#
# Bulk Modulus (GPa) = 30.09034 34.85042 32.47038
# Shear Modulus (GPa) = 17.54031 21.30390 19.42210
#
# Velocity S-wave (km/s) = 2.89951 3.19548 3.05109
# Velocity P-wave (km/s) = 5.06281 5.50625 5.28918
#
# Compressibility (1/GPa) = 0.03323325
#
# Stress axis : x y z
#
# Youngs Moduli (GPa) = 49.54260 49.98734 45.51464
#
# Poissons Ratio (x) = 0.06211 0.03036
# Poissons Ratio (y) = 0.06156 0.57140
# Poissons Ratio (z) = 0.03305 0.62755
#
# Static dielectric constant tensor:
#      x y z
#    x 1.828480 0.000000 0.000000 
#    y 0.000000 1.877100 0.000000 
#    z 0.000000 0.000000 1.740460 
# 
# From -- ./inp_files/11994.got.cif
#   From: 2010.05.17/outbox.cif.g08.bks.cpg/sg46_6_cif.got.tgz:11994.got - 2010.06.03 19:58:25.
