data_PCOD9380206
_publ_section_title
;
Structure prediction by ZEFSAII (Michael W. Deem and Ramdas Pophale) SiO2 
 PCOD9380206
Probable space group: I M A 2
;
_chemical_formula_sum "Si O2"
_cell_formula_units_Z 48
_cell_length_a 13.807821
_cell_length_b 10.085599
_cell_length_c 13.756425
_cell_angle_alpha 90.000000
_cell_angle_beta 90.000000
_cell_angle_gamma 90.000000
_cell_volume 1915.721749
_symmetry_space_group_name_H-M "I M A 2"
_symmetry_group_IT_number 46
_symmetry_cell_setting 'orthorhombic'
loop_
_space_group_symop_operation_xyz
x,y,z
-x,-y,z
1/2-x,y,z
1/2+x,-y,z
1/2+x,1/2+y,1/2+z
1/2-x,1/2-y,1/2+z
-x,1/2+y,1/2+z
x,1/2-y,1/2+z
loop_
_atom_site_type_symbol
_atom_site_label
_atom_site_fract_x
_atom_site_fract_y
_atom_site_fract_z
Si Si1 0.134958 0.065002 0.310620
Si Si2 0.937535 0.841019 0.891982
Si Si3 0.359852 0.775673 0.634165
Si Si4 0.865042 0.565002 0.186294
Si Si5 0.562465 0.658980 0.604932
Si Si6 0.140148 0.775673 0.362749
O O1 0.250000 0.061124 0.296534
O O2 0.107195 0.196089 0.369499
O O3 0.090303 0.078427 0.202210
O O4 0.110208 0.930552 0.368019
O O5 0.909697 0.921573 0.794704
O O6 0.052668 0.815031 0.897411
O O7 0.904484 0.889152 0.998457
O O8 0.250000 0.755792 0.598396
O O9 0.447332 0.684969 0.599503
O O10 0.355337 0.750000 0.748457
O O11 0.389792 0.930553 0.628895
O O12 0.750000 0.561124 0.200380
O O13 0.892805 0.696089 0.127415
O O14 0.250000 0.755792 0.398518
#
# Coordination Sequence:
#
# PCOD9380206 Si02
#       6
#     8   8   8   8   8   8
#     4  10  22  40  61  87 124 163 201 247 303 364
#     4  11  22  37  64  93 119 155 205 257 303 356
#     4  10  21  39  62  85 120 163 199 245 302 362
#     4  10  22  40  61  87 124 163 201 247 303 364
#     4  11  22  37  64  93 119 155 205 257 303 356
#     4  10  21  39  62  85 120 163 199 245 302 362
#
# _framework density 25.055831000000001
#
# number of rings (size 3 to 8) (size 9 to 14) (size 15 to 20)
#    0.000    1.667    3.333    3.000    0.000    6.000 
#    0.000    6.667    0.000    6.000    0.000    0.000 
#    0.000    0.000    0.000    0.000    0.000    0.000 
#
# Total GULP energy -134270.126478 kJ/mol
# GULP energy per Si atom -5594.588603 kJ/mol
# Density = 2.499880 g / cm^3
# Si number density = 25.055831 Si / 1000 Ang^3
#
#
#
# Elastic Constant Matrix: (Units=GPa)
#
#
# Indices 1 2 3 4 5 6 
#
# 1 117.6418 9.9980 18.5446 0.0000 0.0000 0.0000
# 2 9.9980 76.2047 -12.7514 0.0000 0.0000 0.0000
# 3 18.5446 -12.7514 153.5165 0.0000 0.0000 0.0000
# 4 0.0000 0.0000 0.0000 -17.7077 0.0000 0.0000
# 5 0.0000 0.0000 0.0000 0.0000 -4.1440 0.0000
# 6 0.0000 0.0000 0.0000 0.0000 0.0000 34.9462
#
#
#
# Elastic Compliance Matrix: (Units=1/GPa)
#
#
# Indices 1 2 3 4 5 6 
#
# 1 0.008800 -0.001351 -0.001175 0.000000 0.000000 0.000000
# 2 -0.001351 0.013515 0.001286 0.000000 0.000000 0.000000
# 3 -0.001175 0.001286 0.006763 0.000000 0.000000 0.000000
# 4 0.000000 0.000000 0.000000 -0.056473 0.000000 0.000000
# 5 0.000000 0.000000 0.000000 0.000000 -0.241315 0.000000
# 6 0.000000 0.000000 0.000000 0.000000 0.000000 0.028615
#
#
# Mechanical properties :
#
#
# Convention : Reuss Voigt Hill
#
# Bulk Modulus (GPa) = 37.59875 42.10505 39.85190
# Shear Modulus (GPa) = -21.85822 24.72370 1.43274
#
# Velocity S-wave (km/s) = -2.95681 3.14466 0.75701
# Velocity P-wave (km/s) = 1.83891 5.47961 4.08703
#
# Compressibility (1/GPa) = 0.02659663
#
# Stress axis : x y z
#
# Youngs Moduli (GPa) = 113.62999 73.99188 147.86916
#
# Poissons Ratio (x) = 0.09998 0.17379
# Poissons Ratio (y) = 0.15355 -0.19013
# Poissons Ratio (z) = 0.13355 -0.09514
#
# Static dielectric constant tensor:
#      x y z
#    x 1.960990 0.000000 0.000000 
#    y 0.000000 2.050880 0.000000 
#    z 0.000000 0.000000 1.929310 
# 
# From -- ./inp_files/15869.got.cif
#   From: 2010.05.17/outbox.cif.g08.bks.cpg/sg46_8_cif.got.tgz:15869.got - 2010.06.03 19:58:25.
