data_PCOD9380878
_publ_section_title
;
Structure prediction by ZEFSAII (Michael W. Deem and Ramdas Pophale) SiO2 
 PCOD9380878
Probable space group: I M A 2
;
_chemical_formula_sum "Si O2"
_cell_formula_units_Z 48
_cell_length_a 18.467219
_cell_length_b 10.224010
_cell_length_c 13.206667
_cell_angle_alpha 90.000000
_cell_angle_beta 90.000000
_cell_angle_gamma 90.000000
_cell_volume 2493.538009
_symmetry_space_group_name_H-M "I M A 2"
_symmetry_group_IT_number 46
_symmetry_cell_setting 'orthorhombic'
loop_
_space_group_symop_operation_xyz
x,y,z
-x,-y,z
1/2-x,y,z
1/2+x,-y,z
1/2+x,1/2+y,1/2+z
1/2-x,1/2-y,1/2+z
-x,1/2+y,1/2+z
x,1/2-y,1/2+z
loop_
_atom_site_type_symbol
_atom_site_label
_atom_site_fract_x
_atom_site_fract_y
_atom_site_fract_z
Si Si1 0.250000 0.596262 0.827680
Si Si2 0.250000 0.608046 0.070746
Si Si3 0.866843 0.788687 0.895369
Si Si4 0.250000 0.316334 0.042085
Si Si5 0.133318 0.718049 0.682866
Si Si6 0.416703 0.956084 0.005309
Si Si7 0.020263 0.654836 0.320510
Si Si8 0.750000 0.702861 0.749079
O O1 0.180835 0.663782 0.775444
O O2 0.250000 0.444221 0.792960
O O3 0.250000 0.613805 0.948432
O O4 0.250000 0.455314 0.095794
O O5 0.319028 0.678263 0.120410
O O6 0.818691 0.779951 0.794765
O O7 0.948965 0.768445 0.858086
O O8 0.821874 0.697459 0.972707
O O9 0.872231 0.925985 0.954887
O O10 0.250000 0.206996 0.128656
O O11 0.116814 0.600865 0.605890
O O12 0.060343 0.782244 0.726063
O O13 0.500000 0.000000 0.025504
O O14 0.425489 0.849811 0.916203
O O15 0.000000 0.500000 0.302487
#
# Coordination Sequence:
#
# PCOD9380878 Si02
#       8
#     4   4   8   4   8   8   8   4
#     4  11  23  43  58  91 132 153 219 264 316 379
#     4  11  25  40  57  94 133 161 205 272 308 393
#     4   9  20  40  62  89 127 157 203 273 302 376
#     4  11  22  38  61  97 126 162 210 258 334 373
#     4  11  23  40  65  88 122 176 205 260 320 386
#     4   9  20  40  61  89 120 160 216 258 313 380
#     4   9  21  40  61  90 124 160 215 259 314 380
#     4  11  22  37  66  92 121 168 212 258 322 389
#
# _framework density 19.249756000000001
#
# number of rings (size 3 to 8) (size 9 to 14) (size 15 to 20)
#    0.000    2.333    1.667    2.000    4.667    6.000 
#    0.000    0.000    3.667    0.000    0.000    0.000 
#    0.000    0.000    0.000    0.000    0.000    0.000 
#
# Total GULP energy -133764.153581 kJ/mol
# GULP energy per Si atom -5573.506399 kJ/mol
# Density = 1.920594 g / cm^3
# Si number density = 19.249756 Si / 1000 Ang^3
#
#
#
# Elastic Constant Matrix: (Units=GPa)
#
#
# Indices 1 2 3 4 5 6 
#
# 1 81.6715 50.7087 39.2424 0.0000 0.0000 0.0000
# 2 50.7087 62.6212 31.1830 0.0000 0.0000 0.0000
# 3 39.2424 31.1830 108.6781 0.0000 0.0000 0.0000
# 4 0.0000 0.0000 0.0000 35.4973 0.0000 0.0000
# 5 0.0000 0.0000 0.0000 0.0000 17.1032 0.0000
# 6 0.0000 0.0000 0.0000 0.0000 0.0000 19.0232
#
#
#
# Elastic Compliance Matrix: (Units=1/GPa)
#
#
# Indices 1 2 3 4 5 6 
#
# 1 0.025969 -0.019086 -0.003901 0.000000 0.000000 0.000000
# 2 -0.019086 0.032659 -0.002479 0.000000 0.000000 0.000000
# 3 -0.003901 -0.002479 0.011321 0.000000 0.000000 0.000000
# 4 0.000000 0.000000 0.000000 0.028171 0.000000 0.000000
# 5 0.000000 0.000000 0.000000 0.000000 0.058469 0.000000
# 6 0.000000 0.000000 0.000000 0.000000 0.000000 0.052567
#
#
# Mechanical properties :
#
#
# Convention : Reuss Voigt Hill
#
# Bulk Modulus (GPa) = 52.58403 55.02654 53.80528
# Shear Modulus (GPa) = 18.76686 23.11387 20.94036
#
# Velocity S-wave (km/s) = 3.12575 3.46892 3.30180
# Velocity P-wave (km/s) = 6.35634 6.68522 6.52286
#
# Compressibility (1/GPa) = 0.01901718
#
# Stress axis : x y z
#
# Youngs Moduli (GPa) = 38.50773 30.61944 88.32963
#
# Poissons Ratio (x) = 0.58441 0.34454
# Poissons Ratio (y) = 0.73497 0.21897
# Poissons Ratio (z) = 0.15020 0.07590
#
# Static dielectric constant tensor:
#      x y z
#    x 1.683960 0.000000 0.000000 
#    y 0.000000 1.677010 0.000000 
#    z 0.000000 0.000000 1.677710 
# 
# From -- ./inp_files/16611.got.cif
#   From: 2010.05.17/outbox.cif.g08.bks.cpg/sg46_9_cif.got.tgz:16611.got - 2010.06.03 19:58:25.
