data_PCOD9380369
_publ_section_title
;
Structure prediction by ZEFSAII (Michael W. Deem and Ramdas Pophale) SiO2 
 PCOD9380369
Probable space group: I M A 2
;
_chemical_formula_sum "Si O2"
_cell_formula_units_Z 60
_cell_length_a 16.568159
_cell_length_b 17.837106
_cell_length_c 9.049784
_cell_angle_alpha 90.000000
_cell_angle_beta 90.000000
_cell_angle_gamma 90.000000
_cell_volume 2674.464641
_symmetry_space_group_name_H-M "I M A 2"
_symmetry_group_IT_number 46
_symmetry_cell_setting 'orthorhombic'
loop_
_space_group_symop_operation_xyz
x,y,z
-x,-y,z
1/2-x,y,z
1/2+x,-y,z
1/2+x,1/2+y,1/2+z
1/2-x,1/2-y,1/2+z
-x,1/2+y,1/2+z
x,1/2-y,1/2+z
loop_
_atom_site_type_symbol
_atom_site_label
_atom_site_fract_x
_atom_site_fract_y
_atom_site_fract_z
Si Si1 0.547154 0.926151 0.201980
Si Si2 0.400564 0.839694 0.057495
Si Si3 0.750000 0.702953 0.491193
Si Si4 0.588160 0.463703 0.146170
Si Si5 0.840687 0.912511 0.463760
Si Si6 0.940812 0.202813 0.724304
Si Si7 0.160437 0.993510 0.970435
Si Si8 0.133786 0.284684 0.205889
O O1 0.481031 0.875047 0.127034
O O2 0.595488 0.892516 0.338328
O O3 0.500000 0.000000 0.259082
O O4 0.606237 0.955268 0.073951
O O5 0.385120 0.768293 0.158761
O O6 0.340973 0.910149 0.041186
O O7 0.419406 0.811185 0.893912
O O8 0.821172 0.702539 0.360770
O O9 0.679126 0.718389 0.618431
O O10 0.500000 0.500000 0.137975
O O11 0.577448 0.374712 0.138520
O O12 0.624576 0.484311 0.306997
O O13 0.642046 0.503839 0.022720
O O14 0.750000 0.905742 0.405725
O O15 0.849640 0.857014 0.601446
O O16 0.036678 0.220644 0.715942
O O17 0.250000 0.026291 0.963778
#
# Coordination Sequence:
#
# PCOD9380369 Si02
#       8
#     8   8   4   8   8   8   8   8
#     4  10  23  41  65  94 129 170 213 267 318 387
#     4  10  24  41  66  97 129 166 224 264 324 392
#     4  10  22  42  54  84 128 166 204 252 328 372
#     4  11  22  41  67  94 128 168 224 268 317 392
#     4  12  24  40  61  97 131 168 216 271 323 379
#     4  11  23  40  66  94 124 171 222 270 317 385
#     4  10  21  44  66  96 131 169 209 269 331 390
#     4  11  23  39  60  85 127 173 211 265 312 392
#
# _framework density 22.434396
#
# number of rings (size 3 to 8) (size 9 to 14) (size 15 to 20)
#    0.000    1.333    2.667    4.000    3.733    1.067 
#    0.000    3.333    1.467    0.000    0.000    0.000 
#    0.000    0.000    0.000    0.000    0.000    0.000 
#
# Total GULP energy -167435.955381 kJ/mol
# GULP energy per Si atom -5581.198513 kJ/mol
# Density = 2.238333 g / cm^3
# Si number density = 22.434396 Si / 1000 Ang^3
#
#
#
# Elastic Constant Matrix: (Units=GPa)
#
#
# Indices 1 2 3 4 5 6 
#
# 1 61.2620 -18.7446 10.7174 0.0000 0.0000 0.0000
# 2 -18.7446 62.5263 21.0894 0.0000 0.0000 0.0000
# 3 10.7174 21.0894 83.9864 0.0000 0.0000 0.0000
# 4 0.0000 0.0000 0.0000 27.4805 0.0000 0.0000
# 5 0.0000 0.0000 0.0000 0.0000 53.7689 0.0000
# 6 0.0000 0.0000 0.0000 0.0000 0.0000 282.4836
#
#
#
# Elastic Compliance Matrix: (Units=1/GPa)
#
#
# Indices 1 2 3 4 5 6 
#
# 1 0.019281 0.007222 -0.004274 0.000000 0.000000 0.000000
# 2 0.007222 0.020178 -0.005988 0.000000 0.000000 0.000000
# 3 -0.004274 -0.005988 0.013956 0.000000 0.000000 0.000000
# 4 0.000000 0.000000 0.000000 0.036389 0.000000 0.000000
# 5 0.000000 0.000000 0.000000 0.000000 0.018598 0.000000
# 6 0.000000 0.000000 0.000000 0.000000 0.000000 0.003540
#
#
# Mechanical properties :
#
#
# Convention : Reuss Voigt Hill
#
# Bulk Modulus (GPa) = 21.12677 25.98879 23.55778
# Shear Modulus (GPa) = 37.36899 85.72742 61.54821
#
# Velocity S-wave (km/s) = 4.08573 6.18833 5.24350
# Velocity P-wave (km/s) = 5.62984 7.91644 6.86896
#
# Compressibility (1/GPa) = 0.04733332
#
# Stress axis : x y z
#
# Youngs Moduli (GPa) = 51.86562 49.55895 71.65500
#
# Poissons Ratio (x) = -0.35789 0.30624
# Poissons Ratio (y) = -0.37455 0.42909
# Poissons Ratio (z) = 0.22166 0.29678
#
# Static dielectric constant tensor:
#      x y z
#    x 1.779200 0.000000 0.000000 
#    y 0.000000 2.043060 0.000000 
#    z 0.000000 0.000000 1.771750 
# 
# From -- ./inp_files/6809.got.cif
#   From: 2010.05.17/outbox.cif.g08.bks.cpg/sg46_4_cif.got.tgz:6809.got - 2010.06.03 19:58:25.
