data_PCOD9380583
_publ_section_title
;
Structure prediction by ZEFSAII (Michael W. Deem and Ramdas Pophale) SiO2 
 PCOD9380583
Probable space group: I M A 2
;
_chemical_formula_sum "Si O2"
_cell_formula_units_Z 64
_cell_length_a 28.806558
_cell_length_b 11.607992
_cell_length_c 8.825301
_cell_angle_alpha 90.000000
_cell_angle_beta 90.000000
_cell_angle_gamma 90.000000
_cell_volume 2951.059702
_symmetry_space_group_name_H-M "I M A 2"
_symmetry_group_IT_number 46
_symmetry_cell_setting 'orthorhombic'
loop_
_space_group_symop_operation_xyz
x,y,z
-x,-y,z
1/2-x,y,z
1/2+x,-y,z
1/2+x,1/2+y,1/2+z
1/2-x,1/2-y,1/2+z
-x,1/2+y,1/2+z
x,1/2-y,1/2+z
loop_
_atom_site_type_symbol
_atom_site_label
_atom_site_fract_x
_atom_site_fract_y
_atom_site_fract_z
Si Si1 0.528369 0.786039 0.299630
Si Si2 0.067694 0.992216 0.145433
Si Si3 0.611977 0.442072 0.961429
Si Si4 0.693797 0.337155 0.138239
Si Si5 0.534990 0.259018 0.063272
Si Si6 0.356554 0.116632 0.970774
Si Si7 0.117398 0.334081 0.155493
Si Si8 0.304942 0.604439 0.481269
O O1 0.482789 0.722336 0.233666
O O2 0.512760 0.785797 0.472512
O O3 0.575123 0.723279 0.249988
O O4 0.534338 0.913691 0.228138
O O5 0.102450 0.959483 0.283593
O O6 0.049749 0.874848 0.069145
O O7 0.093927 0.061019 0.014015
O O8 0.663548 0.408507 0.016863
O O9 0.575923 0.343079 0.013862
O O10 0.601610 0.561022 0.050036
O O11 0.750000 0.353306 0.124332
O O12 0.678329 0.365289 0.310138
O O13 0.681989 0.205121 0.097060
O O14 0.349648 0.125737 0.791600
O O15 0.321205 0.021095 0.029572
O O16 0.357458 0.238828 0.052984
O O17 0.250000 0.606634 0.471177
#
# Coordination Sequence:
#
# PCOD9380583 Si02
#       8
#     8   8   8   8   8   8   8   8
#     4  11  24  44  63  90 131 181 229 283 344 406
#     4  11  25  44  65  93 139 179 231 293 347 412
#     4  12  25  42  67 102 135 183 230 293 343 424
#     4  10  23  43  72 104 139 175 221 287 359 422
#     4  12  25  40  66  96 131 175 233 286 349 405
#     4  11  23  45  67  96 133 184 227 279 341 420
#     4  11  24  43  69  93 134 185 234 279 345 405
#     4  10  22  43  71 104 140 176 222 286 351 419
#
# _framework density 21.687125999999999
#
# number of rings (size 3 to 8) (size 9 to 14) (size 15 to 20)
#    0.000    1.000    2.500    4.875    5.250    1.500 
#    0.000    1.250    0.000    0.000    0.000    0.000 
#    0.000    0.000    0.000    0.000    0.000    0.000 
#
# Total GULP energy -178637.204700 kJ/mol
# GULP energy per Si atom -5582.412647 kJ/mol
# Density = 2.163777 g / cm^3
# Si number density = 21.687126 Si / 1000 Ang^3
#
#
#
# Elastic Constant Matrix: (Units=GPa)
#
#
# Indices 1 2 3 4 5 6 
#
# 1 28.1127 22.6147 11.5429 0.0000 0.0000 0.0000
# 2 22.6147 144.6041 43.8806 0.0000 0.0000 0.0000
# 3 11.5429 43.8806 75.9635 0.0000 0.0000 0.0000
# 4 0.0000 0.0000 0.0000 35.3645 0.0000 0.0000
# 5 0.0000 0.0000 0.0000 0.0000 28.4496 0.0000
# 6 0.0000 0.0000 0.0000 0.0000 0.0000 29.1049
#
#
#
# Elastic Compliance Matrix: (Units=1/GPa)
#
#
# Indices 1 2 3 4 5 6 
#
# 1 0.041277 -0.005520 -0.003084 0.000000 0.000000 0.000000
# 2 -0.005520 0.009123 -0.004431 0.000000 0.000000 0.000000
# 3 -0.003084 -0.004431 0.016193 0.000000 0.000000 0.000000
# 4 0.000000 0.000000 0.000000 0.028277 0.000000 0.000000
# 5 0.000000 0.000000 0.000000 0.000000 0.035150 0.000000
# 6 0.000000 0.000000 0.000000 0.000000 0.000000 0.034358
#
#
# Mechanical properties :
#
#
# Convention : Reuss Voigt Hill
#
# Bulk Modulus (GPa) = 24.67688 44.97296 34.82492
# Shear Modulus (GPa) = 24.51504 29.95994 27.23749
#
# Velocity S-wave (km/s) = 3.36578 3.72083 3.54775
# Velocity P-wave (km/s) = 5.14859 6.26432 5.73366
#
# Compressibility (1/GPa) = 0.04052377
#
# Stress axis : x y z
#
# Youngs Moduli (GPa) = 24.22631 109.60845 61.75637
#
# Poissons Ratio (x) = 0.60499 0.19045
# Poissons Ratio (y) = 0.13372 0.27367
# Poissons Ratio (z) = 0.07471 0.48572
#
# Static dielectric constant tensor:
#      x y z
#    x 1.824570 0.000000 0.000000 
#    y 0.000000 1.794210 0.000000 
#    z 0.000000 0.000000 1.790830 
# 
# From -- ./inp_files/8510.got.cif
#   From: 2010.05.17/outbox.cif.g08.bks.cpg/sg46_5_cif.got.tgz:8510.got - 2010.06.03 19:58:25.
