data_PCOD9380321
_publ_section_title
;
Structure prediction by ZEFSAII (Michael W. Deem and Ramdas Pophale) SiO2 
 PCOD9380321
Probable space group: I M A 2
;
_chemical_formula_sum "Si O2"
_cell_formula_units_Z 44
_cell_length_a 13.696018
_cell_length_b 16.108778
_cell_length_c 9.523757
_cell_angle_alpha 90.000000
_cell_angle_beta 90.000000
_cell_angle_gamma 90.000000
_cell_volume 2101.189492
_symmetry_space_group_name_H-M "I M A 2"
_symmetry_group_IT_number 46
_symmetry_cell_setting 'orthorhombic'
loop_
_space_group_symop_operation_xyz
x,y,z
-x,-y,z
1/2-x,y,z
1/2+x,-y,z
1/2+x,1/2+y,1/2+z
1/2-x,1/2-y,1/2+z
-x,1/2+y,1/2+z
x,1/2-y,1/2+z
loop_
_atom_site_type_symbol
_atom_site_label
_atom_site_fract_x
_atom_site_fract_y
_atom_site_fract_z
Si Si1 0.135846 0.708335 0.043760
Si Si2 0.863551 0.913545 0.920520
Si Si3 0.362395 0.245679 0.592170
Si Si4 0.000000 0.500000 0.643463
Si Si5 0.977081 0.590201 0.128273
Si Si6 0.538931 0.323138 0.747133
O O1 0.250000 0.694784 0.036816
O O2 0.108059 0.793691 0.119476
O O3 0.079835 0.638419 0.134665
O O4 0.087849 0.704928 0.890712
O O5 0.750000 0.934522 0.897821
O O6 0.925620 0.921493 0.778699
O O7 0.867518 0.818535 0.976956
O O8 0.912925 0.969579 0.040928
O O9 0.250000 0.237054 0.636975
O O10 0.435638 0.279089 0.712626
O O11 0.027600 0.578744 0.736819
O O12 0.905661 0.655802 0.049375
O O13 0.000000 0.500000 0.066826
#
# Coordination Sequence:
#
# PCOD9380321 Si02
#       6
#     8   8   8   4   8   8
#     4  11  26  45  69  98 137 187 232 281 351 414
#     4  10  21  41  66 100 136 178 229 279 344 410
#     4   9  21  40  67  97 129 173 222 280 345 404
#     4  10  22  42  70  98 142 178 224 286 342 412
#     4  11  24  40  66  96 139 173 226 288 333 406
#     4  10  24  44  71 101 137 180 230 290 338 416
#
# _framework density 20.940518000000001
#
# number of rings (size 3 to 8) (size 9 to 14) (size 15 to 20)
#    0.000    1.818    0.909    1.091   16.545    2.909 
#    0.000    0.909    0.000    0.000    0.000    0.000 
#    0.000    0.000    0.000    0.000    0.000    0.000 
#
# Total GULP energy -122911.493933 kJ/mol
# GULP energy per Si atom -5586.886088 kJ/mol
# Density = 2.089286 g / cm^3
# Si number density = 20.940518 Si / 1000 Ang^3
#
#
#
# Elastic Constant Matrix: (Units=GPa)
#
#
# Indices 1 2 3 4 5 6 
#
# 1 190.7653 44.0506 53.7656 0.0000 0.0000 0.0000
# 2 44.0506 139.1411 23.7741 0.0000 0.0000 0.0000
# 3 53.7656 23.7741 101.9804 0.0000 0.0000 0.0000
# 4 0.0000 0.0000 0.0000 24.6751 0.0000 0.0000
# 5 0.0000 0.0000 0.0000 0.0000 25.6644 0.0000
# 6 0.0000 0.0000 0.0000 0.0000 0.0000 23.5928
#
#
#
# Elastic Compliance Matrix: (Units=1/GPa)
#
#
# Indices 1 2 3 4 5 6 
#
# 1 0.006452 -0.001522 -0.003047 0.000000 0.000000 0.000000
# 2 -0.001522 0.007844 -0.001026 0.000000 0.000000 0.000000
# 3 -0.003047 -0.001026 0.011651 0.000000 0.000000 0.000000
# 4 0.000000 0.000000 0.000000 0.040527 0.000000 0.000000
# 5 0.000000 0.000000 0.000000 0.000000 0.038964 0.000000
# 6 0.000000 0.000000 0.000000 0.000000 0.000000 0.042386
#
#
# Mechanical properties :
#
#
# Convention : Reuss Voigt Hill
#
# Bulk Modulus (GPa) = 67.76236 75.00749 71.38493
# Shear Modulus (GPa) = 30.50001 35.47289 32.98645
#
# Velocity S-wave (km/s) = 3.82056 4.12027 3.97324
# Velocity P-wave (km/s) = 7.20361 7.65066 7.43049
#
# Compressibility (1/GPa) = 0.01475745
#
# Stress axis : x y z
#
# Youngs Moduli (GPa) = 154.98445 127.48322 85.82662
#
# Poissons Ratio (x) = 0.19404 0.26150
# Poissons Ratio (y) = 0.23590 0.08807
# Poissons Ratio (z) = 0.47222 0.13082
#
# Static dielectric constant tensor:
#      x y z
#    x 1.730910 0.000000 0.000000 
#    y 0.000000 1.792840 0.000000 
#    z 0.000000 0.000000 1.772320 
# 
# From -- ./inp_files/6526.got.cif
#   From: 2010.05.17/outbox.cif.g08.bks.cpg/sg46_4_cif.got.tgz:6526.got - 2010.06.03 19:58:25.
