data_PCOD9380373
_publ_section_title
;
Structure prediction by ZEFSAII (Michael W. Deem and Ramdas Pophale) SiO2 
 PCOD9380373
Probable space group: I M A 2
;
_chemical_formula_sum "Si O2"
_cell_formula_units_Z 48
_cell_length_a 9.697248
_cell_length_b 8.097892
_cell_length_c 30.740821
_cell_angle_alpha 90.000000
_cell_angle_beta 90.000000
_cell_angle_gamma 90.000000
_cell_volume 2413.992659
_symmetry_space_group_name_H-M "I M A 2"
_symmetry_group_IT_number 46
_symmetry_cell_setting 'orthorhombic'
loop_
_space_group_symop_operation_xyz
x,y,z
-x,-y,z
1/2-x,y,z
1/2+x,-y,z
1/2+x,1/2+y,1/2+z
1/2-x,1/2-y,1/2+z
-x,1/2+y,1/2+z
x,1/2-y,1/2+z
loop_
_atom_site_type_symbol
_atom_site_label
_atom_site_fract_x
_atom_site_fract_y
_atom_site_fract_z
Si Si1 0.250000 0.767639 0.445981
Si Si2 0.514497 0.185182 0.888831
Si Si3 0.086639 0.345274 0.226386
Si Si4 0.250000 0.141956 0.430370
Si Si5 0.250000 0.992718 0.522433
Si Si6 0.500000 0.000000 0.588169
Si Si7 0.086268 0.333576 0.637830
Si Si8 0.412874 0.665947 0.797861
O O1 0.117930 0.674230 0.429302
O O2 0.250000 0.821857 0.495438
O O3 0.250000 0.945960 0.421470
O O4 0.380436 0.272645 0.908316
O O5 0.574291 0.285738 0.848356
O O6 0.500000 0.000000 0.872136
O O7 0.250000 0.380298 0.234889
O O8 0.081790 0.203789 0.189616
O O9 0.000000 0.500000 0.208243
O O10 0.998594 0.294202 0.268496
O O11 0.250000 0.131482 0.483587
O O12 0.375322 0.997263 0.554694
O O13 0.520871 0.830695 0.615520
O O14 0.250000 0.347067 0.625991
O O15 0.000000 0.500000 0.627975
O O16 0.500000 0.500000 0.791494
O O17 0.250000 0.653930 0.786222
#
# Coordination Sequence:
#
# PCOD9380373 Si02
#       8
#     4   8   8   4   4   4   8   8
#     4  10  21  45  64  93 122 180 223 275 348 420
#     4  12  24  40  65  99 136 177 232 288 348 413
#     4  11  24  44  70 104 143 190 236 289 359 416
#     4  10  23  41  70  91 128 180 223 281 344 432
#     4  10  24  42  76  98 134 182 232 296 358 436
#     4  12  22  48  74 106 140 190 238 294 372 432
#     4  11  26  45  73 109 145 192 239 295 360 433
#     4  12  26  43  65  98 137 186 238 291 346 425
#
# _framework density 19.884070000000001
#
# number of rings (size 3 to 8) (size 9 to 14) (size 15 to 20)
#    0.500    0.333    2.500    5.000    3.500    2.667 
#    0.000    5.000    0.000    0.000    0.000    0.000 
#    0.000    0.000    0.000    0.000    0.000    0.000 
#
# Total GULP energy -133812.784508 kJ/mol
# GULP energy per Si atom -5575.532688 kJ/mol
# Density = 1.983881 g / cm^3
# Si number density = 19.884070 Si / 1000 Ang^3
#
#
#
# Elastic Constant Matrix: (Units=GPa)
#
#
# Indices 1 2 3 4 5 6 
#
# 1 173.6650 45.5485 48.1632 0.0000 0.0000 0.0000
# 2 45.5485 101.2946 21.0393 0.0000 0.0000 0.0000
# 3 48.1632 21.0393 101.8911 0.0000 0.0000 0.0000
# 4 0.0000 0.0000 0.0000 36.1817 0.0000 0.0000
# 5 0.0000 0.0000 0.0000 0.0000 35.6027 0.0000
# 6 0.0000 0.0000 0.0000 0.0000 0.0000 40.0973
#
#
#
# Elastic Compliance Matrix: (Units=1/GPa)
#
#
# Indices 1 2 3 4 5 6 
#
# 1 0.007256 -0.002665 -0.002879 0.000000 0.000000 0.000000
# 2 -0.002665 0.011293 -0.001072 0.000000 0.000000 0.000000
# 3 -0.002879 -0.001072 0.011397 0.000000 0.000000 0.000000
# 4 0.000000 0.000000 0.000000 0.027638 0.000000 0.000000
# 5 0.000000 0.000000 0.000000 0.000000 0.028088 0.000000
# 6 0.000000 0.000000 0.000000 0.000000 0.000000 0.024939
#
#
# Mechanical properties :
#
#
# Convention : Reuss Voigt Hill
#
# Bulk Modulus (GPa) = 59.83417 67.37252 63.60334
# Shear Modulus (GPa) = 38.63548 39.84967 39.24257
#
# Velocity S-wave (km/s) = 4.41277 4.48157 4.44731
# Velocity P-wave (km/s) = 7.49134 7.79330 7.64381
#
# Compressibility (1/GPa) = 0.01671286
#
# Stress axis : x y z
#
# Youngs Moduli (GPa) = 137.82396 88.54987 87.74280
#
# Poissons Ratio (x) = 0.23594 0.25265
# Poissons Ratio (y) = 0.36723 0.09409
# Poissons Ratio (z) = 0.39686 0.09496
#
# Static dielectric constant tensor:
#      x y z
#    x 1.641260 0.000000 0.000000 
#    y 0.000000 1.750980 0.000000 
#    z 0.000000 0.000000 1.664790 
# 
# From -- ./inp_files/25111.got.cif
#   From: 2010.05.17/outbox.cif.g08.bks.cpg/sg46_13_cif.got.tgz:25111.got - 2010.06.03 19:58:25.
