data_PCOD9380018
_publ_section_title
;
Structure prediction by ZEFSAII (Michael W. Deem and Ramdas Pophale) SiO2 
 PCOD9380018
Probable space group: I M A 2
;
_chemical_formula_sum "Si O2"
_cell_formula_units_Z 28
_cell_length_a 13.743679
_cell_length_b 9.830913
_cell_length_c 9.101095
_cell_angle_alpha 90.000000
_cell_angle_beta 90.000000
_cell_angle_gamma 90.000000
_cell_volume 1229.675453
_symmetry_space_group_name_H-M "I M A 2"
_symmetry_group_IT_number 46
_symmetry_cell_setting 'orthorhombic'
loop_
_space_group_symop_operation_xyz
x,y,z
-x,-y,z
1/2-x,y,z
1/2+x,-y,z
1/2+x,1/2+y,1/2+z
1/2-x,1/2-y,1/2+z
-x,1/2+y,1/2+z
x,1/2-y,1/2+z
loop_
_atom_site_type_symbol
_atom_site_label
_atom_site_fract_x
_atom_site_fract_y
_atom_site_fract_z
Si Si1 0.000000 0.500000 0.825930
Si Si2 0.637344 0.070119 0.901009
Si Si3 0.364666 0.483410 0.073937
Si Si4 0.950579 0.818191 0.059288
O O1 0.961272 0.617962 0.720917
O O2 0.086572 0.548072 0.931152
O O3 0.750000 0.111354 0.922231
O O4 0.615116 0.059357 0.727291
O O5 0.620802 0.918222 0.967637
O O6 0.555877 0.158370 0.983565
O O7 0.250000 0.474194 0.059389
O O8 0.410263 0.332374 0.073224
#
# Coordination Sequence:
#
# PCOD9380018 Si02
#       4
#     4   8   8   8
#     4  10  22  36  56  92 122 146 194 252 292 338
#     4   9  19  36  58  85 119 156 194 240 294 349
#     4  11  22  39  64  89 116 156 201 242 290 350
#     4  10  21  36  60  88 122 156 195 244 294 349
#
# _framework density 22.770235
#
# number of rings (size 3 to 8) (size 9 to 14) (size 15 to 20)
#    0.000    2.286    0.000    4.286    0.000    8.000 
#    0.000    1.429    0.000   25.714    0.000    0.000 
#    0.000    0.000    0.000    0.000    0.000    0.000 
#
# Total GULP energy -78348.063845 kJ/mol
# GULP energy per Si atom -5596.290275 kJ/mol
# Density = 2.271841 g / cm^3
# Si number density = 22.770235 Si / 1000 Ang^3
#
#
#
# Elastic Constant Matrix: (Units=GPa)
#
#
# Indices 1 2 3 4 5 6 
#
# 1 156.9408 -7.6541 60.2756 0.0000 0.0000 0.0000
# 2 -7.6541 40.6652 0.3027 0.0000 0.0000 0.0000
# 3 60.2756 0.3027 162.5490 0.0000 0.0000 0.0000
# 4 0.0000 0.0000 0.0000 9.0416 0.0000 0.0000
# 5 0.0000 0.0000 0.0000 0.0000 29.9774 0.0000
# 6 0.0000 0.0000 0.0000 0.0000 0.0000 26.6479
#
#
#
# Elastic Compliance Matrix: (Units=1/GPa)
#
#
# Indices 1 2 3 4 5 6 
#
# 1 0.007513 0.001435 -0.002789 0.000000 0.000000 0.000000
# 2 0.001435 0.024865 -0.000578 0.000000 0.000000 0.000000
# 3 -0.002789 -0.000578 0.007187 0.000000 0.000000 0.000000
# 4 0.000000 0.000000 0.000000 0.110600 0.000000 0.000000
# 5 0.000000 0.000000 0.000000 0.000000 0.033358 0.000000
# 6 0.000000 0.000000 0.000000 0.000000 0.000000 0.037526
#
#
# Mechanical properties :
#
#
# Convention : Reuss Voigt Hill
#
# Bulk Modulus (GPa) = 28.01029 51.77815 39.89422
# Shear Modulus (GPa) = 21.11355 33.61545 27.36450
#
# Velocity S-wave (km/s) = 3.04837 3.84642 3.47041
# Velocity P-wave (km/s) = 4.97173 6.52038 5.79799
#
# Compressibility (1/GPa) = 0.03570117
#
# Stress axis : x y z
#
# Youngs Moduli (GPa) = 133.10650 40.21653 139.13829
#
# Poissons Ratio (x) = -0.05770 0.38799
# Poissons Ratio (y) = -0.19099 0.08047
# Poissons Ratio (z) = 0.37117 0.02326
#
# Static dielectric constant tensor:
#      x y z
#    x 1.823040 0.000000 0.000000 
#    y 0.000000 1.912020 0.000000 
#    z 0.000000 0.000000 1.847000 
# 
# From -- ./inp_files/5181.got.cif
#   From: 2010.05.17/outbox.cif.g08.bks.cpg/sg46_3_cif.got.tgz:5181.got - 2010.06.03 19:58:25.
