data_PCOD9380908
_publ_section_title
;
Structure prediction by ZEFSAII (Michael W. Deem and Ramdas Pophale) SiO2 
 PCOD9380908
Probable space group: I M A 2
;
_chemical_formula_sum "Si O2"
_cell_formula_units_Z 56
_cell_length_a 21.305765
_cell_length_b 13.766600
_cell_length_c 9.456967
_cell_angle_alpha 90.000000
_cell_angle_beta 90.000000
_cell_angle_gamma 90.000000
_cell_volume 2773.803551
_symmetry_space_group_name_H-M "I M A 2"
_symmetry_group_IT_number 46
_symmetry_cell_setting 'orthorhombic'
loop_
_space_group_symop_operation_xyz
x,y,z
-x,-y,z
1/2-x,y,z
1/2+x,-y,z
1/2+x,1/2+y,1/2+z
1/2-x,1/2-y,1/2+z
-x,1/2+y,1/2+z
x,1/2-y,1/2+z
loop_
_atom_site_type_symbol
_atom_site_label
_atom_site_fract_x
_atom_site_fract_y
_atom_site_fract_z
Si Si1 0.324138 0.666172 0.135060
Si Si2 0.130892 0.352016 0.010586
Si Si3 0.325407 0.045631 0.777172
Si Si4 0.112603 0.672069 0.828116
Si Si5 0.815638 0.984693 0.290227
Si Si6 0.022833 0.388678 0.785958
Si Si7 0.371258 0.368899 0.554133
O O1 0.250000 0.680914 0.104861
O O2 0.330921 0.561402 0.209901
O O3 0.350476 0.747065 0.241068
O O4 0.363976 0.671559 0.990285
O O5 0.138111 0.380517 0.173297
O O6 0.143141 0.238143 0.997175
O O7 0.178518 0.426014 0.934887
O O8 0.067483 0.373636 0.922762
O O9 0.250000 0.067238 0.790427
O O10 0.360780 0.056360 0.926505
O O11 0.131874 0.565301 0.772269
O O12 0.038106 0.678731 0.805346
O O13 0.750000 0.038079 0.283319
O O14 0.822370 0.903669 0.171871
O O15 0.000000 0.500000 0.783431
O O16 0.063509 0.367995 0.643671
#
# Coordination Sequence:
#
# PCOD9380908 Si02
#       7
#     8   8   8   8   8   8   8
#     4  11  25  44  70 105 137 172 228 289 344 409
#     4  11  23  43  68  96 134 176 221 278 334 399
#     4  11  23  43  68 104 139 169 222 282 340 401
#     4  12  25  45  70  98 134 184 226 281 347 408
#     4  11  22  42  70  95 131 178 221 274 346 404
#     4  11  23  47  67  91 136 179 228 270 335 405
#     4  11  25  41  66 102 136 173 221 277 330 401
#
# _framework density 20.188886
#
# number of rings (size 3 to 8) (size 9 to 14) (size 15 to 20)
#    0.000    0.857    4.286    3.857    4.000    3.429 
#    0.000    0.714    0.000    0.000    0.000    0.000 
#    0.000    0.000    0.000    0.000    0.000    0.000 
#
# Total GULP energy -156268.046688 kJ/mol
# GULP energy per Si atom -5581.001667 kJ/mol
# Density = 2.014293 g / cm^3
# Si number density = 20.188886 Si / 1000 Ang^3
#
#
#
# Elastic Constant Matrix: (Units=GPa)
#
#
# Indices 1 2 3 4 5 6 
#
# 1 138.0372 20.6142 47.6605 0.0000 0.0000 0.0000
# 2 20.6142 89.2045 18.4834 0.0000 0.0000 0.0000
# 3 47.6605 18.4834 105.3923 0.0000 0.0000 0.0000
# 4 0.0000 0.0000 0.0000 35.7523 0.0000 0.0000
# 5 0.0000 0.0000 0.0000 0.0000 -223.8540 0.0000
# 6 0.0000 0.0000 0.0000 0.0000 0.0000 20.8032
#
#
#
# Elastic Compliance Matrix: (Units=1/GPa)
#
#
# Indices 1 2 3 4 5 6 
#
# 1 0.008716 -0.001243 -0.003723 0.000000 0.000000 0.000000
# 2 -0.001243 0.011810 -0.001509 0.000000 0.000000 0.000000
# 3 -0.003723 -0.001509 0.011437 0.000000 0.000000 0.000000
# 4 0.000000 0.000000 0.000000 0.027970 0.000000 0.000000
# 5 0.000000 0.000000 0.000000 0.000000 -0.004467 0.000000
# 6 0.000000 0.000000 0.000000 0.000000 0.000000 0.048070
#
#
# Mechanical properties :
#
#
# Convention : Reuss Voigt Hill
#
# Bulk Modulus (GPa) = 52.59864 56.23892 54.41878
# Shear Modulus (GPa) = 40.70899 -17.06796 11.82051
#
# Velocity S-wave (km/s) = 4.49531 -2.91075 2.42233
# Velocity P-wave (km/s) = 7.28379 4.07679 5.90228
#
# Compressibility (1/GPa) = 0.01901190
#
# Stress axis : x y z
#
# Youngs Moduli (GPa) = 114.73692 84.67344 87.43654
#
# Poissons Ratio (x) = 0.10521 0.32556
# Poissons Ratio (y) = 0.14257 0.13197
# Poissons Ratio (z) = 0.42722 0.12780
#
# Static dielectric constant tensor:
#      x y z
#    x 1.871290 0.000000 0.000000 
#    y 0.000000 1.690500 0.000000 
#    z 0.000000 0.000000 1.729080 
# 
# From -- ./inp_files/7431.got.cif
#   From: 2010.05.17/outbox.cif.g08.bks.cpg/sg46_4_cif.got.tgz:7431.got - 2010.06.03 19:58:25.
