data_PCOD9380736
_publ_section_title
;
Structure prediction by ZEFSAII (Michael W. Deem and Ramdas Pophale) SiO2 
 PCOD9380736
Probable space group: I M A 2
;
_chemical_formula_sum "Si O2"
_cell_formula_units_Z 64
_cell_length_a 18.762251
_cell_length_b 8.807655
_cell_length_c 19.668451
_cell_angle_alpha 90.000000
_cell_angle_beta 90.000000
_cell_angle_gamma 90.000000
_cell_volume 3250.239729
_symmetry_space_group_name_H-M "I M A 2"
_symmetry_group_IT_number 46
_symmetry_cell_setting 'orthorhombic'
loop_
_space_group_symop_operation_xyz
x,y,z
-x,-y,z
1/2-x,y,z
1/2+x,-y,z
1/2+x,1/2+y,1/2+z
1/2-x,1/2-y,1/2+z
-x,1/2+y,1/2+z
x,1/2-y,1/2+z
loop_
_atom_site_type_symbol
_atom_site_label
_atom_site_fract_x
_atom_site_fract_y
_atom_site_fract_z
Si Si1 0.933830 0.602372 0.832950
Si Si2 0.580372 0.562884 0.097136
Si Si3 0.436695 0.379191 0.244896
Si Si4 0.903471 0.127346 0.965696
Si Si5 0.334866 0.750987 0.101148
Si Si6 0.832359 0.400276 0.738093
Si Si7 0.066264 0.270029 0.469395
Si Si8 0.168529 0.907142 0.823291
O O1 0.963424 0.731896 0.783197
O O2 0.877635 0.508983 0.787395
O O3 0.907470 0.686991 0.900827
O O4 0.000000 0.500000 0.854526
O O5 0.500000 0.500000 0.089711
O O6 0.585868 0.653040 0.167982
O O7 0.629934 0.415313 0.105498
O O8 0.592458 0.671304 0.033089
O O9 0.500000 0.500000 0.242377
O O10 0.374157 0.455631 0.288711
O O11 0.856393 0.185995 0.027760
O O12 0.868797 0.148796 0.892109
O O13 0.979772 0.212951 0.968360
O O14 0.911104 0.945479 0.972647
O O15 0.250000 0.737993 0.108608
O O16 0.360005 0.864941 0.161604
O O17 0.750000 0.454158 0.734521
O O18 0.832200 0.233708 0.771848
O O19 0.250000 0.950448 0.837422
#
# Coordination Sequence:
#
# PCOD9380736 Si02
#       8
#     8   8   8   8   8   8   8   8
#     4  12  25  39  66  97 130 165 215 272 328 379
#     4  11  23  41  66  96 128 168 215 267 317 386
#     4  11  23  41  65  96 127 166 218 268 320 384
#     4  11  23  42  67  94 131 170 217 265 325 387
#     4  11  24  45  68  94 131 175 218 265 325 395
#     4  10  24  44  65  94 131 170 215 267 325 390
#     4  11  24  41  65  96 131 168 213 273 326 379
#     4  11  22  42  68  92 124 172 219 262 322 395
#
# _framework density 19.690856
#
# number of rings (size 3 to 8) (size 9 to 14) (size 15 to 20)
#    0.000    1.000    3.750    3.000    5.250    0.500 
#    0.000    1.250    0.000    0.000    0.000    0.000 
#    0.000    0.000    0.000    0.000    0.000    0.000 
#
# Total GULP energy -178787.043428 kJ/mol
# GULP energy per Si atom -5587.095107 kJ/mol
# Density = 1.964604 g / cm^3
# Si number density = 19.690856 Si / 1000 Ang^3
#
#
#
# Elastic Constant Matrix: (Units=GPa)
#
#
# Indices 1 2 3 4 5 6 
#
# 1 50.5274 4.3228 2.7612 0.0000 0.0000 0.0000
# 2 4.3228 63.2863 24.5985 0.0000 0.0000 0.0000
# 3 2.7612 24.5985 135.9700 0.0000 0.0000 0.0000
# 4 0.0000 0.0000 0.0000 41.7117 0.0000 0.0000
# 5 0.0000 0.0000 0.0000 0.0000 27.8196 0.0000
# 6 0.0000 0.0000 0.0000 0.0000 0.0000 31.0396
#
#
#
# Elastic Compliance Matrix: (Units=1/GPa)
#
#
# Indices 1 2 3 4 5 6 
#
# 1 0.019911 -0.001294 -0.000170 0.000000 0.000000 0.000000
# 2 -0.001294 0.017080 -0.003064 0.000000 0.000000 0.000000
# 3 -0.000170 -0.003064 0.007912 0.000000 0.000000 0.000000
# 4 0.000000 0.000000 0.000000 0.023974 0.000000 0.000000
# 5 0.000000 0.000000 0.000000 0.000000 0.035946 0.000000
# 6 0.000000 0.000000 0.000000 0.000000 0.000000 0.032217
#
#
# Mechanical properties :
#
#
# Convention : Reuss Voigt Hill
#
# Bulk Modulus (GPa) = 27.89543 34.79429 31.34486
# Shear Modulus (GPa) = 31.63635 34.65426 33.14531
#
# Velocity S-wave (km/s) = 4.01265 4.19969 4.10724
# Velocity P-wave (km/s) = 5.97210 6.42068 6.20045
#
# Compressibility (1/GPa) = 0.03584817
#
# Stress axis : x y z
#
# Youngs Moduli (GPa) = 50.22285 58.54648 126.38562
#
# Poissons Ratio (x) = 0.07575 0.02152
# Poissons Ratio (y) = 0.06498 0.38722
# Poissons Ratio (z) = 0.00855 0.17937
#
# Static dielectric constant tensor:
#      x y z
#    x 1.659120 0.000000 0.000000 
#    y 0.000000 1.665160 0.000000 
#    z 0.000000 0.000000 1.686210 
# 
# From -- ./inp_files/20234.got.cif
#   From: 2010.05.17/outbox.cif.g08.bks.cpg/sg46_11_cif.got.tgz:20234.got - 2010.06.03 19:58:25.
