data_PCOD9380769
_publ_section_title
;
Structure prediction by ZEFSAII (Michael W. Deem and Ramdas Pophale) SiO2 
 PCOD9380769
Probable space group: I M A 2
;
_chemical_formula_sum "Si O2"
_cell_formula_units_Z 32
_cell_length_a 10.014482
_cell_length_b 12.113144
_cell_length_c 8.942895
_cell_angle_alpha 90.000000
_cell_angle_beta 90.000000
_cell_angle_gamma 90.000000
_cell_volume 1084.834535
_symmetry_space_group_name_H-M "I M A 2"
_symmetry_group_IT_number 46
_symmetry_cell_setting 'orthorhombic'
loop_
_space_group_symop_operation_xyz
x,y,z
-x,-y,z
1/2-x,y,z
1/2+x,-y,z
1/2+x,1/2+y,1/2+z
1/2-x,1/2-y,1/2+z
-x,1/2+y,1/2+z
x,1/2-y,1/2+z
loop_
_atom_site_type_symbol
_atom_site_label
_atom_site_fract_x
_atom_site_fract_y
_atom_site_fract_z
Si Si1 0.596944 0.408991 0.331230
Si Si2 0.599763 0.686085 0.575052
Si Si3 0.750000 0.410795 0.884186
Si Si4 0.750000 0.245774 0.144848
Si Si5 0.415148 0.088836 0.409936
O O1 0.500000 0.500000 0.258873
O O2 0.750000 0.448935 0.355328
O O3 0.516155 0.371915 0.477443
O O4 0.624838 0.306517 0.222896
O O5 0.750000 0.654067 0.524152
O O6 0.592048 0.815013 0.535101
O O7 0.590248 0.645866 0.744839
O O8 0.750000 0.377460 0.707291
O O9 0.582731 0.441535 0.912995
O O10 0.750000 0.293761 0.978639
O O11 0.250000 0.050282 0.419807
#
# Coordination Sequence:
#
# PCOD9380769 Si02
#       5
#     8   8   4   4   8
#     4  10  24  47  78 129 167 231 283 362 432 526
#     4  12  25  53  84 128 172 231 294 360 434 526
#     4  12  26  56  76 130 164 238 280 374 432 526
#     4  10  28  46  82 114 180 216 298 344 448 514
#     4  12  29  51  87 124 180 229 295 362 446 514
#
# _framework density 29.497584
#
# number of rings (size 3 to 8) (size 9 to 14) (size 15 to 20)
#    0.750    0.000    2.500    3.000    0.000   13.000 
#    2.250    1.250    0.000    0.000    0.000    0.000 
#    0.000    0.000    0.000    0.000    0.000    0.000 
#
# Total GULP energy -89645.858846 kJ/mol
# GULP energy per Si atom -5602.866178 kJ/mol
# Density = 2.943045 g / cm^3
# Si number density = 29.497584 Si / 1000 Ang^3
#
#
#
# Elastic Constant Matrix: (Units=GPa)
#
#
# Indices 1 2 3 4 5 6 
#
# 1 322.0371 70.9781 32.7426 0.0000 0.0000 0.0000
# 2 70.9781 187.0803 50.6324 0.0000 0.0000 0.0000
# 3 32.7426 50.6324 120.9408 0.0000 0.0000 0.0000
# 4 0.0000 0.0000 0.0000 23.2332 0.0000 0.0000
# 5 0.0000 0.0000 0.0000 0.0000 60.8008 0.0000
# 6 0.0000 0.0000 0.0000 0.0000 0.0000 83.7707
#
#
#
# Elastic Compliance Matrix: (Units=1/GPa)
#
#
# Indices 1 2 3 4 5 6 
#
# 1 0.003408 -0.001177 -0.000430 0.000000 0.000000 0.000000
# 2 -0.001177 0.006435 -0.002375 0.000000 0.000000 0.000000
# 3 -0.000430 -0.002375 0.009379 0.000000 0.000000 0.000000
# 4 0.000000 0.000000 0.000000 0.043042 0.000000 0.000000
# 5 0.000000 0.000000 0.000000 0.000000 0.016447 0.000000
# 6 0.000000 0.000000 0.000000 0.000000 0.000000 0.011937
#
#
# Mechanical properties :
#
#
# Convention : Reuss Voigt Hill
#
# Bulk Modulus (GPa) = 88.82519 104.30716 96.56617
# Shear Modulus (GPa) = 48.84454 65.27463 57.05958
#
# Velocity S-wave (km/s) = 4.07367 4.70923 4.40293
# Velocity P-wave (km/s) = 7.23218 8.06270 7.65871
#
# Compressibility (1/GPa) = 0.01125807
#
# Stress axis : x y z
#
# Youngs Moduli (GPa) = 293.40039 155.40975 106.61679
#
# Poissons Ratio (x) = 0.18287 0.04586
# Poissons Ratio (y) = 0.34524 0.25325
# Poissons Ratio (z) = 0.12619 0.36915
#
# Static dielectric constant tensor:
#      x y z
#    x 2.357400 0.000000 0.000000 
#    y 0.000000 2.255870 0.000000 
#    z 0.000000 0.000000 2.186760 
# 
# From -- ./inp_files/3340.got.cif
#   From: 2010.05.17/outbox.cif.g08.bks.cpg/sg46_2_cif.got.tgz:3340.got - 2010.06.03 19:58:25.
