data_PCOD9380290
_publ_section_title
;
Structure prediction by ZEFSAII (Michael W. Deem and Ramdas Pophale) SiO2 
 PCOD9380290
Probable space group: I M A 2
;
_chemical_formula_sum "Si O2"
_cell_formula_units_Z 48
_cell_length_a 14.674311
_cell_length_b 5.661507
_cell_length_c 26.319545
_cell_angle_alpha 90.000000
_cell_angle_beta 90.000000
_cell_angle_gamma 90.000000
_cell_volume 2186.593963
_symmetry_space_group_name_H-M "I M A 2"
_symmetry_group_IT_number 46
_symmetry_cell_setting 'orthorhombic'
loop_
_space_group_symop_operation_xyz
x,y,z
-x,-y,z
1/2-x,y,z
1/2+x,-y,z
1/2+x,1/2+y,1/2+z
1/2-x,1/2-y,1/2+z
-x,1/2+y,1/2+z
x,1/2-y,1/2+z
loop_
_atom_site_type_symbol
_atom_site_label
_atom_site_fract_x
_atom_site_fract_y
_atom_site_fract_z
Si Si1 0.554940 0.251887 0.962720
Si Si2 0.351349 0.800885 0.858653
Si Si3 0.898464 0.898022 0.766585
Si Si4 0.146081 0.708755 0.070286
Si Si5 0.000000 0.500000 0.803174
Si Si6 0.000000 0.000000 0.131253
Si Si7 0.348951 0.166060 0.660537
O O1 0.500000 0.500000 0.949714
O O2 0.625043 0.177617 0.917958
O O3 0.500000 0.000000 0.971150
O O4 0.607379 0.326661 0.014104
O O5 0.250000 0.693859 0.853532
O O6 0.440521 0.666277 0.838764
O O7 0.353339 0.022447 0.819569
O O8 0.850037 0.970074 0.714543
O O9 0.920288 0.621439 0.770702
O O10 0.000000 0.000000 0.764424
O O11 0.250000 0.792780 0.067283
O O12 0.145411 0.487737 0.109278
O O13 0.077587 0.888146 0.096606
O O14 0.057611 0.188840 0.162311
O O15 0.250000 0.292911 0.659266
#
# Coordination Sequence:
#
# PCOD9380290 Si02
#       7
#     8   8   8   8   4   4   8
#     4  12  25  48  76 105 144 189 236 299 363 425
#     4  11  24  42  67 100 137 183 233 290 350 421
#     4  10  21  40  65  95 136 181 227 284 350 418
#     4  11  25  44  68 101 136 180 232 288 350 424
#     4  10  21  42  64  96 134 178 229 286 352 416
#     4  12  21  42  66  96 134 180 225 286 352 412
#     4  11  24  41  65  98 136 181 231 283 348 422
#
# _framework density 21.951948999999999
#
# number of rings (size 3 to 8) (size 9 to 14) (size 15 to 20)
#    0.000    1.000    1.667    6.000    0.000    2.667 
#    0.000    1.667    0.000    0.000    0.000    0.000 
#    0.000    0.000    0.000    0.000    0.000    0.000 
#
# Total GULP energy -133604.020027 kJ/mol
# GULP energy per Si atom -5566.834168 kJ/mol
# Density = 2.190199 g / cm^3
# Si number density = 21.951949 Si / 1000 Ang^3
#
#
#
# Elastic Constant Matrix: (Units=GPa)
#
#
# Indices 1 2 3 4 5 6 
#
# 1 149.8420 32.9156 39.3260 0.0000 0.0000 0.0000
# 2 32.9156 52.0958 26.8571 0.0000 0.0000 0.0000
# 3 39.3260 26.8571 178.2291 0.0000 0.0000 0.0000
# 4 0.0000 0.0000 0.0000 1.4092 0.0000 0.0000
# 5 0.0000 0.0000 0.0000 0.0000 65.3889 0.0000
# 6 0.0000 0.0000 0.0000 0.0000 0.0000 38.0988
#
#
#
# Elastic Compliance Matrix: (Units=1/GPa)
#
#
# Indices 1 2 3 4 5 6 
#
# 1 0.007936 -0.004458 -0.001079 0.000000 0.000000 0.000000
# 2 -0.004458 0.023316 -0.002530 0.000000 0.000000 0.000000
# 3 -0.001079 -0.002530 0.006230 0.000000 0.000000 0.000000
# 4 0.000000 0.000000 0.000000 0.709602 0.000000 0.000000
# 5 0.000000 0.000000 0.000000 0.000000 0.015293 0.000000
# 6 0.000000 0.000000 0.000000 0.000000 0.000000 0.026248
#
#
# Mechanical properties :
#
#
# Convention : Reuss Voigt Hill
#
# Bulk Modulus (GPa) = 46.84194 64.26270 55.55232
# Shear Modulus (GPa) = 6.15858 39.71727 22.93792
#
# Velocity S-wave (km/s) = 1.67677 4.25818 3.23602
# Velocity P-wave (km/s) = 5.01333 7.31532 6.27086
#
# Compressibility (1/GPa) = 0.02134839
#
# Stress axis : x y z
#
# Youngs Moduli (GPa) = 126.00431 42.88849 160.51005
#
# Poissons Ratio (x) = 0.19119 0.17325
# Poissons Ratio (y) = 0.56171 0.40607
# Poissons Ratio (z) = 0.13600 0.10850
#
# Static dielectric constant tensor:
#      x y z
#    x 1.781020 0.000000 0.000000 
#    y 0.000000 2.035150 0.000000 
#    z 0.000000 0.000000 1.853740 
# 
# From -- ./inp_files/24609.got.cif
#   From: 2010.05.17/outbox.cif.g08.bks.cpg/sg46_13_cif.got.tgz:24609.got - 2010.06.03 19:58:25.
