data_PCOD9380975
_publ_section_title
;
Structure prediction by ZEFSAII (Michael W. Deem and Ramdas Pophale) SiO2 
 PCOD9380975
Probable space group: I M A 2
;
_chemical_formula_sum "Si O2"
_cell_formula_units_Z 36
_cell_length_a 23.285337
_cell_length_b 5.960742
_cell_length_c 11.206966
_cell_angle_alpha 90.000000
_cell_angle_beta 90.000000
_cell_angle_gamma 90.000000
_cell_volume 1555.503192
_symmetry_space_group_name_H-M "I M A 2"
_symmetry_group_IT_number 46
_symmetry_cell_setting 'orthorhombic'
loop_
_space_group_symop_operation_xyz
x,y,z
-x,-y,z
1/2-x,y,z
1/2+x,-y,z
1/2+x,1/2+y,1/2+z
1/2-x,1/2-y,1/2+z
-x,1/2+y,1/2+z
x,1/2-y,1/2+z
loop_
_atom_site_type_symbol
_atom_site_label
_atom_site_fract_x
_atom_site_fract_y
_atom_site_fract_z
Si Si1 0.562002 0.382956 0.866560
Si Si2 0.156782 0.328645 0.990538
Si Si3 0.943339 0.890461 0.124541
Si Si4 0.750000 0.009384 0.898999
Si Si5 0.250000 0.617093 0.121300
Si Si6 0.000000 0.500000 0.276748
O O1 0.500000 0.500000 0.900668
O O2 0.615894 0.479097 0.934810
O O3 0.574368 0.445577 0.730165
O O4 0.547155 0.124694 0.856254
O O5 0.196531 0.166657 0.909469
O O6 0.110660 0.164551 0.047865
O O7 0.196150 0.460725 0.084735
O O8 0.966007 0.670052 0.192661
O O9 0.000000 0.000000 0.070656
O O10 0.750000 0.139490 0.768667
O O11 0.750000 0.175077 0.019832
#
# Coordination Sequence:
#
# PCOD9380975 Si02
#       6
#     8   8   8   4   4   4
#     4   9  20  39  63 100 142 193 232 298 366 449
#     4  11  24  44  74 105 146 190 256 314 384 457
#     4   9  20  39  64  98 142 190 232 299 366 450
#     4  11  28  52  73 111 147 201 271 327 384 463
#     4  11  28  48  79 105 143 205 255 333 390 445
#     4   8  18  38  60  96 150 186 242 278 372 460
#
# _framework density 23.143633999999999
#
# number of rings (size 3 to 8) (size 9 to 14) (size 15 to 20)
#    0.000    2.667    0.000    1.333    1.556   14.222 
#    8.000    0.000    0.000    0.000    0.000    0.000 
#    0.000    0.000    0.000    0.000    0.000    0.000 
#
# Total GULP energy -100356.214210 kJ/mol
# GULP energy per Si atom -5575.345234 kJ/mol
# Density = 2.309096 g / cm^3
# Si number density = 23.143634 Si / 1000 Ang^3
#
#
#
# Elastic Constant Matrix: (Units=GPa)
#
#
# Indices 1 2 3 4 5 6 
#
# 1 181.1378 54.1601 67.6218 0.0000 0.0000 0.0000
# 2 54.1601 109.1089 52.6203 0.0000 0.0000 0.0000
# 3 67.6218 52.6203 129.9683 0.0000 0.0000 0.0000
# 4 0.0000 0.0000 0.0000 7.3355 0.0000 0.0000
# 5 0.0000 0.0000 0.0000 0.0000 -8.3411 0.0000
# 6 0.0000 0.0000 0.0000 0.0000 0.0000 36.0986
#
#
#
# Elastic Compliance Matrix: (Units=1/GPa)
#
#
# Indices 1 2 3 4 5 6 
#
# 1 0.007258 -0.002214 -0.002880 0.000000 0.000000 0.000000
# 2 -0.002214 0.012064 -0.003733 0.000000 0.000000 0.000000
# 3 -0.002880 -0.003733 0.010704 0.000000 0.000000 0.000000
# 4 0.000000 0.000000 0.000000 0.136324 0.000000 0.000000
# 5 0.000000 0.000000 0.000000 0.000000 -0.119888 0.000000
# 6 0.000000 0.000000 0.000000 0.000000 0.000000 0.027702
#
#
# Mechanical properties :
#
#
# Convention : Reuss Voigt Hill
#
# Bulk Modulus (GPa) = 80.81985 85.44659 83.13322
# Shear Modulus (GPa) = 52.11542 23.40610 37.76076
#
# Velocity S-wave (km/s) = 4.75049 3.18361 4.04367
# Velocity P-wave (km/s) = 8.06761 7.10733 7.60264
#
# Compressibility (1/GPa) = 0.01237320
#
# Stress axis : x y z
#
# Youngs Moduli (GPa) = 137.78547 82.89010 93.42487
#
# Poissons Ratio (x) = 0.18350 0.26905
# Poissons Ratio (y) = 0.30502 0.34872
# Poissons Ratio (z) = 0.39680 0.30940
#
# Static dielectric constant tensor:
#      x y z
#    x 1.793150 0.000000 0.000000 
#    y 0.000000 2.436610 0.000000 
#    z 0.000000 0.000000 1.942160 
# 
# From -- ./inp_files/12627.got.cif
#   From: 2010.05.17/outbox.cif.g08.bks.cpg/sg46_7_cif.got.tgz:12627.got - 2010.06.03 19:58:25.
