data_PCOD9380932
_publ_section_title
;
Structure prediction by ZEFSAII (Michael W. Deem and Ramdas Pophale) SiO2 
 PCOD9380932
Probable space group: I M A 2
;
_chemical_formula_sum "Si O2"
_cell_formula_units_Z 48
_cell_length_a 8.957638
_cell_length_b 23.471126
_cell_length_c 11.758432
_cell_angle_alpha 90.000000
_cell_angle_beta 90.000000
_cell_angle_gamma 90.000000
_cell_volume 2472.161532
_symmetry_space_group_name_H-M "I M A 2"
_symmetry_group_IT_number 46
_symmetry_cell_setting 'orthorhombic'
loop_
_space_group_symop_operation_xyz
x,y,z
-x,-y,z
1/2-x,y,z
1/2+x,-y,z
1/2+x,1/2+y,1/2+z
1/2-x,1/2-y,1/2+z
-x,1/2+y,1/2+z
x,1/2-y,1/2+z
loop_
_atom_site_type_symbol
_atom_site_label
_atom_site_fract_x
_atom_site_fract_y
_atom_site_fract_z
Si Si1 0.570068 0.437336 0.780600
Si Si2 0.079756 0.941827 0.864297
Si Si3 0.079623 0.658195 0.189174
Si Si4 0.574090 0.856509 0.453250
Si Si5 0.570620 0.260730 0.402874
Si Si6 0.431686 0.861281 0.064879
O O1 0.500000 0.500000 0.759414
O O2 0.750000 0.441976 0.780686
O O3 0.510414 0.410185 0.897713
O O4 0.526205 0.390073 0.684279
O O5 0.250000 0.954262 0.896004
O O6 0.079580 0.901261 0.755924
O O7 0.015204 0.905863 0.969065
O O8 0.000000 0.000000 0.842454
O O9 0.250000 0.670118 0.149052
O O10 0.043229 0.703868 0.287299
O O11 0.970265 0.653041 0.084250
O O12 0.750000 0.863268 0.438418
O O13 0.513573 0.798532 0.396797
O O14 0.750000 0.251873 0.409127
O O15 0.525107 0.299369 0.513193
O O16 0.250000 0.859309 0.063614
#
# Coordination Sequence:
#
# PCOD9380932 Si02
#       6
#     8   8   8   8   8   8
#     4  11  23  41  63  89 122 164 208 250 301 366
#     4   9  17  32  56  86 115 145 185 235 286 343
#     4   9  20  39  60  82 112 152 199 243 291 356
#     4  12  26  40  57  86 123 159 198 250 305 362
#     4   9  19  39  65  89 114 152 202 250 302 365
#     4   8  17  35  61  90 117 150 195 242 294 355
#
# _framework density 19.416207
#
# number of rings (size 3 to 8) (size 9 to 14) (size 15 to 20)
#    0.000    2.333    0.000    4.500    2.333    2.000 
#    0.000    5.833    0.000    0.000    0.000    0.000 
#    0.000    0.000    0.000    0.000    0.000    0.000 
#
# Total GULP energy -133846.920313 kJ/mol
# GULP energy per Si atom -5576.955013 kJ/mol
# Density = 1.937202 g / cm^3
# Si number density = 19.416207 Si / 1000 Ang^3
#
#
#
# Elastic Constant Matrix: (Units=GPa)
#
#
# Indices 1 2 3 4 5 6 
#
# 1 57.0245 26.3451 25.4893 0.0000 0.0001 0.0000
# 2 26.3451 74.7385 22.6352 -0.0001 0.0000 0.0000
# 3 25.4893 22.6352 64.6332 0.0000 0.0002 0.0000
# 4 0.0000 -0.0001 0.0000 9.8706 0.0000 0.0000
# 5 0.0001 0.0000 0.0002 0.0000 13.4662 0.0000
# 6 0.0000 0.0000 0.0000 0.0000 0.0000 30.8931
#
#
#
# Elastic Compliance Matrix: (Units=1/GPa)
#
#
# Indices 1 2 3 4 5 6 
#
# 1 0.023568 -0.006144 -0.007143 0.000000 0.000000 0.000000
# 2 -0.006144 0.016569 -0.003380 0.000000 0.000000 0.000000
# 3 -0.007143 -0.003380 0.019472 0.000000 0.000000 0.000000
# 4 0.000000 0.000000 0.000000 0.101311 0.000000 0.000000
# 5 0.000000 0.000000 0.000000 0.000000 0.074260 0.000000
# 6 0.000000 0.000000 0.000000 0.000000 0.000000 0.032370
#
#
# Mechanical properties :
#
#
# Convention : Reuss Voigt Hill
#
# Bulk Modulus (GPa) = 38.05708 38.37059 38.21384
# Shear Modulus (GPa) = 16.14768 18.97441 17.56104
#
# Velocity S-wave (km/s) = 2.88698 3.12948 3.01067
# Velocity P-wave (km/s) = 5.54582 5.73265 5.64001
#
# Compressibility (1/GPa) = 0.02627632
#
# Stress axis : x y z
#
# Youngs Moduli (GPa) = 42.43110 60.35218 51.35501
#
# Poissons Ratio (x) = 0.37083 0.36680
# Poissons Ratio (y) = 0.26071 0.17356
# Poissons Ratio (z) = 0.30306 0.20397
#
# Static dielectric constant tensor:
#      x y z
#    x 1.656540 0.000000 0.000000 
#    y 0.000000 1.671520 0.000000 
#    z 0.000000 0.000000 1.714820 
# 
# From -- ./inp_files/9302.got.cif
#   From: 2010.05.17/outbox.cif.g08.bks.cpg/sg46_5_cif.got.tgz:9302.got - 2010.06.03 19:58:25.
