data_PCOD9380872
_publ_section_title
;
Structure prediction by ZEFSAII (Michael W. Deem and Ramdas Pophale) SiO2 
 PCOD9380872
Probable space group: I M A 2
;
_chemical_formula_sum "Si O2"
_cell_formula_units_Z 64
_cell_length_a 7.622442
_cell_length_b 29.222785
_cell_length_c 14.760315
_cell_angle_alpha 90.000000
_cell_angle_beta 90.000000
_cell_angle_gamma 90.000000
_cell_volume 3287.845166
_symmetry_space_group_name_H-M "I M A 2"
_symmetry_group_IT_number 46
_symmetry_cell_setting 'orthorhombic'
loop_
_space_group_symop_operation_xyz
x,y,z
-x,-y,z
1/2-x,y,z
1/2+x,-y,z
1/2+x,1/2+y,1/2+z
1/2-x,1/2-y,1/2+z
-x,1/2+y,1/2+z
x,1/2-y,1/2+z
loop_
_atom_site_type_symbol
_atom_site_label
_atom_site_fract_x
_atom_site_fract_y
_atom_site_fract_z
Si Si1 0.460613 0.875909 0.394370
Si Si2 0.545711 0.128688 0.690043
Si Si3 0.959882 0.446901 0.541562
Si Si4 0.964707 0.124807 0.188758
Si Si5 0.963630 0.302354 0.540635
Si Si6 0.534448 0.302229 0.039094
Si Si7 0.964806 0.123559 0.893506
Si Si8 0.955156 0.553429 0.048373
O O1 0.250000 0.872743 0.389591
O O2 0.527464 0.876629 0.291858
O O3 0.521521 0.832050 0.452277
O O4 0.499692 0.920613 0.454787
O O5 0.750000 0.140145 0.702764
O O6 0.472995 0.169118 0.626674
O O7 0.470567 0.123976 0.790557
O O8 0.538617 0.082523 0.630280
O O9 0.750000 0.442167 0.541640
O O10 0.022427 0.418887 0.629543
O O11 0.023423 0.420290 0.452025
O O12 0.000000 0.500000 0.543015
O O13 0.750000 0.124694 0.190943
O O14 0.016742 0.169257 0.130059
O O15 0.750000 0.301706 0.540907
O O16 0.023481 0.250126 0.538545
O O17 0.015377 0.332143 0.452919
O O18 0.750000 0.302431 0.039478
O O19 0.750000 0.122477 0.891815
O O20 0.750000 0.557887 0.062430
O O21 0.000000 0.500000 0.046757
#
# Coordination Sequence:
#
# PCOD9380872 Si02
#       8
#     8   8   8   8   8   8   8   8
#     4   9  17  31  48  70  97 124 154 193 232 272
#     4   9  17  31  48  70  97 124 154 193 232 272
#     4   9  17  30  45  64  88 119 153 189 231 277
#     4   8  15  27  44  65  95 126 153 188 233 276
#     4   8  13  23  40  69 101 127 154 190 233 273
#     4   8  14  23  40  67  98 125 155 192 230 269
#     4   8  15  27  44  65  95 126 153 188 233 276
#     4  11  22  36  52  70  92 121 153 191 234 281
#
# _framework density 19.465636
#
# number of rings (size 3 to 8) (size 9 to 14) (size 15 to 20)
#    0.000    3.250    0.000    3.375    0.000    2.000 
#    0.000    8.750    0.000    0.000    0.000   28.000 
#    0.000    0.000    0.000    0.000    0.000    0.000 
#
# Total GULP energy -178372.401384 kJ/mol
# GULP energy per Si atom -5574.137543 kJ/mol
# Density = 1.942133 g / cm^3
# Si number density = 19.465636 Si / 1000 Ang^3
#
#
#
# Elastic Constant Matrix: (Units=GPa)
#
#
# Indices 1 2 3 4 5 6 
#
# 1 36.5201 -7.7350 1.4605 0.0000 0.0000 0.0000
# 2 -7.7350 195.7632 102.2679 0.0000 0.0000 0.0000
# 3 1.4605 102.2679 194.0540 -0.0001 0.0000 0.0000
# 4 0.0000 0.0000 -0.0001 7.0309 0.0000 0.0000
# 5 0.0000 0.0000 0.0000 0.0000 -3.5731 0.0000
# 6 0.0000 0.0000 0.0000 0.0000 0.0000 13.9799
#
#
#
# Elastic Compliance Matrix: (Units=1/GPa)
#
#
# Indices 1 2 3 4 5 6 
#
# 1 0.027778 0.001665 -0.001087 0.000000 0.000000 0.000000
# 2 0.001665 0.007149 -0.003780 0.000000 0.000000 0.000000
# 3 -0.001087 -0.003780 0.007153 0.000000 0.000000 0.000000
# 4 0.000000 0.000000 0.000000 0.142230 0.000000 0.000000
# 5 0.000000 0.000000 0.000000 0.000000 -0.279871 0.000000
# 6 0.000000 0.000000 0.000000 0.000000 0.000000 0.071531
#
#
# Mechanical properties :
#
#
# Convention : Reuss Voigt Hill
#
# Bulk Modulus (GPa) = 28.02865 68.70268 48.36566
# Shear Modulus (GPa) = -871.95310 25.51047 -423.22131
#
# Velocity S-wave (km/s) = -21.18767 3.62406 -14.76116
# Velocity P-wave (km/s) = 24.16870 7.27205 16.29790
#
# Compressibility (1/GPa) = 0.03567778
#
# Stress axis : x y z
#
# Youngs Moduli (GPa) = 35.99924 139.88617 139.79295
#
# Poissons Ratio (x) = -0.23295 0.15191
# Poissons Ratio (y) = -0.05995 0.52841
# Poissons Ratio (z) = 0.03912 0.52876
#
# Static dielectric constant tensor:
#      x y z
#    x 1.748230 0.000000 0.000000 
#    y 0.000000 1.550620 0.000000 
#    z 0.000000 0.000000 1.689840 
# 
# From -- ./inp_files/14769.got.cif
#   From: 2010.05.17/outbox.cif.g08.bks.cpg/sg46_8_cif.got.tgz:14769.got - 2010.06.03 19:58:25.
