data_PCOD9380219
_publ_section_title
;
Structure prediction by ZEFSAII (Michael W. Deem and Ramdas Pophale) SiO2 
 PCOD9380219
Probable space group: I M A 2
;
_chemical_formula_sum "Si O2"
_cell_formula_units_Z 64
_cell_length_a 16.674754
_cell_length_b 9.027104
_cell_length_c 20.416721
_cell_angle_alpha 90.000000
_cell_angle_beta 90.000000
_cell_angle_gamma 90.000000
_cell_volume 3073.221590
_symmetry_space_group_name_H-M "I M A 2"
_symmetry_group_IT_number 46
_symmetry_cell_setting 'orthorhombic'
loop_
_space_group_symop_operation_xyz
x,y,z
-x,-y,z
1/2-x,y,z
1/2+x,-y,z
1/2+x,1/2+y,1/2+z
1/2-x,1/2-y,1/2+z
-x,1/2+y,1/2+z
x,1/2-y,1/2+z
loop_
_atom_site_type_symbol
_atom_site_label
_atom_site_fract_x
_atom_site_fract_y
_atom_site_fract_z
Si Si1 0.341165 0.804108 0.125000
Si Si2 0.656630 0.182529 0.478994
Si Si3 0.838915 0.916208 0.384991
Si Si4 0.565526 0.130673 0.877916
Si Si5 0.082460 0.413270 0.572770
Si Si6 0.525387 0.846423 0.281907
Si Si7 0.163731 0.415608 0.434885
Si Si8 0.509453 0.824596 0.660277
O O1 0.250000 0.781109 0.150143
O O2 0.418808 0.744108 0.163912
O O3 0.354788 0.978926 0.109921
O O4 0.348374 0.714519 0.055851
O O5 0.750000 0.218163 0.461436
O O6 0.588734 0.280993 0.443778
O O7 0.643540 0.021009 0.447307
O O8 0.750000 0.959220 0.359657
O O9 0.907506 0.910718 0.330862
O O10 0.835506 0.748541 0.408300
O O11 0.538621 0.252638 0.825526
O O12 0.500000 0.000000 0.881804
O O13 0.644038 0.027020 0.875341
O O14 0.105464 0.412474 0.496845
O O15 0.000000 0.500000 0.579465
O O16 0.062004 0.253333 0.603360
O O17 0.551384 0.728725 0.227454
O O18 0.500000 0.000000 0.247213
O O19 0.250000 0.454507 0.462995
O O20 0.500000 0.000000 0.653739
#
# Coordination Sequence:
#
# PCOD9380219 Si02
#       8
#     8   8   8   8   8   8   8   8
#     4  10  21  41  67  96 133 173 216 272 330 394
#     4  10  21  39  62  95 134 168 207 262 326 391
#     4  10  23  40  62  95 134 168 208 267 330 389
#     4  12  22  35  62  96 128 168 207 258 319 383
#     4  10  21  39  63  92 127 169 217 260 320 383
#     4  12  24  45  67  90 125 173 224 271 319 391
#     4  11  22  37  60  97 134 167 206 263 329 394
#     4  11  27  46  66  94 129 173 230 280 328 395
#
# _framework density 20.825050999999998
#
# number of rings (size 3 to 8) (size 9 to 14) (size 15 to 20)
#    0.000    1.250    3.750    2.625    3.500    0.000 
#    0.000    5.625    0.000    0.000    0.000    0.000 
#    0.000    0.000    0.000    0.000    0.000    0.000 
#
# Total GULP energy -178199.964928 kJ/mol
# GULP energy per Si atom -5568.748904 kJ/mol
# Density = 2.077765 g / cm^3
# Si number density = 20.825051 Si / 1000 Ang^3
#
#
#
# Elastic Constant Matrix: (Units=GPa)
#
#
# Indices 1 2 3 4 5 6 
#
# 1 54.4474 26.4860 16.5833 0.0000 0.0000 0.0000
# 2 26.4860 133.7164 20.6247 0.0000 0.0000 0.0000
# 3 16.5833 20.6247 50.9368 0.0000 0.0000 0.0000
# 4 0.0000 0.0000 0.0000 33.7849 0.0000 0.0000
# 5 0.0000 0.0000 0.0000 0.0000 12.2460 0.0000
# 6 0.0000 0.0000 0.0000 0.0000 0.0000 14.4199
#
#
#
# Elastic Compliance Matrix: (Units=1/GPa)
#
#
# Indices 1 2 3 4 5 6 
#
# 1 0.021772 -0.003434 -0.005698 0.000000 0.000000 0.000000
# 2 -0.003434 0.008518 -0.002331 0.000000 0.000000 0.000000
# 3 -0.005698 -0.002331 0.022431 0.000000 0.000000 0.000000
# 4 0.000000 0.000000 0.000000 0.029599 0.000000 0.000000
# 5 0.000000 0.000000 0.000000 0.000000 0.081660 0.000000
# 6 0.000000 0.000000 0.000000 0.000000 0.000000 0.069348
#
#
# Mechanical properties :
#
#
# Convention : Reuss Voigt Hill
#
# Bulk Modulus (GPa) = 33.56172 40.72095 37.14133
# Shear Modulus (GPa) = 18.78385 23.78392 21.28389
#
# Velocity S-wave (km/s) = 3.00656 3.38314 3.20039
# Velocity P-wave (km/s) = 5.31070 5.90399 5.61519
#
# Compressibility (1/GPa) = 0.02979585
#
# Stress axis : x y z
#
# Youngs Moduli (GPa) = 45.93030 117.39547 44.58092
#
# Poissons Ratio (x) = 0.40310 0.25402
# Poissons Ratio (y) = 0.15771 0.10393
# Poissons Ratio (z) = 0.26171 0.27367
#
# Static dielectric constant tensor:
#      x y z
#    x 1.847480 0.000000 0.000000 
#    y 0.000000 1.805990 0.000000 
#    z 0.000000 0.000000 1.746940 
# 
# From -- ./inp_files/22238.got.cif
#   From: 2010.05.17/outbox.cif.g08.bks.cpg/sg46_12_cif.got.tgz:22238.got - 2010.06.03 19:58:25.
