data_PCOD9380626
_publ_section_title
;
Structure prediction by ZEFSAII (Michael W. Deem and Ramdas Pophale) SiO2 
 PCOD9380626
Probable space group: I M A 2
;
_chemical_formula_sum "Si O2"
_cell_formula_units_Z 56
_cell_length_a 13.865013
_cell_length_b 14.104273
_cell_length_c 13.178273
_cell_angle_alpha 90.000000
_cell_angle_beta 90.000000
_cell_angle_gamma 90.000000
_cell_volume 2577.089413
_symmetry_space_group_name_H-M "I M A 2"
_symmetry_group_IT_number 46
_symmetry_cell_setting 'orthorhombic'
loop_
_space_group_symop_operation_xyz
x,y,z
-x,-y,z
1/2-x,y,z
1/2+x,-y,z
1/2+x,1/2+y,1/2+z
1/2-x,1/2-y,1/2+z
-x,1/2+y,1/2+z
x,1/2-y,1/2+z
loop_
_atom_site_type_symbol
_atom_site_label
_atom_site_fract_x
_atom_site_fract_y
_atom_site_fract_z
Si Si1 0.635149 0.734186 0.814070
Si Si2 0.865270 0.403293 0.895450
Si Si3 0.132526 0.074637 0.721685
Si Si4 0.137639 0.704332 0.501002
Si Si5 0.133393 0.104312 0.496489
Si Si6 0.463703 0.824668 0.200277
Si Si7 0.137172 0.635095 0.274878
O O1 0.750000 0.722930 0.802555
O O2 0.610134 0.845127 0.804328
O O3 0.576683 0.681623 0.725061
O O4 0.603393 0.686823 0.919477
O O5 0.750000 0.400771 0.877450
O O6 0.917043 0.390622 0.787370
O O7 0.885265 0.313465 0.969074
O O8 0.889726 0.502131 0.948647
O O9 0.250000 0.070973 0.718282
O O10 0.097944 0.109055 0.611320
O O11 0.101861 0.967947 0.742980
O O12 0.250000 0.702283 0.535383
O O13 0.069726 0.659349 0.586167
O O14 0.131375 0.648131 0.395517
O O15 0.250000 0.109510 0.500859
O O16 0.418811 0.721265 0.224805
O O17 0.250000 0.644231 0.246072
#
# Coordination Sequence:
#
# PCOD9380626 Si02
#       7
#     8   8   8   8   8   8   8
#     4  10  23  39  53  75 108 149 201 246 271 309
#     4   9  18  33  57  88 114 136 173 227 286 351
#     4   9  18  36  60  82 109 148 189 231 279 327
#     4   9  17  31  54  88 123 146 169 218 292 357
#     4   9  18  36  60  81 107 146 189 233 280 328
#     4  11  20  32  54  82 116 151 183 226 283 339
#     4   9  18  33  56  88 119 144 180 229 283 349
#
# _framework density 21.729939999999999
#
# number of rings (size 3 to 8) (size 9 to 14) (size 15 to 20)
#    0.000    2.571    0.000    3.000    0.000    5.714 
#    0.000    2.857    0.000   10.286    0.000    0.000 
#    0.000    0.000    0.000    0.000    0.000    0.000 
#
# Total GULP energy -156521.280471 kJ/mol
# GULP energy per Si atom -5590.045731 kJ/mol
# Density = 2.168048 g / cm^3
# Si number density = 21.729940 Si / 1000 Ang^3
#
#
#
# Elastic Constant Matrix: (Units=GPa)
#
#
# Indices 1 2 3 4 5 6 
#
# 1 87.6803 2.4985 4.3918 0.0000 0.0000 0.0000
# 2 2.4985 99.1030 55.9956 0.0000 0.0000 0.0000
# 3 4.3918 55.9956 85.2169 0.0000 0.0000 0.0000
# 4 0.0000 0.0000 0.0000 18.9572 0.0000 0.0000
# 5 0.0000 0.0000 0.0000 0.0000 24.4279 0.0000
# 6 0.0000 0.0000 0.0000 0.0000 0.0000 6.2151
#
#
#
# Elastic Compliance Matrix: (Units=1/GPa)
#
#
# Indices 1 2 3 4 5 6 
#
# 1 0.011435 0.000071 -0.000636 0.000000 0.000000 0.000000
# 2 0.000071 0.016050 -0.010550 0.000000 0.000000 0.000000
# 3 -0.000636 -0.010550 0.018700 0.000000 0.000000 0.000000
# 4 0.000000 0.000000 0.000000 0.052750 0.000000 0.000000
# 5 0.000000 0.000000 0.000000 0.000000 0.040937 0.000000
# 6 0.000000 0.000000 0.000000 0.000000 0.000000 0.160897
#
#
# Mechanical properties :
#
#
# Convention : Reuss Voigt Hill
#
# Bulk Modulus (GPa) = 41.74525 44.19687 42.97106
# Shear Modulus (GPa) = 15.10651 23.86101 19.48376
#
# Velocity S-wave (km/s) = 2.63951 3.31731 2.99763
# Velocity P-wave (km/s) = 5.34247 5.92081 5.63906
#
# Compressibility (1/GPa) = 0.02395482
#
# Stress axis : x y z
#
# Youngs Moduli (GPa) = 87.45154 62.30685 53.47668
#
# Poissons Ratio (x) = -0.00443 0.03401
# Poissons Ratio (y) = -0.00622 0.56417
# Poissons Ratio (z) = 0.05562 0.65732
#
# Static dielectric constant tensor:
#      x y z
#    x 1.857760 0.000000 0.000000 
#    y 0.000000 1.769770 0.000000 
#    z 0.000000 0.000000 1.764500 
# 
# From -- ./inp_files/11131.got.cif
#   From: 2010.05.17/outbox.cif.g08.bks.cpg/sg46_6_cif.got.tgz:11131.got - 2010.06.03 19:58:25.
