data_PCOD9380926
_publ_section_title
;
Structure prediction by ZEFSAII (Michael W. Deem and Ramdas Pophale) SiO2 
 PCOD9380926
Probable space group: I M A 2
;
_chemical_formula_sum "Si O2"
_cell_formula_units_Z 44
_cell_length_a 23.350471
_cell_length_b 11.012923
_cell_length_c 8.868083
_cell_angle_alpha 90.000000
_cell_angle_beta 90.000000
_cell_angle_gamma 90.000000
_cell_volume 2280.489080
_symmetry_space_group_name_H-M "I M A 2"
_symmetry_group_IT_number 46
_symmetry_cell_setting 'orthorhombic'
loop_
_space_group_symop_operation_xyz
x,y,z
-x,-y,z
1/2-x,y,z
1/2+x,-y,z
1/2+x,1/2+y,1/2+z
1/2-x,1/2-y,1/2+z
-x,1/2+y,1/2+z
x,1/2-y,1/2+z
loop_
_atom_site_type_symbol
_atom_site_label
_atom_site_fract_x
_atom_site_fract_y
_atom_site_fract_z
Si Si1 0.030111 0.717153 0.175870
Si Si2 0.086338 0.598229 0.886383
Si Si3 0.683252 0.723559 0.712889
Si Si4 0.071195 0.407247 0.639814
Si Si5 0.683849 0.932355 0.510473
Si Si6 0.500000 0.500000 0.390881
O O1 0.079800 0.796005 0.259528
O O2 0.976561 0.803227 0.138215
O O3 0.006551 0.617374 0.289958
O O4 0.051213 0.649256 0.026875
O O5 0.064093 0.480723 0.795254
O O6 0.145113 0.544538 0.956779
O O7 0.750000 0.704275 0.668411
O O8 0.635146 0.642908 0.631724
O O9 0.669353 0.862875 0.667114
O O10 0.678857 0.675731 0.884708
O O11 0.054804 0.490930 0.499737
O O12 0.750000 0.969822 0.515258
#
# Coordination Sequence:
#
# PCOD9380926 Si02
#       6
#     8   8   8   8   8   4
#     4  12  25  38  58  90 118 165 199 245 305 369
#     4  11  23  42  61  85 127 158 204 254 302 370
#     4   9  20  36  59  89 119 153 200 246 296 354
#     4  11  23  40  59  88 125 158 194 253 307 360
#     4   9  20  38  63  91 121 162 203 253 305 356
#     4  12  26  36  60  88 122 158 204 238 312 364
#
# _framework density 19.294107
#
# number of rings (size 3 to 8) (size 9 to 14) (size 15 to 20)
#    0.000    1.455    3.636    0.000   10.182    0.000 
#    0.000    0.909    0.000    3.273    0.000    0.000 
#    0.000    0.000    0.000    0.000    0.000    0.000 
#
# Total GULP energy -122630.442637 kJ/mol
# GULP energy per Si atom -5574.111029 kJ/mol
# Density = 1.925019 g / cm^3
# Si number density = 19.294107 Si / 1000 Ang^3
#
#
#
# Elastic Constant Matrix: (Units=GPa)
#
#
# Indices 1 2 3 4 5 6 
#
# 1 68.6460 40.0635 29.8970 0.0000 0.0000 0.0000
# 2 40.0635 61.2987 33.5995 0.0000 0.0000 0.0000
# 3 29.8970 33.5995 88.1837 0.0000 0.0000 0.0000
# 4 0.0000 0.0000 0.0000 42.6338 0.0000 0.0000
# 5 0.0000 0.0000 0.0000 0.0000 17.3013 0.0000
# 6 0.0000 0.0000 0.0000 0.0000 0.0000 34.3359
#
#
#
# Elastic Compliance Matrix: (Units=1/GPa)
#
#
# Indices 1 2 3 4 5 6 
#
# 1 0.024063 -0.014226 -0.002737 0.000000 0.000000 0.000000
# 2 -0.014226 0.029031 -0.006238 0.000000 0.000000 0.000000
# 3 -0.002737 -0.006238 0.014645 0.000000 0.000000 0.000000
# 4 0.000000 0.000000 0.000000 0.023456 0.000000 0.000000
# 5 0.000000 0.000000 0.000000 0.000000 0.057799 0.000000
# 6 0.000000 0.000000 0.000000 0.000000 0.000000 0.029124
#
#
# Mechanical properties :
#
#
# Convention : Reuss Voigt Hill
#
# Bulk Modulus (GPa) = 46.87238 47.24983 47.06111
# Shear Modulus (GPa) = 21.58595 26.49210 24.03903
#
# Velocity S-wave (km/s) = 3.34845 3.70951 3.53360
# Velocity P-wave (km/s) = 6.26864 6.54902 6.41037
#
# Compressibility (1/GPa) = 0.02133453
#
# Stress axis : x y z
#
# Youngs Moduli (GPa) = 41.55831 34.44611 68.28321
#
# Poissons Ratio (x) = 0.49004 0.18692
# Poissons Ratio (y) = 0.59122 0.42596
# Poissons Ratio (z) = 0.11377 0.21488
#
# Static dielectric constant tensor:
#      x y z
#    x 1.673580 0.000000 0.000000 
#    y 0.000000 1.689740 0.000000 
#    z 0.000000 0.000000 1.718350 
# 
# From -- ./inp_files/7800.got.cif
#   From: 2010.05.17/outbox.cif.g08.bks.cpg/sg46_4_cif.got.tgz:7800.got - 2010.06.03 19:58:25.
