data_PCOD9380625
_publ_section_title
;
Structure prediction by ZEFSAII (Michael W. Deem and Ramdas Pophale) SiO2 
 PCOD9380625
Probable space group: I M A 2
;
_chemical_formula_sum "Si O2"
_cell_formula_units_Z 32
_cell_length_a 9.950365
_cell_length_b 12.829507
_cell_length_c 11.656078
_cell_angle_alpha 90.000000
_cell_angle_beta 90.000000
_cell_angle_gamma 90.000000
_cell_volume 1487.994839
_symmetry_space_group_name_H-M "I M A 2"
_symmetry_group_IT_number 46
_symmetry_cell_setting 'orthorhombic'
loop_
_space_group_symop_operation_xyz
x,y,z
-x,-y,z
1/2-x,y,z
1/2+x,-y,z
1/2+x,1/2+y,1/2+z
1/2-x,1/2-y,1/2+z
-x,1/2+y,1/2+z
x,1/2-y,1/2+z
loop_
_atom_site_type_symbol
_atom_site_label
_atom_site_fract_x
_atom_site_fract_y
_atom_site_fract_z
Si Si1 0.750000 0.264554 0.655800
Si Si2 0.750000 0.913952 0.798791
Si Si3 0.250000 0.541219 0.070320
Si Si4 0.980920 0.210819 0.832645
Si Si5 0.750000 0.087283 0.964029
Si Si6 0.101104 0.075040 0.380617
O O1 0.750000 0.166032 0.567772
O O2 0.617293 0.249805 0.732010
O O3 0.750000 0.374961 0.593724
O O4 0.887423 0.849387 0.787910
O O5 0.750000 0.003440 0.701270
O O6 0.750000 0.968614 0.923417
O O7 0.368341 0.487833 0.997994
O O8 0.036144 0.312656 0.897533
O O9 0.884375 0.138587 0.909000
O O10 0.250000 0.087719 0.327527
O O11 0.000000 0.000000 0.312778
#
# Coordination Sequence:
#
# PCOD9380625 Si02
#       6
#     4   4   4   8   4   8
#     4  11  25  43  74 102 138 187 234 284 357 416
#     4  12  23  42  70 103 140 178 236 295 340 413
#     4  10  23  38  71 106 124 184 237 285 335 407
#     4  11  24  45  67 102 141 181 236 282 351 416
#     4  11  25  41  69  99 144 185 223 292 344 418
#     4  10  23  40  68  95 134 172 228 286 340 403
#
# _framework density 21.505448999999999
#
# number of rings (size 3 to 8) (size 9 to 14) (size 15 to 20)
#    0.750    0.500    3.750    2.250   10.500    0.000 
#    0.000    2.500    0.000    0.000    0.000    0.000 
#    0.000    0.000    0.000    0.000    0.000    0.000 
#
# Total GULP energy -89254.066065 kJ/mol
# GULP energy per Si atom -5578.379129 kJ/mol
# Density = 2.145650 g / cm^3
# Si number density = 21.505449 Si / 1000 Ang^3
#
#
#
# Elastic Constant Matrix: (Units=GPa)
#
#
# Indices 1 2 3 4 5 6 
#
# 1 180.6747 18.8974 16.1255 0.0000 0.0000 0.0000
# 2 18.8974 48.2081 5.2466 0.0000 0.0000 0.0000
# 3 16.1255 5.2466 40.5005 0.0000 0.0000 0.0000
# 4 0.0000 0.0000 0.0000 40.1298 0.0000 0.0000
# 5 0.0000 0.0000 0.0000 0.0000 9.8951 0.0000
# 6 0.0000 0.0000 0.0000 0.0000 0.0000 20.0724
#
#
#
# Elastic Compliance Matrix: (Units=1/GPa)
#
#
# Indices 1 2 3 4 5 6 
#
# 1 0.005941 -0.002101 -0.002093 0.000000 0.000000 0.000000
# 2 -0.002101 0.021783 -0.001985 0.000000 0.000000 0.000000
# 3 -0.002093 -0.001985 0.025782 0.000000 0.000000 0.000000
# 4 0.000000 0.000000 0.000000 0.024919 0.000000 0.000000
# 5 0.000000 0.000000 0.000000 0.000000 0.101061 0.000000
# 6 0.000000 0.000000 0.000000 0.000000 0.000000 0.049820
#
#
# Mechanical properties :
#
#
# Convention : Reuss Voigt Hill
#
# Bulk Modulus (GPa) = 24.30337 38.88024 31.59181
# Shear Modulus (GPa) = 19.57860 29.29370 24.43615
#
# Velocity S-wave (km/s) = 3.02056 3.69474 3.37453
# Velocity P-wave (km/s) = 4.84671 6.02660 5.46857
#
# Compressibility (1/GPa) = 0.04114656
#
# Stress axis : x y z
#
# Youngs Moduli (GPa) = 168.30991 45.90708 38.78712
#
# Poissons Ratio (x) = 0.09646 0.08120
# Poissons Ratio (y) = 0.35365 0.07700
# Poissons Ratio (z) = 0.35234 0.09114
#
# Static dielectric constant tensor:
#      x y z
#    x 1.860210 0.000000 0.000000 
#    y 0.000000 1.791850 0.000000 
#    z 0.000000 0.000000 1.803010 
# 
# From -- ./inp_files/8938.got.cif
#   From: 2010.05.17/outbox.cif.g08.bks.cpg/sg46_5_cif.got.tgz:8938.got - 2010.06.03 19:58:25.
