data_PCOD9380190
_publ_section_title
;
Structure prediction by ZEFSAII (Michael W. Deem and Ramdas Pophale) SiO2 
 PCOD9380190
Probable space group: I M A 2
;
_chemical_formula_sum "Si O2"
_cell_formula_units_Z 64
_cell_length_a 14.912271
_cell_length_b 18.550171
_cell_length_c 12.028359
_cell_angle_alpha 90.000000
_cell_angle_beta 90.000000
_cell_angle_gamma 90.000000
_cell_volume 3327.346938
_symmetry_space_group_name_H-M "I M A 2"
_symmetry_group_IT_number 46
_symmetry_cell_setting 'orthorhombic'
loop_
_space_group_symop_operation_xyz
x,y,z
-x,-y,z
1/2-x,y,z
1/2+x,-y,z
1/2+x,1/2+y,1/2+z
1/2-x,1/2-y,1/2+z
-x,1/2+y,1/2+z
x,1/2-y,1/2+z
loop_
_atom_site_type_symbol
_atom_site_label
_atom_site_fract_x
_atom_site_fract_y
_atom_site_fract_z
Si Si1 0.414037 0.446423 0.140320
Si Si2 0.648777 0.360354 0.901423
Si Si3 0.404528 0.531840 0.565989
Si Si4 0.352795 0.553258 0.316687
Si Si5 0.606870 0.519106 0.896913
Si Si6 0.151478 0.107408 0.183429
Si Si7 0.955826 0.172368 0.186596
Si Si8 0.061220 0.661829 0.141712
O O1 0.500000 0.500000 0.136482
O O2 0.361115 0.479990 0.243392
O O3 0.459329 0.368362 0.147603
O O4 0.369243 0.456282 0.021086
O O5 0.750000 0.329236 0.896197
O O6 0.653660 0.444243 0.870615
O O7 0.576779 0.328568 0.814991
O O8 0.608711 0.359140 0.025788
O O9 0.500000 0.500000 0.601477
O O10 0.401508 0.543742 0.434076
O O11 0.345436 0.464628 0.606324
O O12 0.398204 0.609353 0.625667
O O13 0.250000 0.567552 0.342391
O O14 0.390113 0.618816 0.241734
O O15 0.500000 0.500000 0.890177
O O16 0.634681 0.577430 0.807393
O O17 0.250000 0.142880 0.174902
O O18 0.060774 0.153689 0.163297
O O19 0.935648 0.252649 0.147215
#
# Coordination Sequence:
#
# PCOD9380190 Si02
#       8
#     8   8   8   8   8   8   8   8
#     4   9  18  36  60  81 112 152 193 239 289 341
#     4  12  23  38  61  90 121 154 198 247 295 355
#     4  10  21  39  60  85 114 158 200 241 296 348
#     4  11  22  37  59  89 116 150 201 248 292 352
#     4  11  16  35  63  91 118 145 194 249 305 342
#     4  11  21  38  65  90 115 151 202 255 294 346
#     4  11  25  41  59  87 125 163 194 237 303 359
#     4  11  23  40  58  84 118 164 194 236 296 362
#
# _framework density 19.234544
#
# number of rings (size 3 to 8) (size 9 to 14) (size 15 to 20)
#    0.000    1.250    6.250    2.625    1.750    2.000 
#    0.000    0.625    0.000    0.750    0.000    0.000 
#    0.000    0.000    0.000    0.000    0.000    0.000 
#
# Total GULP energy -178336.034687 kJ/mol
# GULP energy per Si atom -5573.001084 kJ/mol
# Density = 1.919076 g / cm^3
# Si number density = 19.234544 Si / 1000 Ang^3
#
#
#
# Elastic Constant Matrix: (Units=GPa)
#
#
# Indices 1 2 3 4 5 6 
#
# 1 81.3011 2.9808 -14.0025 0.0000 0.0000 0.0000
# 2 2.9808 71.2241 3.9707 0.0000 0.0000 0.0000
# 3 -14.0025 3.9707 69.7781 0.0000 0.0000 0.0000
# 4 0.0000 0.0000 0.0000 13.3932 0.0000 0.0000
# 5 0.0000 0.0000 0.0000 0.0000 -89.9385 0.0000
# 6 0.0000 0.0000 0.0000 0.0000 0.0000 11.4833
#
#
#
# Elastic Compliance Matrix: (Units=1/GPa)
#
#
# Indices 1 2 3 4 5 6 
#
# 1 0.012773 -0.000680 0.002602 0.000000 0.000000 0.000000
# 2 -0.000680 0.014121 -0.000940 0.000000 0.000000 0.000000
# 3 0.002602 -0.000940 0.014907 0.000000 0.000000 0.000000
# 4 0.000000 0.000000 0.000000 0.074665 0.000000 0.000000
# 5 0.000000 0.000000 0.000000 0.000000 -0.011119 0.000000
# 6 0.000000 0.000000 0.000000 0.000000 0.000000 0.087083
#
#
# Mechanical properties :
#
#
# Convention : Reuss Voigt Hill
#
# Bulk Modulus (GPa) = 22.84911 23.13348 22.99129
# Shear Modulus (GPa) = 24.38389 2.27790 13.33090
#
# Velocity S-wave (km/s) = 3.56436 1.08943 2.63548
# Velocity P-wave (km/s) = 5.37071 3.69264 4.60870
#
# Compressibility (1/GPa) = 0.04376539
#
# Stress axis : x y z
#
# Youngs Moduli (GPa) = 78.29018 70.81635 67.08371
#
# Poissons Ratio (x) = 0.04813 -0.17454
# Poissons Ratio (y) = 0.05321 0.06305
# Poissons Ratio (z) = -0.20370 0.06656
#
# Static dielectric constant tensor:
#      x y z
#    x 1.763700 0.000000 0.000000 
#    y 0.000000 1.668800 0.000000 
#    z 0.000000 0.000000 1.698490 
# 
# From -- ./inp_files/11309.got.cif
#   From: 2010.05.17/outbox.cif.g08.bks.cpg/sg46_6_cif.got.tgz:11309.got - 2010.06.03 19:58:25.
