data_PCOD9380329
_publ_section_title
;
Structure prediction by ZEFSAII (Michael W. Deem and Ramdas Pophale) SiO2 
 PCOD9380329
Probable space group: I M A 2
;
_chemical_formula_sum "Si O2"
_cell_formula_units_Z 64
_cell_length_a 17.646181
_cell_length_b 11.729884
_cell_length_c 15.065055
_cell_angle_alpha 90.000000
_cell_angle_beta 90.000000
_cell_angle_gamma 90.000000
_cell_volume 3118.280425
_symmetry_space_group_name_H-M "I M A 2"
_symmetry_group_IT_number 46
_symmetry_cell_setting 'orthorhombic'
loop_
_space_group_symop_operation_xyz
x,y,z
-x,-y,z
1/2-x,y,z
1/2+x,-y,z
1/2+x,1/2+y,1/2+z
1/2-x,1/2-y,1/2+z
-x,1/2+y,1/2+z
x,1/2-y,1/2+z
loop_
_atom_site_type_symbol
_atom_site_label
_atom_site_fract_x
_atom_site_fract_y
_atom_site_fract_z
Si Si1 0.579884 0.659164 0.054770
Si Si2 0.405117 0.596127 0.026589
Si Si3 0.920577 0.932733 0.034893
Si Si4 0.085853 0.047087 0.238350
Si Si5 0.836138 0.987052 0.860022
Si Si6 0.339353 0.857524 0.342502
Si Si7 0.661471 0.723261 0.235177
Si Si8 0.840762 0.158980 0.714913
O O1 0.491162 0.627172 0.052962
O O2 0.609953 0.540144 0.010887
O O3 0.581047 0.793383 0.024542
O O4 0.626107 0.664451 0.147468
O O5 0.361776 0.637509 0.113940
O O6 0.381732 0.658381 0.935732
O O7 0.891934 0.960584 0.134309
O O8 0.873780 0.984548 0.954732
O O9 0.000000 0.000000 0.030781
O O10 0.101512 0.178584 0.258409
O O11 0.140405 0.979655 0.303329
O O12 0.000000 0.000000 0.249358
O O13 0.750000 0.026456 0.872456
O O14 0.835533 0.862882 0.816634
O O15 0.872230 0.064844 0.783355
O O16 0.250000 0.842847 0.357181
O O17 0.365082 0.775424 0.262156
O O18 0.750000 0.759296 0.217766
O O19 0.750000 0.153955 0.717199
#
# Coordination Sequence:
#
# PCOD9380329 Si02
#       8
#     8   8   8   8   8   8   8   8
#     4  10  24  42  63  99 127 173 229 264 344 391
#     4  11  24  43  67  95 133 172 223 285 323 410
#     4  10  24  41  62  95 132 174 216 269 333 399
#     4  10  24  43  65  92 134 174 217 276 338 402
#     4  10  22  40  64  96 128 168 220 274 329 393
#     4  11  26  42  67  98 130 180 225 273 345 404
#     4  10  21  41  67  96 132 173 223 282 338 399
#     4  10  23  43  66  95 130 173 221 274 335 400
#
# _framework density 20.524132999999999
#
# number of rings (size 3 to 8) (size 9 to 14) (size 15 to 20)
#    0.000    1.750    1.250    0.750   10.500    4.000 
#    0.000    2.500    0.000    0.000    0.000    0.000 
#    0.000    0.000    0.000    0.000    0.000    0.000 
#
# Total GULP energy -178216.330440 kJ/mol
# GULP energy per Si atom -5569.260326 kJ/mol
# Density = 2.047742 g / cm^3
# Si number density = 20.524133 Si / 1000 Ang^3
#
#
#
# Elastic Constant Matrix: (Units=GPa)
#
#
# Indices 1 2 3 4 5 6 
#
# 1 47.4592 1.4144 25.2309 0.0000 0.0000 0.0000
# 2 1.4144 41.6757 21.5110 0.0000 0.0000 0.0000
# 3 25.2309 21.5110 85.9470 0.0000 0.0000 0.0000
# 4 0.0000 0.0000 0.0000 -12.3062 0.0000 0.0000
# 5 0.0000 0.0000 0.0000 0.0000 11.5076 0.0000
# 6 0.0000 0.0000 0.0000 0.0000 0.0000 25.5436
#
#
#
# Elastic Compliance Matrix: (Units=1/GPa)
#
#
# Indices 1 2 3 4 5 6 
#
# 1 0.025387 0.003428 -0.008311 0.000000 0.000000 0.000000
# 2 0.003428 0.028017 -0.008019 0.000000 0.000000 0.000000
# 3 -0.008311 -0.008019 0.016082 0.000000 0.000000 0.000000
# 4 0.000000 0.000000 0.000000 -0.081260 0.000000 0.000000
# 5 0.000000 0.000000 0.000000 0.000000 0.086899 0.000000
# 6 0.000000 0.000000 0.000000 0.000000 0.000000 0.039149
#
#
# Mechanical properties :
#
#
# Convention : Reuss Voigt Hill
#
# Bulk Modulus (GPa) = 22.89203 30.15495 26.52349
# Shear Modulus (GPa) = 32.33373 13.41070 22.87222
#
# Velocity S-wave (km/s) = 3.97344 2.55896 3.34189
# Velocity P-wave (km/s) = 5.67705 4.84308 5.27656
#
# Compressibility (1/GPa) = 0.04368333
#
# Stress axis : x y z
#
# Youngs Moduli (GPa) = 39.39063 35.69228 62.18268
#
# Poissons Ratio (x) = -0.12235 0.51677
# Poissons Ratio (y) = -0.13503 0.49861
# Poissons Ratio (z) = 0.32736 0.28620
#
# Static dielectric constant tensor:
#      x y z
#    x 1.729060 0.000000 0.000000 
#    y 0.000000 1.815070 0.000000 
#    z 0.000000 0.000000 1.706030 
# 
# From -- ./inp_files/16798.got.cif
#   From: 2010.05.17/outbox.cif.g08.bks.cpg/sg46_9_cif.got.tgz:16798.got - 2010.06.03 19:58:25.
