data_PCOD9380045
_publ_section_title
;
Structure prediction by ZEFSAII (Michael W. Deem and Ramdas Pophale) SiO2 
 PCOD9380045
Probable space group: I M A 2
;
_chemical_formula_sum "Si O2"
_cell_formula_units_Z 64
_cell_length_a 29.368974
_cell_length_b 9.802057
_cell_length_c 10.407817
_cell_angle_alpha 90.000000
_cell_angle_beta 90.000000
_cell_angle_gamma 90.000000
_cell_volume 2996.164444
_symmetry_space_group_name_H-M "I M A 2"
_symmetry_group_IT_number 46
_symmetry_cell_setting 'orthorhombic'
loop_
_space_group_symop_operation_xyz
x,y,z
-x,-y,z
1/2-x,y,z
1/2+x,-y,z
1/2+x,1/2+y,1/2+z
1/2-x,1/2-y,1/2+z
-x,1/2+y,1/2+z
x,1/2-y,1/2+z
loop_
_atom_site_type_symbol
_atom_site_label
_atom_site_fract_x
_atom_site_fract_y
_atom_site_fract_z
Si Si1 0.698511 0.938389 0.983050
Si Si2 0.303088 0.846236 0.214216
Si Si3 0.646266 0.776881 0.628233
Si Si4 0.632176 0.947479 0.305831
Si Si5 0.453259 0.588937 0.701394
Si Si6 0.966291 0.191647 0.487376
Si Si7 0.697250 0.041935 0.693163
Si Si8 0.065857 0.101585 0.538902
O O1 0.750000 0.880503 0.995613
O O2 0.694124 0.002704 0.843278
O O3 0.661618 0.823502 0.014504
O O4 0.694665 0.058311 0.088560
O O5 0.250000 0.834331 0.254207
O O6 0.320824 0.695596 0.181066
O O7 0.333585 0.925419 0.318304
O O8 0.658924 0.681123 0.748840
O O9 0.593184 0.816024 0.645789
O O10 0.672324 0.919220 0.622927
O O11 0.603679 0.905517 0.428547
O O12 0.592244 0.997890 0.208372
O O13 0.500000 0.500000 0.705293
O O14 0.452345 0.680170 0.573305
O O15 0.452941 0.675519 0.836745
O O16 0.020875 0.178388 0.494393
O O17 0.947679 0.055403 0.559186
O O18 0.750000 0.043799 0.653906
#
# Coordination Sequence:
#
# PCOD9380045 Si02
#       8
#     8   8   8   8   8   8   8   8
#     4   9  19  38  57  81 120 156 196 248 305 355
#     4   9  20  38  59  85 119 161 206 254 304 369
#     4  11  21  35  59  89 117 155 205 248 306 368
#     4  10  21  39  62  87 126 164 206 259 312 376
#     4  11  21  44  65  93 125 165 206 262 316 377
#     4  10  22  42  65  87 126 163 200 257 315 373
#     4  10  21  37  58  86 119 159 204 255 306 364
#     4  10  21  39  59  87 122 158 196 256 311 367
#
# _framework density 21.360644000000001
#
# number of rings (size 3 to 8) (size 9 to 14) (size 15 to 20)
#    0.000    2.000    2.500    1.875    1.750    1.500 
#    9.000    3.750    0.000    0.000    0.000    0.000 
#    0.000    0.000    0.000    0.000    0.000    0.000 
#
# Total GULP energy -178510.634356 kJ/mol
# GULP energy per Si atom -5578.457324 kJ/mol
# Density = 2.131203 g / cm^3
# Si number density = 21.360644 Si / 1000 Ang^3
#
#
#
# Elastic Constant Matrix: (Units=GPa)
#
#
# Indices 1 2 3 4 5 6 
#
# 1 63.6330 35.5547 -2.4942 0.0000 0.0000 0.0000
# 2 35.5547 111.0100 21.8007 0.0000 0.0000 0.0000
# 3 -2.4942 21.8007 40.8821 0.0000 0.0000 0.0000
# 4 0.0000 0.0000 0.0000 24.9000 0.0000 0.0000
# 5 0.0000 0.0000 0.0000 0.0000 31.3893 0.0000
# 6 0.0000 0.0000 0.0000 0.0000 0.0000 30.1648
#
#
#
# Elastic Compliance Matrix: (Units=1/GPa)
#
#
# Indices 1 2 3 4 5 6 
#
# 1 0.020084 -0.007454 0.005200 0.000000 0.000000 0.000000
# 2 -0.007454 0.012828 -0.007296 0.000000 0.000000 0.000000
# 3 0.005200 -0.007296 0.028668 0.000000 0.000000 0.000000
# 4 0.000000 0.000000 0.000000 0.040161 0.000000 0.000000
# 5 0.000000 0.000000 0.000000 0.000000 0.031858 0.000000
# 6 0.000000 0.000000 0.000000 0.000000 0.000000 0.033151
#
#
# Mechanical properties :
#
#
# Convention : Reuss Voigt Hill
#
# Bulk Modulus (GPa) = 23.53951 36.13863 29.83907
# Shear Modulus (GPa) = 24.99890 28.00174 26.50032
#
# Velocity S-wave (km/s) = 3.42471 3.62457 3.52606
# Velocity P-wave (km/s) = 5.16548 5.87126 5.52964
#
# Compressibility (1/GPa) = 0.04248177
#
# Stress axis : x y z
#
# Youngs Moduli (GPa) = 49.79176 77.95314 34.88181
#
# Poissons Ratio (x) = 0.58104 -0.18139
# Poissons Ratio (y) = 0.37113 0.25448
# Poissons Ratio (z) = -0.25892 0.56871
#
# Static dielectric constant tensor:
#      x y z
#    x 1.806730 0.000000 0.000000 
#    y 0.000000 1.763170 0.000000 
#    z 0.000000 0.000000 1.853490 
# 
# From -- ./inp_files/13193.got.cif
#   From: 2010.05.17/outbox.cif.g08.bks.cpg/sg46_7_cif.got.tgz:13193.got - 2010.06.03 19:58:25.
