data_PCOD9380322
_publ_section_title
;
Structure prediction by ZEFSAII (Michael W. Deem and Ramdas Pophale) SiO2 
 PCOD9380322
Probable space group: I M A 2
;
_chemical_formula_sum "Si O2"
_cell_formula_units_Z 48
_cell_length_a 17.113121
_cell_length_b 12.045023
_cell_length_c 12.178012
_cell_angle_alpha 90.000000
_cell_angle_beta 90.000000
_cell_angle_gamma 90.000000
_cell_volume 2510.228479
_symmetry_space_group_name_H-M "I M A 2"
_symmetry_group_IT_number 46
_symmetry_cell_setting 'orthorhombic'
loop_
_space_group_symop_operation_xyz
x,y,z
-x,-y,z
1/2-x,y,z
1/2+x,-y,z
1/2+x,1/2+y,1/2+z
1/2-x,1/2-y,1/2+z
-x,1/2+y,1/2+z
x,1/2-y,1/2+z
loop_
_atom_site_type_symbol
_atom_site_label
_atom_site_fract_x
_atom_site_fract_y
_atom_site_fract_z
Si Si1 0.407352 0.520881 0.674780
Si Si2 0.656655 0.396536 0.443729
Si Si3 0.659750 0.977841 0.524576
Si Si4 0.077614 0.664293 0.883286
Si Si5 0.893804 0.672882 0.839914
Si Si6 0.655982 0.914914 0.768155
O O1 0.500000 0.500000 0.656463
O O2 0.366941 0.553860 0.561848
O O3 0.395828 0.619528 0.763580
O O4 0.378467 0.409770 0.737152
O O5 0.750000 0.377282 0.440274
O O6 0.611772 0.282900 0.416397
O O7 0.635368 0.487438 0.352005
O O8 0.750000 0.015228 0.532000
O O9 0.654761 0.873250 0.442617
O O10 0.631041 0.945064 0.644977
O O11 0.608306 0.073816 0.469867
O O12 0.984165 0.662867 0.875578
O O13 0.876879 0.797956 0.807432
O O14 0.750000 0.905348 0.766815
#
# Coordination Sequence:
#
# PCOD9380322 Si02
#       6
#     8   8   8   8   8   8
#     4   9  22  42  62  90 122 161 207 251 307 368
#     4  11  25  40  61  92 126 163 207 256 307 366
#     4  10  21  41  66  89 124 164 203 254 307 368
#     4  10  23  42  63  92 124 160 207 254 307 371
#     4  10  22  42  64  92 122 161 207 254 309 366
#     4  10  24  40  59  92 125 160 209 255 305 364
#
# _framework density 19.121765
#
# number of rings (size 3 to 8) (size 9 to 14) (size 15 to 20)
#    0.000    2.000    0.000    2.500    7.000    5.333 
#    3.000    0.000    0.000    0.000    0.000    0.000 
#    0.000    0.000    0.000    0.000    0.000    0.000 
#
# Total GULP energy -134074.676235 kJ/mol
# GULP energy per Si atom -5586.444843 kJ/mol
# Density = 1.907824 g / cm^3
# Si number density = 19.121765 Si / 1000 Ang^3
#
#
#
# Elastic Constant Matrix: (Units=GPa)
#
#
# Indices 1 2 3 4 5 6 
#
# 1 41.1856 49.1531 44.5278 0.0000 0.0000 0.0000
# 2 49.1531 141.4780 85.9875 0.0000 0.0000 0.0000
# 3 44.5278 85.9875 152.7490 0.0000 0.0000 0.0000
# 4 0.0000 0.0000 0.0000 15.9351 0.0000 0.0000
# 5 0.0000 0.0000 0.0000 0.0000 16.3189 0.0000
# 6 0.0000 0.0000 0.0000 0.0000 0.0000 48.0187
#
#
#
# Elastic Compliance Matrix: (Units=1/GPa)
#
#
# Indices 1 2 3 4 5 6 
#
# 1 0.045513 -0.011779 -0.006637 0.000000 0.000000 0.000000
# 2 -0.011779 0.013793 -0.004331 0.000000 0.000000 0.000000
# 3 -0.006637 -0.004331 0.010919 0.000000 0.000000 0.000000
# 4 0.000000 0.000000 0.000000 0.062755 0.000000 0.000000
# 5 0.000000 0.000000 0.000000 0.000000 0.061279 0.000000
# 6 0.000000 0.000000 0.000000 0.000000 0.000000 0.020825
#
#
# Mechanical properties :
#
#
# Convention : Reuss Voigt Hill
#
# Bulk Modulus (GPa) = 40.43277 77.19442 58.81359
# Shear Modulus (GPa) = 18.59981 26.43749 22.51865
#
# Velocity S-wave (km/s) = 3.12220 3.72235 3.43541
# Velocity P-wave (km/s) = 5.84708 7.67672 6.82350
#
# Compressibility (1/GPa) = 0.02473241
#
# Stress axis : x y z
#
# Youngs Moduli (GPa) = 21.97172 72.50287 91.58088
#
# Poissons Ratio (x) = 0.85398 0.60781
# Poissons Ratio (y) = 0.25880 0.39661
# Poissons Ratio (z) = 0.14582 0.31399
#
# Static dielectric constant tensor:
#      x y z
#    x 1.667450 0.000000 0.000000 
#    y 0.000000 1.634600 0.000000 
#    z 0.000000 0.000000 1.647840 
# 
# From -- ./inp_files/11778.got.cif
#   From: 2010.05.17/outbox.cif.g08.bks.cpg/sg46_6_cif.got.tgz:11778.got - 2010.06.03 19:58:25.
