data_PCOD9380467
_publ_section_title
;
Structure prediction by ZEFSAII (Michael W. Deem and Ramdas Pophale) SiO2 
 PCOD9380467
Probable space group: I M A 2
;
_chemical_formula_sum "Si O2"
_cell_formula_units_Z 64
_cell_length_a 8.529046
_cell_length_b 24.405832
_cell_length_c 15.947526
_cell_angle_alpha 90.000000
_cell_angle_beta 90.000000
_cell_angle_gamma 90.000000
_cell_volume 3319.612514
_symmetry_space_group_name_H-M "I M A 2"
_symmetry_group_IT_number 46
_symmetry_cell_setting 'orthorhombic'
loop_
_space_group_symop_operation_xyz
x,y,z
-x,-y,z
1/2-x,y,z
1/2+x,-y,z
1/2+x,1/2+y,1/2+z
1/2-x,1/2-y,1/2+z
-x,1/2+y,1/2+z
x,1/2-y,1/2+z
loop_
_atom_site_type_symbol
_atom_site_label
_atom_site_fract_x
_atom_site_fract_y
_atom_site_fract_z
Si Si1 0.059135 0.131536 0.893930
Si Si2 0.937161 0.630099 0.580809
Si Si3 0.938364 0.749589 0.827744
Si Si4 0.062574 0.561548 0.737315
Si Si5 0.060210 0.635624 0.893883
Si Si6 0.561179 0.132927 0.581371
Si Si7 0.062445 0.438599 0.234689
Si Si8 0.062565 0.754366 0.138300
O O1 0.250000 0.130534 0.894177
O O2 0.013469 0.194006 0.872821
O O3 0.005110 0.092486 0.818722
O O4 0.007515 0.115105 0.987055
O O5 0.750000 0.624089 0.584789
O O6 0.010138 0.593721 0.654210
O O7 0.980990 0.693352 0.597016
O O8 0.750000 0.749335 0.819581
O O9 0.993568 0.695895 0.876598
O O10 0.013277 0.747803 0.735499
O O11 0.250000 0.560260 0.739473
O O12 0.007973 0.595479 0.819264
O O13 0.000000 0.500000 0.737771
O O14 0.250000 0.639005 0.891396
O O15 0.014557 0.616757 0.987069
O O16 0.750000 0.129465 0.587738
O O17 0.489516 0.095681 0.653632
O O18 0.517707 0.196436 0.597137
O O19 0.250000 0.439604 0.237327
O O20 0.000000 0.500000 0.231075
O O21 0.250000 0.761069 0.132057
#
# Coordination Sequence:
#
# PCOD9380467 Si02
#       8
#     8   8   8   8   8   8   8   8
#     4   9  21  39  60  89 122 155 196 245 296 353
#     4  11  22  39  63  90 122 157 198 246 298 358
#     4  11  20  35  61  90 121 159 199 237 294 358
#     4  11  24  42  62  85 117 156 202 250 300 354
#     4  10  22  40  61  88 124 156 194 246 298 354
#     4  10  22  40  62  90 122 160 199 243 298 356
#     4  11  23  42  63  86 119 157 202 252 300 353
#     4  11  21  35  58  90 126 159 196 240 296 356
#
# _framework density 19.279358999999999
#
# number of rings (size 3 to 8) (size 9 to 14) (size 15 to 20)
#    0.000    1.500    2.500    2.625    0.000    2.500 
#    0.000    6.875    0.000    0.000    0.000    0.000 
#    0.000    0.000    0.000    0.000    0.000    0.000 
#
# Total GULP energy -178858.735669 kJ/mol
# GULP energy per Si atom -5589.335490 kJ/mol
# Density = 1.923548 g / cm^3
# Si number density = 19.279359 Si / 1000 Ang^3
#
#
#
# Elastic Constant Matrix: (Units=GPa)
#
#
# Indices 1 2 3 4 5 6 
#
# 1 26.3186 29.9756 29.0784 0.0000 0.0000 0.0000
# 2 29.9756 147.3531 79.9000 0.0001 0.0000 0.0000
# 3 29.0784 79.9000 181.4048 0.0002 0.0000 -0.0001
# 4 0.0000 0.0001 0.0002 -1.5096 0.0000 0.0000
# 5 0.0000 0.0000 0.0000 0.0000 20.4765 0.0000
# 6 0.0000 0.0000 -0.0001 0.0000 0.0000 13.3158
#
#
#
# Elastic Compliance Matrix: (Units=1/GPa)
#
#
# Indices 1 2 3 4 5 6 
#
# 1 0.052550 -0.008044 -0.004881 0.000000 0.000000 0.000000
# 2 -0.008044 0.010147 -0.003180 0.000000 0.000000 0.000000
# 3 -0.004881 -0.003180 0.007695 0.000001 0.000000 0.000000
# 4 0.000000 0.000000 0.000001 -0.662431 -0.000001 0.000000
# 5 0.000000 0.000000 0.000000 -0.000001 0.048836 0.000000
# 6 0.000000 0.000000 0.000000 0.000000 0.000000 0.075099
#
#
# Mechanical properties :
#
#
# Convention : Reuss Voigt Hill
#
# Bulk Modulus (GPa) = 26.18915 70.33162 48.26039
# Shear Modulus (GPa) = -11.81565 20.86470 4.52453
#
# Velocity S-wave (km/s) = -2.47830 3.29330 1.53360
# Velocity P-wave (km/s) = 2.32900 7.14287 5.31247
#
# Compressibility (1/GPa) = 0.03818375
#
# Stress axis : x y z
#
# Youngs Moduli (GPa) = 19.02966 98.55183 129.94654
#
# Poissons Ratio (x) = 0.79271 0.63423
# Poissons Ratio (y) = 0.15307 0.41322
# Poissons Ratio (z) = 0.09288 0.31338
#
# Static dielectric constant tensor:
#      x y z
#    x 1.662990 0.000000 0.000000 
#    y 0.000000 1.638210 0.000000 
#    z 0.000000 0.000000 1.675880 
# 
# From -- ./inp_files/14514.got.cif
#   From: 2010.05.17/outbox.cif.g08.bks.cpg/sg46_8_cif.got.tgz:14514.got - 2010.06.03 19:58:25.
