data_PCOD9380012
_publ_section_title
;
Structure prediction by ZEFSAII (Michael W. Deem and Ramdas Pophale) SiO2 
 PCOD9380012
Probable space group: I M A 2
;
_chemical_formula_sum "Si O2"
_cell_formula_units_Z 56
_cell_length_a 19.430195
_cell_length_b 5.355214
_cell_length_c 26.077153
_cell_angle_alpha 90.000000
_cell_angle_beta 90.000000
_cell_angle_gamma 90.000000
_cell_volume 2713.402149
_symmetry_space_group_name_H-M "I M A 2"
_symmetry_group_IT_number 46
_symmetry_cell_setting 'orthorhombic'
loop_
_space_group_symop_operation_xyz
x,y,z
-x,-y,z
1/2-x,y,z
1/2+x,-y,z
1/2+x,1/2+y,1/2+z
1/2-x,1/2-y,1/2+z
-x,1/2+y,1/2+z
x,1/2-y,1/2+z
loop_
_atom_site_type_symbol
_atom_site_label
_atom_site_fract_x
_atom_site_fract_y
_atom_site_fract_z
Si Si1 0.331214 0.753543 0.153570
Si Si2 0.673956 0.165025 0.346585
Si Si3 0.332449 0.234526 0.590065
Si Si4 0.929466 0.644340 0.899083
Si Si5 0.673215 0.603404 0.740867
Si Si6 0.545625 0.757832 0.009192
Si Si7 0.424278 0.436045 0.293116
O O1 0.250000 0.714926 0.161733
O O2 0.353969 0.493434 0.128308
O O3 0.339962 0.992241 0.115978
O O4 0.354867 0.871746 0.207812
O O5 0.750000 0.268686 0.357988
O O6 0.621774 0.356338 0.320739
O O7 0.636982 0.033716 0.394245
O O8 0.682034 0.970211 0.300131
O O9 0.250000 0.202939 0.577971
O O10 0.386129 0.226508 0.543457
O O11 0.936628 0.761847 0.842902
O O12 0.000000 0.500000 0.905356
O O13 0.928360 0.806510 0.950488
O O14 0.750000 0.674584 0.721391
O O15 0.618688 0.821447 0.746259
O O16 0.500000 0.500000 0.012669
O O17 0.500000 0.000000 0.024396
O O18 0.500000 0.500000 0.274469
#
# Coordination Sequence:
#
# PCOD9380012 Si02
#       7
#     8   8   8   8   8   8   8
#     4   9  19  37  63  90 121 163 207 258 319 380
#     4  10  21  36  58  89 122 160 208 263 312 368
#     4  10  21  40  66  94 123 160 212 267 318 374
#     4  10  21  38  60  84 120 166 209 250 314 393
#     4   9  20  35  56  87 121 160 208 258 314 380
#     4  11  24  41  68  93 125 169 213 258 328 390
#     4  11  20  34  59  84 123 166 214 257 313 386
#
# _framework density 20.638296
#
# number of rings (size 3 to 8) (size 9 to 14) (size 15 to 20)
#    0.000    2.000    1.429    1.714    4.000    1.143 
#    0.000    0.714    6.286    0.000    0.000    0.000 
#    0.000    0.000    0.000    0.000    0.000    0.000 
#
# Total GULP energy -155907.196797 kJ/mol
# GULP energy per Si atom -5568.114171 kJ/mol
# Density = 2.059132 g / cm^3
# Si number density = 20.638296 Si / 1000 Ang^3
#
#
#
# Elastic Constant Matrix: (Units=GPa)
#
#
# Indices 1 2 3 4 5 6 
#
# 1 124.2896 38.1368 31.1705 0.0000 0.0000 0.0000
# 2 38.1368 90.3255 15.1949 0.0000 0.0000 0.0000
# 3 31.1705 15.1949 77.9007 0.0000 0.0000 0.0000
# 4 0.0000 0.0000 0.0000 50.1131 0.0000 0.0000
# 5 0.0000 0.0000 0.0000 0.0000 30.4590 0.0000
# 6 0.0000 0.0000 0.0000 0.0000 0.0000 26.0706
#
#
#
# Elastic Compliance Matrix: (Units=1/GPa)
#
#
# Indices 1 2 3 4 5 6 
#
# 1 0.009995 -0.003667 -0.003284 0.000000 0.000000 0.000000
# 2 -0.003667 0.012792 -0.001028 0.000000 0.000000 0.000000
# 3 -0.003284 -0.001028 0.014351 0.000000 0.000000 0.000000
# 4 0.000000 0.000000 0.000000 0.019955 0.000000 0.000000
# 5 0.000000 0.000000 0.000000 0.000000 0.032831 0.000000
# 6 0.000000 0.000000 0.000000 0.000000 0.000000 0.038357
#
#
# Mechanical properties :
#
#
# Convention : Reuss Voigt Hill
#
# Bulk Modulus (GPa) = 47.21377 51.28002 49.24690
# Shear Modulus (GPa) = 33.04702 35.19613 34.12158
#
# Velocity S-wave (km/s) = 4.00590 4.13410 4.07051
# Velocity P-wave (km/s) = 6.65753 6.90570 6.78275
#
# Compressibility (1/GPa) = 0.02118026
#
# Stress axis : x y z
#
# Youngs Moduli (GPa) = 100.05423 78.17133 69.68022
#
# Poissons Ratio (x) = 0.28669 0.22881
# Poissons Ratio (y) = 0.36694 0.07162
# Poissons Ratio (z) = 0.32856 0.08034
#
# Static dielectric constant tensor:
#      x y z
#    x 1.747680 0.000000 0.000000 
#    y 0.000000 1.980950 0.000000 
#    z 0.000000 0.000000 1.795660 
# 
# From -- ./inp_files/23840.got.cif
#   From: 2010.05.17/outbox.cif.g08.bks.cpg/sg46_12_cif.got.tgz:23840.got - 2010.06.03 19:58:25.
