data_PCOD9380162
_publ_section_title
;
Structure prediction by ZEFSAII (Michael W. Deem and Ramdas Pophale) SiO2 
 PCOD9380162
Probable space group: I M A 2
;
_chemical_formula_sum "Si O2"
_cell_formula_units_Z 64
_cell_length_a 19.816652
_cell_length_b 14.736299
_cell_length_c 11.953831
_cell_angle_alpha 90.000000
_cell_angle_beta 90.000000
_cell_angle_gamma 90.000000
_cell_volume 3490.806848
_symmetry_space_group_name_H-M "I M A 2"
_symmetry_group_IT_number 46
_symmetry_cell_setting 'orthorhombic'
loop_
_space_group_symop_operation_xyz
x,y,z
-x,-y,z
1/2-x,y,z
1/2+x,-y,z
1/2+x,1/2+y,1/2+z
1/2-x,1/2-y,1/2+z
-x,1/2+y,1/2+z
x,1/2-y,1/2+z
loop_
_atom_site_type_symbol
_atom_site_label
_atom_site_fract_x
_atom_site_fract_y
_atom_site_fract_z
Si Si1 0.170771 0.330635 0.118540
Si Si2 0.943294 0.423018 0.951994
Si Si3 0.327984 0.051016 0.410435
Si Si4 0.169358 0.462815 0.328462
Si Si5 0.057645 0.577191 0.219131
Si Si6 0.001779 0.261448 0.361286
Si Si7 0.888389 0.842076 0.216136
Si Si8 0.555886 0.922046 0.007919
O O1 0.250000 0.323758 0.097834
O O2 0.161144 0.382907 0.235950
O O3 0.142861 0.230487 0.130928
O O4 0.143175 0.389550 0.015243
O O5 0.873805 0.462628 0.904810
O O6 0.960197 0.324370 0.904882
O O7 0.000000 0.500000 0.925491
O O8 0.938762 0.415741 0.086017
O O9 0.250000 0.030318 0.432160
O O10 0.336159 0.108778 0.297750
O O11 0.250000 0.475306 0.346879
O O12 0.128999 0.545283 0.270092
O O13 0.124582 0.441579 0.437984
O O14 0.035285 0.670623 0.275868
O O15 0.000000 0.500000 0.242675
O O16 0.063365 0.215720 0.295860
O O17 0.026318 0.327561 0.460432
O O18 0.927891 0.912553 0.138656
O O19 0.500000 0.000000 0.990122
#
# Coordination Sequence:
#
# PCOD9380162 Si02
#       8
#     8   8   8   8   8   8   8   8
#     4  10  21  38  63  94 124 159 205 256 316 379
#     4  11  24  39  63  94 125 167 216 261 306 366
#     4  11  24  43  64  89 129 169 207 258 316 376
#     4  11  21  39  66  93 123 162 206 256 311 371
#     4  11  20  40  67  91 126 163 213 264 308 366
#     4  12  22  40  64  95 122 165 211 264 313 363
#     4  12  24  37  62  95 129 163 204 257 318 385
#     4  12  25  42  64  93 128 164 205 261 316 373
#
# _framework density 18.333870000000001
#
# number of rings (size 3 to 8) (size 9 to 14) (size 15 to 20)
#    0.000    0.750    6.250    1.875    3.500    1.000 
#    0.000    0.625    0.000    0.000    0.000    0.000 
#    0.000    0.000    0.000    0.000    0.000    0.000 
#
# Total GULP energy -178729.419101 kJ/mol
# GULP energy per Si atom -5585.294347 kJ/mol
# Density = 1.829214 g / cm^3
# Si number density = 18.333870 Si / 1000 Ang^3
#
#
#
# Elastic Constant Matrix: (Units=GPa)
#
#
# Indices 1 2 3 4 5 6 
#
# 1 105.5046 56.4894 22.9024 0.0000 0.0000 0.0000
# 2 56.4894 111.0802 33.1990 0.0000 0.0000 0.0000
# 3 22.9024 33.1990 45.9198 0.0000 0.0000 0.0000
# 4 0.0000 0.0000 0.0000 29.8262 0.0000 0.0000
# 5 0.0000 0.0000 0.0000 0.0000 26.9286 0.0000
# 6 0.0000 0.0000 0.0000 0.0000 0.0000 31.4138
#
#
#
# Elastic Compliance Matrix: (Units=1/GPa)
#
#
# Indices 1 2 3 4 5 6 
#
# 1 0.013198 -0.006052 -0.002207 0.000000 0.000000 0.000000
# 2 -0.006052 0.014259 -0.007291 0.000000 0.000000 0.000000
# 3 -0.002207 -0.007291 0.028149 0.000000 0.000000 0.000000
# 4 0.000000 0.000000 0.000000 0.033528 0.000000 0.000000
# 5 0.000000 0.000000 0.000000 0.000000 0.037135 0.000000
# 6 0.000000 0.000000 0.000000 0.000000 0.000000 0.031833
#
#
# Mechanical properties :
#
#
# Convention : Reuss Voigt Hill
#
# Bulk Modulus (GPa) = 40.80535 54.18736 47.49636
# Shear Modulus (GPa) = 25.33317 27.62797 26.48057
#
# Velocity S-wave (km/s) = 3.72125 3.88614 3.80459
# Velocity P-wave (km/s) = 6.38504 7.05380 6.72774
#
# Compressibility (1/GPa) = 0.02450659
#
# Stress axis : x y z
#
# Youngs Moduli (GPa) = 75.77068 70.12986 35.52560
#
# Poissons Ratio (x) = 0.42443 0.07840
# Poissons Ratio (y) = 0.45857 0.25901
# Poissons Ratio (z) = 0.16721 0.51129
#
# Static dielectric constant tensor:
#      x y z
#    x 1.635260 0.000000 0.000000 
#    y 0.000000 1.632850 0.000000 
#    z 0.000000 0.000000 1.664690 
# 
# From -- ./inp_files/11945.got.cif
#   From: 2010.05.17/outbox.cif.g08.bks.cpg/sg46_6_cif.got.tgz:11945.got - 2010.06.03 19:58:25.
