data_PCOD9380058
_publ_section_title
;
Structure prediction by ZEFSAII (Michael W. Deem and Ramdas Pophale) SiO2 
 PCOD9380058
Probable space group: I M A 2
;
_chemical_formula_sum "Si O2"
_cell_formula_units_Z 40
_cell_length_a 10.306508
_cell_length_b 7.288025
_cell_length_c 26.752049
_cell_angle_alpha 90.000000
_cell_angle_beta 90.000000
_cell_angle_gamma 90.000000
_cell_volume 2009.455762
_symmetry_space_group_name_H-M "I M A 2"
_symmetry_group_IT_number 46
_symmetry_cell_setting 'orthorhombic'
loop_
_space_group_symop_operation_xyz
x,y,z
-x,-y,z
1/2-x,y,z
1/2+x,-y,z
1/2+x,1/2+y,1/2+z
1/2-x,1/2-y,1/2+z
-x,1/2+y,1/2+z
x,1/2-y,1/2+z
loop_
_atom_site_type_symbol
_atom_site_label
_atom_site_fract_x
_atom_site_fract_y
_atom_site_fract_z
Si Si1 0.250000 0.495715 0.647090
Si Si2 0.750000 0.196760 0.573444
Si Si3 0.482318 0.787571 0.504618
Si Si4 0.500000 0.000000 0.214253
Si Si5 0.250000 0.254251 0.049235
Si Si6 0.904213 0.323282 0.286185
Si Si7 0.898132 0.162861 0.898407
O O1 0.250000 0.708337 0.627654
O O2 0.122744 0.456200 0.679497
O O3 0.250000 0.366335 0.598781
O O4 0.625029 0.273578 0.544101
O O5 0.750000 0.972842 0.566675
O O6 0.623398 0.708109 0.516118
O O7 0.430708 0.772663 0.448384
O O8 0.500000 0.000000 0.514971
O O9 0.544283 0.169911 0.248585
O O10 0.750000 0.365893 0.277155
O O11 0.911376 0.248849 0.343536
O O12 0.000000 0.500000 0.282940
O O13 0.750000 0.096904 0.901936
O O14 0.000000 0.000000 0.899004
#
# Coordination Sequence:
#
# PCOD9380058 Si02
#       7
#     4   4   8   4   4   8   8
#     4  12  26  42  68  94 126 178 226 278 340 384
#     4  10  22  42  59  87 133 169 220 276 318 393
#     4  10  21  37  59  92 129 175 212 259 327 390
#     4  12  26  46  68 104 128 174 236 280 342 396
#     4  10  24  40  61  93 131 171 220 272 328 391
#     4  10  24  46  70  98 138 177 222 282 337 402
#     4  10  22  39  62  96 130 171 216 261 327 395
#
# _framework density 19.905888000000001
#
# number of rings (size 3 to 8) (size 9 to 14) (size 15 to 20)
#    0.000    1.600    2.000    1.200    7.000    1.600 
#    0.000    0.000    0.000    0.000    0.000    0.000 
#    0.000    0.000    0.000    0.000    0.000    0.000 
#
# Total GULP energy -111554.177998 kJ/mol
# GULP energy per Si atom -5577.708900 kJ/mol
# Density = 1.986058 g / cm^3
# Si number density = 19.905888 Si / 1000 Ang^3
#
#
#
# Elastic Constant Matrix: (Units=GPa)
#
#
# Indices 1 2 3 4 5 6 
#
# 1 192.4020 30.5060 74.5217 0.0000 0.0000 0.0000
# 2 30.5060 52.0783 21.1072 0.0000 0.0000 0.0000
# 3 74.5217 21.1072 103.8870 0.0000 0.0000 0.0000
# 4 0.0000 0.0000 0.0000 171.4938 0.0000 0.0000
# 5 0.0000 0.0000 0.0000 0.0000 79.1608 0.0000
# 6 0.0000 0.0000 0.0000 0.0000 0.0000 8.9488
#
#
#
# Elastic Compliance Matrix: (Units=1/GPa)
#
#
# Indices 1 2 3 4 5 6 
#
# 1 0.007462 -0.002399 -0.004866 0.000000 0.000000 0.000000
# 2 -0.002399 0.021696 -0.002687 0.000000 0.000000 0.000000
# 3 -0.004866 -0.002687 0.013662 0.000000 0.000000 0.000000
# 4 0.000000 0.000000 0.000000 0.005831 0.000000 0.000000
# 5 0.000000 0.000000 0.000000 0.000000 0.012633 0.000000
# 6 0.000000 0.000000 0.000000 0.000000 0.000000 0.111747
#
#
# Mechanical properties :
#
#
# Convention : Reuss Voigt Hill
#
# Bulk Modulus (GPa) = 43.63579 66.73745 55.18662
# Shear Modulus (GPa) = 24.92839 66.73615 45.83227
#
# Velocity S-wave (km/s) = 3.54264 5.79643 4.80359
# Velocity P-wave (km/s) = 6.22112 8.85423 7.65179
#
# Compressibility (1/GPa) = 0.02291697
#
# Stress axis : x y z
#
# Youngs Moduli (GPa) = 134.00496 46.09075 73.19560
#
# Poissons Ratio (x) = 0.11058 0.35614
# Poissons Ratio (y) = 0.32151 0.19668
# Poissons Ratio (z) = 0.65201 0.12385
#
# Static dielectric constant tensor:
#      x y z
#    x 1.709950 0.000000 0.000000 
#    y 0.000000 1.687850 0.000000 
#    z 0.000000 0.000000 1.717300 
# 
# From -- ./inp_files/22793.got.cif
#   From: 2010.05.17/outbox.cif.g08.bks.cpg/sg46_12_cif.got.tgz:22793.got - 2010.06.03 19:58:25.
