data_PCOD9380546
_publ_section_title
;
Structure prediction by ZEFSAII (Michael W. Deem and Ramdas Pophale) SiO2 
 PCOD9380546
Probable space group: I M A 2
;
_chemical_formula_sum "Si O2"
_cell_formula_units_Z 48
_cell_length_a 10.516230
_cell_length_b 17.860421
_cell_length_c 14.014615
_cell_angle_alpha 90.000000
_cell_angle_beta 90.000000
_cell_angle_gamma 90.000000
_cell_volume 2632.285184
_symmetry_space_group_name_H-M "I M A 2"
_symmetry_group_IT_number 46
_symmetry_cell_setting 'orthorhombic'
loop_
_space_group_symop_operation_xyz
x,y,z
-x,-y,z
1/2-x,y,z
1/2+x,-y,z
1/2+x,1/2+y,1/2+z
1/2-x,1/2-y,1/2+z
-x,1/2+y,1/2+z
x,1/2-y,1/2+z
loop_
_atom_site_type_symbol
_atom_site_label
_atom_site_fract_x
_atom_site_fract_y
_atom_site_fract_z
Si Si1 0.750000 0.078603 0.796330
Si Si2 0.250000 0.813719 0.627804
Si Si3 0.398283 0.359615 0.500593
Si Si4 0.250000 0.750497 0.327046
Si Si5 0.894976 0.936586 0.413558
Si Si6 0.538795 0.206130 0.468283
Si Si7 0.000000 0.500000 0.380025
Si Si8 0.392316 0.060068 0.188167
O O1 0.750000 0.108427 0.687112
O O2 0.750000 0.160246 0.851431
O O3 0.622274 0.032302 0.821836
O O4 0.250000 0.751890 0.712550
O O5 0.370720 0.805235 0.559510
O O6 0.250000 0.352961 0.477134
O O7 0.470768 0.285392 0.472621
O O8 0.452418 0.431745 0.445873
O O9 0.410076 0.373008 0.614158
O O10 0.370658 0.790329 0.374963
O O11 0.750000 0.959031 0.437381
O O12 0.898985 0.921271 0.299603
O O13 0.938627 0.860693 0.463272
O O14 0.000000 0.000000 0.434040
O O15 0.250000 0.029210 0.169527
O O16 0.500000 0.000000 0.167919
#
# Coordination Sequence:
#
# PCOD9380546 Si02
#       8
#     4   4   8   4   8   8   4   8
#     4  10  22  42  62  94 128 174 217 258 327 382
#     4   9  23  44  61  93 125 167 220 263 316 394
#     4  11  21  34  60  94 128 162 209 261 321 383
#     4   9  21  40  61  91 123 159 215 257 317 384
#     4  10  23  42  63  87 121 164 211 264 320 377
#     4  11  22  40  66  90 122 171 212 269 321 381
#     4  12  20  38  66  94 136 172 210 266 318 396
#     4   9  19  35  54  86 121 155 194 248 306 369
#
# _framework density 18.235106999999999
#
# number of rings (size 3 to 8) (size 9 to 14) (size 15 to 20)
#    0.500    1.333    3.333    0.500    4.667    0.000 
#    4.500    0.000    1.833    0.000    0.000    0.000 
#    0.000    0.000    0.000    0.000    0.000    0.000 
#
# Total GULP energy -133796.409607 kJ/mol
# GULP energy per Si atom -5574.850400 kJ/mol
# Density = 1.819360 g / cm^3
# Si number density = 18.235107 Si / 1000 Ang^3
#
#
#
# Elastic Constant Matrix: (Units=GPa)
#
#
# Indices 1 2 3 4 5 6 
#
# 1 127.9379 45.0150 35.5767 0.0000 0.0000 0.0000
# 2 45.0150 82.5675 18.5796 0.0000 0.0000 0.0000
# 3 35.5767 18.5796 61.8160 0.0000 0.0000 0.0000
# 4 0.0000 0.0000 0.0000 14.0000 0.0000 0.0000
# 5 0.0000 0.0000 0.0000 0.0000 15.7499 0.0000
# 6 0.0000 0.0000 0.0000 0.0000 0.0000 29.5608
#
#
#
# Elastic Compliance Matrix: (Units=1/GPa)
#
#
# Indices 1 2 3 4 5 6 
#
# 1 0.010851 -0.004838 -0.004791 0.000000 0.000000 0.000000
# 2 -0.004838 0.015147 -0.001768 0.000000 0.000000 0.000000
# 3 -0.004791 -0.001768 0.019466 0.000000 0.000000 0.000000
# 4 0.000000 0.000000 0.000000 0.071428 0.000000 0.000000
# 5 0.000000 0.000000 0.000000 0.000000 0.063493 0.000000
# 6 0.000000 0.000000 0.000000 0.000000 0.000000 0.033829
#
#
# Mechanical properties :
#
#
# Convention : Reuss Voigt Hill
#
# Bulk Modulus (GPa) = 44.11211 52.29600 48.20405
# Shear Modulus (GPa) = 20.44467 23.40549 21.92508
#
# Velocity S-wave (km/s) = 3.35202 3.58654 3.47126
# Velocity P-wave (km/s) = 6.26296 6.77437 6.52368
#
# Compressibility (1/GPa) = 0.02266951
#
# Stress axis : x y z
#
# Youngs Moduli (GPa) = 92.16050 66.02123 51.37222
#
# Poissons Ratio (x) = 0.31939 0.24611
# Poissons Ratio (y) = 0.44584 0.09084
# Poissons Ratio (z) = 0.44152 0.11675
#
# Static dielectric constant tensor:
#      x y z
#    x 1.621160 0.000000 0.000000 
#    y 0.000000 1.600040 0.000000 
#    z 0.000000 0.000000 1.627360 
# 
# From -- ./inp_files/13986.got.cif
#   From: 2010.05.17/outbox.cif.g08.bks.cpg/sg46_7_cif.got.tgz:13986.got - 2010.06.03 19:58:25.
