data_PCOD9380486
_publ_section_title
;
Structure prediction by ZEFSAII (Michael W. Deem and Ramdas Pophale) SiO2 
 PCOD9380486
Probable space group: I M A 2
;
_chemical_formula_sum "Si O2"
_cell_formula_units_Z 48
_cell_length_a 29.510595
_cell_length_b 8.957917
_cell_length_c 8.438984
_cell_angle_alpha 90.000000
_cell_angle_beta 90.000000
_cell_angle_gamma 90.000000
_cell_volume 2230.874625
_symmetry_space_group_name_H-M "I M A 2"
_symmetry_group_IT_number 46
_symmetry_cell_setting 'orthorhombic'
loop_
_space_group_symop_operation_xyz
x,y,z
-x,-y,z
1/2-x,y,z
1/2+x,-y,z
1/2+x,1/2+y,1/2+z
1/2-x,1/2-y,1/2+z
-x,1/2+y,1/2+z
x,1/2-y,1/2+z
loop_
_atom_site_type_symbol
_atom_site_label
_atom_site_fract_x
_atom_site_fract_y
_atom_site_fract_z
Si Si1 0.750000 0.080828 0.855921
Si Si2 0.501206 0.750000 0.296957
Si Si3 0.342701 0.079644 0.237544
Si Si4 0.750000 0.419172 0.737993
Si Si5 0.563708 0.990867 0.369419
Si Si6 0.436292 0.009133 0.724495
Si Si7 0.842701 0.579644 0.356371
O O1 0.750000 0.250000 0.796956
O O2 0.704629 0.994293 0.804833
O O3 0.750000 0.082001 0.046957
O O4 0.537436 0.878745 0.250389
O O5 0.537436 0.621255 0.343526
O O6 0.465237 0.641563 0.212188
O O7 0.465237 0.858437 0.381727
O O8 0.385429 0.992390 0.310567
O O9 0.345346 0.250000 0.296957
O O10 0.295371 0.005706 0.289081
O O11 0.345277 0.076959 0.046957
O O12 0.563348 0.922469 0.546957
O O13 0.385429 0.992390 0.783348
#
# Coordination Sequence:
#
# PCOD9380486 Si02
#       7
#     4   8   8   4   8   8   8
#     4  10  25  46  68 100 130 166 211 262 322 385
#     4  10  22  40  64  92 132 170 220 262 320 372
#     4  11  24  43  68  97 131 169 216 263 320 386
#     4  10  25  46  68 100 130 166 211 262 322 385
#     4  11  24  42  65  97 132 171 220 267 320 380
#     4  11  24  42  65  97 132 171 220 267 320 380
#     4  11  24  43  68  97 131 169 216 263 320 386
#
# _framework density 21.516226
#
# number of rings (size 3 to 8) (size 9 to 14) (size 15 to 20)
#    0.000    1.333    1.667    3.500    2.333    6.667 
#    0.000    8.333    0.000    0.000    0.000    0.000 
#    0.000    0.000    0.000    0.000    0.000    0.000 
#
# Total GULP energy -133651.456771 kJ/mol
# GULP energy per Si atom -5568.810699 kJ/mol
# Density = 2.146725 g / cm^3
# Si number density = 21.516226 Si / 1000 Ang^3
#
#
#
# Elastic Constant Matrix: (Units=GPa)
#
#
# Indices 1 2 3 4 5 6 
#
# 1 217.9774 36.5925 44.6586 0.0000 0.0000 0.0000
# 2 36.5925 60.9092 33.4555 0.0000 0.0000 0.0000
# 3 44.6586 33.4555 58.5617 0.0000 0.0000 0.0000
# 4 0.0000 0.0000 0.0000 26.2662 0.0000 0.0000
# 5 0.0000 0.0000 0.0000 0.0000 220.3249 0.0000
# 6 0.0000 0.0000 0.0000 0.0000 0.0000 36.2494
#
#
#
# Elastic Compliance Matrix: (Units=1/GPa)
#
#
# Indices 1 2 3 4 5 6 
#
# 1 0.005525 -0.001465 -0.003377 0.000000 0.000000 0.000000
# 2 -0.001465 0.024314 -0.012773 0.000000 0.000000 0.000000
# 3 -0.003377 -0.012773 0.026948 0.000000 0.000000 0.000000
# 4 0.000000 0.000000 0.000000 0.038072 0.000000 0.000000
# 5 0.000000 0.000000 0.000000 0.000000 0.004539 0.000000
# 6 0.000000 0.000000 0.000000 0.000000 0.000000 0.027587
#
#
# Mechanical properties :
#
#
# Convention : Reuss Voigt Hill
#
# Bulk Modulus (GPa) = 46.38641 62.98460 54.68551
# Shear Modulus (GPa) = 29.51600 71.41755 50.46678
#
# Velocity S-wave (km/s) = 3.70780 5.76754 4.84831
# Velocity P-wave (km/s) = 6.31949 8.58424 7.53742
#
# Compressibility (1/GPa) = 0.02155804
#
# Stress axis : x y z
#
# Youngs Moduli (GPa) = 180.98403 41.12910 37.10818
#
# Poissons Ratio (x) = 0.06024 0.12531
# Poissons Ratio (y) = 0.26509 0.47399
# Poissons Ratio (z) = 0.61115 0.52535
#
# Static dielectric constant tensor:
#      x y z
#    x 1.765730 0.000000 0.000000 
#    y 0.000000 1.750330 0.000000 
#    z 0.000000 0.000000 1.829880 
# 
# From -- ./inp_files/8413.got.cif
#   From: 2010.05.17/outbox.cif.g08.bks.cpg/sg46_5_cif.got.tgz:8413.got - 2010.06.03 19:58:25.
