data_PCOD9380025
_publ_section_title
;
Structure prediction by ZEFSAII (Michael W. Deem and Ramdas Pophale) SiO2 
 PCOD9380025
Probable space group: I M A 2
;
_chemical_formula_sum "Si O2"
_cell_formula_units_Z 44
_cell_length_a 7.814043
_cell_length_b 17.745581
_cell_length_c 14.099604
_cell_angle_alpha 90.000000
_cell_angle_beta 90.000000
_cell_angle_gamma 90.000000
_cell_volume 1955.117824
_symmetry_space_group_name_H-M "I M A 2"
_symmetry_group_IT_number 46
_symmetry_cell_setting 'orthorhombic'
loop_
_space_group_symop_operation_xyz
x,y,z
-x,-y,z
1/2-x,y,z
1/2+x,-y,z
1/2+x,1/2+y,1/2+z
1/2-x,1/2-y,1/2+z
-x,1/2+y,1/2+z
x,1/2-y,1/2+z
loop_
_atom_site_type_symbol
_atom_site_label
_atom_site_fract_x
_atom_site_fract_y
_atom_site_fract_z
Si Si1 0.947203 0.288609 0.959660
Si Si2 0.054531 0.218025 0.263723
Si Si3 0.048034 0.080232 0.591212
Si Si4 0.500000 0.500000 0.467721
Si Si5 0.047054 0.640932 0.571684
Si Si6 0.541276 0.610968 0.305221
O O1 0.750000 0.277942 0.933598
O O2 0.043200 0.319189 0.867128
O O3 0.011604 0.209783 0.003760
O O4 0.958734 0.350182 0.041526
O O5 0.250000 0.228683 0.233172
O O6 0.989705 0.301843 0.290856
O O7 0.969733 0.172413 0.178649
O O8 0.250000 0.092865 0.584432
O O9 0.003143 0.078610 0.701913
O O10 0.000000 0.000000 0.547853
O O11 0.553538 0.565006 0.543806
O O12 0.448412 0.562923 0.386843
O O13 0.250000 0.625088 0.556515
O O14 0.750000 0.606640 0.323708
#
# Coordination Sequence:
#
# PCOD9380025 Si02
#       6
#     8   8   8   4   8   8
#     4  11  23  42  66  96 131 174 224 279 341 412
#     4  11  23  43  68  93 127 176 225 276 332 408
#     4  11  22  40  64  97 131 169 217 275 336 398
#     4  12  22  44  66 100 140 178 224 286 346 412
#     4  11  25  42  66 100 137 178 223 281 347 412
#     4  10  21  36  62  97 130 167 213 267 332 396
#
# _framework density 22.505037000000002
#
# number of rings (size 3 to 8) (size 9 to 14) (size 15 to 20)
#    0.000    1.091    4.545    2.182    0.000    2.182 
#    1.636    0.000    0.000    0.000    0.000    0.000 
#    0.000    0.000    0.000    0.000    0.000    0.000 
#
# Total GULP energy -122568.725308 kJ/mol
# GULP energy per Si atom -5571.305696 kJ/mol
# Density = 2.245381 g / cm^3
# Si number density = 22.505037 Si / 1000 Ang^3
#
#
#
# Elastic Constant Matrix: (Units=GPa)
#
#
# Indices 1 2 3 4 5 6 
#
# 1 48.7608 27.3251 29.8655 0.0000 0.0000 0.0000
# 2 27.3251 152.9946 59.4936 0.0000 0.0000 0.0000
# 3 29.8655 59.4936 146.0200 0.0000 0.0000 0.0000
# 4 0.0000 0.0000 0.0000 51.1374 0.0000 0.0000
# 5 0.0000 0.0000 0.0000 0.0000 10.6321 0.0000
# 6 0.0000 0.0000 0.0000 0.0000 0.0000 -0.5395
#
#
#
# Elastic Compliance Matrix: (Units=1/GPa)
#
#
# Indices 1 2 3 4 5 6 
#
# 1 0.024469 -0.002880 -0.003831 0.000000 0.000000 0.000000
# 2 -0.002880 0.008106 -0.002713 0.000000 0.000000 0.000000
# 3 -0.003831 -0.002713 0.008737 0.000000 0.000000 0.000000
# 4 0.000000 0.000000 0.000000 0.019555 0.000000 0.000000
# 5 0.000000 0.000000 0.000000 0.000000 0.094055 0.000000
# 6 0.000000 0.000000 0.000000 0.000000 0.000000 -1.853525
#
#
# Mechanical properties :
#
#
# Convention : Reuss Voigt Hill
#
# Bulk Modulus (GPa) = 44.51897 64.57153 54.54525
# Shear Modulus (GPa) = -2.98996 27.65209 12.33107
#
# Velocity S-wave (km/s) = -1.15389 3.50909 2.34332
# Velocity P-wave (km/s) = 4.24846 6.72106 5.62237
#
# Compressibility (1/GPa) = 0.02246234
#
# Stress axis : x y z
#
# Youngs Moduli (GPa) = 40.86819 123.36877 114.44946
#
# Poissons Ratio (x) = 0.35536 0.43846
# Poissons Ratio (y) = 0.11772 0.31055
# Poissons Ratio (z) = 0.15657 0.33475
#
# Static dielectric constant tensor:
#      x y z
#    x 1.909160 0.000000 0.000000 
#    y 0.000000 1.858510 0.000000 
#    z 0.000000 0.000000 1.847290 
# 
# From -- ./inp_files/13823.got.cif
#   From: 2010.05.17/outbox.cif.g08.bks.cpg/sg46_7_cif.got.tgz:13823.got - 2010.06.03 19:58:25.
