data_PCOD9380751
_publ_section_title
;
Structure prediction by ZEFSAII (Michael W. Deem and Ramdas Pophale) SiO2 
 PCOD9380751
Probable space group: I M A 2
;
_chemical_formula_sum "Si O2"
_cell_formula_units_Z 56
_cell_length_a 14.861015
_cell_length_b 21.250758
_cell_length_c 8.574618
_cell_angle_alpha 90.000000
_cell_angle_beta 90.000000
_cell_angle_gamma 90.000000
_cell_volume 2707.931533
_symmetry_space_group_name_H-M "I M A 2"
_symmetry_group_IT_number 46
_symmetry_cell_setting 'orthorhombic'
loop_
_space_group_symop_operation_xyz
x,y,z
-x,-y,z
1/2-x,y,z
1/2+x,-y,z
1/2+x,1/2+y,1/2+z
1/2-x,1/2-y,1/2+z
-x,1/2+y,1/2+z
x,1/2-y,1/2+z
loop_
_atom_site_type_symbol
_atom_site_label
_atom_site_fract_x
_atom_site_fract_y
_atom_site_fract_z
Si Si1 0.143613 0.498957 0.395300
Si Si2 0.411092 0.427677 0.947739
Si Si3 0.750000 0.856039 0.606305
Si Si4 0.354718 0.954968 0.249393
Si Si5 0.988002 0.160621 0.248077
Si Si6 0.530632 0.716267 0.410842
Si Si7 0.492299 0.909654 0.749789
Si Si8 0.750000 0.725924 0.404656
O O1 0.250000 0.488889 0.360525
O O2 0.134790 0.512635 0.579396
O O3 0.074239 0.444124 0.344219
O O4 0.100472 0.559511 0.308605
O O5 0.389270 0.494806 0.875463
O O6 0.427104 0.381095 0.802868
O O7 0.333154 0.397842 0.051813
O O8 0.493340 0.424624 0.068525
O O9 0.750000 0.790153 0.512405
O O10 0.750000 0.834664 0.784288
O O11 0.250000 0.943762 0.276185
O O12 0.408120 0.889698 0.248861
O O13 0.983515 0.218123 0.368431
O O14 0.003669 0.189873 0.079143
O O15 0.501048 0.663540 0.286471
O O16 0.638217 0.725042 0.406900
#
# Coordination Sequence:
#
# PCOD9380751 Si02
#       8
#     8   8   4   8   8   8   8   4
#     4  10  24  45  70 101 138 183 228 285 351 412
#     4  12  25  43  68 100 144 182 228 288 348 419
#     4  12  24  42  62 106 142 186 232 273 355 410
#     4  11  25  47  71 100 138 182 237 288 345 412
#     4  12  26  45  68 101 133 185 229 288 352 413
#     4  12  24  43  70  96 143 177 231 277 348 415
#     4  11  24  44  67 104 140 180 226 285 346 412
#     4  12  24  42  66 104 146 184 222 281 339 436
#
# _framework density 20.679991000000001
#
# number of rings (size 3 to 8) (size 9 to 14) (size 15 to 20)
#    0.000    0.571    5.000    3.000    8.000    0.000 
#    0.000    1.429    0.000    0.000    0.000    0.000 
#    0.000    0.000    0.000    0.000    0.000    0.000 
#
# Total GULP energy -156075.179119 kJ/mol
# GULP energy per Si atom -5574.113540 kJ/mol
# Density = 2.063292 g / cm^3
# Si number density = 20.679991 Si / 1000 Ang^3
#
#
#
# Elastic Constant Matrix: (Units=GPa)
#
#
# Indices 1 2 3 4 5 6 
#
# 1 79.7870 58.6647 54.7607 0.0000 0.0000 0.0000
# 2 58.6647 165.7920 73.6123 0.0000 0.0000 0.0000
# 3 54.7607 73.6123 131.8479 0.0000 0.0000 0.0000
# 4 0.0000 0.0000 0.0000 47.0069 0.0000 0.0000
# 5 0.0000 0.0000 0.0000 0.0000 65.6149 0.0000
# 6 0.0000 0.0000 0.0000 0.0000 0.0000 9.9118
#
#
#
# Elastic Compliance Matrix: (Units=1/GPa)
#
#
# Indices 1 2 3 4 5 6 
#
# 1 0.019718 -0.004442 -0.005709 0.000000 0.000000 0.000000
# 2 -0.004442 0.009020 -0.003191 0.000000 0.000000 0.000000
# 3 -0.005709 -0.003191 0.011738 0.000000 0.000000 0.000000
# 4 0.000000 0.000000 0.000000 0.021273 0.000000 0.000000
# 5 0.000000 0.000000 0.000000 0.000000 0.015240 0.000000
# 6 0.000000 0.000000 0.000000 0.000000 0.000000 0.100890
#
#
# Mechanical properties :
#
#
# Convention : Reuss Voigt Hill
#
# Bulk Modulus (GPa) = 72.51437 83.50026 78.00732
# Shear Modulus (GPa) = 23.90482 37.19932 30.55207
#
# Velocity S-wave (km/s) = 3.40360 4.24584 3.84783
# Velocity P-wave (km/s) = 7.11246 8.03126 7.58578
#
# Compressibility (1/GPa) = 0.01379037
#
# Stress axis : x y z
#
# Youngs Moduli (GPa) = 50.71466 110.85962 85.19669
#
# Poissons Ratio (x) = 0.49245 0.48643
# Poissons Ratio (y) = 0.22528 0.27188
# Poissons Ratio (z) = 0.28955 0.35378
#
# Static dielectric constant tensor:
#      x y z
#    x 1.729010 0.000000 0.000000 
#    y 0.000000 1.744620 0.000000 
#    z 0.000000 0.000000 1.780190 
# 
# From -- ./inp_files/5972.got.cif
#   From: 2010.05.17/outbox.cif.g08.bks.cpg/sg46_3_cif.got.tgz:5972.got - 2010.06.03 19:58:25.
