data_PCOD9380029
_publ_section_title
;
Structure prediction by ZEFSAII (Michael W. Deem and Ramdas Pophale) SiO2 
 PCOD9380029
Probable space group: I M A 2
;
_chemical_formula_sum "Si O2"
_cell_formula_units_Z 64
_cell_length_a 9.076514
_cell_length_b 11.481119
_cell_length_c 28.737873
_cell_angle_alpha 90.000000
_cell_angle_beta 90.000000
_cell_angle_gamma 90.000000
_cell_volume 2994.731712
_symmetry_space_group_name_H-M "I M A 2"
_symmetry_group_IT_number 46
_symmetry_cell_setting 'orthorhombic'
loop_
_space_group_symop_operation_xyz
x,y,z
-x,-y,z
1/2-x,y,z
1/2+x,-y,z
1/2+x,1/2+y,1/2+z
1/2-x,1/2-y,1/2+z
-x,1/2+y,1/2+z
x,1/2-y,1/2+z
loop_
_atom_site_type_symbol
_atom_site_label
_atom_site_fract_x
_atom_site_fract_y
_atom_site_fract_z
Si Si1 0.922359 0.108547 0.040970
Si Si2 0.918094 0.616188 0.171431
Si Si3 0.574442 0.382393 0.344855
Si Si4 0.920178 0.676556 0.067331
Si Si5 0.417972 0.145716 0.941724
Si Si6 0.570788 0.379170 0.805378
Si Si7 0.570525 0.620963 0.702491
Si Si8 0.409727 0.094024 0.466692
O O1 0.750000 0.094269 0.034937
O O2 0.965665 0.219311 0.070898
O O3 0.000000 0.000000 0.064428
O O4 0.002658 0.120650 0.990707
O O5 0.750000 0.609932 0.188238
O O6 0.917689 0.608302 0.115096
O O7 0.967573 0.749895 0.181885
O O8 0.000000 0.500000 0.189183
O O9 0.500000 0.500000 0.323017
O O10 0.750000 0.396238 0.342117
O O11 0.517137 0.383781 0.397968
O O12 0.539385 0.250525 0.326757
O O13 0.750000 0.718975 0.059134
O O14 0.965576 0.616768 0.019049
O O15 0.250000 0.098092 0.940322
O O16 0.404809 0.284664 0.941591
O O17 0.500000 0.500000 0.825965
O O18 0.750000 0.391744 0.803728
O O19 0.496801 0.373606 0.754367
O O20 0.500000 0.500000 0.682326
O O21 0.750000 0.610485 0.701799
O O22 0.250000 0.042472 0.473153
O O23 0.500000 0.000000 0.439658
#
# Coordination Sequence:
#
# PCOD9380029 Si02
#       8
#     8   8   8   8   8   8   8   8
#     4  11  21  34  53  76 104 143 190 239 289 341
#     4  10  22  38  59  88 122 157 195 241 292 348
#     4  11  24  40  60  88 119 153 193 237 288 346
#     4   9  19  36  52  74 109 146 188 236 286 339
#     4  10  21  37  54  76 109 148 188 234 287 339
#     4  10  22  41  65  91 119 153 192 235 287 347
#     4  10  21  39  63  90 119 154 194 238 289 345
#     4   9  18  31  50  73 101 140 184 232 281 331
#
# _framework density 21.370861999999999
#
# number of rings (size 3 to 8) (size 9 to 14) (size 15 to 20)
#    0.000    2.000    0.000    4.875    0.000    7.500 
#    0.000    6.250    0.000    0.000    0.000    0.000 
#    0.000    0.000    0.000    0.000    0.000    0.000 
#
# Total GULP energy -178192.070299 kJ/mol
# GULP energy per Si atom -5568.502197 kJ/mol
# Density = 2.132222 g / cm^3
# Si number density = 21.370862 Si / 1000 Ang^3
#
#
#
# Elastic Constant Matrix: (Units=GPa)
#
#
# Indices 1 2 3 4 5 6 
#
# 1 93.2077 80.5780 11.0132 0.0000 0.0000 0.0000
# 2 80.5780 178.1458 25.6958 0.0000 0.0000 0.0000
# 3 11.0132 25.6958 50.3420 0.0000 0.0000 0.0000
# 4 0.0000 0.0000 0.0000 -18.2717 0.0000 0.0000
# 5 0.0000 0.0000 0.0000 0.0000 11.0963 0.0000
# 6 0.0000 0.0000 0.0000 0.0000 0.0000 43.1796
#
#
#
# Elastic Compliance Matrix: (Units=1/GPa)
#
#
# Indices 1 2 3 4 5 6 
#
# 1 0.017620 -0.008003 0.000230 0.000000 0.000000 0.000000
# 2 -0.008003 0.009695 -0.003198 0.000000 0.000000 0.000000
# 3 0.000230 -0.003198 0.021446 0.000000 0.000000 0.000000
# 4 0.000000 0.000000 0.000000 -0.054729 0.000000 0.000000
# 5 0.000000 0.000000 0.000000 0.000000 0.090120 0.000000
# 6 0.000000 0.000000 0.000000 0.000000 0.000000 0.023159
#
#
# Mechanical properties :
#
#
# Convention : Reuss Voigt Hill
#
# Bulk Modulus (GPa) = 37.28579 61.80773 49.54676
# Shear Modulus (GPa) = 36.18180 20.82806 28.50493
#
# Velocity S-wave (km/s) = 4.11913 3.12525 3.65612
# Velocity P-wave (km/s) = 6.33307 6.48129 6.40761
#
# Compressibility (1/GPa) = 0.02681987
#
# Stress axis : x y z
#
# Youngs Moduli (GPa) = 56.75315 103.15126 46.62907
#
# Poissons Ratio (x) = 0.82553 -0.01074
# Poissons Ratio (y) = 0.45420 0.14910
# Poissons Ratio (z) = -0.01307 0.32983
#
# Static dielectric constant tensor:
#      x y z
#    x 1.771320 0.000000 0.000000 
#    y 0.000000 1.868690 0.000000 
#    z 0.000000 0.000000 1.772070 
# 
# From -- ./inp_files/25202.got.cif
#   From: 2010.05.17/outbox.cif.g08.bks.cpg/sg46_13_cif.got.tgz:25202.got - 2010.06.03 19:58:25.
