data_PCOD9380003
_publ_section_title
;
Structure prediction by ZEFSAII (Michael W. Deem and Ramdas Pophale) SiO2 
 PCOD9380003
Probable space group: I M A 2
;
_chemical_formula_sum "Si O2"
_cell_formula_units_Z 64
_cell_length_a 8.878561
_cell_length_b 28.447266
_cell_length_c 12.891769
_cell_angle_alpha 90.000000
_cell_angle_beta 90.000000
_cell_angle_gamma 90.000000
_cell_volume 3256.084235
_symmetry_space_group_name_H-M "I M A 2"
_symmetry_group_IT_number 46
_symmetry_cell_setting 'orthorhombic'
loop_
_space_group_symop_operation_xyz
x,y,z
-x,-y,z
1/2-x,y,z
1/2+x,-y,z
1/2+x,1/2+y,1/2+z
1/2-x,1/2-y,1/2+z
-x,1/2+y,1/2+z
x,1/2-y,1/2+z
loop_
_atom_site_type_symbol
_atom_site_label
_atom_site_fract_x
_atom_site_fract_y
_atom_site_fract_z
Si Si1 0.427922 0.696768 0.195440
Si Si2 0.921173 0.679968 0.987205
Si Si3 0.079209 0.431109 0.034547
Si Si4 0.930628 0.378988 0.652929
Si Si5 0.431720 0.452758 0.807919
Si Si6 0.929204 0.707141 0.753413
Si Si7 0.069214 0.589490 0.243730
Si Si8 0.068198 0.949082 0.967124
O O1 0.250000 0.701567 0.212664
O O2 0.516303 0.739456 0.246550
O O3 0.475320 0.644729 0.234739
O O4 0.467122 0.699702 0.073377
O O5 0.750000 0.698521 0.002267
O O6 0.966353 0.689041 0.869232
O O7 0.915045 0.624493 0.009664
O O8 0.250000 0.448467 0.048183
O O9 0.991259 0.436510 0.141404
O O10 0.015032 0.450825 0.927443
O O11 0.750000 0.378955 0.661525
O O12 0.971622 0.407788 0.548645
O O13 0.005027 0.408867 0.745456
O O14 0.991422 0.326306 0.668669
O O15 0.500000 0.500000 0.759947
O O16 0.250000 0.452514 0.806240
O O17 0.750000 0.703681 0.740064
O O18 0.250000 0.588541 0.241119
O O19 0.019016 0.566481 0.351536
O O20 0.250000 0.953076 0.968122
O O21 0.000000 0.000000 0.993279
#
# Coordination Sequence:
#
# PCOD9380003 Si02
#       8
#     8   8   8   8   8   8   8   8
#     4  10  21  36  57  88 119 156 201 250 305 363
#     4   9  18  36  57  78 110 151 190 239 296 353
#     4   9  18  35  57  81 111 146 187 235 292 351
#     4  11  23  39  60  86 117 157 203 252 304 363
#     4  11  22  37  56  84 118 151 188 239 295 354
#     4  11  22  38  60  87 120 158 201 250 305 369
#     4   9  20  39  60  83 117 155 198 249 300 354
#     4  10  23  42  62  87 121 161 205 255 307 364
#
# _framework density 19.655512000000002
#
# number of rings (size 3 to 8) (size 9 to 14) (size 15 to 20)
#    0.000    2.000    1.250    1.875    0.000    6.500 
#    0.000    3.750    0.000    0.000    0.000    0.000 
#    0.000    0.000    0.000    0.000    0.000    0.000 
#
# Total GULP energy -178599.977350 kJ/mol
# GULP energy per Si atom -5581.249292 kJ/mol
# Density = 1.961078 g / cm^3
# Si number density = 19.655512 Si / 1000 Ang^3
#
#
#
# Elastic Constant Matrix: (Units=GPa)
#
#
# Indices 1 2 3 4 5 6 
#
# 1 28.3573 13.2741 24.7340 0.0001 0.0000 0.0000
# 2 13.2741 46.6791 12.5045 0.0003 0.0000 -0.0001
# 3 24.7340 12.5045 99.1275 0.0009 0.0000 -0.0001
# 4 0.0001 0.0003 0.0009 20.6619 0.0000 -0.0001
# 5 0.0000 0.0000 0.0000 0.0000 28.3389 0.0001
# 6 0.0000 -0.0001 -0.0001 -0.0001 0.0001 16.8163
#
#
#
# Elastic Compliance Matrix: (Units=1/GPa)
#
#
# Indices 1 2 3 4 5 6 
#
# 1 0.050252 -0.011314 -0.011112 0.000000 0.000000 0.000000
# 2 -0.011314 0.024719 -0.000295 0.000000 0.000000 0.000000
# 3 -0.011112 -0.000295 0.012898 0.000000 0.000000 0.000000
# 4 0.000000 0.000000 0.000000 0.048398 0.000000 0.000000
# 5 0.000000 0.000000 0.000000 0.000000 0.035287 0.000000
# 6 0.000000 0.000000 0.000000 0.000000 0.000000 0.059466
#
#
# Mechanical properties :
#
#
# Convention : Reuss Voigt Hill
#
# Bulk Modulus (GPa) = 23.56929 30.57658 27.07293
# Shear Modulus (GPa) = 17.20556 21.40686 19.30621
#
# Velocity S-wave (km/s) = 2.96185 3.30373 3.13745
# Velocity P-wave (km/s) = 4.86970 5.49025 5.18926
#
# Compressibility (1/GPa) = 0.04242810
#
# Stress axis : x y z
#
# Youngs Moduli (GPa) = 19.89976 40.45441 77.53277
#
# Poissons Ratio (x) = 0.45768 0.86151
# Poissons Ratio (y) = 0.22514 0.02290
# Poissons Ratio (z) = 0.22112 0.01195
#
# Static dielectric constant tensor:
#      x y z
#    x 1.676950 0.000000 0.000000 
#    y 0.000000 1.716600 0.000000 
#    z 0.000000 0.000000 1.693630 
# 
# From -- ./inp_files/9801.got.cif
#   From: 2010.05.17/outbox.cif.g08.bks.cpg/sg46_5_cif.got.tgz:9801.got - 2010.06.03 19:58:25.
