data_PCOD9380534
_publ_section_title
;
Structure prediction by ZEFSAII (Michael W. Deem and Ramdas Pophale) SiO2 
 PCOD9380534
Probable space group: I M A 2
;
_chemical_formula_sum "Si O2"
_cell_formula_units_Z 56
_cell_length_a 14.478467
_cell_length_b 4.990606
_cell_length_c 30.044952
_cell_angle_alpha 90.000000
_cell_angle_beta 90.000000
_cell_angle_gamma 90.000000
_cell_volume 2170.937795
_symmetry_space_group_name_H-M "I M A 2"
_symmetry_group_IT_number 46
_symmetry_cell_setting 'orthorhombic'
loop_
_space_group_symop_operation_xyz
x,y,z
-x,-y,z
1/2-x,y,z
1/2+x,-y,z
1/2+x,1/2+y,1/2+z
1/2-x,1/2-y,1/2+z
-x,1/2+y,1/2+z
x,1/2-y,1/2+z
loop_
_atom_site_type_symbol
_atom_site_label
_atom_site_fract_x
_atom_site_fract_y
_atom_site_fract_z
Si Si1 0.361916 0.742540 0.011020
Si Si2 0.647351 0.353651 0.182378
Si Si3 0.140964 0.492401 0.365531
Si Si4 0.100068 0.975284 0.308684
Si Si5 0.147074 0.149185 0.589735
Si Si6 0.362636 0.255238 0.459367
Si Si7 0.250000 0.836794 0.749959
Si Si8 0.000000 0.500000 0.637871
O O1 0.250000 0.748946 0.012059
O O2 0.386519 0.576317 0.055202
O O3 0.391439 0.042792 0.999327
O O4 0.390932 0.545212 0.971048
O O5 0.750000 0.200974 0.192602
O O6 0.659169 0.505608 0.136892
O O7 0.557826 0.187116 0.171410
O O8 0.664329 0.526734 0.225786
O O9 0.250000 0.563659 0.369917
O O10 0.133394 0.255164 0.329488
O O11 0.108340 0.375348 0.412579
O O12 0.090925 0.759266 0.349277
O O13 0.170184 0.835172 0.275860
O O14 0.000000 0.000000 0.287650
O O15 0.250000 0.250111 0.576053
O O16 0.073857 0.369211 0.604271
O O17 0.250000 0.252409 0.458577
#
# Coordination Sequence:
#
# PCOD9380534 Si02
#       8
#     8   8   8   8   8   8   4   4
#     4   9  18  33  60  99 138 181 242 284 334 402
#     4   9  23  44  65  95 134 174 227 285 360 423
#     4  11  21  43  72 105 147 186 239 286 361 428
#     4  12  25  45  73 107 142 187 228 296 361 440
#     4  10  22  41  66  97 141 191 237 293 352 427
#     4   9  18  33  63 101 134 185 233 287 334 410
#     4  10  24  48  70 104 128 174 236 286 358 428
#     4  12  22  40  68 100 128 186 226 294 358 430
#
# _framework density 25.795302
#
# number of rings (size 3 to 8) (size 9 to 14) (size 15 to 20)
#    0.429    1.429    1.429    2.143    3.000    2.286 
#    5.143    1.429    6.286    0.000    0.000    0.000 
#    0.000    0.000    0.000    0.000    0.000    0.000 
#
# Total GULP energy -156049.369495 kJ/mol
# GULP energy per Si atom -5573.191768 kJ/mol
# Density = 2.573659 g / cm^3
# Si number density = 25.795302 Si / 1000 Ang^3
#
#
#
# Elastic Constant Matrix: (Units=GPa)
#
#
# Indices 1 2 3 4 5 6 
#
# 1 82.6740 -11.1137 9.9176 0.0000 0.0000 0.0000
# 2 -11.1137 80.5202 6.3019 0.0000 0.0000 0.0000
# 3 9.9176 6.3019 91.5442 0.0000 0.0000 0.0000
# 4 0.0000 0.0000 0.0000 10.6149 0.0000 0.0000
# 5 0.0000 0.0000 0.0000 0.0000 23.6746 0.0000
# 6 0.0000 0.0000 0.0000 0.0000 0.0000 24.2232
#
#
#
# Elastic Compliance Matrix: (Units=1/GPa)
#
#
# Indices 1 2 3 4 5 6 
#
# 1 0.012522 0.001844 -0.001484 0.000000 0.000000 0.000000
# 2 0.001844 0.012758 -0.001078 0.000000 0.000000 0.000000
# 3 -0.001484 -0.001078 0.011159 0.000000 0.000000 0.000000
# 4 0.000000 0.000000 0.000000 0.094207 0.000000 0.000000
# 5 0.000000 0.000000 0.000000 0.000000 0.042239 0.000000
# 6 0.000000 0.000000 0.000000 0.000000 0.000000 0.041283
#
#
# Mechanical properties :
#
#
# Convention : Reuss Voigt Hill
#
# Bulk Modulus (GPa) = 28.56817 29.43887 29.00352
# Shear Modulus (GPa) = 22.00024 28.34471 25.17248
#
# Velocity S-wave (km/s) = 2.92358 3.31846 3.12726
# Velocity P-wave (km/s) = 4.74293 5.11079 4.93029
#
# Compressibility (1/GPa) = 0.03500399
#
# Stress axis : x y z
#
# Youngs Moduli (GPa) = 79.86196 78.38105 89.61682
#
# Poissons Ratio (x) = -0.14456 0.13295
# Poissons Ratio (y) = -0.14730 0.09661
# Poissons Ratio (z) = 0.11848 0.08450
#
# Static dielectric constant tensor:
#      x y z
#    x 2.157050 0.000000 0.000000 
#    y 0.000000 1.992690 0.000000 
#    z 0.000000 0.000000 2.061570 
# 
# From -- ./inp_files/25429.got.cif
#   From: 2010.05.17/outbox.cif.g08.bks.cpg/sg46_13_cif.got.tgz:25429.got - 2010.06.03 19:58:25.
