data_PCOD9380008
_publ_section_title
;
Structure prediction by ZEFSAII (Michael W. Deem and Ramdas Pophale) SiO2 
 PCOD9380008
Probable space group: I M A 2
;
_chemical_formula_sum "Si O2"
_cell_formula_units_Z 64
_cell_length_a 14.173594
_cell_length_b 8.972876
_cell_length_c 23.208940
_cell_angle_alpha 90.000000
_cell_angle_beta 90.000000
_cell_angle_gamma 90.000000
_cell_volume 2951.664284
_symmetry_space_group_name_H-M "I M A 2"
_symmetry_group_IT_number 46
_symmetry_cell_setting 'orthorhombic'
loop_
_space_group_symop_operation_xyz
x,y,z
-x,-y,z
1/2-x,y,z
1/2+x,-y,z
1/2+x,1/2+y,1/2+z
1/2-x,1/2-y,1/2+z
-x,1/2+y,1/2+z
x,1/2-y,1/2+z
loop_
_atom_site_type_symbol
_atom_site_label
_atom_site_fract_x
_atom_site_fract_y
_atom_site_fract_z
Si Si1 0.643338 0.355150 0.375000
Si Si2 0.362429 0.419666 0.939738
Si Si3 0.474462 0.146055 0.088870
Si Si4 0.356662 0.644850 0.042010
Si Si5 0.895459 0.930597 0.644439
Si Si6 0.637571 0.919666 0.977271
Si Si7 0.895459 0.569403 0.272571
Si Si8 0.974462 0.646055 0.828139
O O1 0.750000 0.293479 0.384942
O O2 0.611992 0.451577 0.431089
O O3 0.650927 0.474507 0.323201
O O4 0.563210 0.239291 0.354574
O O5 0.250000 0.429111 0.933949
O O6 0.384683 0.250000 0.958505
O O7 0.413709 0.426840 0.879301
O O8 0.388008 0.548423 0.985920
O O9 0.563210 0.239291 0.062436
O O10 0.410523 0.262956 0.123076
O O11 0.500000 0.000000 0.125710
O O12 0.413709 0.073161 0.037708
O O13 0.250000 0.706521 0.032068
O O14 0.349073 0.525492 0.093809
O O15 0.854645 0.940410 0.708505
O O16 0.000000 0.000000 0.647943
O O17 0.750000 0.929110 0.983061
O O18 0.000000 0.500000 0.269066
O O19 0.910523 0.737044 0.293934
O O20 0.000000 0.500000 0.791300
#
# Coordination Sequence:
#
# PCOD9380008 Si02
#       8
#     8   8   8   8   8   8   8   8
#     4  10  22  40  61  89 120 157 203 249 297 359
#     4  10  21  36  58  87 119 152 196 248 299 357
#     4  11  24  36  61  88 125 163 198 245 303 360
#     4  10  22  40  61  89 120 157 203 249 297 359
#     4   9  19  37  60  85 114 154 201 245 294 352
#     4  10  21  36  58  87 119 152 196 248 299 357
#     4   9  19  37  60  85 114 154 201 245 294 352
#     4  11  24  36  61  88 125 163 198 245 303 360
#
# _framework density 21.682683999999998
#
# number of rings (size 3 to 8) (size 9 to 14) (size 15 to 20)
#    0.000    2.000    2.500    0.000    3.500    2.000 
#    0.000    2.500    0.000    0.000    0.000    3.500 
#    0.000    0.000    0.000    0.000    0.000    0.000 
#
# Total GULP energy -178627.854983 kJ/mol
# GULP energy per Si atom -5582.120468 kJ/mol
# Density = 2.163333 g / cm^3
# Si number density = 21.682684 Si / 1000 Ang^3
#
#
#
# Elastic Constant Matrix: (Units=GPa)
#
#
# Indices 1 2 3 4 5 6 
#
# 1 42.9292 -2.7484 -4.1449 0.0000 0.0000 0.0000
# 2 -2.7484 126.6438 22.8534 0.0000 0.0000 0.0000
# 3 -4.1449 22.8534 95.6046 0.0000 0.0000 0.0000
# 4 0.0000 0.0000 0.0000 -13.7104 0.0000 0.0000
# 5 0.0000 0.0000 0.0000 0.0000 35.1282 0.0000
# 6 0.0000 0.0000 0.0000 0.0000 0.0000 13.7455
#
#
#
# Elastic Compliance Matrix: (Units=1/GPa)
#
#
# Indices 1 2 3 4 5 6 
#
# 1 0.023406 0.000339 0.000934 0.000000 0.000000 0.000000
# 2 0.000339 0.008257 -0.001959 0.000000 0.000000 0.000000
# 3 0.000934 -0.001959 0.010969 0.000000 0.000000 0.000000
# 4 0.000000 0.000000 0.000000 -0.072937 0.000000 0.000000
# 5 0.000000 0.000000 0.000000 0.000000 0.028467 0.000000
# 6 0.000000 0.000000 0.000000 0.000000 0.000000 0.072751
#
#
# Mechanical properties :
#
#
# Convention : Reuss Voigt Hill
#
# Bulk Modulus (GPa) = 24.23673 33.01086 28.62380
# Shear Modulus (GPa) = 58.11379 23.64713 40.88046
#
# Velocity S-wave (km/s) = 5.18267 3.30601 4.34683
# Velocity P-wave (km/s) = 6.85680 5.46173 6.19864
#
# Compressibility (1/GPa) = 0.04125969
#
# Stress axis : x y z
#
# Youngs Moduli (GPa) = 42.72398 121.10862 91.17001
#
# Poissons Ratio (x) = -0.04111 -0.08512
# Poissons Ratio (y) = -0.01450 0.17861
# Poissons Ratio (z) = -0.03989 0.23726
#
# Static dielectric constant tensor:
#      x y z
#    x 1.800520 0.000000 0.000000 
#    y 0.000000 1.892840 0.000000 
#    z 0.000000 0.000000 1.791610 
# 
# From -- ./inp_files/23715.got.cif
#   From: 2010.05.17/outbox.cif.g08.bks.cpg/sg46_12_cif.got.tgz:23715.got - 2010.06.03 19:58:25.
