data_PCOD9380721
_publ_section_title
;
Structure prediction by ZEFSAII (Michael W. Deem and Ramdas Pophale) SiO2 
 PCOD9380721
Probable space group: I M A 2
;
_chemical_formula_sum "Si O2"
_cell_formula_units_Z 48
_cell_length_a 23.389690
_cell_length_b 8.274825
_cell_length_c 12.477298
_cell_angle_alpha 90.000000
_cell_angle_beta 90.000000
_cell_angle_gamma 90.000000
_cell_volume 2414.926022
_symmetry_space_group_name_H-M "I M A 2"
_symmetry_group_IT_number 46
_symmetry_cell_setting 'orthorhombic'
loop_
_space_group_symop_operation_xyz
x,y,z
-x,-y,z
1/2-x,y,z
1/2+x,-y,z
1/2+x,1/2+y,1/2+z
1/2-x,1/2-y,1/2+z
-x,1/2+y,1/2+z
x,1/2-y,1/2+z
loop_
_atom_site_type_symbol
_atom_site_label
_atom_site_fract_x
_atom_site_fract_y
_atom_site_fract_z
Si Si1 0.250000 0.375860 0.390700
Si Si2 0.000000 0.500000 0.468392
Si Si3 0.508341 0.320221 0.829964
Si Si4 0.345961 0.159850 0.501173
Si Si5 0.750000 0.274016 0.321150
Si Si6 0.633661 0.420813 0.812448
Si Si7 0.080371 0.387167 0.637844
Si Si8 0.250000 0.466960 0.154015
O O1 0.305513 0.293412 0.443149
O O2 0.250000 0.570472 0.400041
O O3 0.250000 0.353970 0.260985
O O4 0.994030 0.662172 0.398518
O O5 0.053305 0.506683 0.549969
O O6 0.500000 0.500000 0.881179
O O7 0.576283 0.313006 0.805930
O O8 0.467884 0.333063 0.724403
O O9 0.394683 0.239689 0.571936
O O10 0.304544 0.064511 0.581289
O O11 0.370845 0.044945 0.410528
O O12 0.807623 0.172623 0.330196
O O13 0.750000 0.355902 0.204005
O O14 0.630393 0.526495 0.704508
#
# Coordination Sequence:
#
# PCOD9380721 Si02
#       8
#     4   4   8   8   4   8   8   4
#     4   9  22  42  62 103 137 169 234 276 335 436
#     4  12  24  44  74  94 140 196 224 292 378 398
#     4  10  24  47  66 104 144 175 243 295 340 436
#     4  11  22  41  74  94 134 191 223 284 354 416
#     4  10  24  41  63  97 141 172 221 289 339 414
#     4  11  23  45  67  97 146 171 228 297 336 414
#     4  11  23  44  68 103 134 179 244 283 349 425
#     4   9  22  41  61 100 134 169 239 261 352 422
#
# _framework density 19.876387000000001
#
# number of rings (size 3 to 8) (size 9 to 14) (size 15 to 20)
#    0.500    1.000    2.500    4.000    2.333    4.000 
#    7.500    0.000    0.000    0.000    0.000    0.000 
#    0.000    0.000    0.000    0.000    0.000    0.000 
#
# Total GULP energy -133860.854324 kJ/mol
# GULP energy per Si atom -5577.535597 kJ/mol
# Density = 1.983115 g / cm^3
# Si number density = 19.876387 Si / 1000 Ang^3
#
#
#
# Elastic Constant Matrix: (Units=GPa)
#
#
# Indices 1 2 3 4 5 6 
#
# 1 106.3654 35.7638 24.5537 0.0000 0.0000 0.0000
# 2 35.7638 94.6545 57.8786 0.0000 0.0000 0.0000
# 3 24.5537 57.8786 100.3842 0.0000 0.0000 0.0000
# 4 0.0000 0.0000 0.0000 -68.5460 0.0000 0.0000
# 5 0.0000 0.0000 0.0000 0.0000 17.9874 0.0000
# 6 0.0000 0.0000 0.0000 0.0000 0.0000 13.6340
#
#
#
# Elastic Compliance Matrix: (Units=1/GPa)
#
#
# Indices 1 2 3 4 5 6 
#
# 1 0.010783 -0.003802 -0.000445 0.000000 0.000000 0.000000
# 2 -0.003802 0.017658 -0.009251 0.000000 0.000000 0.000000
# 3 -0.000445 -0.009251 0.015405 0.000000 0.000000 0.000000
# 4 0.000000 0.000000 0.000000 -0.014589 0.000000 0.000000
# 5 0.000000 0.000000 0.000000 0.000000 0.055594 0.000000
# 6 0.000000 0.000000 0.000000 0.000000 0.000000 0.073346
#
#
# Mechanical properties :
#
#
# Convention : Reuss Voigt Hill
#
# Bulk Modulus (GPa) = 59.35210 59.75515 59.55362
# Shear Modulus (GPa) = 26.20411 4.82896 15.51653
#
# Velocity S-wave (km/s) = 3.63485 1.56037 2.79705
# Velocity P-wave (km/s) = 6.89504 5.77711 6.36069
#
# Compressibility (1/GPa) = 0.01684860
#
# Stress axis : x y z
#
# Youngs Moduli (GPa) = 92.74164 56.63158 64.91537
#
# Poissons Ratio (x) = 0.21529 0.02892
# Poissons Ratio (y) = 0.35257 0.60055
# Poissons Ratio (z) = 0.04131 0.52391
#
# Static dielectric constant tensor:
#      x y z
#    x 1.746410 0.000000 0.000000 
#    y 0.000000 1.758790 0.000000 
#    z 0.000000 0.000000 1.692160 
# 
# From -- ./inp_files/12763.got.cif
#   From: 2010.05.17/outbox.cif.g08.bks.cpg/sg46_7_cif.got.tgz:12763.got - 2010.06.03 19:58:25.
