data_PCOD9380375
_publ_section_title
;
Structure prediction by ZEFSAII (Michael W. Deem and Ramdas Pophale) SiO2 
 PCOD9380375
Probable space group: I M A 2
;
_chemical_formula_sum "Si O2"
_cell_formula_units_Z 48
_cell_length_a 18.956974
_cell_length_b 13.444574
_cell_length_c 7.966365
_cell_angle_alpha 90.000000
_cell_angle_beta 90.000000
_cell_angle_gamma 90.000000
_cell_volume 2030.375018
_symmetry_space_group_name_H-M "I M A 2"
_symmetry_group_IT_number 46
_symmetry_cell_setting 'orthorhombic'
loop_
_space_group_symop_operation_xyz
x,y,z
-x,-y,z
1/2-x,y,z
1/2+x,-y,z
1/2+x,1/2+y,1/2+z
1/2-x,1/2-y,1/2+z
-x,1/2+y,1/2+z
x,1/2-y,1/2+z
loop_
_atom_site_type_symbol
_atom_site_label
_atom_site_fract_x
_atom_site_fract_y
_atom_site_fract_z
Si Si1 0.250000 0.395489 0.206940
Si Si2 0.750000 0.448643 0.457314
Si Si3 0.466895 0.148520 0.024025
Si Si4 0.750000 0.254880 0.754081
Si Si5 0.403278 0.021397 0.330745
Si Si6 0.750000 0.019021 0.399863
Si Si7 0.408673 0.357236 0.153972
Si Si8 0.121041 0.647650 0.626449
O O1 0.250000 0.440541 0.391035
O O2 0.323854 0.344306 0.169918
O O3 0.250000 0.498206 0.097512
O O4 0.750000 0.347280 0.349298
O O5 0.824380 0.432135 0.549797
O O6 0.438125 0.120661 0.839954
O O7 0.440827 0.075173 0.173851
O O8 0.439050 0.255521 0.081103
O O9 0.551801 0.158477 0.016842
O O10 0.750000 0.363297 0.852259
O O11 0.825175 0.261890 0.657597
O O12 0.426227 0.060048 0.512911
O O13 0.319037 0.037710 0.336230
O O14 0.407634 0.902769 0.298277
#
# Coordination Sequence:
#
# PCOD9380375 Si02
#       8
#     4   4   8   4   8   4   8   8
#     4  10  23  42  64 101 140 181 243 293 335 451
#     4  11  23  42  71 103 129 190 243 297 363 422
#     4  12  24  44  69 107 142 188 233 291 354 431
#     4   9  21  40  69 100 126 183 233 293 365 418
#     4  10  21  45  68  98 141 186 231 290 354 412
#     4   8  19  40  68  96 137 178 227 293 351 415
#     4  11  25  43  71 103 141 188 241 285 362 413
#     4  10  24  43  68  98 146 182 230 303 360 428
#
# _framework density 23.640953
#
# number of rings (size 3 to 8) (size 9 to 14) (size 15 to 20)
#    0.000    1.667    1.667    2.000    4.667    2.000 
#    0.000   11.667    0.000    0.000    0.000    0.000 
#    0.000    0.000    0.000    0.000    0.000    0.000 
#
# Total GULP energy -133839.517176 kJ/mol
# GULP energy per Si atom -5576.646549 kJ/mol
# Density = 2.358715 g / cm^3
# Si number density = 23.640953 Si / 1000 Ang^3
#
#
#
# Elastic Constant Matrix: (Units=GPa)
#
#
# Indices 1 2 3 4 5 6 
#
# 1 190.3643 39.3513 62.3242 0.0000 0.0000 0.0000
# 2 39.3513 43.1645 26.2512 0.0000 0.0000 0.0000
# 3 62.3242 26.2512 136.8888 0.0000 0.0000 0.0000
# 4 0.0000 0.0000 0.0000 37.3748 0.0000 0.0000
# 5 0.0000 0.0000 0.0000 0.0000 29.7521 0.0000
# 6 0.0000 0.0000 0.0000 0.0000 0.0000 16.2992
#
#
#
# Elastic Compliance Matrix: (Units=1/GPa)
#
#
# Indices 1 2 3 4 5 6 
#
# 1 0.007027 -0.005050 -0.002231 0.000000 0.000000 0.000000
# 2 -0.005050 0.029854 -0.003426 0.000000 0.000000 0.000000
# 3 -0.002231 -0.003426 0.008978 0.000000 0.000000 0.000000
# 4 0.000000 0.000000 0.000000 0.026756 0.000000 0.000000
# 5 0.000000 0.000000 0.000000 0.000000 0.033611 0.000000
# 6 0.000000 0.000000 0.000000 0.000000 0.000000 0.061353
#
#
# Mechanical properties :
#
#
# Convention : Reuss Voigt Hill
#
# Bulk Modulus (GPa) = 40.90646 69.58566 55.24606
# Shear Modulus (GPa) = 25.36241 32.85127 29.10684
#
# Velocity S-wave (km/s) = 3.27894 3.73177 3.51266
# Velocity P-wave (km/s) = 5.62815 6.93299 6.31437
#
# Compressibility (1/GPa) = 0.02444602
#
# Stress axis : x y z
#
# Youngs Moduli (GPa) = 142.30019 33.49584 111.38297
#
# Poissons Ratio (x) = 0.16914 0.24851
# Poissons Ratio (y) = 0.71857 0.38161
# Poissons Ratio (z) = 0.31749 0.11476
#
# Static dielectric constant tensor:
#      x y z
#    x 1.917440 0.000000 0.000000 
#    y 0.000000 1.879930 0.000000 
#    z 0.000000 0.000000 2.051190 
# 
# From -- ./inp_files/6665.got.cif
#   From: 2010.05.17/outbox.cif.g08.bks.cpg/sg46_4_cif.got.tgz:6665.got - 2010.06.03 19:58:25.
