data_PCOD9380826
_publ_section_title
;
Structure prediction by ZEFSAII (Michael W. Deem and Ramdas Pophale) SiO2 
 PCOD9380826
Probable space group: I M A 2
;
_chemical_formula_sum "Si O2"
_cell_formula_units_Z 64
_cell_length_a 14.567341
_cell_length_b 6.939099
_cell_length_c 22.574525
_cell_angle_alpha 90.000000
_cell_angle_beta 90.000000
_cell_angle_gamma 90.000000
_cell_volume 2281.928282
_symmetry_space_group_name_H-M "I M A 2"
_symmetry_group_IT_number 46
_symmetry_cell_setting 'orthorhombic'
loop_
_space_group_symop_operation_xyz
x,y,z
-x,-y,z
1/2-x,y,z
1/2+x,-y,z
1/2+x,1/2+y,1/2+z
1/2-x,1/2-y,1/2+z
-x,1/2+y,1/2+z
x,1/2-y,1/2+z
loop_
_atom_site_type_symbol
_atom_site_label
_atom_site_fract_x
_atom_site_fract_y
_atom_site_fract_z
Si Si1 0.859550 0.805129 0.471870
Si Si2 0.143291 0.911240 0.191445
Si Si3 0.137532 0.751246 0.942019
Si Si4 0.855754 0.860986 0.721755
Si Si5 0.147514 0.863149 0.064004
Si Si6 0.861819 0.719568 0.346677
Si Si7 0.601381 0.945246 0.588432
Si Si8 0.138590 0.670202 0.815325
O O1 0.750000 0.794737 0.466810
O O2 0.894666 0.690477 0.414084
O O3 0.885672 0.028251 0.457359
O O4 0.878012 0.774120 0.541974
O O5 0.250000 0.851253 0.183481
O O6 0.145449 0.130484 0.212420
O O7 0.099120 0.907849 0.126534
O O8 0.102999 0.798084 0.248083
O O9 0.250000 0.767367 0.942426
O O10 0.108803 0.784702 0.873984
O O11 0.105325 0.875971 0.998388
O O12 0.750000 0.927465 0.722923
O O13 0.894859 0.890671 0.787715
O O14 0.893975 0.926098 0.658828
O O15 0.250000 0.949719 0.063618
O O16 0.159092 0.631576 0.071445
O O17 0.750000 0.694248 0.346270
O O18 0.879207 0.946416 0.332544
O O19 0.500000 0.000000 0.572929
O O20 0.250000 0.688710 0.811567
#
# Coordination Sequence:
#
# PCOD9380826 Si02
#       8
#     8   8   8   8   8   8   8   8
#     4   8  13  25  45  68  89 114 153 204 245 273
#     4   8  14  24  43  67  88 110 145 191 237 278
#     4   7  10  17  34  58  84 108 132 168 221 270
#     4   9  16  29  49  73  96 122 156 200 248 291
#     4   9  16  28  45  65  87 116 153 196 239 283
#     4   7  11  21  43  70  90 108 142 191 239 276
#     4  11  21  30  43  66  99 134 162 191 234 299
#     4   7   9  16  32  59  87 106 128 171 223 266
#
# _framework density 28.046455000000002
#
# number of rings (size 3 to 8) (size 9 to 14) (size 15 to 20)
#    0.000    3.750    0.000    4.875    0.000    0.000 
#    0.000    0.625    0.000    7.500    0.000    7.000 
#    0.000    0.000    0.000    0.000    0.000    0.000 
#
# Total GULP energy -178649.511631 kJ/mol
# GULP energy per Si atom -5582.797238 kJ/mol
# Density = 2.798262 g / cm^3
# Si number density = 28.046455 Si / 1000 Ang^3
#
#
#
# Elastic Constant Matrix: (Units=GPa)
#
#
# Indices 1 2 3 4 5 6 
#
# 1 79.2718 8.8234 27.7881 0.0000 0.0000 0.0000
# 2 8.8234 79.9445 55.8486 0.0000 0.0000 0.0000
# 3 27.7881 55.8486 384.8534 0.0000 0.0000 0.0000
# 4 0.0000 0.0000 0.0000 65.7821 0.0000 0.0000
# 5 0.0000 0.0000 0.0000 0.0000 -16.6890 0.0000
# 6 0.0000 0.0000 0.0000 0.0000 0.0000 17.4702
#
#
#
# Elastic Compliance Matrix: (Units=1/GPa)
#
#
# Indices 1 2 3 4 5 6 
#
# 1 0.012996 -0.000867 -0.000813 0.000000 0.000000 0.000000
# 2 -0.000867 0.013978 -0.001966 0.000000 0.000000 0.000000
# 3 -0.000813 -0.001966 0.002942 0.000000 0.000000 0.000000
# 4 0.000000 0.000000 0.000000 0.015202 0.000000 0.000000
# 5 0.000000 0.000000 0.000000 0.000000 -0.059920 0.000000
# 6 0.000000 0.000000 0.000000 0.000000 0.000000 0.057240
#
#
# Mechanical properties :
#
#
# Convention : Reuss Voigt Hill
#
# Bulk Modulus (GPa) = 44.19713 80.99888 62.59800
# Shear Modulus (GPa) = 87.30487 43.41996 65.36242
#
# Velocity S-wave (km/s) = 5.58536 3.93892 4.83277
# Velocity P-wave (km/s) = 7.57547 7.04483 7.31497
#
# Compressibility (1/GPa) = 0.02262590
#
# Stress axis : x y z
#
# Youngs Moduli (GPa) = 76.94584 71.54290 339.86583
#
# Poissons Ratio (x) = 0.06201 0.27618
# Poissons Ratio (y) = 0.06669 0.66811
# Poissons Ratio (z) = 0.06253 0.14064
#
# Static dielectric constant tensor:
#      x y z
#    x 2.057030 0.000000 0.000000 
#    y 0.000000 2.286850 0.000000 
#    z 0.000000 0.000000 2.273310 
# 
# From -- ./inp_files/22499.got.cif
#   From: 2010.05.17/outbox.cif.g08.bks.cpg/sg46_12_cif.got.tgz:22499.got - 2010.06.03 19:58:25.
