data_PCOD9380136
_publ_section_title
;
Structure prediction by ZEFSAII (Michael W. Deem and Ramdas Pophale) SiO2 
 PCOD9380136
Probable space group: I M A 2
;
_chemical_formula_sum "Si O2"
_cell_formula_units_Z 64
_cell_length_a 8.810676
_cell_length_b 28.729992
_cell_length_c 12.874033
_cell_angle_alpha 90.000000
_cell_angle_beta 90.000000
_cell_angle_gamma 90.000000
_cell_volume 3258.812354
_symmetry_space_group_name_H-M "I M A 2"
_symmetry_group_IT_number 46
_symmetry_cell_setting 'orthorhombic'
loop_
_space_group_symop_operation_xyz
x,y,z
-x,-y,z
1/2-x,y,z
1/2+x,-y,z
1/2+x,1/2+y,1/2+z
1/2-x,1/2-y,1/2+z
-x,1/2+y,1/2+z
x,1/2-y,1/2+z
loop_
_atom_site_type_symbol
_atom_site_label
_atom_site_fract_x
_atom_site_fract_y
_atom_site_fract_z
Si Si1 0.433268 0.051153 0.977590
Si Si2 0.932301 0.046538 0.323346
Si Si3 0.566826 0.618694 0.666150
Si Si4 0.931294 0.594327 0.257248
Si Si5 0.070606 0.210447 0.273063
Si Si6 0.576092 0.429224 0.047362
Si Si7 0.931377 0.194960 0.708696
Si Si8 0.423864 0.679001 0.981244
O O1 0.250000 0.047617 0.979963
O O2 0.480069 0.068777 0.862994
O O3 0.500000 0.000000 0.999750
O O4 0.476976 0.090889 0.061688
O O5 0.750000 0.046091 0.323708
O O6 0.987857 0.048617 0.442517
O O7 0.991951 0.090194 0.259834
O O8 0.000000 0.000000 0.273799
O O9 0.750000 0.616275 0.674754
O O10 0.524726 0.672711 0.684481
O O11 0.750000 0.597242 0.257039
O O12 0.986211 0.567283 0.154206
O O13 0.996832 0.646791 0.249060
O O14 0.250000 0.218335 0.264432
O O15 0.985535 0.259360 0.267386
O O16 0.029794 0.187917 0.383912
O O17 0.750000 0.444626 0.063919
O O18 0.579725 0.374846 0.015291
O O19 0.750000 0.189620 0.711713
O O20 0.974751 0.203274 0.587750
O O21 0.250000 0.692346 0.954724
#
# Coordination Sequence:
#
# PCOD9380136 Si02
#       8
#     8   8   8   8   8   8   8   8
#     4  10  23  42  62  87 121 161 205 255 307 366
#     4  11  22  36  56  84 116 149 188 236 292 352
#     4  10  22  40  59  84 118 155 199 248 300 358
#     4  10  21  38  61  87 118 155 200 252 304 356
#     4  11  22  35  58  89 119 155 199 250 305 362
#     4   9  19  36  57  81 112 149 188 235 292 354
#     4  10  22  39  59  86 120 159 203 248 300 364
#     4   9  18  36  57  78 110 150 190 237 291 350
#
# _framework density 19.639054999999999
#
# number of rings (size 3 to 8) (size 9 to 14) (size 15 to 20)
#    0.000    2.000    1.250    2.625    0.000    8.000 
#    0.000    3.750    0.000    0.000    0.000    0.000 
#    0.000    0.000    0.000    0.000    0.000    0.000 
#
# Total GULP energy -178565.544723 kJ/mol
# GULP energy per Si atom -5580.173273 kJ/mol
# Density = 1.959436 g / cm^3
# Si number density = 19.639055 Si / 1000 Ang^3
#
#
#
# Elastic Constant Matrix: (Units=GPa)
#
#
# Indices 1 2 3 4 5 6 
#
# 1 21.7833 7.8629 21.2384 0.0002 0.0000 0.0000
# 2 7.8629 45.4751 11.5545 0.0005 0.0000 0.0000
# 3 21.2384 11.5545 96.1857 0.0018 0.0003 0.0001
# 4 0.0002 0.0005 0.0018 21.8665 0.0000 0.0001
# 5 0.0000 0.0000 0.0003 0.0000 26.8100 0.0000
# 6 0.0000 0.0000 0.0001 0.0001 0.0000 19.1268
#
#
#
# Elastic Compliance Matrix: (Units=1/GPa)
#
#
# Indices 1 2 3 4 5 6 
#
# 1 0.060776 -0.007322 -0.012540 0.000001 0.000000 0.000000
# 2 -0.007322 0.023565 -0.001214 0.000000 0.000000 0.000000
# 3 -0.012540 -0.001214 0.013311 -0.000001 0.000000 0.000000
# 4 0.000001 0.000000 -0.000001 0.045732 0.000000 0.000000
# 5 0.000000 0.000000 0.000000 0.000000 0.037299 0.000000
# 6 0.000000 0.000000 0.000000 0.000000 0.000000 0.052283
#
#
# Mechanical properties :
#
#
# Convention : Reuss Voigt Hill
#
# Bulk Modulus (GPa) = 18.01824 27.19508 22.60666
# Shear Modulus (GPa) = 17.02887 21.74655 19.38771
#
# Velocity S-wave (km/s) = 2.94784 3.33124 3.14539
# Velocity P-wave (km/s) = 4.55861 5.35478 4.97266
#
# Compressibility (1/GPa) = 0.05549931
#
# Stress axis : x y z
#
# Youngs Moduli (GPa) = 16.45379 42.43658 75.12403
#
# Poissons Ratio (x) = 0.31074 0.94207
# Poissons Ratio (y) = 0.12048 0.09119
# Poissons Ratio (z) = 0.20633 0.05151
#
# Static dielectric constant tensor:
#      x y z
#    x 1.665890 0.000000 0.000000 
#    y 0.000000 1.733080 0.000000 
#    z 0.000000 0.000000 1.705800 
# 
# From -- ./inp_files/9744.got.cif
#   From: 2010.05.17/outbox.cif.g08.bks.cpg/sg46_5_cif.got.tgz:9744.got - 2010.06.03 19:58:25.
