data_PCOD9380950
_publ_section_title
;
Structure prediction by ZEFSAII (Michael W. Deem and Ramdas Pophale) SiO2 
 PCOD9380950
Probable space group: I M A 2
;
_chemical_formula_sum "Si O2"
_cell_formula_units_Z 36
_cell_length_a 14.394594
_cell_length_b 4.795895
_cell_length_c 21.228980
_cell_angle_alpha 90.000000
_cell_angle_beta 90.000000
_cell_angle_gamma 90.000000
_cell_volume 1465.541815
_symmetry_space_group_name_H-M "I M A 2"
_symmetry_group_IT_number 46
_symmetry_cell_setting 'orthorhombic'
loop_
_space_group_symop_operation_xyz
x,y,z
-x,-y,z
1/2-x,y,z
1/2+x,-y,z
1/2+x,1/2+y,1/2+z
1/2-x,1/2-y,1/2+z
-x,1/2+y,1/2+z
x,1/2-y,1/2+z
loop_
_atom_site_type_symbol
_atom_site_label
_atom_site_fract_x
_atom_site_fract_y
_atom_site_fract_z
Si Si1 0.856800 0.084641 0.155480
Si Si2 0.250000 0.238271 0.466386
Si Si3 0.399632 0.407187 0.860576
Si Si4 0.600368 0.592804 0.072195
Si Si5 0.643200 0.415350 0.277292
O O1 0.750000 0.000150 0.169072
O O2 0.856172 0.312272 0.100205
O O3 0.893098 0.249996 0.216386
O O4 0.909070 0.814602 0.129226
O O5 0.168689 0.222008 0.411647
O O6 0.168689 0.221996 0.521124
O O7 0.500000 0.500000 0.885321
O O8 0.356171 0.687717 0.832567
O O9 0.409071 0.185387 0.803546
O O10 0.500000 0.500000 0.047450
O O11 0.750000 0.499844 0.263700
#
# Coordination Sequence:
#
# PCOD9380950 Si02
#       5
#     8   4   8   8   8
#     4  11  23  46  75 106 145 191 241 308 380 439
#     4  12  26  50  70 104 156 202 250 308 344 448
#     4  12  26  45  74 109 146 197 249 303 367 433
#     4  12  26  45  74 109 146 197 249 303 367 433
#     4  11  23  46  75 106 145 191 241 308 380 439
#
# _framework density 24.564294
#
# number of rings (size 3 to 8) (size 9 to 14) (size 15 to 20)
#    0.000    0.444    4.444    3.333    0.000   10.667 
#    0.000    4.444    0.000    0.000    0.000    0.000 
#    0.000    0.000    0.000    0.000    0.000    0.000 
#
# Total GULP energy -100292.844364 kJ/mol
# GULP energy per Si atom -5571.824687 kJ/mol
# Density = 2.450838 g / cm^3
# Si number density = 24.564294 Si / 1000 Ang^3
#
#
#
# Elastic Constant Matrix: (Units=GPa)
#
#
# Indices 1 2 3 4 5 6 
#
# 1 170.2137 18.5215 55.8208 0.0000 0.0000 0.0000
# 2 18.5215 121.3398 28.2674 0.0000 0.0000 0.0000
# 3 55.8208 28.2674 111.6306 0.0000 0.0000 0.0000
# 4 0.0000 0.0000 0.0000 -33.2972 0.0000 0.0000
# 5 0.0000 0.0000 0.0000 0.0000 1.7895 0.0000
# 6 0.0000 0.0000 0.0000 0.0000 0.0000 16.1258
#
#
#
# Elastic Compliance Matrix: (Units=1/GPa)
#
#
# Indices 1 2 3 4 5 6 
#
# 1 0.007036 -0.000270 -0.003450 0.000000 0.000000 0.000000
# 2 -0.000270 0.008768 -0.002085 0.000000 0.000000 0.000000
# 3 -0.003450 -0.002085 0.011211 0.000000 0.000000 0.000000
# 4 0.000000 0.000000 0.000000 -0.030033 0.000000 0.000000
# 5 0.000000 0.000000 0.000000 0.000000 0.558818 0.000000
# 6 0.000000 0.000000 0.000000 0.000000 0.000000 0.062013
#
#
# Mechanical properties :
#
#
# Convention : Reuss Voigt Hill
#
# Bulk Modulus (GPa) = 64.91493 67.60037 66.25765
# Shear Modulus (GPa) = 7.87950 16.96191 12.42070
#
# Velocity S-wave (km/s) = 1.79295 2.63061 2.25108
# Velocity P-wave (km/s) = 5.54708 6.06682 5.81276
#
# Compressibility (1/GPa) = 0.01540478
#
# Stress axis : x y z
#
# Youngs Moduli (GPa) = 142.13207 114.04670 89.19669
#
# Poissons Ratio (x) = 0.03083 0.30771
# Poissons Ratio (y) = 0.03842 0.18599
# Poissons Ratio (z) = 0.49032 0.23781
#
# Static dielectric constant tensor:
#      x y z
#    x 2.007330 0.000000 0.000000 
#    y 0.000000 1.916210 0.000000 
#    z 0.000000 0.000000 1.963030 
# 
# From -- ./inp_files/21845.got.cif
#   From: 2010.05.17/outbox.cif.g08.bks.cpg/sg46_11_cif.got.tgz:21845.got - 2010.06.03 19:58:25.
