data_PCOD9380142
_publ_section_title
;
Structure prediction by ZEFSAII (Michael W. Deem and Ramdas Pophale) SiO2 
 PCOD9380142
Probable space group: I M A 2
;
_chemical_formula_sum "Si O2"
_cell_formula_units_Z 64
_cell_length_a 8.477972
_cell_length_b 28.615117
_cell_length_c 12.791738
_cell_angle_alpha 90.000000
_cell_angle_beta 90.000000
_cell_angle_gamma 90.000000
_cell_volume 3103.252111
_symmetry_space_group_name_H-M "I M A 2"
_symmetry_group_IT_number 46
_symmetry_cell_setting 'orthorhombic'
loop_
_space_group_symop_operation_xyz
x,y,z
-x,-y,z
1/2-x,y,z
1/2+x,-y,z
1/2+x,1/2+y,1/2+z
1/2-x,1/2-y,1/2+z
-x,1/2+y,1/2+z
x,1/2-y,1/2+z
loop_
_atom_site_type_symbol
_atom_site_label
_atom_site_fract_x
_atom_site_fract_y
_atom_site_fract_z
Si Si1 0.564258 0.620142 0.618460
Si Si2 0.433738 0.951425 0.277955
Si Si3 0.060076 0.911224 0.715752
Si Si4 0.932052 0.166741 0.454145
Si Si5 0.937812 0.448437 0.441884
Si Si6 0.431568 0.431884 0.995706
Si Si7 0.061412 0.308515 0.161463
Si Si8 0.060880 0.207248 0.243530
O O1 0.750000 0.619689 0.598497
O O2 0.525848 0.590660 0.723328
O O3 0.485357 0.591602 0.524410
O O4 0.516525 0.673309 0.646262
O O5 0.250000 0.946499 0.255338
O O6 0.463697 0.951938 0.402075
O O7 0.500000 0.000000 0.234732
O O8 0.250000 0.911449 0.709708
O O9 0.008110 0.934004 0.825012
O O10 0.992614 0.937782 0.613684
O O11 0.001476 0.857357 0.708535
O O12 0.750000 0.150795 0.459057
O O13 0.047979 0.123309 0.473900
O O14 0.972259 0.199236 0.551880
O O15 0.968877 0.189720 0.344514
O O16 0.750000 0.450993 0.440270
O O17 0.000000 0.500000 0.469594
O O18 0.250000 0.446350 0.985055
O O19 0.250000 0.312586 0.146036
O O20 0.032209 0.261892 0.227120
O O21 0.250000 0.200683 0.259176
#
# Coordination Sequence:
#
# PCOD9380142 Si02
#       8
#     8   8   8   8   8   8   8   8
#     4  11  23  41  64  89 122 163 209 260 313 374
#     4  12  24  39  60  89 122 157 198 247 305 368
#     4  10  22  41  63  90 125 164 208 261 316 376
#     4  11  21  35  58  85 118 158 196 250 310 369
#     4  11  25  44  66  91 125 167 215 267 322 386
#     4  11  21  37  61  88 119 156 198 248 305 369
#     4  10  21  38  61  90 123 164 210 260 312 377
#     4  10  22  39  61  88 121 163 211 258 311 377
#
# _framework density 20.623524
#
# number of rings (size 3 to 8) (size 9 to 14) (size 15 to 20)
#    0.000    1.250    1.250    6.750    0.000    5.000 
#    0.000    5.000    0.000    0.000    0.000    0.000 
#    0.000    0.000    0.000    0.000    0.000    0.000 
#
# Total GULP energy -178801.951635 kJ/mol
# GULP energy per Si atom -5587.560989 kJ/mol
# Density = 2.057658 g / cm^3
# Si number density = 20.623524 Si / 1000 Ang^3
#
#
#
# Elastic Constant Matrix: (Units=GPa)
#
#
# Indices 1 2 3 4 5 6 
#
# 1 48.4365 2.0680 8.6686 -0.0001 0.0001 0.0000
# 2 2.0680 50.1780 3.9130 -0.0005 0.0001 0.0000
# 3 8.6686 3.9130 95.1655 -0.0003 0.0003 0.0001
# 4 -0.0001 -0.0005 -0.0003 27.6068 0.0001 0.0000
# 5 0.0001 0.0001 0.0003 0.0001 32.2814 0.0000
# 6 0.0000 0.0000 0.0001 0.0000 0.0000 19.6601
#
#
#
# Elastic Compliance Matrix: (Units=1/GPa)
#
#
# Indices 1 2 3 4 5 6 
#
# 1 0.021014 -0.000719 -0.001885 0.000000 0.000000 0.000000
# 2 -0.000719 0.020018 -0.000758 0.000000 0.000000 0.000000
# 3 -0.001885 -0.000758 0.010711 0.000000 0.000000 0.000000
# 4 0.000000 0.000000 0.000000 0.036223 0.000000 0.000000
# 5 0.000000 0.000000 0.000000 0.000000 0.030978 0.000000
# 6 0.000000 0.000000 0.000000 0.000000 0.000000 0.050864
#
#
# Mechanical properties :
#
#
# Convention : Reuss Voigt Hill
#
# Bulk Modulus (GPa) = 22.21248 24.78658 23.49953
# Shear Modulus (GPa) = 26.10474 27.85169 26.97822
#
# Velocity S-wave (km/s) = 3.56163 3.67888 3.62073
# Velocity P-wave (km/s) = 5.26379 5.48545 5.37576
#
# Compressibility (1/GPa) = 0.04501975
#
# Stress axis : x y z
#
# Youngs Moduli (GPa) = 47.58830 49.95560 93.36348
#
# Poissons Ratio (x) = 0.03592 0.17595
# Poissons Ratio (y) = 0.03422 0.07073
# Poissons Ratio (z) = 0.08968 0.03785
#
# Static dielectric constant tensor:
#      x y z
#    x 1.701990 0.000000 0.000000 
#    y 0.000000 1.774540 0.000000 
#    z 0.000000 0.000000 1.750930 
# 
# From -- ./inp_files/9758.got.cif
#   From: 2010.05.17/outbox.cif.g08.bks.cpg/sg46_5_cif.got.tgz:9758.got - 2010.06.03 19:58:25.
