data_PCOD9380289
_publ_section_title
;
Structure prediction by ZEFSAII (Michael W. Deem and Ramdas Pophale) SiO2 
 PCOD9380289
Probable space group: I M A 2
;
_chemical_formula_sum "Si O2"
_cell_formula_units_Z 56
_cell_length_a 14.542302
_cell_length_b 5.729316
_cell_length_c 29.240217
_cell_angle_alpha 90.000000
_cell_angle_beta 90.000000
_cell_angle_gamma 90.000000
_cell_volume 2436.220129
_symmetry_space_group_name_H-M "I M A 2"
_symmetry_group_IT_number 46
_symmetry_cell_setting 'orthorhombic'
loop_
_space_group_symop_operation_xyz
x,y,z
-x,-y,z
1/2-x,y,z
1/2+x,-y,z
1/2+x,1/2+y,1/2+z
1/2-x,1/2-y,1/2+z
-x,1/2+y,1/2+z
x,1/2-y,1/2+z
loop_
_atom_site_type_symbol
_atom_site_label
_atom_site_fract_x
_atom_site_fract_y
_atom_site_fract_z
Si Si1 0.350971 0.183451 0.851350
Si Si2 0.141622 0.390560 0.458206
Si Si3 0.855364 0.385468 0.991286
Si Si4 0.500000 0.000000 0.151163
Si Si5 0.152183 0.164188 0.681038
Si Si6 0.402000 0.622330 0.094698
Si Si7 0.899190 0.114617 0.767521
Si Si8 0.000000 0.500000 0.806421
O O1 0.250000 0.302326 0.847734
O O2 0.361135 0.104307 0.903363
O O3 0.439915 0.333695 0.838436
O O4 0.352133 0.979476 0.813501
O O5 0.250000 0.391538 0.472906
O O6 0.101623 0.638745 0.475062
O O7 0.104965 0.138603 0.476071
O O8 0.750000 0.387069 0.973090
O O9 0.854428 0.369031 0.046099
O O10 0.560750 0.821385 0.180504
O O11 0.427738 0.866152 0.118666
O O12 0.250000 0.292647 0.685435
O O13 0.148253 0.030783 0.632837
O O14 0.146759 0.975778 0.721673
O O15 0.500000 0.500000 0.086370
O O16 0.922345 0.383173 0.774631
O O17 0.000000 0.000000 0.766764
#
# Coordination Sequence:
#
# PCOD9380289 Si02
#       8
#     8   8   8   4   8   8   8   4
#     4  10  22  41  66  99 137 181 228 282 347 417
#     4   9  21  39  64  96 134 179 233 292 351 416
#     4  10  21  40  65  95 131 178 234 293 352 420
#     4  10  24  45  66  94 138 176 222 288 345 408
#     4  11  24  42  69 102 134 179 229 276 346 419
#     4  10  23  41  61  93 132 176 223 289 348 412
#     4  10  22  42  64  94 134 171 219 278 337 400
#     4  10  24  43  68 100 132 180 224 286 345 408
#
# _framework density 22.986426999999999
#
# number of rings (size 3 to 8) (size 9 to 14) (size 15 to 20)
#    0.000    2.000    0.000    2.143    6.000    7.429 
#    1.286    0.000    0.000    0.857    0.000    0.000 
#    0.000    0.000    0.000    0.000    0.000    0.000 
#
# Total GULP energy -156313.997877 kJ/mol
# GULP energy per Si atom -5582.642781 kJ/mol
# Density = 2.293411 g / cm^3
# Si number density = 22.986427 Si / 1000 Ang^3
#
#
#
# Elastic Constant Matrix: (Units=GPa)
#
#
# Indices 1 2 3 4 5 6 
#
# 1 92.6651 27.2403 27.4974 0.0000 0.0000 0.0000
# 2 27.2403 131.0163 60.2034 0.0000 0.0000 0.0000
# 3 27.4974 60.2034 143.3770 0.0000 0.0000 0.0000
# 4 0.0000 0.0000 0.0000 26.6955 0.0000 0.0000
# 5 0.0000 0.0000 0.0000 0.0000 24.0062 0.0000
# 6 0.0000 0.0000 0.0000 0.0000 0.0000 13.6680
#
#
#
# Elastic Compliance Matrix: (Units=1/GPa)
#
#
# Indices 1 2 3 4 5 6 
#
# 1 0.011756 -0.001745 -0.001522 0.000000 0.000000 0.000000
# 2 -0.001745 0.009716 -0.003745 0.000000 0.000000 0.000000
# 3 -0.001522 -0.003745 0.008839 0.000000 0.000000 0.000000
# 4 0.000000 0.000000 0.000000 0.037459 0.000000 0.000000
# 5 0.000000 0.000000 0.000000 0.000000 0.041656 0.000000
# 6 0.000000 0.000000 0.000000 0.000000 0.000000 0.073164
#
#
# Mechanical properties :
#
#
# Convention : Reuss Voigt Hill
#
# Bulk Modulus (GPa) = 61.39703 66.32673 63.86188
# Shear Modulus (GPa) = 24.74709 29.68177 27.21443
#
# Velocity S-wave (km/s) = 3.28471 3.59733 3.44457
# Velocity P-wave (km/s) = 6.41513 6.79498 6.60778
#
# Compressibility (1/GPa) = 0.01628743
#
# Stress axis : x y z
#
# Youngs Moduli (GPa) = 85.06209 102.91869 113.13353
#
# Poissons Ratio (x) = 0.17958 0.17218
# Poissons Ratio (y) = 0.14843 0.42371
# Poissons Ratio (z) = 0.12946 0.38545
#
# Static dielectric constant tensor:
#      x y z
#    x 1.905380 0.000000 0.000000 
#    y 0.000000 1.977640 0.000000 
#    z 0.000000 0.000000 1.797650 
# 
# From -- ./inp_files/25418.got.cif
#   From: 2010.05.17/outbox.cif.g08.bks.cpg/sg46_13_cif.got.tgz:25418.got - 2010.06.03 19:58:25.
