data_PCOD9380121
_publ_section_title
;
Structure prediction by ZEFSAII (Michael W. Deem and Ramdas Pophale) SiO2 
 PCOD9380121
Probable space group: I M A 2
;
_chemical_formula_sum "Si O2"
_cell_formula_units_Z 64
_cell_length_a 30.948372
_cell_length_b 8.147467
_cell_length_c 11.773998
_cell_angle_alpha 90.000000
_cell_angle_beta 90.000000
_cell_angle_gamma 90.000000
_cell_volume 2968.823481
_symmetry_space_group_name_H-M "I M A 2"
_symmetry_group_IT_number 46
_symmetry_cell_setting 'orthorhombic'
loop_
_space_group_symop_operation_xyz
x,y,z
-x,-y,z
1/2-x,y,z
1/2+x,-y,z
1/2+x,1/2+y,1/2+z
1/2-x,1/2-y,1/2+z
-x,1/2+y,1/2+z
x,1/2-y,1/2+z
loop_
_atom_site_type_symbol
_atom_site_label
_atom_site_fract_x
_atom_site_fract_y
_atom_site_fract_z
Si Si1 0.376977 0.226724 0.377090
Si Si2 0.458817 0.277576 0.224573
Si Si3 0.701474 0.217861 0.326910
Si Si4 0.929908 0.548728 0.537036
Si Si5 0.119708 0.697521 0.696113
Si Si6 0.952847 0.366505 0.317051
Si Si7 0.299298 0.095406 0.753052
Si Si8 0.662076 0.454193 0.032745
O O1 0.418922 0.206702 0.297471
O O2 0.391766 0.364946 0.466444
O O3 0.335846 0.289211 0.306209
O O4 0.364874 0.069110 0.449507
O O5 0.456675 0.189265 0.103113
O O6 0.505515 0.259632 0.283614
O O7 0.451782 0.475023 0.232122
O O8 0.750000 0.172308 0.294091
O O9 0.665369 0.138857 0.245493
O O10 0.697136 0.414410 0.310936
O O11 0.691617 0.161001 0.454251
O O12 0.908670 0.432048 0.629621
O O13 0.954666 0.441777 0.442671
O O14 0.091192 0.769243 0.798508
O O15 0.131203 0.842838 0.609324
O O16 0.250000 0.153635 0.767802
O O17 0.310185 0.062265 0.620950
#
# Coordination Sequence:
#
# PCOD9380121 Si02
#       8
#     8   8   8   8   8   8   8   8
#     4  11  22  39  61  90 123 163 208 255 308 374
#     4  10  22  40  62  88 122 163 205 250 306 364
#     4  10  21  38  60  85 117 160 210 260 311 372
#     4  11  22  41  65  90 125 166 200 255 314 363
#     4  11  22  39  61  92 125 161 208 257 308 371
#     4  10  23  41  62  93 127 161 207 255 302 369
#     4  10  22  39  58  85 121 159 206 261 313 371
#     4  11  21  38  62  88 120 164 205 257 317 369
#
# _framework density 21.557361
#
# number of rings (size 3 to 8) (size 9 to 14) (size 15 to 20)
#    0.000    1.500    0.000    7.125    0.000    6.000 
#    0.000    0.625    0.000    0.000    0.000    0.000 
#    0.000    0.000    0.000    0.000    0.000    0.000 
#
# Total GULP energy -178896.300355 kJ/mol
# GULP energy per Si atom -5590.509386 kJ/mol
# Density = 2.150830 g / cm^3
# Si number density = 21.557361 Si / 1000 Ang^3
#
#
#
# Elastic Constant Matrix: (Units=GPa)
#
#
# Indices 1 2 3 4 5 6 
#
# 1 158.9319 44.4711 64.1504 0.0000 0.0000 0.0000
# 2 44.4711 36.5664 49.9849 0.0000 0.0000 0.0000
# 3 64.1504 49.9849 120.8046 0.0000 0.0000 0.0000
# 4 0.0000 0.0000 0.0000 42.0036 0.0000 0.0000
# 5 0.0000 0.0000 0.0000 0.0000 15.0035 0.0000
# 6 0.0000 0.0000 0.0000 0.0000 0.0000 11.1613
#
#
#
# Elastic Compliance Matrix: (Units=1/GPa)
#
#
# Indices 1 2 3 4 5 6 
#
# 1 0.009557 -0.010787 -0.000612 0.000000 0.000000 0.000000
# 2 -0.010787 0.075130 -0.025358 0.000000 0.000000 0.000000
# 3 -0.000612 -0.025358 0.019095 0.000000 0.000000 0.000000
# 4 0.000000 0.000000 0.000000 0.023807 0.000000 0.000000
# 5 0.000000 0.000000 0.000000 0.000000 0.066651 0.000000
# 6 0.000000 0.000000 0.000000 0.000000 0.000000 0.089595
#
#
# Mechanical properties :
#
#
# Convention : Reuss Voigt Hill
#
# Bulk Modulus (GPa) = 33.03767 70.39063 51.71415
# Shear Modulus (GPa) = 13.60771 24.14680 18.87725
#
# Velocity S-wave (km/s) = 2.51516 3.35045 2.96239
# Velocity P-wave (km/s) = 4.87785 6.90586 5.97848
#
# Compressibility (1/GPa) = 0.03026848
#
# Stress axis : x y z
#
# Youngs Moduli (GPa) = 104.63208 13.31029 52.36944
#
# Poissons Ratio (x) = 0.14358 0.03205
# Poissons Ratio (y) = 1.12865 1.32799
# Poissons Ratio (z) = 0.06403 0.33752
#
# Static dielectric constant tensor:
#      x y z
#    x 1.784990 0.000000 0.000000 
#    y 0.000000 1.804000 0.000000 
#    z 0.000000 0.000000 1.773650 
# 
# From -- ./inp_files/13217.got.cif
#   From: 2010.05.17/outbox.cif.g08.bks.cpg/sg46_7_cif.got.tgz:13217.got - 2010.06.03 19:58:25.
