data_PCOD9380332
_publ_section_title
;
Structure prediction by ZEFSAII (Michael W. Deem and Ramdas Pophale) SiO2 
 PCOD9380332
Probable space group: I M A 2
;
_chemical_formula_sum "Si O2"
_cell_formula_units_Z 48
_cell_length_a 22.800559
_cell_length_b 9.673216
_cell_length_c 9.797723
_cell_angle_alpha 90.000000
_cell_angle_beta 90.000000
_cell_angle_gamma 90.000000
_cell_volume 2160.934172
_symmetry_space_group_name_H-M "I M A 2"
_symmetry_group_IT_number 46
_symmetry_cell_setting 'orthorhombic'
loop_
_space_group_symop_operation_xyz
x,y,z
-x,-y,z
1/2-x,y,z
1/2+x,-y,z
1/2+x,1/2+y,1/2+z
1/2-x,1/2-y,1/2+z
-x,1/2+y,1/2+z
x,1/2-y,1/2+z
loop_
_atom_site_type_symbol
_atom_site_label
_atom_site_fract_x
_atom_site_fract_y
_atom_site_fract_z
Si Si1 0.574540 0.323153 0.970400
Si Si2 0.126554 0.946538 0.073595
Si Si3 0.104132 0.221242 0.238208
Si Si4 0.945272 0.635144 0.006446
Si Si5 0.685603 0.228861 0.271808
Si Si6 0.682476 0.961856 0.793169
O O1 0.574772 0.477610 0.032931
O O2 0.506347 0.334761 0.926477
O O3 0.629236 0.308325 0.865725
O O4 0.581476 0.181693 0.056595
O O5 0.181613 0.872260 0.143893
O O6 0.108446 0.070994 0.171092
O O7 0.143935 0.008046 0.927904
O O8 0.099570 0.200797 0.399573
O O9 0.157071 0.329494 0.215500
O O10 0.052194 0.294086 0.153458
O O11 0.750000 0.216473 0.339026
O O12 0.680046 0.387490 0.221901
O O13 0.750000 0.936281 0.829413
#
# Coordination Sequence:
#
# PCOD9380332 Si02
#       6
#     8   8   8   8   8   8
#     4  10  24  43  67 100 134 184 226 292 339 415
#     4  11  22  42  71  99 138 181 237 279 354 411
#     4  12  24  45  65 103 134 185 228 288 346 421
#     4  11  25  45  68  99 143 175 237 283 355 414
#     4  10  21  41  69  99 136 182 234 283 343 413
#     4  10  23  43  66  99 141 182 235 294 350 415
#
# _framework density 22.212616000000001
#
# number of rings (size 3 to 8) (size 9 to 14) (size 15 to 20)
#    0.000    1.333    3.333    1.500    2.333    2.667 
#    3.000    0.833    0.000    0.000    0.000    0.000 
#    0.000    0.000    0.000    0.000    0.000    0.000 
#
# Total GULP energy -133611.034879 kJ/mol
# GULP energy per Si atom -5567.126453 kJ/mol
# Density = 2.216206 g / cm^3
# Si number density = 22.212616 Si / 1000 Ang^3
#
#
#
# Elastic Constant Matrix: (Units=GPa)
#
#
# Indices 1 2 3 4 5 6 
#
# 1 84.4183 50.2985 -7.9367 0.0000 0.0000 0.0000
# 2 50.2985 181.9803 35.4748 0.0000 0.0000 0.0000
# 3 -7.9367 35.4748 47.8988 0.0000 0.0000 0.0000
# 4 0.0000 0.0000 0.0000 32.1891 0.0000 0.0000
# 5 0.0000 0.0000 0.0000 0.0000 24.2542 0.0000
# 6 0.0000 0.0000 0.0000 0.0000 0.0000 23.1132
#
#
#
# Elastic Compliance Matrix: (Units=1/GPa)
#
#
# Indices 1 2 3 4 5 6 
#
# 1 0.015915 -0.005742 0.006889 0.000000 0.000000 0.000000
# 2 -0.005742 0.008494 -0.007242 0.000000 0.000000 0.000000
# 3 0.006889 -0.007242 0.027383 0.000000 0.000000 0.000000
# 4 0.000000 0.000000 0.000000 0.031066 0.000000 0.000000
# 5 0.000000 0.000000 0.000000 0.000000 0.041230 0.000000
# 6 0.000000 0.000000 0.000000 0.000000 0.000000 0.043265
#
#
# Mechanical properties :
#
#
# Convention : Reuss Voigt Hill
#
# Bulk Modulus (GPa) = 25.25114 52.21896 38.73505
# Shear Modulus (GPa) = 25.94142 31.67537 28.80839
#
# Velocity S-wave (km/s) = 3.42112 3.78035 3.60521
# Velocity P-wave (km/s) = 5.19596 6.52797 5.89968
#
# Compressibility (1/GPa) = 0.03960217
#
# Stress axis : x y z
#
# Youngs Moduli (GPa) = 62.83561 117.73239 36.51960
#
# Poissons Ratio (x) = 0.67599 -0.25160
# Poissons Ratio (y) = 0.36078 0.26448
# Poissons Ratio (z) = -0.43290 0.85263
#
# Static dielectric constant tensor:
#      x y z
#    x 1.873310 0.000000 0.000000 
#    y 0.000000 1.857730 0.000000 
#    z 0.000000 0.000000 1.884280 
# 
# From -- ./inp_files/12721.got.cif
#   From: 2010.05.17/outbox.cif.g08.bks.cpg/sg46_7_cif.got.tgz:12721.got - 2010.06.03 19:58:25.
