data_PCOD9380152
_publ_section_title
;
Structure prediction by ZEFSAII (Michael W. Deem and Ramdas Pophale) SiO2 
 PCOD9380152
Probable space group: I M A 2
;
_chemical_formula_sum "Si O2"
_cell_formula_units_Z 56
_cell_length_a 10.559877
_cell_length_b 18.730572
_cell_length_c 13.502271
_cell_angle_alpha 90.000000
_cell_angle_beta 90.000000
_cell_angle_gamma 90.000000
_cell_volume 2670.648429
_symmetry_space_group_name_H-M "I M A 2"
_symmetry_group_IT_number 46
_symmetry_cell_setting 'orthorhombic'
loop_
_space_group_symop_operation_xyz
x,y,z
-x,-y,z
1/2-x,y,z
1/2+x,-y,z
1/2+x,1/2+y,1/2+z
1/2-x,1/2-y,1/2+z
-x,1/2+y,1/2+z
x,1/2-y,1/2+z
loop_
_atom_site_type_symbol
_atom_site_label
_atom_site_fract_x
_atom_site_fract_y
_atom_site_fract_z
Si Si1 0.398080 0.142538 0.218260
Si Si2 0.049023 0.576857 0.206268
Si Si3 0.967481 0.814652 0.006868
Si Si4 0.095791 0.938317 0.344262
Si Si5 0.386717 0.554425 0.431524
Si Si6 0.387551 0.828492 0.523450
Si Si7 0.389096 0.295557 0.287298
O O1 0.250000 0.127357 0.250848
O O2 0.398135 0.152090 0.100554
O O3 0.509325 0.088155 0.251236
O O4 0.446691 0.218493 0.263154
O O5 0.116116 0.562815 0.311770
O O6 0.113663 0.617584 0.116016
O O7 0.000000 0.500000 0.172261
O O8 0.944479 0.634285 0.238319
O O9 0.013210 0.735155 0.033688
O O10 0.891943 0.807890 0.904612
O O11 0.080626 0.869045 0.978327
O O12 0.250000 0.953907 0.327872
O O13 0.093125 0.875654 0.425770
O O14 0.000000 0.000000 0.384413
O O15 0.500000 0.500000 0.454323
O O16 0.250000 0.527869 0.465307
O O17 0.250000 0.793287 0.516477
O O18 0.250000 0.287269 0.246458
#
# Coordination Sequence:
#
# PCOD9380152 Si02
#       7
#     8   8   8   8   8   8   8
#     4  11  23  42  67  96 129 172 218 267 324 386
#     4  10  21  38  62  93 130 165 213 259 324 386
#     4  11  22  40  64  97 129 167 216 263 327 384
#     4  11  25  46  69  97 132 175 221 273 329 390
#     4  10  23  41  65  93 127 170 215 268 323 380
#     4  11  22  38  62  93 132 171 216 265 322 390
#     4  10  21  39  62  91 130 169 210 262 317 382
#
# _framework density 20.968691
#
# number of rings (size 3 to 8) (size 9 to 14) (size 15 to 20)
#    0.000    1.429    2.857    2.143    0.000    8.000 
#    0.000    1.429    0.000    0.000    0.000    0.000 
#    0.000    0.000    0.000    0.000    0.000    0.000 
#
# Total GULP energy -155944.215492 kJ/mol
# GULP energy per Si atom -5569.436268 kJ/mol
# Density = 2.092097 g / cm^3
# Si number density = 20.968691 Si / 1000 Ang^3
#
#
#
# Elastic Constant Matrix: (Units=GPa)
#
#
# Indices 1 2 3 4 5 6 
#
# 1 120.8434 53.4725 11.2695 0.0000 0.0001 0.0000
# 2 53.4725 97.8616 11.6526 -0.0002 0.0005 -0.0001
# 3 11.2695 11.6526 78.1600 -0.0002 0.0002 -0.0002
# 4 0.0000 -0.0002 -0.0002 30.6233 0.0002 -0.0001
# 5 0.0001 0.0005 0.0002 0.0002 -615.1586 -0.0008
# 6 0.0000 -0.0001 -0.0002 -0.0001 -0.0008 -14.6331
#
#
#
# Elastic Compliance Matrix: (Units=1/GPa)
#
#
# Indices 1 2 3 4 5 6 
#
# 1 0.010951 -0.005901 -0.000699 0.000000 0.000000 0.000000
# 2 -0.005901 0.013583 -0.001174 0.000000 0.000000 0.000000
# 3 -0.000699 -0.001174 0.013070 0.000000 0.000000 0.000000
# 4 0.000000 0.000000 0.000000 0.032655 0.000000 0.000000
# 5 0.000000 0.000000 0.000000 0.000000 -0.001626 0.000000
# 6 0.000000 0.000000 0.000000 0.000000 0.000000 -0.068338
#
#
# Mechanical properties :
#
#
# Convention : Reuss Voigt Hill
#
# Bulk Modulus (GPa) = 45.33971 49.96156 47.65064
# Shear Modulus (GPa) = 215.56085 -105.13566 55.21260
#
# Velocity S-wave (km/s) = 10.15010 -7.08860 5.13694
# Velocity P-wave (km/s) = 12.61093 6.56652 7.61303
#
# Compressibility (1/GPa) = 0.02205572
#
# Stress axis : x y z
#
# Youngs Moduli (GPa) = 91.31244 73.62404 76.51025
#
# Poissons Ratio (x) = 0.43443 0.05350
# Poissons Ratio (y) = 0.53881 0.08984
# Poissons Ratio (z) = 0.06386 0.08645
#
# Static dielectric constant tensor:
#      x y z
#    x 2.093000 0.000000 0.000000 
#    y 0.000000 1.772630 0.000000 
#    z 0.000000 0.000000 1.748380 
# 
# From -- ./inp_files/15229.got.cif
#   From: 2010.05.17/outbox.cif.g08.bks.cpg/sg46_8_cif.got.tgz:15229.got - 2010.06.03 19:58:25.
