data_PCOD9380942
_publ_section_title
;
Structure prediction by ZEFSAII (Michael W. Deem and Ramdas Pophale) SiO2 
 PCOD9380942
Probable space group: I M A 2
;
_chemical_formula_sum "Si O2"
_cell_formula_units_Z 48
_cell_length_a 10.041294
_cell_length_b 8.328922
_cell_length_c 20.369844
_cell_angle_alpha 90.000000
_cell_angle_beta 90.000000
_cell_angle_gamma 90.000000
_cell_volume 1703.594310
_symmetry_space_group_name_H-M "I M A 2"
_symmetry_group_IT_number 46
_symmetry_cell_setting 'orthorhombic'
loop_
_space_group_symop_operation_xyz
x,y,z
-x,-y,z
1/2-x,y,z
1/2+x,-y,z
1/2+x,1/2+y,1/2+z
1/2-x,1/2-y,1/2+z
-x,1/2+y,1/2+z
x,1/2-y,1/2+z
loop_
_atom_site_type_symbol
_atom_site_label
_atom_site_fract_x
_atom_site_fract_y
_atom_site_fract_z
Si Si1 0.582909 0.865593 0.428360
Si Si2 0.585804 0.623824 0.164751
Si Si3 0.250000 0.872715 0.064681
Si Si4 0.250000 0.630629 0.177898
Si Si5 0.082633 0.128383 0.046124
Si Si6 0.250000 0.685177 0.806869
Si Si7 0.250000 0.875577 0.448202
Si Si8 0.449446 0.121702 0.273747
O O1 0.750000 0.916752 0.438568
O O2 0.585363 0.707517 0.473656
O O3 0.417929 0.919680 0.441170
O O4 0.580780 0.824340 0.350017
O O5 0.750000 0.572065 0.160003
O O6 0.417053 0.584856 0.169225
O O7 0.578577 0.723378 0.097344
O O8 0.594597 0.729779 0.231389
O O9 0.250000 0.713424 0.017326
O O10 0.250000 0.798858 0.137927
O O11 0.414837 0.920446 0.050878
O O12 0.250000 0.674351 0.255715
O O13 0.250000 0.082683 0.058634
O O14 0.250000 0.733961 0.881553
O O15 0.381031 0.573092 0.793251
O O16 0.500000 0.000000 0.210696
#
# Coordination Sequence:
#
# PCOD9380942 Si02
#       8
#     8   8   4   4   8   4   4   8
#     4  11  23  43  71 101 138 184 228 279 345 420
#     4  12  25  45  69 102 139 185 235 284 351 414
#     4  12  28  46  67 103 140 184 231 291 348 406
#     4  12  27  46  72  97 141 188 229 292 341 419
#     4  12  26  43  70 101 139 180 228 291 340 409
#     4  12  24  45  72 101 136 182 227 286 347 408
#     4  12  23  45  73  97 139 184 227 279 342 419
#     4  11  25  44  73 104 139 180 232 285 347 419
#
# _framework density 28.175722
#
# number of rings (size 3 to 8) (size 9 to 14) (size 15 to 20)
#    0.000    0.333    5.000    5.000    2.333    3.333 
#    0.000    0.000    0.000    0.000    0.000    0.000 
#    0.000    0.000    0.000    0.000    0.000    0.000 
#
# Total GULP energy -133636.959254 kJ/mol
# GULP energy per Si atom -5568.206636 kJ/mol
# Density = 2.811159 g / cm^3
# Si number density = 28.175722 Si / 1000 Ang^3
#
#
#
# Elastic Constant Matrix: (Units=GPa)
#
#
# Indices 1 2 3 4 5 6 
#
# 1 283.7793 79.6531 -3.5201 0.0000 0.0000 0.0000
# 2 79.6531 163.6041 94.3291 0.0000 0.0000 0.0000
# 3 -3.5201 94.3291 122.7101 0.0000 0.0000 0.0000
# 4 0.0000 0.0000 0.0000 -133.2380 0.0000 0.0000
# 5 0.0000 0.0000 0.0000 0.0000 37.0087 0.0000
# 6 0.0000 0.0000 0.0000 0.0000 0.0000 91.4401
#
#
#
# Elastic Compliance Matrix: (Units=1/GPa)
#
#
# Indices 1 2 3 4 5 6 
#
# 1 0.004780 -0.004322 0.003459 0.000000 0.000000 0.000000
# 2 -0.004322 0.014885 -0.011566 0.000000 0.000000 0.000000
# 3 0.003459 -0.011566 0.017140 0.000000 0.000000 0.000000
# 4 0.000000 0.000000 0.000000 -0.007505 0.000000 0.000000
# 5 0.000000 0.000000 0.000000 0.000000 0.027021 0.000000
# 6 0.000000 0.000000 0.000000 0.000000 0.000000 0.010936
#
#
# Mechanical properties :
#
#
# Convention : Reuss Voigt Hill
#
# Bulk Modulus (GPa) = 83.70225 101.22419 92.46322
# Shear Modulus (GPa) = 52.03125 25.68426 38.85775
#
# Velocity S-wave (km/s) = 4.30195 3.02250 3.71768
# Velocity P-wave (km/s) = 7.37885 6.94152 7.16352
#
# Compressibility (1/GPa) = 0.01194711
#
# Stress axis : x y z
#
# Youngs Moduli (GPa) = 209.21491 67.18102 58.34378
#
# Poissons Ratio (x) = 0.29033 -0.20182
# Poissons Ratio (y) = 0.90413 0.67483
# Poissons Ratio (z) = -0.72371 0.77704
#
# Static dielectric constant tensor:
#      x y z
#    x 2.512790 0.000000 0.000000 
#    y 0.000000 2.128750 0.000000 
#    z 0.000000 0.000000 1.856710 
# 
# From -- ./inp_files/14316.got.cif
#   From: 2010.05.17/outbox.cif.g08.bks.cpg/sg46_8_cif.got.tgz:14316.got - 2010.06.03 19:58:25.
