data_PCOD9380954
_publ_section_title
;
Structure prediction by ZEFSAII (Michael W. Deem and Ramdas Pophale) SiO2 
 PCOD9380954
Probable space group: I M A 2
;
_chemical_formula_sum "Si O2"
_cell_formula_units_Z 48
_cell_length_a 24.617515
_cell_length_b 4.851085
_cell_length_c 14.230311
_cell_angle_alpha 90.000000
_cell_angle_beta 90.000000
_cell_angle_gamma 90.000000
_cell_volume 1699.407330
_symmetry_space_group_name_H-M "I M A 2"
_symmetry_group_IT_number 46
_symmetry_cell_setting 'orthorhombic'
loop_
_space_group_symop_operation_xyz
x,y,z
-x,-y,z
1/2-x,y,z
1/2+x,-y,z
1/2+x,1/2+y,1/2+z
1/2-x,1/2-y,1/2+z
-x,1/2+y,1/2+z
x,1/2-y,1/2+z
loop_
_atom_site_type_symbol
_atom_site_label
_atom_site_fract_x
_atom_site_fract_y
_atom_site_fract_z
Si Si1 0.500000 0.500000 0.506640
Si Si2 0.055292 0.122513 0.663192
Si Si3 0.250000 0.450759 0.314070
Si Si4 0.661904 0.741296 0.451519
Si Si5 0.250000 0.846511 0.488949
Si Si6 0.600275 0.242911 0.419259
Si Si7 0.250000 0.033523 0.159944
Si Si8 0.872659 0.355209 0.709799
O O1 0.469934 0.284239 0.574953
O O2 0.541001 0.335743 0.441998
O O3 0.109477 0.077043 0.434400
O O4 0.093697 0.358651 0.707918
O O5 0.000000 0.000000 0.711640
O O6 0.302368 0.302802 0.358813
O O7 0.250000 0.734288 0.379235
O O8 0.250000 0.342792 0.205983
O O9 0.640256 0.443814 0.479164
O O10 0.618085 0.280713 0.311680
O O11 0.300150 0.051543 0.509502
O O12 0.250000 0.570959 0.551418
O O13 0.595122 0.135984 0.644183
O O14 0.308287 0.903308 0.193510
#
# Coordination Sequence:
#
# PCOD9380954 Si02
#       8
#     4   8   4   8   4   8   4   8
#     4  12  32  50  90 120 172 222 304 370 478 522
#     4  12  28  57  83 121 177 229 292 390 438 524
#     4  11  23  54  78 117 182 231 294 369 424 544
#     4  11  25  49  79 114 171 217 286 363 431 522
#     4  11  27  47  82 131 169 249 300 361 450 547
#     4  12  28  50  84 123 160 234 287 366 457 537
#     4  12  30  53  88 136 183 254 300 358 486 565
#     4  12  29  55  87 127 184 231 303 371 454 559
#
# _framework density 28.245142000000001
#
# number of rings (size 3 to 8) (size 9 to 14) (size 15 to 20)
#    0.000    0.333    5.000    1.000    8.167    2.000 
#    6.000    0.000    0.000    0.000    0.000    0.000 
#    0.000    0.000    0.000    0.000    0.000    0.000 
#
# Total GULP energy -134353.053229 kJ/mol
# GULP energy per Si atom -5598.043885 kJ/mol
# Density = 2.818085 g / cm^3
# Si number density = 28.245142 Si / 1000 Ang^3
#
#
#
# Elastic Constant Matrix: (Units=GPa)
#
#
# Indices 1 2 3 4 5 6 
#
# 1 236.8202 86.9330 63.5395 0.0000 0.0000 0.0000
# 2 86.9330 221.9718 48.8380 0.0000 0.0000 0.0000
# 3 63.5395 48.8380 107.6794 0.0000 0.0000 0.0000
# 4 0.0000 0.0000 0.0000 34.4355 0.0000 0.0000
# 5 0.0000 0.0000 0.0000 0.0000 39.7996 0.0000
# 6 0.0000 0.0000 0.0000 0.0000 0.0000 67.9892
#
#
#
# Elastic Compliance Matrix: (Units=1/GPa)
#
#
# Indices 1 2 3 4 5 6 
#
# 1 0.005482 -0.001594 -0.002512 0.000000 0.000000 0.000000
# 2 -0.001594 0.005468 -0.001539 0.000000 0.000000 0.000000
# 3 -0.002512 -0.001539 0.011467 0.000000 0.000000 0.000000
# 4 0.000000 0.000000 0.000000 0.029040 0.000000 0.000000
# 5 0.000000 0.000000 0.000000 0.000000 0.025126 0.000000
# 6 0.000000 0.000000 0.000000 0.000000 0.000000 0.014708
#
#
# Mechanical properties :
#
#
# Convention : Reuss Voigt Hill
#
# Bulk Modulus (GPa) = 89.87520 107.23248 98.55384
# Shear Modulus (GPa) = 47.04117 52.92226 49.98172
#
# Velocity S-wave (km/s) = 4.08543 4.33329 4.21119
# Velocity P-wave (km/s) = 7.35820 7.94254 7.65595
#
# Compressibility (1/GPa) = 0.01112654
#
# Stress axis : x y z
#
# Youngs Moduli (GPa) = 182.42510 182.87774 87.20659
#
# Poissons Ratio (x) = 0.29155 0.21903
# Poissons Ratio (y) = 0.29083 0.13424
# Poissons Ratio (z) = 0.45817 0.28151
#
# Static dielectric constant tensor:
#      x y z
#    x 2.217960 0.000000 0.000000 
#    y 0.000000 2.134130 0.000000 
#    z 0.000000 0.000000 2.324230 
# 
# From -- ./inp_files/17320.got.cif
#   From: 2010.05.17/outbox.cif.g08.bks.cpg/sg46_9_cif.got.tgz:17320.got - 2010.06.03 19:58:25.
