data_PCOD9380454
_publ_section_title
;
Structure prediction by ZEFSAII (Michael W. Deem and Ramdas Pophale) SiO2 
 PCOD9380454
Probable space group: I M A 2
;
_chemical_formula_sum "Si O2"
_cell_formula_units_Z 56
_cell_length_a 14.381103
_cell_length_b 5.658850
_cell_length_c 29.648007
_cell_angle_alpha 90.000000
_cell_angle_beta 90.000000
_cell_angle_gamma 90.000000
_cell_volume 2412.769773
_symmetry_space_group_name_H-M "I M A 2"
_symmetry_group_IT_number 46
_symmetry_cell_setting 'orthorhombic'
loop_
_space_group_symop_operation_xyz
x,y,z
-x,-y,z
1/2-x,y,z
1/2+x,-y,z
1/2+x,1/2+y,1/2+z
1/2-x,1/2-y,1/2+z
-x,1/2+y,1/2+z
x,1/2-y,1/2+z
loop_
_atom_site_type_symbol
_atom_site_label
_atom_site_fract_x
_atom_site_fract_y
_atom_site_fract_z
Si Si1 0.352787 0.168581 0.851350
Si Si2 0.139428 0.434140 0.454326
Si Si3 0.862834 0.431635 0.994815
Si Si4 0.500000 0.000000 0.149640
Si Si5 0.150542 0.163526 0.680805
Si Si6 0.355550 0.677674 0.097083
Si Si7 0.898576 0.118545 0.765722
Si Si8 0.000000 0.500000 0.807776
O O1 0.250000 0.287625 0.852972
O O2 0.369154 0.059844 0.900357
O O3 0.440866 0.328880 0.839466
O O4 0.350438 0.983204 0.810341
O O5 0.250000 0.433188 0.464984
O O6 0.103042 0.682289 0.473960
O O7 0.104442 0.180483 0.473356
O O8 0.750000 0.432337 0.989262
O O9 0.882463 0.416851 0.048053
O O10 0.561077 0.828070 0.180650
O O11 0.427904 0.861307 0.117903
O O12 0.250000 0.291146 0.685747
O O13 0.147388 0.035298 0.632692
O O14 0.146269 0.964769 0.719530
O O15 0.250000 0.777405 0.093924
O O16 0.921004 0.388240 0.775762
O O17 0.000000 0.000000 0.765044
#
# Coordination Sequence:
#
# PCOD9380454 Si02
#       8
#     8   8   8   4   8   8   8   4
#     4  10  22  39  65 100 137 181 228 282 348 417
#     4   9  19  36  63  97 135 182 236 291 353 420
#     4   9  19  37  63  96 134 181 237 293 351 422
#     4  12  24  43  68  96 136 176 224 284 347 414
#     4  11  25  44  69 101 135 177 228 279 343 418
#     4  10  23  41  66  97 133 179 229 286 349 418
#     4  10  22  42  65  94 132 172 219 277 337 401
#     4  10  24  43  68  98 134 178 226 286 345 404
#
# _framework density 23.209838999999999
#
# number of rings (size 3 to 8) (size 9 to 14) (size 15 to 20)
#    0.000    2.000    0.000    2.143    4.000    6.286 
#    0.000    2.857    0.000    0.857    0.000    0.000 
#    0.000    0.000    0.000    0.000    0.000    0.000 
#
# Total GULP energy -156466.177729 kJ/mol
# GULP energy per Si atom -5588.077776 kJ/mol
# Density = 2.315701 g / cm^3
# Si number density = 23.209839 Si / 1000 Ang^3
#
#
#
# Elastic Constant Matrix: (Units=GPa)
#
#
# Indices 1 2 3 4 5 6 
#
# 1 115.2718 50.0767 33.7254 0.0000 0.0000 0.0000
# 2 50.0767 96.6647 70.8575 0.0000 0.0000 0.0000
# 3 33.7254 70.8575 166.4313 0.0000 0.0000 0.0000
# 4 0.0000 0.0000 0.0000 27.9780 0.0000 0.0000
# 5 0.0000 0.0000 0.0000 0.0000 27.0458 0.0000
# 6 0.0000 0.0000 0.0000 0.0000 0.0000 12.0146
#
#
#
# Elastic Compliance Matrix: (Units=1/GPa)
#
#
# Indices 1 2 3 4 5 6 
#
# 1 0.011204 -0.006018 0.000292 0.000000 0.000000 0.000000
# 2 -0.006018 0.018271 -0.006559 0.000000 0.000000 0.000000
# 3 0.000292 -0.006559 0.008742 0.000000 0.000000 0.000000
# 4 0.000000 0.000000 0.000000 0.035742 0.000000 0.000000
# 5 0.000000 0.000000 0.000000 0.000000 0.036974 0.000000
# 6 0.000000 0.000000 0.000000 0.000000 0.000000 0.083232
#
#
# Mechanical properties :
#
#
# Convention : Reuss Voigt Hill
#
# Bulk Modulus (GPa) = 73.28292 76.40967 74.84630
# Shear Modulus (GPa) = 22.39285 28.32156 25.35721
#
# Velocity S-wave (km/s) = 3.10949 3.49698 3.30891
# Velocity P-wave (km/s) = 6.67342 7.02125 6.84954
#
# Compressibility (1/GPa) = 0.01364574
#
# Stress axis : x y z
#
# Youngs Moduli (GPa) = 89.25208 54.73217 114.39160
#
# Poissons Ratio (x) = 0.32939 -0.03338
# Poissons Ratio (y) = 0.53714 0.75032
# Poissons Ratio (z) = -0.02605 0.35900
#
# Static dielectric constant tensor:
#      x y z
#    x 1.909890 0.000000 0.000000 
#    y 0.000000 1.949700 0.000000 
#    z 0.000000 0.000000 1.817440 
# 
# From -- ./inp_files/25417.got.cif
#   From: 2010.05.17/outbox.cif.g08.bks.cpg/sg46_13_cif.got.tgz:25417.got - 2010.06.03 19:58:25.
