data_PCOD9380472
_publ_section_title
;
Structure prediction by ZEFSAII (Michael W. Deem and Ramdas Pophale) SiO2 
 PCOD9380472
Probable space group: I M A 2
;
_chemical_formula_sum "Si O2"
_cell_formula_units_Z 48
_cell_length_a 8.703502
_cell_length_b 14.066811
_cell_length_c 19.062798
_cell_angle_alpha 90.000000
_cell_angle_beta 90.000000
_cell_angle_gamma 90.000000
_cell_volume 2333.868227
_symmetry_space_group_name_H-M "I M A 2"
_symmetry_group_IT_number 46
_symmetry_cell_setting 'orthorhombic'
loop_
_space_group_symop_operation_xyz
x,y,z
-x,-y,z
1/2-x,y,z
1/2+x,-y,z
1/2+x,1/2+y,1/2+z
1/2-x,1/2-y,1/2+z
-x,1/2+y,1/2+z
x,1/2-y,1/2+z
loop_
_atom_site_type_symbol
_atom_site_label
_atom_site_fract_x
_atom_site_fract_y
_atom_site_fract_z
Si Si1 0.068291 0.605171 0.291490
Si Si2 0.932541 0.698108 0.431162
Si Si3 0.067016 0.599988 0.561823
Si Si4 0.568597 0.236019 0.189528
Si Si5 0.928475 0.909467 0.289270
Si Si6 0.569065 0.099849 0.441927
O O1 0.250000 0.600003 0.303701
O O2 0.044951 0.656035 0.215517
O O3 0.000000 0.500000 0.293399
O O4 0.999813 0.668479 0.355277
O O5 0.750000 0.702760 0.425089
O O6 0.986868 0.621483 0.487906
O O7 0.993186 0.799565 0.460596
O O8 0.250000 0.591270 0.553032
O O9 0.039614 0.690100 0.613585
O O10 0.000000 0.500000 0.588955
O O11 0.750000 0.215071 0.204817
O O12 0.456929 0.178963 0.240605
O O13 0.750000 0.920873 0.307633
O O14 0.030846 0.901834 0.358866
O O15 0.000000 0.000000 0.250626
O O16 0.750000 0.102392 0.454904
O O17 0.500000 0.000000 0.470041
#
# Coordination Sequence:
#
# PCOD9380472 Si02
#       6
#     8   8   8   8   8   8
#     4  11  23  41  65  93 125 164 210 265 318 381
#     4  12  24  41  64  94 128 169 214 263 317 380
#     4  11  24  43  65  93 127 169 212 262 320 384
#     4  10  22  40  62  88 122 162 208 258 316 374
#     4  11  20  31  53  84 120 157 197 245 302 361
#     4  11  21  36  58  88 124 161 204 255 309 368
#
# _framework density 20.566713
#
# number of rings (size 3 to 8) (size 9 to 14) (size 15 to 20)
#    0.000    1.000    1.667    7.500    0.000    3.333 
#    0.000    0.833    0.000    2.000    0.000    0.000 
#    0.000    0.000    0.000    0.000    0.000    0.000 
#
# Total GULP energy -133937.325924 kJ/mol
# GULP energy per Si atom -5580.721913 kJ/mol
# Density = 2.051990 g / cm^3
# Si number density = 20.566713 Si / 1000 Ang^3
#
#
#
# Elastic Constant Matrix: (Units=GPa)
#
#
# Indices 1 2 3 4 5 6 
#
# 1 112.6360 52.4482 25.6338 0.0000 0.0000 0.0000
# 2 52.4482 130.5902 30.0665 0.0000 0.0000 0.0000
# 3 25.6338 30.0665 65.8562 0.0000 0.0000 0.0000
# 4 0.0000 0.0000 0.0000 26.6767 0.0000 0.0000
# 5 0.0000 0.0000 0.0000 0.0000 10.7334 0.0000
# 6 0.0000 0.0000 0.0000 0.0000 0.0000 34.6912
#
#
#
# Elastic Compliance Matrix: (Units=1/GPa)
#
#
# Indices 1 2 3 4 5 6 
#
# 1 0.011306 -0.003942 -0.002601 0.000000 0.000000 0.000000
# 2 -0.003942 0.009931 -0.003000 0.000000 0.000000 0.000000
# 3 -0.002601 -0.003000 0.017567 0.000000 0.000000 0.000000
# 4 0.000000 0.000000 0.000000 0.037486 0.000000 0.000000
# 5 0.000000 0.000000 0.000000 0.000000 0.093167 0.000000
# 6 0.000000 0.000000 0.000000 0.000000 0.000000 0.028826
#
#
# Mechanical properties :
#
#
# Convention : Reuss Voigt Hill
#
# Bulk Modulus (GPa) = 50.71424 58.37549 54.54487
# Shear Modulus (GPa) = 22.32738 27.81584 25.07161
#
# Velocity S-wave (km/s) = 3.29843 3.68158 3.49526
# Velocity P-wave (km/s) = 6.26244 6.82035 6.54734
#
# Compressibility (1/GPa) = 0.01971833
#
# Stress axis : x y z
#
# Youngs Moduli (GPa) = 88.45228 100.69167 56.92630
#
# Poissons Ratio (x) = 0.39690 0.14806
# Poissons Ratio (y) = 0.34866 0.17077
# Poissons Ratio (z) = 0.23006 0.30206
#
# Static dielectric constant tensor:
#      x y z
#    x 1.688350 0.000000 0.000000 
#    y 0.000000 1.503780 0.000000 
#    z 0.000000 0.000000 1.746110 
# 
# From -- ./inp_files/20926.got.cif
#   From: 2010.05.17/outbox.cif.g08.bks.cpg/sg46_11_cif.got.tgz:20926.got - 2010.06.03 19:58:25.
