data_PCOD9380788
_publ_section_title
;
Structure prediction by ZEFSAII (Michael W. Deem and Ramdas Pophale) SiO2 
 PCOD9380788
Probable space group: I M A 2
;
_chemical_formula_sum "Si O2"
_cell_formula_units_Z 32
_cell_length_a 9.381326
_cell_length_b 11.587020
_cell_length_c 12.024092
_cell_angle_alpha 90.000000
_cell_angle_beta 90.000000
_cell_angle_gamma 90.000000
_cell_volume 1307.038183
_symmetry_space_group_name_H-M "I M A 2"
_symmetry_group_IT_number 46
_symmetry_cell_setting 'orthorhombic'
loop_
_space_group_symop_operation_xyz
x,y,z
-x,-y,z
1/2-x,y,z
1/2+x,-y,z
1/2+x,1/2+y,1/2+z
1/2-x,1/2-y,1/2+z
-x,1/2+y,1/2+z
x,1/2-y,1/2+z
loop_
_atom_site_type_symbol
_atom_site_label
_atom_site_fract_x
_atom_site_fract_y
_atom_site_fract_z
Si Si1 0.482128 0.138183 0.082250
Si Si2 0.750000 0.812803 0.263239
Si Si3 0.750000 0.951818 0.495475
Si Si4 0.250000 0.118093 0.907887
Si Si5 0.750000 0.109144 0.792975
Si Si6 0.500000 0.500000 0.147473
Si Si7 0.750000 0.230155 0.489685
O O1 0.389892 0.163515 0.191220
O O2 0.500000 0.000000 0.084745
O O3 0.384960 0.159480 0.974881
O O4 0.619138 0.214602 0.058242
O O5 0.750000 0.677669 0.290210
O O6 0.750000 0.886890 0.377427
O O7 0.750000 0.091784 0.485201
O O8 0.607122 0.928482 0.567305
O O9 0.250000 0.982486 0.894255
O O10 0.750000 0.227542 0.860658
O O11 0.607688 0.076662 0.723273
#
# Coordination Sequence:
#
# PCOD9380788 Si02
#       7
#     8   4   4   4   4   4   4
#     4  11  24  49  72 113 142 192 246 305 355 443
#     4  11  29  47  75 100 157 202 234 285 385 438
#     4  11  29  51  67 108 154 196 235 310 362 443
#     4  11  24  44  76 103 147 191 247 291 364 439
#     4  11  21  47  78 106 137 197 243 314 359 423
#     4  10  26  48  70 102 150 188 250 290 370 440
#     4  12  25  47  80 113 149 178 255 318 354 421
#
# _framework density 24.482832999999999
#
# number of rings (size 3 to 8) (size 9 to 14) (size 15 to 20)
#    0.000    1.000    2.500    2.250    8.750    2.000 
#    9.000    0.000    0.000    0.000    0.000    0.000 
#    0.000    0.000    0.000    0.000    0.000    0.000 
#
# Total GULP energy -89653.153245 kJ/mol
# GULP energy per Si atom -5603.322078 kJ/mol
# Density = 2.442711 g / cm^3
# Si number density = 24.482833 Si / 1000 Ang^3
#
#
#
# Elastic Constant Matrix: (Units=GPa)
#
#
# Indices 1 2 3 4 5 6 
#
# 1 170.5864 26.9516 60.1453 0.0000 0.0000 0.0000
# 2 26.9516 127.3591 29.2678 0.0000 0.0000 0.0000
# 3 60.1453 29.2678 144.8388 0.0000 0.0000 0.0000
# 4 0.0000 0.0000 0.0000 53.9008 0.0000 0.0000
# 5 0.0000 0.0000 0.0000 0.0000 50.8493 0.0000
# 6 0.0000 0.0000 0.0000 0.0000 0.0000 32.9723
#
#
#
# Elastic Compliance Matrix: (Units=1/GPa)
#
#
# Indices 1 2 3 4 5 6 
#
# 1 0.006954 -0.000847 -0.002716 0.000000 0.000000 0.000000
# 2 -0.000847 0.008337 -0.001333 0.000000 0.000000 0.000000
# 3 -0.002716 -0.001333 0.008302 0.000000 0.000000 0.000000
# 4 0.000000 0.000000 0.000000 0.018553 0.000000 0.000000
# 5 0.000000 0.000000 0.000000 0.000000 0.019666 0.000000
# 6 0.000000 0.000000 0.000000 0.000000 0.000000 0.030328
#
#
# Mechanical properties :
#
#
# Convention : Reuss Voigt Hill
#
# Bulk Modulus (GPa) = 72.46607 75.05707 73.76157
# Shear Modulus (GPa) = 46.93390 49.30579 48.11984
#
# Velocity S-wave (km/s) = 4.38312 4.49251 4.43815
# Velocity P-wave (km/s) = 7.43496 7.59169 7.51373
#
# Compressibility (1/GPa) = 0.01379956
#
# Stress axis : x y z
#
# Youngs Moduli (GPa) = 143.80749 119.94104 120.45929
#
# Poissons Ratio (x) = 0.10163 0.32721
# Poissons Ratio (y) = 0.12185 0.16056
# Poissons Ratio (z) = 0.39063 0.15987
#
# Static dielectric constant tensor:
#      x y z
#    x 1.913440 0.000000 0.000000 
#    y 0.000000 1.937800 0.000000 
#    z 0.000000 0.000000 1.919860 
# 
# From -- ./inp_files/8943.got.cif
#   From: 2010.05.17/outbox.cif.g08.bks.cpg/sg46_5_cif.got.tgz:8943.got - 2010.06.03 19:58:25.
