data_PCOD9380416
_publ_section_title
;
Structure prediction by ZEFSAII (Michael W. Deem and Ramdas Pophale) SiO2 
 PCOD9380416
Probable space group: I M A 2
;
_chemical_formula_sum "Si O2"
_cell_formula_units_Z 64
_cell_length_a 30.042883
_cell_length_b 16.667394
_cell_length_c 5.410068
_cell_angle_alpha 90.000000
_cell_angle_beta 90.000000
_cell_angle_gamma 90.000000
_cell_volume 2709.018882
_symmetry_space_group_name_H-M "I M A 2"
_symmetry_group_IT_number 46
_symmetry_cell_setting 'orthorhombic'
loop_
_space_group_symop_operation_xyz
x,y,z
-x,-y,z
1/2-x,y,z
1/2+x,-y,z
1/2+x,1/2+y,1/2+z
1/2-x,1/2-y,1/2+z
-x,1/2+y,1/2+z
x,1/2-y,1/2+z
loop_
_atom_site_type_symbol
_atom_site_label
_atom_site_fract_x
_atom_site_fract_y
_atom_site_fract_z
Si Si1 0.198561 0.782624 0.541770
Si Si2 0.119353 0.973496 0.173150
Si Si3 0.201768 0.940333 0.852226
Si Si4 0.413424 0.097413 0.799931
Si Si5 0.042346 0.951448 0.498429
Si Si6 0.999616 0.199901 0.766716
Si Si7 0.301063 0.280663 0.743505
Si Si8 0.173055 0.072938 0.536248
O O1 0.250000 0.755327 0.507122
O O2 0.178214 0.767446 0.271753
O O3 0.200587 0.872775 0.640284
O O4 0.100624 0.057856 0.060610
O O5 0.154049 0.933134 0.986576
O O6 0.151279 0.999290 0.393476
O O7 0.077174 0.927357 0.285073
O O8 0.250000 0.929314 0.985737
O O9 0.201438 0.030658 0.746740
O O10 0.449551 0.167126 0.787474
O O11 0.368780 0.118349 0.654284
O O12 0.434372 0.019653 0.663384
O O13 0.027795 0.878540 0.674823
O O14 0.000000 0.000000 0.388414
O O15 0.991779 0.237935 0.038619
O O16 0.250000 0.252875 0.710613
O O17 0.320987 0.269290 0.472912
O O18 0.302621 0.370530 0.844143
#
# Coordination Sequence:
#
# PCOD9380416 Si02
#       8
#     8   8   8   8   8   8   8   8
#     4   9  19  36  58  85 120 164 215 269 334 399
#     4  10  22  40  68  96 130 174 243 275 352 409
#     4  10  22  38  62  96 133 177 232 294 343 408
#     4   9  22  41  64  91 131 176 221 272 335 415
#     4   9  21  42  69  94 130 183 220 277 339 427
#     4  11  26  42  68 108 139 173 223 280 347 409
#     4  10  23  40  58  83 121 168 214 265 333 400
#     4  10  22  39  60  91 122 173 227 285 332 398
#
# _framework density 23.624790999999998
#
# number of rings (size 3 to 8) (size 9 to 14) (size 15 to 20)
#    0.000    2.250    0.000    0.375   12.250    2.500 
#    0.000    1.250    0.000    0.000    0.000    0.000 
#    0.000    0.000    0.000    0.000    0.000    0.000 
#
# Total GULP energy -178472.539904 kJ/mol
# GULP energy per Si atom -5577.266872 kJ/mol
# Density = 2.357102 g / cm^3
# Si number density = 23.624791 Si / 1000 Ang^3
#
#
#
# Elastic Constant Matrix: (Units=GPa)
#
#
# Indices 1 2 3 4 5 6 
#
# 1 82.9553 34.6736 39.8167 0.0000 0.0000 0.0000
# 2 34.6736 65.9454 14.6176 0.0000 0.0000 0.0000
# 3 39.8167 14.6176 96.7279 0.0000 0.0000 0.0000
# 4 0.0000 0.0000 0.0000 43.6329 0.0000 0.0000
# 5 0.0000 0.0000 0.0000 0.0000 30.4505 0.0000
# 6 0.0000 0.0000 0.0000 0.0000 0.0000 26.6202
#
#
#
# Elastic Compliance Matrix: (Units=1/GPa)
#
#
# Indices 1 2 3 4 5 6 
#
# 1 0.018629 -0.008376 -0.006402 0.000000 0.000000 0.000000
# 2 -0.008376 0.019455 0.000508 0.000000 0.000000 0.000000
# 3 -0.006402 0.000508 0.012897 0.000000 0.000000 0.000000
# 4 0.000000 0.000000 0.000000 0.022918 0.000000 0.000000
# 5 0.000000 0.000000 0.000000 0.000000 0.032840 0.000000
# 6 0.000000 0.000000 0.000000 0.000000 0.000000 0.037565
#
#
# Mechanical properties :
#
#
# Convention : Reuss Voigt Hill
#
# Bulk Modulus (GPa) = 44.56315 47.09382 45.82848
# Shear Modulus (GPa) = 27.72757 30.57544 29.15150
#
# Velocity S-wave (km/s) = 3.42959 3.60142 3.51655
# Velocity P-wave (km/s) = 5.88104 6.10499 5.99406
#
# Compressibility (1/GPa) = 0.02244007
#
# Stress axis : x y z
#
# Youngs Moduli (GPa) = 53.68115 51.39974 77.53711
#
# Poissons Ratio (x) = 0.43050 0.49643
# Poissons Ratio (y) = 0.44961 -0.03936
# Poissons Ratio (z) = 0.34369 -0.02609
#
# Static dielectric constant tensor:
#      x y z
#    x 1.917190 0.000000 0.000000 
#    y 0.000000 1.911750 0.000000 
#    z 0.000000 0.000000 1.988280 
# 
# From -- ./inp_files/2768.got.cif
#   From: 2010.05.17/outbox.cif.g08.bks.cpg/sg46_2_cif.got.tgz:2768.got - 2010.06.03 19:58:25.
