data_PCOD9380435
_publ_section_title
;
Structure prediction by ZEFSAII (Michael W. Deem and Ramdas Pophale) SiO2 
 PCOD9380435
Probable space group: I M A 2
;
_chemical_formula_sum "Si O2"
_cell_formula_units_Z 44
_cell_length_a 13.738700
_cell_length_b 11.245070
_cell_length_c 13.399707
_cell_angle_alpha 90.000000
_cell_angle_beta 90.000000
_cell_angle_gamma 90.000000
_cell_volume 2070.156153
_symmetry_space_group_name_H-M "I M A 2"
_symmetry_group_IT_number 46
_symmetry_cell_setting 'orthorhombic'
loop_
_space_group_symop_operation_xyz
x,y,z
-x,-y,z
1/2-x,y,z
1/2+x,-y,z
1/2+x,1/2+y,1/2+z
1/2-x,1/2-y,1/2+z
-x,1/2+y,1/2+z
x,1/2-y,1/2+z
loop_
_atom_site_type_symbol
_atom_site_label
_atom_site_fract_x
_atom_site_fract_y
_atom_site_fract_z
Si Si1 0.250000 0.891083 0.358920
Si Si2 0.750000 0.647641 0.790097
Si Si3 0.750000 0.231861 0.570623
Si Si4 0.250000 0.498420 0.500113
Si Si5 0.091322 0.142835 0.117033
Si Si6 0.587006 0.281995 0.715792
Si Si7 0.560319 0.609126 0.165651
Si Si8 0.250000 0.079856 0.788808
O O1 0.250000 0.839211 0.469056
O O2 0.155524 0.842903 0.297311
O O3 0.250000 0.033921 0.360602
O O4 0.657451 0.634410 0.716473
O O5 0.750000 0.782689 0.828729
O O6 0.750000 0.372639 0.548336
O O7 0.656169 0.213699 0.638511
O O8 0.347588 0.430078 0.536593
O O9 0.250000 0.507105 0.381656
O O10 0.088962 0.284509 0.090399
O O11 0.979344 0.125398 0.151808
O O12 0.507895 0.181979 0.745480
O O13 0.500000 0.500000 0.123027
O O14 0.655622 0.565877 0.221249
#
# Coordination Sequence:
#
# PCOD9380435 Si02
#       8
#     4   4   4   4   8   8   8   4
#     4  11  23  38  60  92 126 169 205 264 313 363
#     4   9  18  40  61  84 116 161 209 243 306 372
#     4  11  25  39  56  99 123 162 209 260 317 369
#     4  11  22  36  62  91 129 156 199 272 308 361
#     4   8  18  38  61  86 110 159 214 239 310 367
#     4   9  21  40  62  85 125 160 215 245 318 362
#     4   9  20  39  64  87 116 170 203 245 313 371
#     4  10  22  39  59  96 124 154 214 247 312 381
#
# _framework density 21.254435000000001
#
# number of rings (size 3 to 8) (size 9 to 14) (size 15 to 20)
#    1.091    1.455    0.000    2.727    2.545    5.091 
#    3.273    0.000    0.000    0.000    0.000    0.000 
#    0.000    0.000    0.000    0.000    0.000    0.000 
#
# Total GULP energy -122563.217088 kJ/mol
# GULP energy per Si atom -5571.055322 kJ/mol
# Density = 2.120606 g / cm^3
# Si number density = 21.254435 Si / 1000 Ang^3
#
#
#
# Elastic Constant Matrix: (Units=GPa)
#
#
# Indices 1 2 3 4 5 6 
#
# 1 139.4287 12.4838 23.6168 0.0000 0.0000 0.0000
# 2 12.4838 93.7244 5.2789 0.0000 0.0000 0.0000
# 3 23.6168 5.2789 38.2783 0.0000 0.0000 0.0000
# 4 0.0000 0.0000 0.0000 23.7166 0.0000 0.0000
# 5 0.0000 0.0000 0.0000 0.0000 -4.1726 0.0000
# 6 0.0000 0.0000 0.0000 0.0000 0.0000 44.9832
#
#
#
# Elastic Compliance Matrix: (Units=1/GPa)
#
#
# Indices 1 2 3 4 5 6 
#
# 1 0.008068 -0.000801 -0.004868 0.000000 0.000000 0.000000
# 2 -0.000801 0.010833 -0.001000 0.000000 0.000000 0.000000
# 3 -0.004868 -0.001000 0.029265 0.000000 0.000000 0.000000
# 4 0.000000 0.000000 0.000000 0.042165 0.000000 0.000000
# 5 0.000000 0.000000 0.000000 0.000000 -0.239658 0.000000
# 6 0.000000 0.000000 0.000000 0.000000 0.000000 0.022231
#
#
# Mechanical properties :
#
#
# Convention : Reuss Voigt Hill
#
# Bulk Modulus (GPa) = 28.71071 39.35449 34.03260
# Shear Modulus (GPa) = -48.94727 28.24222 -10.35252
#
# Velocity S-wave (km/s) = -4.80408 3.64918 -2.20937
# Velocity P-wave (km/s) = 4.15149 6.02590 3.08842
#
# Compressibility (1/GPa) = 0.03483021
#
# Stress axis : x y z
#
# Youngs Moduli (GPa) = 123.94223 92.31459 34.16993
#
# Poissons Ratio (x) = 0.07390 0.16632
# Poissons Ratio (y) = 0.09922 0.03417
# Poissons Ratio (z) = 0.60329 0.09231
#
# Static dielectric constant tensor:
#      x y z
#    x 1.815600 0.000000 0.000000 
#    y 0.000000 1.847710 0.000000 
#    z 0.000000 0.000000 1.698260 
# 
# From -- ./inp_files/15834.got.cif
#   From: 2010.05.17/outbox.cif.g08.bks.cpg/sg46_8_cif.got.tgz:15834.got - 2010.06.03 19:58:25.
