data_PCOD9380269
_publ_section_title
;
Structure prediction by ZEFSAII (Michael W. Deem and Ramdas Pophale) SiO2 
 PCOD9380269
Probable space group: I M A 2
;
_chemical_formula_sum "Si O2"
_cell_formula_units_Z 56
_cell_length_a 15.040397
_cell_length_b 13.426999
_cell_length_c 12.256183
_cell_angle_alpha 90.000000
_cell_angle_beta 90.000000
_cell_angle_gamma 90.000000
_cell_volume 2475.104235
_symmetry_space_group_name_H-M "I M A 2"
_symmetry_group_IT_number 46
_symmetry_cell_setting 'orthorhombic'
loop_
_space_group_symop_operation_xyz
x,y,z
-x,-y,z
1/2-x,y,z
1/2+x,-y,z
1/2+x,1/2+y,1/2+z
1/2-x,1/2-y,1/2+z
-x,1/2+y,1/2+z
x,1/2-y,1/2+z
loop_
_atom_site_type_symbol
_atom_site_label
_atom_site_fract_x
_atom_site_fract_y
_atom_site_fract_z
Si Si1 0.072537 0.411113 0.171110
Si Si2 0.582527 0.205913 0.726297
Si Si3 0.856038 0.594945 0.419002
Si Si4 0.145719 0.182081 0.460078
Si Si5 0.643179 0.118320 0.947365
Si Si6 0.848622 0.163205 0.517502
Si Si7 0.978043 0.392765 0.834169
O O1 0.115984 0.414484 0.291285
O O2 0.133587 0.389598 0.066056
O O3 0.000000 0.500000 0.159397
O O4 0.012136 0.312381 0.172963
O O5 0.590125 0.146780 0.838905
O O6 0.649628 0.148756 0.646488
O O7 0.582803 0.320855 0.760336
O O8 0.750000 0.594321 0.419789
O O9 0.879519 0.700487 0.473566
O O10 0.884768 0.492812 0.479217
O O11 0.250000 0.176973 0.427522
O O12 0.073930 0.149895 0.369358
O O13 0.750000 0.117432 0.926268
O O14 0.629484 0.217946 0.017243
O O15 0.750000 0.147206 0.472445
O O16 0.920483 0.104765 0.446808
O O17 0.000000 0.500000 0.787797
#
# Coordination Sequence:
#
# PCOD9380269 Si02
#       7
#     8   8   8   8   8   8   8
#     4  12  22  39  64  94 121 161 212 262 310 374
#     4  11  21  38  61  90 128 159 209 265 312 374
#     4  10  21  40  64  90 124 163 208 261 318 382
#     4  11  24  41  62  92 130 166 208 261 320 384
#     4   9  19  37  62  92 120 159 208 257 319 379
#     4  10  22  41  66  94 127 164 212 272 322 376
#     4  11  24  43  62  91 128 171 215 259 320 388
#
# _framework density 22.625309999999999
#
# number of rings (size 3 to 8) (size 9 to 14) (size 15 to 20)
#    0.000    1.429    4.286    1.286    0.000    1.143 
#    2.571    0.000    0.000    0.000    0.000    0.000 
#    0.000    0.000    0.000    0.000    0.000    0.000 
#
# Total GULP energy -156002.197313 kJ/mol
# GULP energy per Si atom -5571.507047 kJ/mol
# Density = 2.257381 g / cm^3
# Si number density = 22.625310 Si / 1000 Ang^3
#
#
#
# Elastic Constant Matrix: (Units=GPa)
#
#
# Indices 1 2 3 4 5 6 
#
# 1 68.0400 1.0367 -3.7441 0.0000 0.0000 0.0000
# 2 1.0367 89.4137 -13.8351 0.0000 0.0000 0.0000
# 3 -3.7441 -13.8351 34.9350 0.0000 0.0000 0.0000
# 4 0.0000 0.0000 0.0000 20.8241 0.0000 0.0000
# 5 0.0000 0.0000 0.0000 0.0000 24.5497 0.0000
# 6 0.0000 0.0000 0.0000 0.0000 0.0000 32.1425
#
#
#
# Elastic Compliance Matrix: (Units=1/GPa)
#
#
# Indices 1 2 3 4 5 6 
#
# 1 0.014785 0.000079 0.001616 0.000000 0.000000 0.000000
# 2 0.000079 0.011914 0.004727 0.000000 0.000000 0.000000
# 3 0.001616 0.004727 0.030670 0.000000 0.000000 0.000000
# 4 0.000000 0.000000 0.000000 0.048021 0.000000 0.000000
# 5 0.000000 0.000000 0.000000 0.000000 0.040734 0.000000
# 6 0.000000 0.000000 0.000000 0.000000 0.000000 0.031111
#
#
# Mechanical properties :
#
#
# Convention : Reuss Voigt Hill
#
# Bulk Modulus (GPa) = 14.24275 17.70042 15.97158
# Shear Modulus (GPa) = 26.62448 29.43201 28.02824
#
# Velocity S-wave (km/s) = 3.43411 3.61063 3.52348
# Velocity P-wave (km/s) = 4.69392 5.02220 4.86083
#
# Compressibility (1/GPa) = 0.07021117
#
# Stress axis : x y z
#
# Youngs Moduli (GPa) = 67.63636 83.93173 32.60550
#
# Poissons Ratio (x) = -0.00659 -0.05268
# Poissons Ratio (y) = -0.00531 -0.15412
# Poissons Ratio (z) = -0.10928 -0.39673
#
# Static dielectric constant tensor:
#      x y z
#    x 1.826390 0.000000 0.000000 
#    y 0.000000 1.925220 0.000000 
#    z 0.000000 0.000000 1.907850 
# 
# From -- ./inp_files/15939.got.cif
#   From: 2010.05.17/outbox.cif.g08.bks.cpg/sg46_8_cif.got.tgz:15939.got - 2010.06.03 19:58:25.
