data_PCOD9380183
_publ_section_title
;
Structure prediction by ZEFSAII (Michael W. Deem and Ramdas Pophale) SiO2 
 PCOD9380183
Probable space group: I M A 2
;
_chemical_formula_sum "Si O2"
_cell_formula_units_Z 52
_cell_length_a 20.203303
_cell_length_b 5.521472
_cell_length_c 19.477013
_cell_angle_alpha 90.000000
_cell_angle_beta 90.000000
_cell_angle_gamma 90.000000
_cell_volume 2172.699205
_symmetry_space_group_name_H-M "I M A 2"
_symmetry_group_IT_number 46
_symmetry_cell_setting 'orthorhombic'
loop_
_space_group_symop_operation_xyz
x,y,z
-x,-y,z
1/2-x,y,z
1/2+x,-y,z
1/2+x,1/2+y,1/2+z
1/2-x,1/2-y,1/2+z
-x,1/2+y,1/2+z
x,1/2-y,1/2+z
loop_
_atom_site_type_symbol
_atom_site_label
_atom_site_fract_x
_atom_site_fract_y
_atom_site_fract_z
Si Si1 0.602885 0.968150 0.936560
Si Si2 0.554780 0.814375 0.565933
Si Si3 0.500000 0.000000 0.187815
Si Si4 0.326926 0.416606 0.158928
Si Si5 0.359850 0.588133 0.736728
Si Si6 0.250000 0.995009 0.986205
Si Si7 0.372679 0.531866 0.889416
Si Si8 0.750000 0.999761 0.495359
O O1 0.682893 0.997487 0.942632
O O2 0.591081 0.728739 0.891205
O O3 0.583573 0.232043 0.908706
O O4 0.573953 0.893116 0.011018
O O5 0.522567 0.707751 0.634944
O O6 0.623359 0.930888 0.593364
O O7 0.500000 0.000000 0.537319
O O8 0.560843 0.077532 0.233495
O O9 0.250000 0.438867 0.146393
O O10 0.342277 0.652293 0.205193
O O11 0.337578 0.152130 0.194741
O O12 0.339702 0.569827 0.815683
O O13 0.250000 0.238482 0.028259
O O14 0.250000 0.757143 0.031993
O O15 0.315034 0.507520 0.946720
#
# Coordination Sequence:
#
# PCOD9380183 Si02
#       8
#     8   8   4   8   8   4   8   4
#     4  10  22  38  65  92 132 166 226 263 345 392
#     4  11  24  45  71  93 137 184 227 286 339 417
#     4  10  24  46  68  96 128 190 232 278 348 404
#     4  11  25  42  70 106 133 177 235 288 335 398
#     4  11  23  44  70  96 140 175 229 281 347 409
#     4   8  16  34  52  86 118 164 198 262 308 394
#     4  10  21  39  59 100 127 175 209 277 329 410
#     4   8  16  30  54  78 128 160 202 236 330 386
#
# _framework density 23.933365999999999
#
# number of rings (size 3 to 8) (size 9 to 14) (size 15 to 20)
#    0.000    1.846    1.538    1.385    5.385    0.000 
#    4.154    0.000    0.000    0.000    0.000    0.000 
#    0.000    0.000    0.000    0.000    0.000    0.000 
#
# Total GULP energy -145214.008878 kJ/mol
# GULP energy per Si atom -5585.154188 kJ/mol
# Density = 2.387889 g / cm^3
# Si number density = 23.933366 Si / 1000 Ang^3
#
#
#
# Elastic Constant Matrix: (Units=GPa)
#
#
# Indices 1 2 3 4 5 6 
#
# 1 115.5414 24.4597 8.1844 0.0000 0.0000 0.0000
# 2 24.4597 188.5218 17.0265 0.0000 0.0000 0.0000
# 3 8.1844 17.0265 74.4367 0.0000 0.0000 0.0000
# 4 0.0000 0.0000 0.0000 33.4871 0.0000 0.0000
# 5 0.0000 0.0000 0.0000 0.0000 -0.9709 0.0000
# 6 0.0000 0.0000 0.0000 0.0000 0.0000 19.0473
#
#
#
# Elastic Compliance Matrix: (Units=1/GPa)
#
#
# Indices 1 2 3 4 5 6 
#
# 1 0.008938 -0.001094 -0.000733 0.000000 0.000000 0.000000
# 2 -0.001094 0.005550 -0.001149 0.000000 0.000000 0.000000
# 3 -0.000733 -0.001149 0.013778 0.000000 0.000000 0.000000
# 4 0.000000 0.000000 0.000000 0.029862 0.000000 0.000000
# 5 0.000000 0.000000 0.000000 0.000000 -1.029927 0.000000
# 6 0.000000 0.000000 0.000000 0.000000 0.000000 0.052501
#
#
# Mechanical properties :
#
#
# Convention : Reuss Voigt Hill
#
# Bulk Modulus (GPa) = 44.81257 53.09344 48.95300
# Shear Modulus (GPa) = -5.51932 32.23465 13.35767
#
# Velocity S-wave (km/s) = -1.52024 3.67393 2.36502
# Velocity P-wave (km/s) = 3.96018 6.34263 5.28735
#
# Compressibility (1/GPa) = 0.02231517
#
# Stress axis : x y z
#
# Youngs Moduli (GPa) = 111.87806 180.17680 72.58116
#
# Poissons Ratio (x) = 0.19703 0.05318
# Poissons Ratio (y) = 0.12234 0.08342
# Poissons Ratio (z) = 0.08197 0.20707
#
# Static dielectric constant tensor:
#      x y z
#    x 1.957170 0.000000 0.000000 
#    y 0.000000 2.043520 0.000000 
#    z 0.000000 0.000000 1.920620 
# 
# From -- ./inp_files/22427.got.cif
#   From: 2010.05.17/outbox.cif.g08.bks.cpg/sg46_12_cif.got.tgz:22427.got - 2010.06.03 19:58:25.
