data_PCOD9380579
_publ_section_title
;
Structure prediction by ZEFSAII (Michael W. Deem and Ramdas Pophale) SiO2 
 PCOD9380579
Probable space group: I M A 2
;
_chemical_formula_sum "Si O2"
_cell_formula_units_Z 56
_cell_length_a 20.123912
_cell_length_b 9.041454
_cell_length_c 14.302350
_cell_angle_alpha 90.000000
_cell_angle_beta 90.000000
_cell_angle_gamma 90.000000
_cell_volume 2602.304354
_symmetry_space_group_name_H-M "I M A 2"
_symmetry_group_IT_number 46
_symmetry_cell_setting 'orthorhombic'
loop_
_space_group_symop_operation_xyz
x,y,z
-x,-y,z
1/2-x,y,z
1/2+x,-y,z
1/2+x,1/2+y,1/2+z
1/2-x,1/2-y,1/2+z
-x,1/2+y,1/2+z
x,1/2-y,1/2+z
loop_
_atom_site_type_symbol
_atom_site_label
_atom_site_fract_x
_atom_site_fract_y
_atom_site_fract_z
Si Si1 0.953417 0.204547 0.119300
Si Si2 0.041783 0.366616 0.867566
Si Si3 0.945530 0.113220 0.916597
Si Si4 0.326030 0.931415 0.212338
Si Si5 0.824323 0.293421 0.910309
Si Si6 0.104433 0.503174 0.053799
Si Si7 0.103345 0.270380 0.687555
O O1 0.889107 0.166511 0.181124
O O2 0.946601 0.379325 0.097784
O O3 0.028956 0.186522 0.152652
O O4 0.942713 0.103174 0.028133
O O5 0.089888 0.274684 0.799582
O O6 0.000000 0.500000 0.820225
O O7 0.981508 0.266121 0.898353
O O8 0.076331 0.418668 0.962763
O O9 0.871030 0.151960 0.887131
O O10 0.000000 0.000000 0.877075
O O11 0.250000 0.891519 0.183847
O O12 0.328118 0.910379 0.324804
O O13 0.344335 0.096019 0.176817
O O14 0.750000 0.239140 0.918127
O O15 0.843548 0.382300 0.004826
O O16 0.122442 0.379430 0.131891
#
# Coordination Sequence:
#
# PCOD9380579 Si02
#       7
#     8   8   8   8   8   8   8
#     4  11  22  38  63  96 131 169 222 273 341 413
#     4  12  20  40  64  97 135 176 215 281 347 408
#     4  11  22  37  65 100 134 165 227 281 335 397
#     4  11  24  42  64  96 133 176 229 278 333 412
#     4  10  22  43  69  93 136 193 230 267 348 428
#     4  11  23  42  66  97 130 177 226 281 340 415
#     4  12  22  37  70  98 130 168 225 287 337 389
#
# _framework density 21.519390000000001
#
# number of rings (size 3 to 8) (size 9 to 14) (size 15 to 20)
#    0.000    0.857    5.714    3.429    0.000    5.143 
#    0.000    0.000    0.000    0.857    0.000    0.000 
#    0.000    0.000    0.000    0.000    0.000    0.000 
#
# Total GULP energy -155920.792253 kJ/mol
# GULP energy per Si atom -5568.599723 kJ/mol
# Density = 2.147041 g / cm^3
# Si number density = 21.519390 Si / 1000 Ang^3
#
#
#
# Elastic Constant Matrix: (Units=GPa)
#
#
# Indices 1 2 3 4 5 6 
#
# 1 136.8276 38.1242 13.3408 0.0000 0.0000 0.0000
# 2 38.1242 85.8410 26.3096 0.0000 0.0000 0.0000
# 3 13.3408 26.3096 57.4098 0.0000 0.0000 0.0000
# 4 0.0000 0.0000 0.0000 26.6623 0.0000 0.0000
# 5 0.0000 0.0000 0.0000 0.0000 27.8842 0.0000
# 6 0.0000 0.0000 0.0000 0.0000 0.0000 22.4764
#
#
#
# Elastic Compliance Matrix: (Units=1/GPa)
#
#
# Indices 1 2 3 4 5 6 
#
# 1 0.008344 -0.003620 -0.000280 0.000000 0.000000 0.000000
# 2 -0.003620 0.015124 -0.006090 0.000000 0.000000 0.000000
# 3 -0.000280 -0.006090 0.020274 0.000000 0.000000 0.000000
# 4 0.000000 0.000000 0.000000 0.037506 0.000000 0.000000
# 5 0.000000 0.000000 0.000000 0.000000 0.035863 0.000000
# 6 0.000000 0.000000 0.000000 0.000000 0.000000 0.044491
#
#
# Mechanical properties :
#
#
# Convention : Reuss Voigt Hill
#
# Bulk Modulus (GPa) = 42.08229 48.40309 45.24269
# Shear Modulus (GPa) = 26.38481 28.89149 27.63815
#
# Velocity S-wave (km/s) = 3.50536 3.66810 3.58765
# Velocity P-wave (km/s) = 5.99845 6.36251 6.18316
#
# Compressibility (1/GPa) = 0.02376297
#
# Stress axis : x y z
#
# Youngs Moduli (GPa) = 119.84006 66.12152 49.32325
#
# Poissons Ratio (x) = 0.23937 0.01381
# Poissons Ratio (y) = 0.43384 0.30036
# Poissons Ratio (z) = 0.03356 0.40265
#
# Static dielectric constant tensor:
#      x y z
#    x 1.802680 0.000000 0.000000 
#    y 0.000000 1.745040 0.000000 
#    z 0.000000 0.000000 1.879190 
# 
# From -- ./inp_files/17105.got.cif
#   From: 2010.05.17/outbox.cif.g08.bks.cpg/sg46_9_cif.got.tgz:17105.got - 2010.06.03 19:58:25.
