data_PCOD9380268
_publ_section_title
;
Structure prediction by ZEFSAII (Michael W. Deem and Ramdas Pophale) SiO2 
 PCOD9380268
Probable space group: I M A 2
;
_chemical_formula_sum "Si O2"
_cell_formula_units_Z 56
_cell_length_a 14.937188
_cell_length_b 4.903281
_cell_length_c 33.161130
_cell_angle_alpha 90.000000
_cell_angle_beta 90.000000
_cell_angle_gamma 90.000000
_cell_volume 2428.761953
_symmetry_space_group_name_H-M "I M A 2"
_symmetry_group_IT_number 46
_symmetry_cell_setting 'orthorhombic'
loop_
_space_group_symop_operation_xyz
x,y,z
-x,-y,z
1/2-x,y,z
1/2+x,-y,z
1/2+x,1/2+y,1/2+z
1/2-x,1/2-y,1/2+z
-x,1/2+y,1/2+z
x,1/2-y,1/2+z
loop_
_atom_site_type_symbol
_atom_site_label
_atom_site_fract_x
_atom_site_fract_y
_atom_site_fract_z
Si Si1 0.588882 0.832034 0.385630
Si Si2 0.850052 0.204446 0.930673
Si Si3 0.000000 0.000000 0.127932
Si Si4 0.145580 0.229202 0.797510
Si Si5 0.354262 0.537294 0.559377
Si Si6 0.645267 0.222639 0.243497
Si Si7 0.500000 0.500000 0.185254
Si Si8 0.146249 0.448730 0.005052
O O1 0.603564 0.566092 0.413284
O O2 0.593120 0.755598 0.338900
O O3 0.500000 0.000000 0.394091
O O4 0.658272 0.070440 0.395760
O O5 0.750000 0.119411 0.943693
O O6 0.892174 0.380821 0.967344
O O7 0.915786 0.040495 0.098401
O O8 0.973235 0.747274 0.156087
O O9 0.250000 0.297934 0.805241
O O10 0.116381 0.428934 0.760983
O O11 0.141825 0.922695 0.781819
O O12 0.250000 0.461424 0.567416
O O13 0.355332 0.838145 0.541341
O O14 0.389540 0.330616 0.524252
O O15 0.750000 0.208622 0.229809
O O16 0.579423 0.364363 0.211669
O O17 0.250000 0.395376 0.993658
#
# Coordination Sequence:
#
# PCOD9380268 Si02
#       8
#     8   8   4   8   8   8   4   8
#     4  12  25  38  59  95 136 170 216 277 338 383
#     4  11  22  41  64  89 127 175 224 272 326 388
#     4  12  26  42  64 102 125 168 205 248 336 404
#     4  10  21  40  64  89 119 167 221 261 311 380
#     4  10  21  41  65  94 128 161 211 263 311 385
#     4  10  23  41  65  93 123 166 217 262 316 384
#     4  12  26  42  66  92 133 160 207 258 326 400
#     4   9  19  38  66  91 118 168 216 258 314 373
#
# _framework density 23.057016000000001
#
# number of rings (size 3 to 8) (size 9 to 14) (size 15 to 20)
#    0.000    1.429    0.000    5.143    2.000    4.571 
#    5.143    0.000    0.000    0.000    0.000    0.000 
#    0.000    0.000    0.000    0.000    0.000    0.000 
#
# Total GULP energy -156467.097623 kJ/mol
# GULP energy per Si atom -5588.110629 kJ/mol
# Density = 2.300454 g / cm^3
# Si number density = 23.057016 Si / 1000 Ang^3
#
#
#
# Elastic Constant Matrix: (Units=GPa)
#
#
# Indices 1 2 3 4 5 6 
#
# 1 72.4501 -9.0979 17.9079 0.0000 0.0000 0.0000
# 2 -9.0979 102.5201 -8.9533 0.0000 0.0000 0.0000
# 3 17.9079 -8.9533 65.1263 0.0000 0.0000 0.0000
# 4 0.0000 0.0000 0.0000 52.4616 0.0000 0.0000
# 5 0.0000 0.0000 0.0000 0.0000 -560.4160 0.0000
# 6 0.0000 0.0000 0.0000 0.0000 0.0000 -61.0976
#
#
#
# Elastic Compliance Matrix: (Units=1/GPa)
#
#
# Indices 1 2 3 4 5 6 
#
# 1 0.014905 0.000977 -0.003964 0.000000 0.000000 0.000000
# 2 0.000977 0.009937 0.001098 0.000000 0.000000 0.000000
# 3 -0.003964 0.001098 0.016596 0.000000 0.000000 0.000000
# 4 0.000000 0.000000 0.000000 0.019062 0.000000 0.000000
# 5 0.000000 0.000000 0.000000 0.000000 -0.001784 0.000000
# 6 0.000000 0.000000 0.000000 0.000000 0.000000 -0.016367
#
#
# Mechanical properties :
#
#
# Convention : Reuss Voigt Hill
#
# Bulk Modulus (GPa) = 26.55538 26.64554 26.60046
# Shear Modulus (GPa) = 85.20771 -97.79441 -6.29335
#
# Velocity S-wave (km/s) = 6.08568 -6.51968 -1.65390
# Velocity P-wave (km/s) = 7.80531 6.71517 2.81330
#
# Compressibility (1/GPa) = 0.03765716
#
# Stress axis : x y z
#
# Youngs Moduli (GPa) = 67.09121 100.63707 60.25650
#
# Poissons Ratio (x) = -0.09827 0.23887
# Poissons Ratio (y) = -0.06551 -0.06613
# Poissons Ratio (z) = 0.26596 -0.11045
#
# Static dielectric constant tensor:
#      x y z
#    x 1.993910 0.000000 0.000000 
#    y 0.000000 1.805570 0.000000 
#    z 0.000000 0.000000 1.846930 
# 
# From -- ./inp_files/25456.got.cif
#   From: 2010.05.17/outbox.cif.g08.bks.cpg/sg46_13_cif.got.tgz:25456.got - 2010.06.03 19:58:25.
