data_PCOD9380659
_publ_section_title
;
Structure prediction by ZEFSAII (Michael W. Deem and Ramdas Pophale) SiO2 
 PCOD9380659
Probable space group: I M A 2
;
_chemical_formula_sum "Si O2"
_cell_formula_units_Z 60
_cell_length_a 20.045123
_cell_length_b 16.542372
_cell_length_c 8.612882
_cell_angle_alpha 90.000000
_cell_angle_beta 90.000000
_cell_angle_gamma 90.000000
_cell_volume 2855.978973
_symmetry_space_group_name_H-M "I M A 2"
_symmetry_group_IT_number 46
_symmetry_cell_setting 'orthorhombic'
loop_
_space_group_symop_operation_xyz
x,y,z
-x,-y,z
1/2-x,y,z
1/2+x,-y,z
1/2+x,1/2+y,1/2+z
1/2-x,1/2-y,1/2+z
-x,1/2+y,1/2+z
x,1/2-y,1/2+z
loop_
_atom_site_type_symbol
_atom_site_label
_atom_site_fract_x
_atom_site_fract_y
_atom_site_fract_z
Si Si1 0.171972 0.846088 0.616480
Si Si2 0.538533 0.635486 0.268508
Si Si3 0.412705 0.234028 0.514393
Si Si4 0.500000 0.000000 0.978314
Si Si5 0.118244 0.997170 0.215957
Si Si6 0.673387 0.177085 0.246490
Si Si7 0.174058 0.162810 0.254627
Si Si8 0.581023 0.498813 0.080771
O O1 0.250000 0.861972 0.662996
O O2 0.172869 0.829154 0.432294
O O3 0.146115 0.764277 0.697221
O O4 0.123258 0.921951 0.638746
O O5 0.559741 0.700539 0.395200
O O6 0.528968 0.688330 0.111252
O O7 0.489941 0.576971 0.365825
O O8 0.594475 0.573089 0.200035
O O9 0.368196 0.173517 0.412215
O O10 0.364186 0.280819 0.632103
O O11 0.560853 0.982908 0.093139
O O12 0.139978 0.904996 0.186502
O O13 0.096810 0.002193 0.397015
O O14 0.171087 0.069514 0.201821
O O15 0.750000 0.176602 0.191150
O O16 0.250000 0.188556 0.276343
O O17 0.500000 0.500000 0.081931
#
# Coordination Sequence:
#
# PCOD9380659 Si02
#       8
#     8   8   8   4   8   8   8   8
#     4   9  20  40  65  95 129 168 211 265 327 397
#     4  11  23  44  66  89 132 175 220 283 329 399
#     4  10  23  42  64  94 129 172 227 273 339 400
#     4  12  24  42  64  92 130 178 226 274 344 404
#     4  11  22  40  63  96 128 175 221 273 339 406
#     4   9  19  39  63  91 128 165 212 265 321 393
#     4  11  21  39  65  95 132 171 221 280 343 408
#     4  11  22  42  65  93 131 171 218 276 334 396
#
# _framework density 21.008558000000001
#
# number of rings (size 3 to 8) (size 9 to 14) (size 15 to 20)
#    0.000    1.600    4.000    0.800    0.000    1.600 
#    2.400    1.333    0.000    0.000    0.000    0.000 
#    0.000    0.000    0.000    0.000    0.000    0.000 
#
# Total GULP energy -167118.713834 kJ/mol
# GULP energy per Si atom -5570.623794 kJ/mol
# Density = 2.096074 g / cm^3
# Si number density = 21.008558 Si / 1000 Ang^3
#
#
#
# Elastic Constant Matrix: (Units=GPa)
#
#
# Indices 1 2 3 4 5 6 
#
# 1 45.6990 31.6403 18.4944 0.0000 0.0000 0.0000
# 2 31.6403 144.0942 40.8281 0.0000 0.0000 0.0000
# 3 18.4944 40.8281 86.7080 0.0000 0.0000 0.0000
# 4 0.0000 0.0000 0.0000 43.6473 0.0000 0.0000
# 5 0.0000 0.0000 0.0000 0.0000 32.4887 0.0000
# 6 0.0000 0.0000 0.0000 0.0000 0.0000 30.9431
#
#
#
# Elastic Compliance Matrix: (Units=1/GPa)
#
#
# Indices 1 2 3 4 5 6 
#
# 1 0.026636 -0.004892 -0.003378 0.000000 0.000000 0.000000
# 2 -0.004892 0.008907 -0.003151 0.000000 0.000000 0.000000
# 3 -0.003378 -0.003151 0.013737 0.000000 0.000000 0.000000
# 4 0.000000 0.000000 0.000000 0.022911 0.000000 0.000000
# 5 0.000000 0.000000 0.000000 0.000000 0.030780 0.000000
# 6 0.000000 0.000000 0.000000 0.000000 0.000000 0.032317
#
#
# Mechanical properties :
#
#
# Convention : Reuss Voigt Hill
#
# Bulk Modulus (GPa) = 37.82227 50.93630 44.37928
# Shear Modulus (GPa) = 29.95056 33.78502 31.86779
#
# Velocity S-wave (km/s) = 3.77986 4.01453 3.89896
# Velocity P-wave (km/s) = 6.09033 6.76659 6.43735
#
# Compressibility (1/GPa) = 0.02643945
#
# Stress axis : x y z
#
# Youngs Moduli (GPa) = 37.54284 112.27507 72.79633
#
# Poissons Ratio (x) = 0.54921 0.24591
# Poissons Ratio (y) = 0.18365 0.22935
# Poissons Ratio (z) = 0.12682 0.35372
#
# Static dielectric constant tensor:
#      x y z
#    x 1.733710 0.000000 0.000000 
#    y 0.000000 1.827610 0.000000 
#    z 0.000000 0.000000 1.753220 
# 
# From -- ./inp_files/7930.got.cif
#   From: 2010.05.17/outbox.cif.g08.bks.cpg/sg46_4_cif.got.tgz:7930.got - 2010.06.03 19:58:25.
