data_PCOD9380145
_publ_section_title
;
Structure prediction by ZEFSAII (Michael W. Deem and Ramdas Pophale) SiO2 
 PCOD9380145
Probable space group: I M A 2
;
_chemical_formula_sum "Si O2"
_cell_formula_units_Z 48
_cell_length_a 14.575174
_cell_length_b 12.204219
_cell_length_c 13.099210
_cell_angle_alpha 90.000000
_cell_angle_beta 90.000000
_cell_angle_gamma 90.000000
_cell_volume 2330.069338
_symmetry_space_group_name_H-M "I M A 2"
_symmetry_group_IT_number 46
_symmetry_cell_setting 'orthorhombic'
loop_
_space_group_symop_operation_xyz
x,y,z
-x,-y,z
1/2-x,y,z
1/2+x,-y,z
1/2+x,1/2+y,1/2+z
1/2-x,1/2-y,1/2+z
-x,1/2+y,1/2+z
x,1/2-y,1/2+z
loop_
_atom_site_type_symbol
_atom_site_label
_atom_site_fract_x
_atom_site_fract_y
_atom_site_fract_z
Si Si1 0.550380 0.610190 0.809240
Si Si2 0.963262 0.802698 0.534819
Si Si3 0.750000 0.992933 0.028109
Si Si4 0.076329 0.789836 0.719051
Si Si5 0.430470 0.598189 0.431302
Si Si6 0.750000 0.932578 0.335355
Si Si7 0.250000 0.230714 0.529805
Si Si8 0.750000 0.366868 0.722606
O O1 0.500000 0.500000 0.777039
O O2 0.539604 0.626290 0.931083
O O3 0.505781 0.710854 0.753150
O O4 0.656285 0.603608 0.784408
O O5 0.856365 0.786693 0.570932
O O6 0.033503 0.848425 0.620223
O O7 0.014670 0.690621 0.496577
O O8 0.840133 0.050755 0.983328
O O9 0.750000 0.862175 0.006960
O O10 0.750000 0.032309 0.144721
O O11 0.096703 0.860192 0.818906
O O12 0.162838 0.710238 0.703481
O O13 0.500000 0.500000 0.417591
O O14 0.750000 0.861894 0.440163
O O15 0.750000 0.066881 0.331433
#
# Coordination Sequence:
#
# PCOD9380145 Si02
#       8
#     8   8   4   8   8   4   4   4
#     4  10  21  38  62  86 123 167 204 261 317 373
#     4  10  22  40  60  90 127 160 212 258 313 377
#     4  12  23  39  68  92 125 170 214 264 320 376
#     4  11  24  40  63  94 125 165 216 265 312 381
#     4  11  23  42  64  89 128 172 209 261 324 376
#     4  10  22  39  58  95 126 160 208 257 320 369
#     4  10  22  39  64  93 126 165 207 266 310 379
#     4  12  23  39  68  98 125 167 217 271 312 380
#
# _framework density 20.600245999999999
#
# number of rings (size 3 to 8) (size 9 to 14) (size 15 to 20)
#    0.000    1.333    5.000    0.500    2.333    1.333 
#    0.000    1.667    0.000    4.000    0.000    0.000 
#    0.000    0.000    0.000    0.000    0.000    0.000 
#
# Total GULP energy -133728.414311 kJ/mol
# GULP energy per Si atom -5572.017263 kJ/mol
# Density = 2.055336 g / cm^3
# Si number density = 20.600246 Si / 1000 Ang^3
#
#
#
# Elastic Constant Matrix: (Units=GPa)
#
#
# Indices 1 2 3 4 5 6 
#
# 1 144.4010 22.5222 31.6218 0.0000 0.0000 0.0000
# 2 22.5222 41.0703 10.4049 0.0000 0.0000 0.0000
# 3 31.6218 10.4049 76.3630 0.0000 0.0000 0.0000
# 4 0.0000 0.0000 0.0000 9.6860 0.0000 0.0000
# 5 0.0000 0.0000 0.0000 0.0000 -114.8618 0.0000
# 6 0.0000 0.0000 0.0000 0.0000 0.0000 12.9129
#
#
#
# Elastic Compliance Matrix: (Units=1/GPa)
#
#
# Indices 1 2 3 4 5 6 
#
# 1 0.008134 -0.003736 -0.002859 0.000000 0.000000 0.000000
# 2 -0.003736 0.026935 -0.002123 0.000000 0.000000 0.000000
# 3 -0.002859 -0.002123 0.014569 0.000000 0.000000 0.000000
# 4 0.000000 0.000000 0.000000 0.103242 0.000000 0.000000
# 5 0.000000 0.000000 0.000000 0.000000 -0.008706 0.000000
# 6 0.000000 0.000000 0.000000 0.000000 0.000000 0.077442
#
#
# Mechanical properties :
#
#
# Convention : Reuss Voigt Hill
#
# Bulk Modulus (GPa) = 31.05474 43.43689 37.24581
# Shear Modulus (GPa) = 20.01712 -5.30022 7.35845
#
# Velocity S-wave (km/s) = 3.12058 -1.60576 1.89203
# Velocity P-wave (km/s) = 5.30016 4.20635 4.78462
#
# Compressibility (1/GPa) = 0.03220120
#
# Stress axis : x y z
#
# Youngs Moduli (GPa) = 122.94048 37.12613 68.64077
#
# Poissons Ratio (x) = 0.13871 0.19626
# Poissons Ratio (y) = 0.45933 0.14572
# Poissons Ratio (z) = 0.35151 0.07882
#
# Static dielectric constant tensor:
#      x y z
#    x 1.720520 0.000000 0.000000 
#    y 0.000000 1.719950 0.000000 
#    z 0.000000 0.000000 1.847980 
# 
# From -- ./inp_files/15907.got.cif
#   From: 2010.05.17/outbox.cif.g08.bks.cpg/sg46_8_cif.got.tgz:15907.got - 2010.06.03 19:58:25.
