data_PCOD9380241
_publ_section_title
;
Structure prediction by ZEFSAII (Michael W. Deem and Ramdas Pophale) SiO2 
 PCOD9380241
Probable space group: I M A 2
;
_chemical_formula_sum "Si O2"
_cell_formula_units_Z 40
_cell_length_a 18.381884
_cell_length_b 14.563594
_cell_length_c 5.457780
_cell_angle_alpha 90.000000
_cell_angle_beta 90.000000
_cell_angle_gamma 90.000000
_cell_volume 1461.082066
_symmetry_space_group_name_H-M "I M A 2"
_symmetry_group_IT_number 46
_symmetry_cell_setting 'orthorhombic'
loop_
_space_group_symop_operation_xyz
x,y,z
-x,-y,z
1/2-x,y,z
1/2+x,-y,z
1/2+x,1/2+y,1/2+z
1/2-x,1/2-y,1/2+z
-x,1/2+y,1/2+z
x,1/2-y,1/2+z
loop_
_atom_site_type_symbol
_atom_site_label
_atom_site_fract_x
_atom_site_fract_y
_atom_site_fract_z
Si Si1 0.331897 0.648180 0.269310
Si Si2 0.167836 0.041276 0.021875
Si Si3 0.662276 0.802436 0.664038
Si Si4 0.927200 0.031612 0.403697
Si Si5 0.533217 0.280608 0.793877
O O1 0.250000 0.681190 0.215677
O O2 0.326772 0.567609 0.469954
O O3 0.388644 0.728274 0.331273
O O4 0.368099 0.588925 0.053261
O O5 0.250000 0.072945 0.085400
O O6 0.141832 0.098133 0.783374
O O7 0.112497 0.045056 0.245281
O O8 0.750000 0.807522 0.651291
O O9 0.643393 0.734774 0.892924
O O10 0.959785 0.112865 0.231126
O O11 0.000000 0.000000 0.543804
O O12 0.498842 0.229340 0.563464
#
# Coordination Sequence:
#
# PCOD9380241 Si02
#       5
#     8   8   8   8   8
#     4  10  22  40  69 104 139 183 241 308 372 435
#     4  10  21  39  66  97 128 176 236 297 362 426
#     4   9  19  35  58  88 127 167 212 276 340 404
#     4  11  24  42  64  98 142 194 232 293 364 448
#     4  10  21  42  65  99 138 184 235 290 357 429
#
# _framework density 27.37697
#
# number of rings (size 3 to 8) (size 9 to 14) (size 15 to 20)
#    0.000    2.000    2.000    0.600    2.800    4.800 
#    0.000    4.000    0.000    0.000    0.000    0.000 
#    0.000    0.000    0.000    0.000    0.000    0.000 
#
# Total GULP energy -111772.596115 kJ/mol
# GULP energy per Si atom -5588.629806 kJ/mol
# Density = 2.731466 g / cm^3
# Si number density = 27.376970 Si / 1000 Ang^3
#
#
#
# Elastic Constant Matrix: (Units=GPa)
#
#
# Indices 1 2 3 4 5 6 
#
# 1 84.1736 1.8067 -0.7350 0.0000 0.0000 0.0000
# 2 1.8067 118.9863 11.4004 0.0000 0.0000 0.0000
# 3 -0.7350 11.4004 131.2749 0.0000 0.0000 0.0000
# 4 0.0000 0.0000 0.0000 54.3074 0.0000 0.0000
# 5 0.0000 0.0000 0.0000 0.0000 9.1908 0.0000
# 6 0.0000 0.0000 0.0000 0.0000 0.0000 14.4205
#
#
#
# Elastic Compliance Matrix: (Units=1/GPa)
#
#
# Indices 1 2 3 4 5 6 
#
# 1 0.011885 -0.000188 0.000083 0.000000 0.000000 0.000000
# 2 -0.000188 0.008478 -0.000737 0.000000 0.000000 0.000000
# 3 0.000083 -0.000737 0.007682 0.000000 0.000000 0.000000
# 4 0.000000 0.000000 0.000000 0.018414 0.000000 0.000000
# 5 0.000000 0.000000 0.000000 0.000000 0.108804 0.000000
# 6 0.000000 0.000000 0.000000 0.000000 0.000000 0.069346
#
#
# Mechanical properties :
#
#
# Convention : Reuss Voigt Hill
#
# Bulk Modulus (GPa) = 37.93727 39.93099 38.93413
# Shear Modulus (GPa) = 21.26928 37.04793 29.15861
#
# Velocity S-wave (km/s) = 2.79032 3.68265 3.26709
# Velocity P-wave (km/s) = 4.92632 5.71837 5.33706
#
# Compressibility (1/GPa) = 0.02635930
#
# Stress axis : x y z
#
# Youngs Moduli (GPa) = 84.13988 117.95463 130.17275
#
# Poissons Ratio (x) = 0.02222 -0.01079
# Poissons Ratio (y) = 0.01585 0.09598
# Poissons Ratio (z) = -0.00698 0.08697
#
# Static dielectric constant tensor:
#      x y z
#    x 2.191830 0.000000 0.000000 
#    y 0.000000 2.176340 0.000000 
#    z 0.000000 0.000000 2.171210 
# 
# From -- ./inp_files/1584.got.cif
#   From: 2010.05.17/outbox.cif.g08.bks.cpg/sg46_1_cif.got.tgz:1584.got - 2010.06.03 19:58:25.
