data_PCOD9380644
_publ_section_title
;
Structure prediction by ZEFSAII (Michael W. Deem and Ramdas Pophale) SiO2 
 PCOD9380644
Probable space group: I M A 2
;
_chemical_formula_sum "Si O2"
_cell_formula_units_Z 60
_cell_length_a 19.947138
_cell_length_b 9.285716
_cell_length_c 15.903497
_cell_angle_alpha 90.000000
_cell_angle_beta 90.000000
_cell_angle_gamma 90.000000
_cell_volume 2945.700716
_symmetry_space_group_name_H-M "I M A 2"
_symmetry_group_IT_number 46
_symmetry_cell_setting 'orthorhombic'
loop_
_space_group_symop_operation_xyz
x,y,z
-x,-y,z
1/2-x,y,z
1/2+x,-y,z
1/2+x,1/2+y,1/2+z
1/2-x,1/2-y,1/2+z
-x,1/2+y,1/2+z
x,1/2-y,1/2+z
loop_
_atom_site_type_symbol
_atom_site_label
_atom_site_fract_x
_atom_site_fract_y
_atom_site_fract_z
Si Si1 0.894579 0.472407 0.664400
Si Si2 0.822650 0.561080 0.817740
Si Si3 0.174205 0.876890 0.995708
Si Si4 0.500000 0.500000 0.081044
Si Si5 0.408011 0.887933 0.446068
Si Si6 0.674499 0.838463 0.912798
Si Si7 0.024889 0.165672 0.896880
Si Si8 0.008600 0.236669 0.206072
O O1 0.832134 0.511395 0.722972
O O2 0.873250 0.435574 0.570059
O O3 0.941747 0.611558 0.674745
O O4 0.935749 0.339376 0.704472
O O5 0.750000 0.511858 0.849904
O O6 0.882410 0.489532 0.871360
O O7 0.823772 0.733620 0.832015
O O8 0.250000 0.875472 0.027334
O O9 0.151231 0.719410 0.970333
O O10 0.172230 0.987982 0.916763
O O11 0.492581 0.362497 0.139228
O O12 0.564991 0.481379 0.022736
O O13 0.469778 0.780558 0.426573
O O14 0.750000 0.807519 0.952762
O O15 0.597205 0.808979 0.941275
O O16 0.028573 0.199863 0.796808
O O17 0.000000 0.000000 0.909452
#
# Coordination Sequence:
#
# PCOD9380644 Si02
#       8
#     8   8   8   4   8   8   8   8
#     4  11  23  41  64  94 123 172 219 262 314 387
#     4  11  23  42  66  93 131 172 213 264 322 384
#     4  11  24  43  64  93 133 171 213 265 324 386
#     4  12  26  40  62  92 134 164 202 272 334 374
#     4  12  25  39  67  98 125 165 218 268 320 380
#     4  10  23  41  63  96 131 164 208 265 324 384
#     4  12  22  40  70  96 127 165 217 270 320 377
#     4  11  24  40  63  94 132 163 213 273 319 374
#
# _framework density 20.368668
#
# number of rings (size 3 to 8) (size 9 to 14) (size 15 to 20)
#    0.000    0.800    6.000    1.600    3.733    0.000 
#    0.000    0.000    0.000    1.600    0.000    0.000 
#    0.000    0.000    0.000    0.000    0.000    0.000 
#
# Total GULP energy -167142.437859 kJ/mol
# GULP energy per Si atom -5571.414595 kJ/mol
# Density = 2.032231 g / cm^3
# Si number density = 20.368668 Si / 1000 Ang^3
#
#
#
# Elastic Constant Matrix: (Units=GPa)
#
#
# Indices 1 2 3 4 5 6 
#
# 1 111.7837 20.6185 2.9494 0.0000 0.0000 0.0000
# 2 20.6185 106.6281 32.5824 0.0000 0.0000 0.0000
# 3 2.9494 32.5824 61.4544 0.0000 0.0000 0.0000
# 4 0.0000 0.0000 0.0000 30.4693 0.0000 0.0000
# 5 0.0000 0.0000 0.0000 0.0000 24.1489 0.0000
# 6 0.0000 0.0000 0.0000 0.0000 0.0000 33.4549
#
#
#
# Elastic Compliance Matrix: (Units=1/GPa)
#
#
# Indices 1 2 3 4 5 6 
#
# 1 0.009296 -0.001982 0.000605 0.000000 0.000000 0.000000
# 2 -0.001982 0.011614 -0.006063 0.000000 0.000000 0.000000
# 3 0.000605 -0.006063 0.019458 0.000000 0.000000 0.000000
# 4 0.000000 0.000000 0.000000 0.032820 0.000000 0.000000
# 5 0.000000 0.000000 0.000000 0.000000 0.041410 0.000000
# 6 0.000000 0.000000 0.000000 0.000000 0.000000 0.029891
#
#
# Mechanical properties :
#
#
# Convention : Reuss Voigt Hill
#
# Bulk Modulus (GPa) = 39.23532 43.57409 41.40471
# Shear Modulus (GPa) = 29.78607 32.52902 31.15755
#
# Velocity S-wave (km/s) = 3.82821 4.00060 3.91536
# Velocity P-wave (km/s) = 6.23255 6.54056 6.38841
#
# Compressibility (1/GPa) = 0.02548724
#
# Stress axis : x y z
#
# Youngs Moduli (GPa) = 107.57866 86.10108 51.39404
#
# Poissons Ratio (x) = 0.17068 -0.03109
# Poissons Ratio (y) = 0.21325 0.31158
# Poissons Ratio (z) = -0.06507 0.52200
#
# Static dielectric constant tensor:
#      x y z
#    x 1.795980 0.000000 0.000000 
#    y 0.000000 1.716450 0.000000 
#    z 0.000000 0.000000 1.694830 
# 
# From -- ./inp_files/19967.got.cif
#   From: 2010.05.17/outbox.cif.g08.bks.cpg/sg46_10_cif.got.tgz:19967.got - 2010.06.03 19:58:25.
