data_PCOD9380758
_publ_section_title
;
Structure prediction by ZEFSAII (Michael W. Deem and Ramdas Pophale) SiO2 
 PCOD9380758
Probable space group: I M A 2
;
_chemical_formula_sum "Si O2"
_cell_formula_units_Z 40
_cell_length_a 18.491836
_cell_length_b 9.177215
_cell_length_c 11.149052
_cell_angle_alpha 90.000000
_cell_angle_beta 90.000000
_cell_angle_gamma 90.000000
_cell_volume 1892.033756
_symmetry_space_group_name_H-M "I M A 2"
_symmetry_group_IT_number 46
_symmetry_cell_setting 'orthorhombic'
loop_
_space_group_symop_operation_xyz
x,y,z
-x,-y,z
1/2-x,y,z
1/2+x,-y,z
1/2+x,1/2+y,1/2+z
1/2-x,1/2-y,1/2+z
-x,1/2+y,1/2+z
x,1/2-y,1/2+z
loop_
_atom_site_type_symbol
_atom_site_label
_atom_site_fract_x
_atom_site_fract_y
_atom_site_fract_z
Si Si1 0.914501 0.522741 0.026640
Si Si2 0.618842 0.658427 0.548892
Si Si3 0.500000 0.000000 0.893133
Si Si4 0.664561 0.475523 0.780152
Si Si5 0.750000 0.935736 0.880845
Si Si6 0.370849 0.636828 0.248959
O O1 0.896197 0.676661 0.088389
O O2 0.879467 0.397891 0.108470
O O3 0.000000 0.500000 0.018338
O O4 0.879025 0.525817 0.896365
O O5 0.549339 0.600269 0.477527
O O6 0.686674 0.646548 0.460010
O O7 0.687251 0.469577 0.309277
O O8 0.447361 0.901881 0.811357
O O9 0.750000 0.505521 0.792993
O O10 0.636213 0.557828 0.662667
O O11 0.651846 0.302990 0.767222
#
# Coordination Sequence:
#
# PCOD9380758 Si02
#       6
#     8   8   4   8   4   8
#     4  12  30  47  73 108 147 193 248 302 367 439
#     4  11  27  46  74 106 149 191 249 299 370 435
#     4  10  24  46  76  98 146 202 238 302 354 432
#     4  12  29  46  75 110 146 193 247 299 367 443
#     4  10  24  46  74 102 142 194 242 298 366 430
#     4  11  25  47  75 103 150 189 249 300 366 435
#
# _framework density 21.141271
#
# number of rings (size 3 to 8) (size 9 to 14) (size 15 to 20)
#    0.000    0.800    3.000    1.200   18.200    0.000 
#    0.000    0.000    0.000    0.000    0.000    0.000 
#    0.000    0.000    0.000    0.000    0.000    0.000 
#
# Total GULP energy -111461.304698 kJ/mol
# GULP energy per Si atom -5573.065235 kJ/mol
# Density = 2.109315 g / cm^3
# Si number density = 21.141271 Si / 1000 Ang^3
#
#
#
# Elastic Constant Matrix: (Units=GPa)
#
#
# Indices 1 2 3 4 5 6 
#
# 1 156.2355 20.9344 41.9070 0.0000 0.0000 0.0000
# 2 20.9344 40.4338 28.6041 0.0000 0.0000 0.0000
# 3 41.9070 28.6041 57.3826 0.0000 0.0000 0.0000
# 4 0.0000 0.0000 0.0000 36.6709 0.0000 0.0000
# 5 0.0000 0.0000 0.0000 0.0000 -1.4313 0.0000
# 6 0.0000 0.0000 0.0000 0.0000 0.0000 7.5537
#
#
#
# Elastic Compliance Matrix: (Units=1/GPa)
#
#
# Indices 1 2 3 4 5 6 
#
# 1 0.007960 -0.000014 -0.005806 0.000000 0.000000 0.000000
# 2 -0.000014 0.038204 -0.019034 0.000000 0.000000 0.000000
# 3 -0.005806 -0.019034 0.031155 0.000000 0.000000 0.000000
# 4 0.000000 0.000000 0.000000 0.027270 0.000000 0.000000
# 5 0.000000 0.000000 0.000000 0.000000 -0.698677 0.000000
# 6 0.000000 0.000000 0.000000 0.000000 0.000000 0.132385
#
#
# Mechanical properties :
#
#
# Convention : Reuss Voigt Hill
#
# Bulk Modulus (GPa) = 36.21703 48.54922 42.38312
# Shear Modulus (GPa) = -12.41338 19.39910 3.49286
#
# Velocity S-wave (km/s) = -2.42577 3.03247 1.28675
# Velocity P-wave (km/s) = 3.05325 5.93929 4.72216
#
# Compressibility (1/GPa) = 0.02761132
#
# Stress axis : x y z
#
# Youngs Moduli (GPa) = 125.63039 26.17524 32.09713
#
# Poissons Ratio (x) = 0.00035 0.18637
# Poissons Ratio (y) = 0.00170 0.61094
# Poissons Ratio (z) = 0.72946 0.49822
#
# Static dielectric constant tensor:
#      x y z
#    x 1.719400 0.000000 0.000000 
#    y 0.000000 1.659350 0.000000 
#    z 0.000000 0.000000 1.736660 
# 
# From -- ./inp_files/12301.got.cif
#   From: 2010.05.17/outbox.cif.g08.bks.cpg/sg46_7_cif.got.tgz:12301.got - 2010.06.03 19:58:25.
