data_PCOD9380617
_publ_section_title
;
Structure prediction by ZEFSAII (Michael W. Deem and Ramdas Pophale) SiO2 
 PCOD9380617
Probable space group: I M A 2
;
_chemical_formula_sum "Si O2"
_cell_formula_units_Z 32
_cell_length_a 11.627796
_cell_length_b 5.240850
_cell_length_c 21.181940
_cell_angle_alpha 90.000000
_cell_angle_beta 90.000000
_cell_angle_gamma 90.000000
_cell_volume 1290.817567
_symmetry_space_group_name_H-M "I M A 2"
_symmetry_group_IT_number 46
_symmetry_cell_setting 'orthorhombic'
loop_
_space_group_symop_operation_xyz
x,y,z
-x,-y,z
1/2-x,y,z
1/2+x,-y,z
1/2+x,1/2+y,1/2+z
1/2-x,1/2-y,1/2+z
-x,1/2+y,1/2+z
x,1/2-y,1/2+z
loop_
_atom_site_type_symbol
_atom_site_label
_atom_site_fract_x
_atom_site_fract_y
_atom_site_fract_z
Si Si1 0.000000 0.500000 0.500000
Si Si2 0.250000 0.584886 0.326826
Si Si3 0.750000 0.163760 0.960392
Si Si4 0.563234 0.750643 0.776819
Si Si5 0.000000 0.500000 0.086112
Si Si6 0.750000 0.111718 0.596245
Si Si7 0.750000 0.039646 0.205657
O O1 0.126424 0.517494 0.466683
O O2 0.998304 0.748911 0.543316
O O3 0.250000 0.762462 0.388023
O O4 0.142841 0.393284 0.327036
O O5 0.250000 0.735237 0.259791
O O6 0.750000 0.355033 0.020397
O O7 0.500000 0.500000 0.804302
O O8 0.639138 0.621670 0.723191
O O9 0.500000 0.000000 0.749916
O O10 0.872887 0.500683 0.116997
O O11 0.750000 0.377945 0.633897
#
# Coordination Sequence:
#
# PCOD9380617 Si02
#       7
#     4   4   4   8   4   4   4
#     4  10  22  46  69 106 145 198 250 310 380 446
#     4  11  25  46  72 111 145 198 256 308 385 454
#     4  10  24  47  71 107 149 199 247 319 371 456
#     4  11  24  48  72 108 147 194 245 320 379 455
#     4  10  22  48  71 106 147 200 250 314 376 450
#     4  10  24  49  76 110 155 199 257 311 383 452
#     4  11  25  48  77 112 147 198 254 308 387 454
#
# _framework density 24.790489999999998
#
# number of rings (size 3 to 8) (size 9 to 14) (size 15 to 20)
#    0.000    1.500    2.500    0.750    1.750    2.000 
#   47.250    0.000    0.000    1.500    0.000    0.000 
#    0.000    0.000    0.000    0.000    0.000    0.000 
#
# Total GULP energy -89202.069805 kJ/mol
# GULP energy per Si atom -5575.129363 kJ/mol
# Density = 2.473407 g / cm^3
# Si number density = 24.790490 Si / 1000 Ang^3
#
#
#
# Elastic Constant Matrix: (Units=GPa)
#
#
# Indices 1 2 3 4 5 6 
#
# 1 207.5301 38.5458 8.0298 0.0000 0.0000 0.0000
# 2 38.5458 154.4875 27.0360 0.0000 0.0000 0.0000
# 3 8.0298 27.0360 81.6820 0.0000 0.0000 0.0000
# 4 0.0000 0.0000 0.0000 20.9795 0.0000 0.0000
# 5 0.0000 0.0000 0.0000 0.0000 85.1349 0.0000
# 6 0.0000 0.0000 0.0000 0.0000 0.0000 65.5342
#
#
#
# Elastic Compliance Matrix: (Units=1/GPa)
#
#
# Indices 1 2 3 4 5 6 
#
# 1 0.005053 -0.001246 -0.000084 0.000000 0.000000 0.000000
# 2 -0.001246 0.007178 -0.002253 0.000000 0.000000 0.000000
# 3 -0.000084 -0.002253 0.012997 0.000000 0.000000 0.000000
# 4 0.000000 0.000000 0.000000 0.047666 0.000000 0.000000
# 5 0.000000 0.000000 0.000000 0.000000 0.011746 0.000000
# 6 0.000000 0.000000 0.000000 0.000000 0.000000 0.015259
#
#
# Mechanical properties :
#
#
# Convention : Reuss Voigt Hill
#
# Bulk Modulus (GPa) = 55.36907 65.65808 60.51357
# Shear Modulus (GPa) = 44.21369 59.00226 51.60797
#
# Velocity S-wave (km/s) = 4.22772 4.88385 4.56759
# Velocity P-wave (km/s) = 6.79815 7.63842 7.23050
#
# Compressibility (1/GPa) = 0.01806063
#
# Stress axis : x y z
#
# Youngs Moduli (GPa) = 197.89119 139.30903 76.94222
#
# Poissons Ratio (x) = 0.17359 0.00649
# Poissons Ratio (y) = 0.24659 0.17339
# Poissons Ratio (z) = 0.01669 0.31393
#
# Static dielectric constant tensor:
#      x y z
#    x 2.143810 0.000000 0.000000 
#    y 0.000000 1.913900 0.000000 
#    z 0.000000 0.000000 1.914880 
# 
# From -- ./inp_files/21603.got.cif
#   From: 2010.05.17/outbox.cif.g08.bks.cpg/sg46_11_cif.got.tgz:21603.got - 2010.06.03 19:58:25.
