data_PCOD9380920
_publ_section_title
;
Structure prediction by ZEFSAII (Michael W. Deem and Ramdas Pophale) SiO2 
 PCOD9380920
Probable space group: I M A 2
;
_chemical_formula_sum "Si O2"
_cell_formula_units_Z 40
_cell_length_a 8.632790
_cell_length_b 30.397340
_cell_length_c 7.436888
_cell_angle_alpha 90.000000
_cell_angle_beta 90.000000
_cell_angle_gamma 90.000000
_cell_volume 1951.542433
_symmetry_space_group_name_H-M "I M A 2"
_symmetry_group_IT_number 46
_symmetry_cell_setting 'orthorhombic'
loop_
_space_group_symop_operation_xyz
x,y,z
-x,-y,z
1/2-x,y,z
1/2+x,-y,z
1/2+x,1/2+y,1/2+z
1/2-x,1/2-y,1/2+z
-x,1/2+y,1/2+z
x,1/2-y,1/2+z
loop_
_atom_site_type_symbol
_atom_site_label
_atom_site_fract_x
_atom_site_fract_y
_atom_site_fract_z
Si Si1 0.561976 0.379919 0.390430
Si Si2 0.573427 0.214081 0.829900
Si Si3 0.435422 0.952374 0.183062
Si Si4 0.426918 0.691586 0.908773
Si Si5 0.566815 0.601603 0.994776
O O1 0.750000 0.377695 0.384574
O O2 0.507206 0.329386 0.425671
O O3 0.515410 0.415152 0.539497
O O4 0.503272 0.394976 0.194780
O O5 0.750000 0.220708 0.899200
O O6 0.502983 0.262776 0.836092
O O7 0.581576 0.200158 0.622744
O O8 0.250000 0.953424 0.185628
O O9 0.496895 0.937620 0.377510
O O10 0.500000 0.000000 0.133599
O O11 0.250000 0.684866 0.840233
O O12 0.520102 0.646759 0.891975
O O13 0.750000 0.597862 0.006875
#
# Coordination Sequence:
#
# PCOD9380920 Si02
#       5
#     8   8   8   8   8
#     4   9  20  40  64  88 116 156 204 253 301 354
#     4   8  15  28  52  82 109 145 198 248 289 343
#     4  11  24  42  67  93 119 152 201 254 306 361
#     4   9  17  31  53  81 113 152 203 249 291 347
#     4  11  23  39  59  86 126 165 199 243 299 360
#
# _framework density 20.496607999999998
#
# number of rings (size 3 to 8) (size 9 to 14) (size 15 to 20)
#    0.000    2.400    0.000    3.600    2.800    2.400 
#    0.000    6.000    0.000    0.000    0.000    0.000 
#    0.000    0.000    0.000    0.000    0.000    0.000 
#
# Total GULP energy -111603.406440 kJ/mol
# GULP energy per Si atom -5580.170322 kJ/mol
# Density = 2.044996 g / cm^3
# Si number density = 20.496608 Si / 1000 Ang^3
#
#
#
# Elastic Constant Matrix: (Units=GPa)
#
#
# Indices 1 2 3 4 5 6 
#
# 1 32.2551 17.3074 11.2976 0.0001 0.0002 0.0000
# 2 17.3074 97.1597 20.8645 -0.0004 0.0002 0.0001
# 3 11.2976 20.8645 52.3581 -0.0004 0.0005 0.0001
# 4 0.0001 -0.0004 -0.0004 36.5024 0.0000 0.0000
# 5 0.0002 0.0002 0.0005 0.0000 9.3157 0.0000
# 6 0.0000 0.0001 0.0001 0.0000 0.0000 27.0678
#
#
#
# Elastic Compliance Matrix: (Units=1/GPa)
#
#
# Indices 1 2 3 4 5 6 
#
# 1 0.035750 -0.005153 -0.005661 0.000000 0.000000 0.000000
# 2 -0.005153 0.011998 -0.003669 0.000000 0.000000 0.000000
# 3 -0.005661 -0.003669 0.021783 0.000000 -0.000001 0.000000
# 4 0.000000 0.000000 0.000000 0.027395 0.000000 0.000000
# 5 0.000000 0.000000 -0.000001 0.000000 0.107346 0.000000
# 6 0.000000 0.000000 0.000000 0.000000 0.000000 0.036944
#
#
# Mechanical properties :
#
#
# Convention : Reuss Voigt Hill
#
# Bulk Modulus (GPa) = 24.65129 31.19021 27.92075
# Shear Modulus (GPa) = 17.62396 23.39740 20.51068
#
# Velocity S-wave (km/s) = 2.93550 3.38231 3.16680
# Velocity P-wave (km/s) = 4.85208 5.52301 5.19838
#
# Compressibility (1/GPa) = 0.04056583
#
# Stress axis : x y z
#
# Youngs Moduli (GPa) = 27.97176 83.34589 45.90753
#
# Poissons Ratio (x) = 0.42946 0.25987
# Poissons Ratio (y) = 0.14413 0.16845
# Poissons Ratio (z) = 0.15834 0.30583
#
# Static dielectric constant tensor:
#      x y z
#    x 1.703990 0.000000 0.000000 
#    y 0.000000 1.772150 0.000000 
#    z 0.000000 0.000000 1.750380 
# 
# From -- ./inp_files/3665.got.cif
#   From: 2010.05.17/outbox.cif.g08.bks.cpg/sg46_2_cif.got.tgz:3665.got - 2010.06.03 19:58:25.
