data_PCOD9380228
_publ_section_title
;
Structure prediction by ZEFSAII (Michael W. Deem and Ramdas Pophale) SiO2 
 PCOD9380228
Probable space group: I M A 2
;
_chemical_formula_sum "Si O2"
_cell_formula_units_Z 40
_cell_length_a 8.508836
_cell_length_b 30.587373
_cell_length_c 7.480050
_cell_angle_alpha 90.000000
_cell_angle_beta 90.000000
_cell_angle_gamma 90.000000
_cell_volume 1946.779808
_symmetry_space_group_name_H-M "I M A 2"
_symmetry_group_IT_number 46
_symmetry_cell_setting 'orthorhombic'
loop_
_space_group_symop_operation_xyz
x,y,z
-x,-y,z
1/2-x,y,z
1/2+x,-y,z
1/2+x,1/2+y,1/2+z
1/2-x,1/2-y,1/2+z
-x,1/2+y,1/2+z
x,1/2-y,1/2+z
loop_
_atom_site_type_symbol
_atom_site_label
_atom_site_fract_x
_atom_site_fract_y
_atom_site_fract_z
Si Si1 0.939357 0.603407 0.062160
Si Si2 0.062188 0.618582 0.663478
Si Si3 0.438440 0.952093 0.870117
Si Si4 0.429283 0.289561 0.715114
Si Si5 0.929301 0.695807 0.139262
O O1 0.750000 0.605385 0.060724
O O2 0.000339 0.647766 0.162329
O O3 0.997546 0.562897 0.177503
O O4 0.997826 0.604749 0.858526
O O5 0.250000 0.618034 0.670785
O O6 0.007947 0.583985 0.515180
O O7 0.008489 0.668482 0.625989
O O8 0.250000 0.952298 0.866599
O O9 0.500000 0.000000 0.916717
O O10 0.250000 0.286120 0.645825
O O11 0.504446 0.241411 0.699979
O O12 0.421591 0.299971 0.924676
O O13 0.750000 0.695040 0.211572
#
# Coordination Sequence:
#
# PCOD9380228 Si02
#       5
#     8   8   8   8   8
#     4  10  21  39  64  90 120 158 200 249 303 356
#     4  10  22  40  59  85 124 161 197 247 302 359
#     4  11  25  43  64  90 119 155 202 251 305 363
#     4   9  17  31  52  80 113 153 202 245 287 346
#     4   8  16  29  50  81 112 149 196 242 286 342
#
# _framework density 20.546749999999999
#
# number of rings (size 3 to 8) (size 9 to 14) (size 15 to 20)
#    0.000    2.400    0.000    3.000    2.800    4.000 
#    0.000    7.000    0.000    0.000    0.000    0.000 
#    0.000    0.000    0.000    0.000    0.000    0.000 
#
# Total GULP energy -111573.457182 kJ/mol
# GULP energy per Si atom -5578.672859 kJ/mol
# Density = 2.049998 g / cm^3
# Si number density = 20.546750 Si / 1000 Ang^3
#
#
#
# Elastic Constant Matrix: (Units=GPa)
#
#
# Indices 1 2 3 4 5 6 
#
# 1 34.6818 9.4455 -0.2876 0.0003 -0.0001 -0.0002
# 2 9.4455 95.7841 7.1326 0.0025 0.0007 -0.0005
# 3 -0.2876 7.1326 40.3645 0.0017 0.0009 0.0000
# 4 0.0003 0.0025 0.0017 37.3238 0.0005 -0.0003
# 5 -0.0001 0.0007 0.0009 0.0005 19.2985 0.0002
# 6 -0.0002 -0.0005 0.0000 -0.0003 0.0002 28.3779
#
#
#
# Elastic Compliance Matrix: (Units=1/GPa)
#
#
# Indices 1 2 3 4 5 6 
#
# 1 0.029651 -0.002979 0.000738 0.000000 0.000000 0.000000
# 2 -0.002979 0.010879 -0.001944 -0.000001 0.000000 0.000000
# 3 0.000738 -0.001944 0.025123 -0.000001 -0.000001 0.000000
# 4 0.000000 -0.000001 -0.000001 0.026793 -0.000001 0.000000
# 5 0.000000 0.000000 -0.000001 -0.000001 0.051817 0.000000
# 6 0.000000 0.000000 0.000000 0.000000 0.000000 0.035239
#
#
# Mechanical properties :
#
#
# Convention : Reuss Voigt Hill
#
# Bulk Modulus (GPa) = 17.45721 22.60128 20.02924
# Shear Modulus (GPa) = 24.15866 27.30270 25.73068
#
# Velocity S-wave (km/s) = 3.43270 3.64924 3.54262
# Velocity P-wave (km/s) = 4.92199 5.36467 5.14809
#
# Compressibility (1/GPa) = 0.05728293
#
# Stress axis : x y z
#
# Youngs Moduli (GPa) = 33.72576 91.92336 39.80426
#
# Poissons Ratio (x) = 0.27383 -0.02936
# Poissons Ratio (y) = 0.10046 0.07736
# Poissons Ratio (z) = -0.02488 0.17866
#
# Static dielectric constant tensor:
#      x y z
#    x 1.714290 0.000000 0.000000 
#    y 0.000000 1.773380 0.000000 
#    z 0.000000 0.000000 1.725880 
# 
# From -- ./inp_files/3664.got.cif
#   From: 2010.05.17/outbox.cif.g08.bks.cpg/sg46_2_cif.got.tgz:3664.got - 2010.06.03 19:58:25.
