data_PCOD9380274
_publ_section_title
;
Structure prediction by ZEFSAII (Michael W. Deem and Ramdas Pophale) SiO2 
 PCOD9380274
Probable space group: I M A 2
;
_chemical_formula_sum "Si O2"
_cell_formula_units_Z 48
_cell_length_a 20.318377
_cell_length_b 5.279912
_cell_length_c 18.902499
_cell_angle_alpha 90.000000
_cell_angle_beta 90.000000
_cell_angle_gamma 90.000000
_cell_volume 2027.845775
_symmetry_space_group_name_H-M "I M A 2"
_symmetry_group_IT_number 46
_symmetry_cell_setting 'orthorhombic'
loop_
_space_group_symop_operation_xyz
x,y,z
-x,-y,z
1/2-x,y,z
1/2+x,-y,z
1/2+x,1/2+y,1/2+z
1/2-x,1/2-y,1/2+z
-x,1/2+y,1/2+z
x,1/2-y,1/2+z
loop_
_atom_site_type_symbol
_atom_site_label
_atom_site_fract_x
_atom_site_fract_y
_atom_site_fract_z
Si Si1 0.354804 0.481659 0.042370
Si Si2 0.500000 0.500000 0.996653
Si Si3 0.930992 0.250000 0.373481
Si Si4 0.645196 0.981660 0.704593
Si Si5 0.176808 0.510174 0.453068
Si Si6 0.323192 0.510173 0.793894
Si Si7 0.000000 0.000000 0.750310
O O1 0.332874 0.489088 0.123481
O O2 0.434330 0.449861 0.039974
O O3 0.335280 0.740978 0.002225
O O4 0.328612 0.238941 0.000562
O O5 0.476614 0.712490 0.941062
O O6 0.879739 0.471789 0.393595
O O7 0.879739 0.028211 0.353367
O O8 0.976614 0.287510 0.305900
O O9 0.671388 0.738943 0.746401
O O10 0.664721 0.240980 0.744738
O O11 0.565670 0.949863 0.706989
O O12 0.250000 0.520231 0.422250
O O13 0.250000 0.520230 0.824712
#
# Coordination Sequence:
#
# PCOD9380274 Si02
#       7
#     8   4   8   8   8   8   4
#     4  11  24  41  64  92 124 163 204 251 304 362
#     4  10  21  40  64  92 123 160 204 256 308 362
#     4  10  21  40  64  92 123 160 204 256 308 362
#     4  11  24  41  64  92 124 163 204 251 304 362
#     4  11  24  41  64  92 124 163 204 251 304 362
#     4  11  24  41  64  92 124 163 204 251 304 362
#     4  10  21  40  64  92 123 160 204 256 308 362
#
# _framework density 23.670438000000001
#
# number of rings (size 3 to 8) (size 9 to 14) (size 15 to 20)
#    0.000    1.333    0.000    5.000    0.000   12.000 
#    0.000   16.667    0.000    0.000    0.000    0.000 
#    0.000    0.000    0.000    0.000    0.000    0.000 
#
# Total GULP energy -134284.119417 kJ/mol
# GULP energy per Si atom -5595.171642 kJ/mol
# Density = 2.361656 g / cm^3
# Si number density = 23.670438 Si / 1000 Ang^3
#
#
#
# Elastic Constant Matrix: (Units=GPa)
#
#
# Indices 1 2 3 4 5 6 
#
# 1 139.5604 17.2926 -10.5183 0.0000 0.0000 0.0000
# 2 17.2926 169.9282 44.5385 0.0000 0.0000 0.0000
# 3 -10.5183 44.5385 101.9575 0.0000 0.0000 0.0000
# 4 0.0000 0.0000 0.0000 32.6706 0.0000 0.0000
# 5 0.0000 0.0000 0.0000 0.0000 -8.8652 0.0000
# 6 0.0000 0.0000 0.0000 0.0000 0.0000 1100.1752
#
#
#
# Elastic Compliance Matrix: (Units=1/GPa)
#
#
# Indices 1 2 3 4 5 6 
#
# 1 0.007391 -0.001075 0.001232 0.000000 0.000000 0.000000
# 2 -0.001075 0.006802 -0.003082 0.000000 0.000000 0.000000
# 3 0.001232 -0.003082 0.011282 0.000000 0.000000 0.000000
# 4 0.000000 0.000000 0.000000 0.030609 0.000000 0.000000
# 5 0.000000 0.000000 0.000000 0.000000 -0.112800 0.000000
# 6 0.000000 0.000000 0.000000 0.000000 0.000000 0.000909
#
#
# Mechanical properties :
#
#
# Convention : Reuss Voigt Hill
#
# Bulk Modulus (GPa) = 50.95642 57.11908 54.03775
# Shear Modulus (GPa) = -115.16568 248.80501 66.81967
#
# Velocity S-wave (km/s) = -6.98279 10.26354 5.31888
# Velocity P-wave (km/s) = 6.59078 12.83110 7.78456
#
# Compressibility (1/GPa) = 0.01962461
#
# Stress axis : x y z
#
# Youngs Moduli (GPa) = 135.29161 147.01279 88.64001
#
# Poissons Ratio (x) = 0.15806 -0.10922
# Poissons Ratio (y) = 0.14546 0.27322
# Poissons Ratio (z) = -0.16670 0.45314
#
# Static dielectric constant tensor:
#      x y z
#    x 1.904380 0.000000 0.000000 
#    y 0.000000 1.947320 0.000000 
#    z 0.000000 0.000000 1.860820 
# 
# From -- ./inp_files/22371.got.cif
#   From: 2010.05.17/outbox.cif.g08.bks.cpg/sg46_12_cif.got.tgz:22371.got - 2010.06.03 19:58:25.
