data_PCOD9380650
_publ_section_title
;
Structure prediction by ZEFSAII (Michael W. Deem and Ramdas Pophale) SiO2 
 PCOD9380650
Probable space group: I M A 2
;
_chemical_formula_sum "Si O2"
_cell_formula_units_Z 40
_cell_length_a 20.107436
_cell_length_b 5.383964
_cell_length_c 17.945777
_cell_angle_alpha 90.000000
_cell_angle_beta 90.000000
_cell_angle_gamma 90.000000
_cell_volume 1942.768750
_symmetry_space_group_name_H-M "I M A 2"
_symmetry_group_IT_number 46
_symmetry_cell_setting 'orthorhombic'
loop_
_space_group_symop_operation_xyz
x,y,z
-x,-y,z
1/2-x,y,z
1/2+x,-y,z
1/2+x,1/2+y,1/2+z
1/2-x,1/2-y,1/2+z
-x,1/2+y,1/2+z
x,1/2-y,1/2+z
loop_
_atom_site_type_symbol
_atom_site_label
_atom_site_fract_x
_atom_site_fract_y
_atom_site_fract_z
Si Si1 0.614829 0.948516 0.553090
Si Si2 0.429837 0.367707 0.429442
Si Si3 0.579622 0.978162 0.311245
Si Si4 0.921071 0.040583 0.136420
Si Si5 0.674691 0.234068 0.431023
O O1 0.565250 0.862862 0.486215
O O2 0.616834 0.701830 0.603681
O O3 0.595652 0.189744 0.601756
O O4 0.674536 0.038568 0.499522
O O5 0.500000 0.500000 0.429567
O O6 0.409665 0.295187 0.345403
O O7 0.369649 0.535881 0.458594
O O8 0.500000 0.000000 0.326150
O O9 0.589978 0.033158 0.225196
O O10 0.630434 0.134522 0.362006
O O11 0.000000 0.000000 0.122711
O O12 0.750000 0.294605 0.410319
#
# Coordination Sequence:
#
# PCOD9380650 Si02
#       5
#     8   8   8   8   8
#     4  11  24  42  65 100 137 178 227 275 341 402
#     4  11  22  39  74  99 136 179 238 283 335 392
#     4  10  23  41  68 104 138 178 228 283 338 409
#     4  11  24  39  69 104 143 175 221 284 346 401
#     4  11  25  45  70 101 139 181 231 284 341 405
#
# _framework density 20.589172999999999
#
# number of rings (size 3 to 8) (size 9 to 14) (size 15 to 20)
#    0.000    1.200    4.000    1.200    5.600    3.200 
#    0.000    2.000    0.000    0.000    0.000    0.000 
#    0.000    0.000    0.000    0.000    0.000    0.000 
#
# Total GULP energy -111356.937208 kJ/mol
# GULP energy per Si atom -5567.846860 kJ/mol
# Density = 2.054231 g / cm^3
# Si number density = 20.589173 Si / 1000 Ang^3
#
#
#
# Elastic Constant Matrix: (Units=GPa)
#
#
# Indices 1 2 3 4 5 6 
#
# 1 121.8065 55.9032 46.6899 0.0000 0.0000 0.0000
# 2 55.9032 134.0702 67.2473 0.0000 0.0000 0.0000
# 3 46.6899 67.2473 152.3969 0.0000 0.0000 0.0000
# 4 0.0000 0.0000 0.0000 22.7993 0.0000 0.0000
# 5 0.0000 0.0000 0.0000 0.0000 11.0686 0.0000
# 6 0.0000 0.0000 0.0000 0.0000 0.0000 12.9224
#
#
#
# Elastic Compliance Matrix: (Units=1/GPa)
#
#
# Indices 1 2 3 4 5 6 
#
# 1 0.010464 -0.003538 -0.001645 0.000000 0.000000 0.000000
# 2 -0.003538 0.010775 -0.003671 0.000000 0.000000 0.000000
# 3 -0.001645 -0.003671 0.008685 0.000000 0.000000 0.000000
# 4 0.000000 0.000000 0.000000 0.043861 0.000000 0.000000
# 5 0.000000 0.000000 0.000000 0.000000 0.090346 0.000000
# 6 0.000000 0.000000 0.000000 0.000000 0.000000 0.077385
#
#
# Mechanical properties :
#
#
# Convention : Reuss Voigt Hill
#
# Bulk Modulus (GPa) = 81.84911 83.10604 82.47757
# Shear Modulus (GPa) = 18.99002 25.25361 22.12181
#
# Velocity S-wave (km/s) = 3.04028 3.50601 3.28142
# Velocity P-wave (km/s) = 7.22248 7.53930 7.38259
#
# Compressibility (1/GPa) = 0.01221760
#
# Stress axis : x y z
#
# Youngs Moduli (GPa) = 95.56557 92.80467 115.13567
#
# Poissons Ratio (x) = 0.32837 0.18934
# Poissons Ratio (y) = 0.33814 0.42263
# Poissons Ratio (z) = 0.15716 0.34066
#
# Static dielectric constant tensor:
#      x y z
#    x 1.731860 0.000000 0.000000 
#    y 0.000000 1.859250 0.000000 
#    z 0.000000 0.000000 1.768420 
# 
# From -- ./inp_files/19769.got.cif
#   From: 2010.05.17/outbox.cif.g08.bks.cpg/sg46_10_cif.got.tgz:19769.got - 2010.06.03 19:58:25.
