data_PCOD9380243
_publ_section_title
;
Structure prediction by ZEFSAII (Michael W. Deem and Ramdas Pophale) SiO2 
 PCOD9380243
Probable space group: I M A 2
;
_chemical_formula_sum "Si O2"
_cell_formula_units_Z 56
_cell_length_a 14.662904
_cell_length_b 12.381000
_cell_length_c 13.668837
_cell_angle_alpha 90.000000
_cell_angle_beta 90.000000
_cell_angle_gamma 90.000000
_cell_volume 2481.460003
_symmetry_space_group_name_H-M "I M A 2"
_symmetry_group_IT_number 46
_symmetry_cell_setting 'orthorhombic'
loop_
_space_group_symop_operation_xyz
x,y,z
-x,-y,z
1/2-x,y,z
1/2+x,-y,z
1/2+x,1/2+y,1/2+z
1/2-x,1/2-y,1/2+z
-x,1/2+y,1/2+z
x,1/2-y,1/2+z
loop_
_atom_site_type_symbol
_atom_site_label
_atom_site_fract_x
_atom_site_fract_y
_atom_site_fract_z
Si Si1 0.649370 0.617604 0.238580
Si Si2 0.606781 0.471266 0.406485
Si Si3 0.598148 0.953807 0.109291
Si Si4 0.859053 0.226360 0.468056
Si Si5 0.532313 0.779816 0.591045
Si Si6 0.642446 0.459341 0.816480
Si Si7 0.857873 0.689848 0.894621
O O1 0.750000 0.631611 0.192358
O O2 0.649089 0.512558 0.306052
O O3 0.569692 0.625418 0.159428
O O4 0.634964 0.715515 0.315298
O O5 0.500000 0.500000 0.394396
O O6 0.645555 0.532205 0.503911
O O7 0.623139 0.345787 0.426147
O O8 0.575778 0.830399 0.136303
O O9 0.500000 0.000000 0.086301
O O10 0.631004 0.027290 0.199361
O O11 0.750000 0.214148 0.488886
O O12 0.889144 0.140406 0.383631
O O13 0.925460 0.282369 0.063142
O O14 0.582812 0.783266 0.487701
O O15 0.750000 0.457936 0.831496
O O16 0.608064 0.574046 0.856110
O O17 0.750000 0.680916 0.918573
#
# Coordination Sequence:
#
# PCOD9380243 Si02
#       7
#     8   8   8   8   8   8   8
#     4  11  23  40  71 110 143 181 236 307 371 422
#     4  11  22  46  70 102 142 190 237 296 365 426
#     4  11  22  39  68 103 133 178 241 293 352 421
#     4  11  25  47  71 101 148 201 242 288 352 433
#     4  12  23  43  70 104 142 186 235 302 364 425
#     4  10  24  43  68 104 143 185 235 287 354 437
#     4  10  21  39  67 103 143 178 226 297 364 425
#
# _framework density 22.567359
#
# number of rings (size 3 to 8) (size 9 to 14) (size 15 to 20)
#    0.000    1.143    5.714    0.857    2.000    2.857 
#    2.571    0.000    0.000    0.000    0.000    0.000 
#    0.000    0.000    0.000    0.000    0.000    0.000 
#
# Total GULP energy -156257.274243 kJ/mol
# GULP energy per Si atom -5580.616937 kJ/mol
# Density = 2.251600 g / cm^3
# Si number density = 22.567359 Si / 1000 Ang^3
#
#
#
# Elastic Constant Matrix: (Units=GPa)
#
#
# Indices 1 2 3 4 5 6 
#
# 1 119.5421 27.4335 51.7444 0.0000 0.0000 0.0000
# 2 27.4335 58.3007 29.7808 0.0000 0.0000 0.0000
# 3 51.7444 29.7808 70.3608 0.0000 0.0000 0.0000
# 4 0.0000 0.0000 0.0000 66.9571 0.0000 0.0000
# 5 0.0000 0.0000 0.0000 0.0000 -108.9748 0.0000
# 6 0.0000 0.0000 0.0000 0.0000 0.0000 23.2108
#
#
#
# Elastic Compliance Matrix: (Units=1/GPa)
#
#
# Indices 1 2 3 4 5 6 
#
# 1 0.012373 -0.001498 -0.008466 0.000000 0.000000 0.000000
# 2 -0.001498 0.022065 -0.008238 0.000000 0.000000 0.000000
# 3 -0.008466 -0.008238 0.023925 0.000000 0.000000 0.000000
# 4 0.000000 0.000000 0.000000 0.014935 0.000000 0.000000
# 5 0.000000 0.000000 0.000000 0.000000 -0.009176 0.000000
# 6 0.000000 0.000000 0.000000 0.000000 0.000000 0.043083
#
#
# Mechanical properties :
#
#
# Convention : Reuss Voigt Hill
#
# Bulk Modulus (GPa) = 45.53517 51.79123 48.66320
# Shear Modulus (GPa) = 33.12835 5.52159 19.32497
#
# Velocity S-wave (km/s) = 3.83557 1.56589 2.92948
# Velocity P-wave (km/s) = 6.31164 5.12531 5.74916
#
# Compressibility (1/GPa) = 0.02196105
#
# Stress axis : x y z
#
# Youngs Moduli (GPa) = 80.81867 45.32014 41.79762
#
# Poissons Ratio (x) = 0.06789 0.35384
# Poissons Ratio (y) = 0.12107 0.34431
# Poissons Ratio (z) = 0.68417 0.37333
#
# Static dielectric constant tensor:
#      x y z
#    x 1.803390 0.000000 0.000000 
#    y 0.000000 1.481440 0.000000 
#    z 0.000000 0.000000 1.901420 
# 
# From -- ./inp_files/15954.got.cif
#   From: 2010.05.17/outbox.cif.g08.bks.cpg/sg46_8_cif.got.tgz:15954.got - 2010.06.03 19:58:25.
