data_PCOD9380891
_publ_section_title
;
Structure prediction by ZEFSAII (Michael W. Deem and Ramdas Pophale) SiO2 
 PCOD9380891
Probable space group: I M A 2
;
_chemical_formula_sum "Si O2"
_cell_formula_units_Z 64
_cell_length_a 16.877467
_cell_length_b 21.175380
_cell_length_c 8.360713
_cell_angle_alpha 90.000000
_cell_angle_beta 90.000000
_cell_angle_gamma 90.000000
_cell_volume 2988.008274
_symmetry_space_group_name_H-M "I M A 2"
_symmetry_group_IT_number 46
_symmetry_cell_setting 'orthorhombic'
loop_
_space_group_symop_operation_xyz
x,y,z
-x,-y,z
1/2-x,y,z
1/2+x,-y,z
1/2+x,1/2+y,1/2+z
1/2-x,1/2-y,1/2+z
-x,1/2+y,1/2+z
x,1/2-y,1/2+z
loop_
_atom_site_type_symbol
_atom_site_label
_atom_site_fract_x
_atom_site_fract_y
_atom_site_fract_z
Si Si1 0.098145 0.057294 0.789290
Si Si2 0.482287 0.428585 0.641148
Si Si3 0.575582 0.312561 0.601882
Si Si4 0.660601 0.296800 0.279352
Si Si5 0.560314 0.762922 0.506282
Si Si6 0.000604 0.397759 0.978049
Si Si7 0.836122 0.812453 0.763329
Si Si8 0.658007 0.066094 0.612410
O O1 0.162639 0.112473 0.781047
O O2 0.039020 0.076508 0.643091
O O3 0.131192 0.987668 0.742719
O O4 0.059774 0.068762 0.965856
O O5 0.500000 0.500000 0.669533
O O6 0.561521 0.385670 0.634095
O O7 0.448198 0.409419 0.816726
O O8 0.597645 0.305692 0.417947
O O9 0.636954 0.268192 0.692810
O O10 0.487967 0.283898 0.621356
O O11 0.750000 0.290787 0.342868
O O12 0.657989 0.361912 0.179722
O O13 0.499705 0.821278 0.482691
O O14 0.636607 0.794574 0.586324
O O15 0.595484 0.718440 0.370438
O O16 0.912941 0.429261 0.981648
O O17 0.750000 0.786946 0.802453
O O18 0.750000 0.052730 0.564183
#
# Coordination Sequence:
#
# PCOD9380891 Si02
#       8
#     8   8   8   8   8   8   8   8
#     4  11  23  42  69  96 134 181 228 281 338 415
#     4  12  24  39  67 101 129 172 229 283 328 397
#     4  12  22  41  63  95 130 168 229 277 329 404
#     4  11  24  40  63  94 134 177 223 283 344 402
#     4  11  22  39  65  94 125 174 219 276 334 405
#     4  11  23  43  68  99 133 175 233 283 336 410
#     4  11  23  40  63  96 132 169 218 278 349 409
#     4  11  23  42  68  98 138 185 229 285 353 414
#
# _framework density 21.418951
#
# number of rings (size 3 to 8) (size 9 to 14) (size 15 to 20)
#    0.000    0.750    2.500    6.750    0.000    0.000 
#    0.000    0.625    0.000   12.000    0.000    0.000 
#    0.000    0.000    0.000    0.000    0.000    0.000 
#
# Total GULP energy -178196.008278 kJ/mol
# GULP energy per Si atom -5568.625259 kJ/mol
# Density = 2.137020 g / cm^3
# Si number density = 21.418951 Si / 1000 Ang^3
#
#
#
# Elastic Constant Matrix: (Units=GPa)
#
#
# Indices 1 2 3 4 5 6 
#
# 1 103.8598 26.4518 31.8979 0.0000 0.0000 0.0000
# 2 26.4518 129.8197 23.5829 0.0000 0.0000 0.0000
# 3 31.8979 23.5829 84.3858 0.0000 0.0000 0.0000
# 4 0.0000 0.0000 0.0000 33.3328 0.0000 0.0000
# 5 0.0000 0.0000 0.0000 0.0000 77.5878 0.0000
# 6 0.0000 0.0000 0.0000 0.0000 0.0000 17.7819
#
#
#
# Elastic Compliance Matrix: (Units=1/GPa)
#
#
# Indices 1 2 3 4 5 6 
#
# 1 0.011197 -0.001594 -0.003787 0.000000 0.000000 0.000000
# 2 -0.001594 0.008342 -0.001729 0.000000 0.000000 0.000000
# 3 -0.003787 -0.001729 0.013765 0.000000 0.000000 0.000000
# 4 0.000000 0.000000 0.000000 0.030000 0.000000 0.000000
# 5 0.000000 0.000000 0.000000 0.000000 0.012889 0.000000
# 6 0.000000 0.000000 0.000000 0.000000 0.000000 0.056237
#
#
# Mechanical properties :
#
#
# Convention : Reuss Voigt Hill
#
# Bulk Modulus (GPa) = 52.39767 53.54785 52.97276
# Shear Modulus (GPa) = 32.67735 41.48270 37.08002
#
# Velocity S-wave (km/s) = 3.91017 4.40560 4.16526
# Velocity P-wave (km/s) = 6.70091 7.13678 6.92228
#
# Compressibility (1/GPa) = 0.01908482
#
# Stress axis : x y z
#
# Youngs Moduli (GPa) = 89.30655 119.87883 72.64758
#
# Poissons Ratio (x) = 0.19103 0.27514
# Poissons Ratio (y) = 0.14232 0.12560
# Poissons Ratio (z) = 0.33823 0.20725
#
# Static dielectric constant tensor:
#      x y z
#    x 1.441020 0.000000 0.000000 
#    y 0.000000 1.837070 0.000000 
#    z 0.000000 0.000000 1.885630 
# 
# From -- ./inp_files/6923.got.cif
#   From: 2010.05.17/outbox.cif.g08.bks.cpg/sg46_4_cif.got.tgz:6923.got - 2010.06.03 19:58:25.
