data_PCOD9380368
_publ_section_title
;
Structure prediction by ZEFSAII (Michael W. Deem and Ramdas Pophale) SiO2 
 PCOD9380368
Probable space group: I M A 2
;
_chemical_formula_sum "Si O2"
_cell_formula_units_Z 32
_cell_length_a 8.398458
_cell_length_b 12.161341
_cell_length_c 13.490503
_cell_angle_alpha 90.000000
_cell_angle_beta 90.000000
_cell_angle_gamma 90.000000
_cell_volume 1377.872916
_symmetry_space_group_name_H-M "I M A 2"
_symmetry_group_IT_number 46
_symmetry_cell_setting 'orthorhombic'
loop_
_space_group_symop_operation_xyz
x,y,z
-x,-y,z
1/2-x,y,z
1/2+x,-y,z
1/2+x,1/2+y,1/2+z
1/2-x,1/2-y,1/2+z
-x,1/2+y,1/2+z
x,1/2-y,1/2+z
loop_
_atom_site_type_symbol
_atom_site_label
_atom_site_fract_x
_atom_site_fract_y
_atom_site_fract_z
Si Si1 0.750000 0.870190 0.697371
Si Si2 0.076813 0.859859 0.590043
Si Si3 0.064208 0.603815 0.548306
Si Si4 0.250000 0.372792 0.418449
Si Si5 0.000000 0.000000 0.402307
Si Si6 0.250000 0.154480 0.313432
O O1 0.587367 0.896300 0.641027
O O2 0.750000 0.919831 0.807372
O O3 0.750000 0.736933 0.720590
O O4 0.250000 0.886218 0.636376
O O5 0.065852 0.727180 0.589229
O O6 0.077085 0.913007 0.480159
O O7 0.250000 0.584943 0.518227
O O8 0.000000 0.500000 0.612518
O O9 0.920689 0.604150 0.468000
O O10 0.250000 0.240469 0.405002
O O11 0.104025 0.075230 0.331459
#
# Coordination Sequence:
#
# PCOD9380368 Si02
#       6
#     4   8   8   4   4   4
#     4  10  24  46  58  92 144 176 201 285 349 393
#     4  11  23  40  67 100 131 172 229 280 341 406
#     4  11  22  39  67  94 124 177 230 271 319 411
#     4  10  21  44  60  90 131 177 216 270 338 400
#     4  12  20  44  74 100 126 182 244 288 328 428
#     4  10  23  42  68  96 139 175 225 291 335 413
#
# _framework density 23.224204
#
# number of rings (size 3 to 8) (size 9 to 14) (size 15 to 20)
#    0.750    0.500    5.000    1.500    0.000    1.000 
#    6.750    0.000    0.000    0.000    0.000    0.000 
#    0.000    0.000    0.000    0.000    0.000    0.000 
#
# Total GULP energy -89135.184374 kJ/mol
# GULP energy per Si atom -5570.949023 kJ/mol
# Density = 2.317134 g / cm^3
# Si number density = 23.224204 Si / 1000 Ang^3
#
#
#
# Elastic Constant Matrix: (Units=GPa)
#
#
# Indices 1 2 3 4 5 6 
#
# 1 262.9738 59.8573 73.6903 0.0000 0.0000 0.0000
# 2 59.8573 141.2126 6.4030 0.0000 0.0000 0.0000
# 3 73.6903 6.4030 70.6833 0.0000 0.0000 0.0000
# 4 0.0000 0.0000 0.0000 21.6000 0.0000 0.0000
# 5 0.0000 0.0000 0.0000 0.0000 13.0426 0.0000
# 6 0.0000 0.0000 0.0000 0.0000 0.0000 40.9319
#
#
#
# Elastic Compliance Matrix: (Units=1/GPa)
#
#
# Indices 1 2 3 4 5 6 
#
# 1 0.006023 -0.002278 -0.006073 0.000000 0.000000 0.000000
# 2 -0.002278 0.007972 0.001652 0.000000 0.000000 0.000000
# 3 -0.006073 0.001652 0.020329 0.000000 0.000000 0.000000
# 4 0.000000 0.000000 0.000000 0.046296 0.000000 0.000000
# 5 0.000000 0.000000 0.000000 0.000000 0.076672 0.000000
# 6 0.000000 0.000000 0.000000 0.000000 0.000000 0.024431
#
#
# Mechanical properties :
#
#
# Convention : Reuss Voigt Hill
#
# Bulk Modulus (GPa) = 47.78319 83.86342 65.82331
# Shear Modulus (GPa) = 24.74093 37.44285 31.09189
#
# Velocity S-wave (km/s) = 3.26745 4.01962 3.66289
# Velocity P-wave (km/s) = 5.90376 7.59815 6.80390
#
# Compressibility (1/GPa) = 0.02092786
#
# Stress axis : x y z
#
# Youngs Moduli (GPa) = 166.03721 125.43871 49.19096
#
# Poissons Ratio (x) = 0.28570 0.29872
# Poissons Ratio (y) = 0.37816 -0.08128
# Poissons Ratio (z) = 1.00829 -0.20726
#
# Static dielectric constant tensor:
#      x y z
#    x 1.860450 0.000000 0.000000 
#    y 0.000000 2.004490 0.000000 
#    z 0.000000 0.000000 1.840170 
# 
# From -- ./inp_files/13512.got.cif
#   From: 2010.05.17/outbox.cif.g08.bks.cpg/sg46_7_cif.got.tgz:13512.got - 2010.06.03 19:58:25.
