data_PCOD9380312
_publ_section_title
;
Structure prediction by ZEFSAII (Michael W. Deem and Ramdas Pophale) SiO2 
 PCOD9380312
Probable space group: I M A 2
;
_chemical_formula_sum "Si O2"
_cell_formula_units_Z 48
_cell_length_a 14.057781
_cell_length_b 7.281496
_cell_length_c 21.583605
_cell_angle_alpha 90.000000
_cell_angle_beta 90.000000
_cell_angle_gamma 90.000000
_cell_volume 2209.333985
_symmetry_space_group_name_H-M "I M A 2"
_symmetry_group_IT_number 46
_symmetry_cell_setting 'orthorhombic'
loop_
_space_group_symop_operation_xyz
x,y,z
-x,-y,z
1/2-x,y,z
1/2+x,-y,z
1/2+x,1/2+y,1/2+z
1/2-x,1/2-y,1/2+z
-x,1/2+y,1/2+z
x,1/2-y,1/2+z
loop_
_atom_site_type_symbol
_atom_site_label
_atom_site_fract_x
_atom_site_fract_y
_atom_site_fract_z
Si Si1 0.461316 0.180072 0.122050
Si Si2 0.647591 0.319944 0.072079
Si Si3 0.356274 0.278164 0.010921
Si Si4 0.856329 0.523611 0.198938
Si Si5 0.482436 0.283314 0.891235
Si Si6 0.361828 0.976911 0.838163
O O1 0.545863 0.225640 0.073133
O O2 0.431357 0.330957 0.171974
O O3 0.500000 0.000000 0.154594
O O4 0.373828 0.165107 0.074187
O O5 0.750000 0.234830 0.054993
O O6 0.651395 0.375167 0.144632
O O7 0.639788 0.509476 0.033853
O O8 0.250000 0.242072 0.986840
O O9 0.434283 0.253615 0.958152
O O10 0.750000 0.610110 0.204141
O O11 0.877815 0.437953 0.265324
O O12 0.500000 0.500000 0.881252
O O13 0.405930 0.179941 0.847557
O O14 0.578595 0.166494 0.879737
O O15 0.250000 0.969719 0.851511
#
# Coordination Sequence:
#
# PCOD9380312 Si02
#       6
#     8   8   8   8   8   8
#     4  11  22  33  61  95 128 161 209 266 332 387
#     4   9  19  36  60  85 119 163 207 255 318 384
#     4  10  21  41  63  88 124 169 212 263 329 397
#     4   9  19  40  61  81 119 166 208 257 315 386
#     4  11  24  41  67  95 131 171 226 275 333 394
#     4  10  24  43  65  94 131 176 222 272 334 398
#
# _framework density 21.726005000000001
#
# number of rings (size 3 to 8) (size 9 to 14) (size 15 to 20)
#    0.000    2.000    0.000    5.000    7.000    3.333 
#    0.000    0.833    0.000    0.000    0.000    0.000 
#    0.000    0.000    0.000    0.000    0.000    0.000 
#
# Total GULP energy -133780.041285 kJ/mol
# GULP energy per Si atom -5574.168387 kJ/mol
# Density = 2.167656 g / cm^3
# Si number density = 21.726005 Si / 1000 Ang^3
#
#
#
# Elastic Constant Matrix: (Units=GPa)
#
#
# Indices 1 2 3 4 5 6 
#
# 1 158.1658 37.3752 34.2992 0.0000 0.0000 0.0000
# 2 37.3752 69.9613 10.6429 0.0000 0.0000 0.0000
# 3 34.2992 10.6429 90.9283 0.0000 0.0000 0.0000
# 4 0.0000 0.0000 0.0000 3.2887 0.0000 0.0000
# 5 0.0000 0.0000 0.0000 0.0000 -10.7236 0.0000
# 6 0.0000 0.0000 0.0000 0.0000 0.0000 24.3901
#
#
#
# Elastic Compliance Matrix: (Units=1/GPa)
#
#
# Indices 1 2 3 4 5 6 
#
# 1 0.007750 -0.003763 -0.002483 0.000000 0.000000 0.000000
# 2 -0.003763 0.016379 -0.000498 0.000000 0.000000 0.000000
# 3 -0.002483 -0.000498 0.011993 0.000000 0.000000 0.000000
# 4 0.000000 0.000000 0.000000 0.304071 0.000000 0.000000
# 5 0.000000 0.000000 0.000000 0.000000 -0.093252 0.000000
# 6 0.000000 0.000000 0.000000 0.000000 0.000000 0.041000
#
#
# Mechanical properties :
#
#
# Convention : Reuss Voigt Hill
#
# Bulk Modulus (GPa) = 44.17910 53.74333 48.96121
# Shear Modulus (GPa) = 16.18264 19.17359 17.67811
#
# Velocity S-wave (km/s) = 2.73216 2.97394 2.85561
# Velocity P-wave (km/s) = 5.50742 6.04839 5.78423
#
# Compressibility (1/GPa) = 0.02263514
#
# Stress axis : x y z
#
# Youngs Moduli (GPa) = 129.03160 61.05230 83.38496
#
# Poissons Ratio (x) = 0.22971 0.20705
# Poissons Ratio (y) = 0.48549 0.04152
# Poissons Ratio (z) = 0.32039 0.03040
#
# Static dielectric constant tensor:
#      x y z
#    x 1.914280 0.000000 0.000000 
#    y 0.000000 1.845070 0.000000 
#    z 0.000000 0.000000 1.771380 
# 
# From -- ./inp_files/21904.got.cif
#   From: 2010.05.17/outbox.cif.g08.bks.cpg/sg46_11_cif.got.tgz:21904.got - 2010.06.03 19:58:25.
