data_PCOD9380360
_publ_section_title
;
Structure prediction by ZEFSAII (Michael W. Deem and Ramdas Pophale) SiO2 
 PCOD9380360
Probable space group: I M A 2
;
_chemical_formula_sum "Si O2"
_cell_formula_units_Z 40
_cell_length_a 10.152853
_cell_length_b 8.363598
_cell_length_c 25.412614
_cell_angle_alpha 90.000000
_cell_angle_beta 90.000000
_cell_angle_gamma 90.000000
_cell_volume 2157.896389
_symmetry_space_group_name_H-M "I M A 2"
_symmetry_group_IT_number 46
_symmetry_cell_setting 'orthorhombic'
loop_
_space_group_symop_operation_xyz
x,y,z
-x,-y,z
1/2-x,y,z
1/2+x,-y,z
1/2+x,1/2+y,1/2+z
1/2-x,1/2-y,1/2+z
-x,1/2+y,1/2+z
x,1/2-y,1/2+z
loop_
_atom_site_type_symbol
_atom_site_label
_atom_site_fract_x
_atom_site_fract_y
_atom_site_fract_z
Si Si1 0.019745 0.184882 0.204190
Si Si2 0.750000 0.340897 0.240161
Si Si3 0.000000 0.500000 0.426181
Si Si4 0.750000 0.808943 0.768195
Si Si5 0.250000 0.549647 0.354971
Si Si6 0.602882 0.864932 0.603771
Si Si7 0.091289 0.162307 0.480528
O O1 0.118942 0.220566 0.251859
O O2 0.083956 0.235757 0.149033
O O3 0.881616 0.269942 0.215831
O O4 0.000000 0.000000 0.201957
O O5 0.750000 0.530985 0.232405
O O6 0.750000 0.331618 0.304427
O O7 0.120968 0.558138 0.390075
O O8 0.045949 0.334753 0.455995
O O9 0.750000 0.875340 0.826840
O O10 0.750000 0.930596 0.605094
O O11 0.578596 0.813468 0.543682
O O12 0.500000 0.000000 0.617292
O O13 0.250000 0.135797 0.469199
O O14 0.000000 0.000000 0.468155
#
# Coordination Sequence:
#
# PCOD9380360 Si02
#       7
#     8   4   4   4   4   8   8
#     4  12  23  37  60  97 130 166 212 270 326 377
#     4  10  23  41  65  83 122 172 216 259 314 395
#     4  12  22  46  72 100 128 180 224 282 342 388
#     4  10  21  43  63  81 124 170 216 263 310 397
#     4  10  24  42  70  92 120 178 230 268 328 398
#     4  10  22  41  63  94 131 177 216 256 322 401
#     4  10  24  44  69 100 138 175 223 279 334 403
#
# _framework density 18.536570999999999
#
# number of rings (size 3 to 8) (size 9 to 14) (size 15 to 20)
#    0.600    0.800    2.000    3.600    4.200    0.000 
#    0.000    6.000    0.000    0.000    0.000    0.000 
#    0.000    0.000    0.000    0.000    0.000    0.000 
#
# Total GULP energy -111381.530793 kJ/mol
# GULP energy per Si atom -5569.076540 kJ/mol
# Density = 1.849438 g / cm^3
# Si number density = 18.536571 Si / 1000 Ang^3
#
#
#
# Elastic Constant Matrix: (Units=GPa)
#
#
# Indices 1 2 3 4 5 6 
#
# 1 136.1328 39.2501 35.5638 0.0000 0.0000 0.0000
# 2 39.2501 93.8041 30.1824 0.0000 0.0000 0.0000
# 3 35.5638 30.1824 69.5195 0.0000 0.0000 0.0000
# 4 0.0000 0.0000 0.0000 8.8504 0.0000 0.0000
# 5 0.0000 0.0000 0.0000 0.0000 39.6692 0.0000
# 6 0.0000 0.0000 0.0000 0.0000 0.0000 34.1906
#
#
#
# Elastic Compliance Matrix: (Units=1/GPa)
#
#
# Indices 1 2 3 4 5 6 
#
# 1 0.009016 -0.002660 -0.003457 0.000000 0.000000 0.000000
# 2 -0.002660 0.013176 -0.004360 0.000000 0.000000 0.000000
# 3 -0.003457 -0.004360 0.018046 0.000000 0.000000 0.000000
# 4 0.000000 0.000000 0.000000 0.112989 0.000000 0.000000
# 5 0.000000 0.000000 0.000000 0.000000 0.025208 0.000000
# 6 0.000000 0.000000 0.000000 0.000000 0.000000 0.029248
#
#
# Mechanical properties :
#
#
# Convention : Reuss Voigt Hill
#
# Bulk Modulus (GPa) = 51.85701 56.60543 54.23122
# Shear Modulus (GPa) = 21.27063 29.50605 25.38834
#
# Velocity S-wave (km/s) = 3.39115 3.99403 3.70487
# Velocity P-wave (km/s) = 6.58554 7.20231 6.90082
#
# Compressibility (1/GPa) = 0.01928380
#
# Stress axis : x y z
#
# Youngs Moduli (GPa) = 110.91472 75.89348 55.41401
#
# Poissons Ratio (x) = 0.20188 0.19159
# Poissons Ratio (y) = 0.29504 0.24160
# Poissons Ratio (z) = 0.38347 0.33088
#
# Static dielectric constant tensor:
#      x y z
#    x 1.655890 0.000000 0.000000 
#    y 0.000000 1.634680 0.000000 
#    z 0.000000 0.000000 1.642490 
# 
# From -- ./inp_files/22797.got.cif
#   From: 2010.05.17/outbox.cif.g08.bks.cpg/sg46_12_cif.got.tgz:22797.got - 2010.06.03 19:58:25.
