data_PCOD9380520
_publ_section_title
;
Structure prediction by ZEFSAII (Michael W. Deem and Ramdas Pophale) SiO2 
 PCOD9380520
Probable space group: I M A 2
;
_chemical_formula_sum "Si O2"
_cell_formula_units_Z 40
_cell_length_a 26.411194
_cell_length_b 7.015003
_cell_length_c 9.597832
_cell_angle_alpha 90.000000
_cell_angle_beta 90.000000
_cell_angle_gamma 90.000000
_cell_volume 1778.234534
_symmetry_space_group_name_H-M "I M A 2"
_symmetry_group_IT_number 46
_symmetry_cell_setting 'orthorhombic'
loop_
_space_group_symop_operation_xyz
x,y,z
-x,-y,z
1/2-x,y,z
1/2+x,-y,z
1/2+x,1/2+y,1/2+z
1/2-x,1/2-y,1/2+z
-x,1/2+y,1/2+z
x,1/2-y,1/2+z
loop_
_atom_site_type_symbol
_atom_site_label
_atom_site_fract_x
_atom_site_fract_y
_atom_site_fract_z
Si Si1 0.607558 0.733565 0.606720
Si Si2 0.341256 0.874430 0.697017
Si Si3 0.502018 0.295205 0.487120
Si Si4 0.067341 0.605008 0.762755
Si Si5 0.694197 0.453341 0.493919
O O1 0.648562 0.597901 0.530695
O O2 0.554776 0.760905 0.526042
O O3 0.614309 0.246724 0.262900
O O4 0.634012 0.567871 0.139969
O O5 0.410907 0.393279 0.739311
O O6 0.316621 0.743386 0.577329
O O7 0.306446 0.921152 0.828628
O O8 0.500000 0.500000 0.408851
O O9 0.533948 0.340447 0.626977
O O10 0.533777 0.151772 0.394978
O O11 0.750000 0.525076 0.536955
#
# Coordination Sequence:
#
# PCOD9380520 Si02
#       5
#     8   8   8   8   8
#     4  10  25  44  68 108 139 186 244 294 351 436
#     4  11  24  47  73 104 142 185 243 300 365 437
#     4  10  22  41  63  99 145 188 228 276 348 420
#     4  10  22  43  65  99 147 187 227 284 351 423
#     4  11  26  48  73 101 140 186 245 311 370 420
#
# _framework density 22.494219999999999
#
# number of rings (size 3 to 8) (size 9 to 14) (size 15 to 20)
#    0.000    1.600    0.000    4.200    5.600    6.400 
#   14.400    0.000    0.000    0.000    0.000    0.000 
#    0.000    0.000    0.000    0.000    0.000    0.000 
#
# Total GULP energy -111930.241344 kJ/mol
# GULP energy per Si atom -5596.512067 kJ/mol
# Density = 2.244302 g / cm^3
# Si number density = 22.494220 Si / 1000 Ang^3
#
#
#
# Elastic Constant Matrix: (Units=GPa)
#
#
# Indices 1 2 3 4 5 6 
#
# 1 125.1120 4.6944 1.2630 0.0000 0.0000 0.0000
# 2 4.6944 72.4267 -3.8915 0.0000 0.0000 0.0000
# 3 1.2630 -3.8915 37.2322 0.0000 0.0000 0.0000
# 4 0.0000 0.0000 0.0000 10.1690 0.0000 0.0000
# 5 0.0000 0.0000 0.0000 0.0000 23.6671 0.0000
# 6 0.0000 0.0000 0.0000 0.0000 0.0000 20.6027
#
#
#
# Elastic Compliance Matrix: (Units=1/GPa)
#
#
# Indices 1 2 3 4 5 6 
#
# 1 0.008016 -0.000537 -0.000328 0.000000 0.000000 0.000000
# 2 -0.000537 0.013921 0.001473 0.000000 0.000000 0.000000
# 3 -0.000328 0.001473 0.027024 0.000000 0.000000 0.000000
# 4 0.000000 0.000000 0.000000 0.098338 0.000000 0.000000
# 5 0.000000 0.000000 0.000000 0.000000 0.042253 0.000000
# 6 0.000000 0.000000 0.000000 0.000000 0.000000 0.048537
#
#
# Mechanical properties :
#
#
# Convention : Reuss Voigt Hill
#
# Bulk Modulus (GPa) = 19.92950 26.54474 23.23712
# Shear Modulus (GPa) = 19.71616 26.40142 23.05879
#
# Velocity S-wave (km/s) = 2.96378 3.42964 3.20519
# Velocity P-wave (km/s) = 4.53774 5.24496 4.90411
#
# Compressibility (1/GPa) = 0.05017687
#
# Stress axis : x y z
#
# Youngs Moduli (GPa) = 124.74568 71.83369 37.00469
#
# Poissons Ratio (x) = 0.03859 0.01214
# Poissons Ratio (y) = 0.06702 -0.05452
# Poissons Ratio (z) = 0.04093 -0.10583
#
# Static dielectric constant tensor:
#      x y z
#    x 1.803580 0.000000 0.000000 
#    y 0.000000 1.857330 0.000000 
#    z 0.000000 0.000000 1.857250 
# 
# From -- ./inp_files/8326.got.cif
#   From: 2010.05.17/outbox.cif.g08.bks.cpg/sg46_5_cif.got.tgz:8326.got - 2010.06.03 19:58:25.
