data_PCOD9380664
_publ_section_title
;
Structure prediction by ZEFSAII (Michael W. Deem and Ramdas Pophale) SiO2 
 PCOD9380664
Probable space group: I M A 2
;
_chemical_formula_sum "Si O2"
_cell_formula_units_Z 36
_cell_length_a 11.065769
_cell_length_b 6.989282
_cell_length_c 18.346199
_cell_angle_alpha 90.000000
_cell_angle_beta 90.000000
_cell_angle_gamma 90.000000
_cell_volume 1418.927689
_symmetry_space_group_name_H-M "I M A 2"
_symmetry_group_IT_number 46
_symmetry_cell_setting 'orthorhombic'
loop_
_space_group_symop_operation_xyz
x,y,z
-x,-y,z
1/2-x,y,z
1/2+x,-y,z
1/2+x,1/2+y,1/2+z
1/2-x,1/2-y,1/2+z
-x,1/2+y,1/2+z
x,1/2-y,1/2+z
loop_
_atom_site_type_symbol
_atom_site_label
_atom_site_fract_x
_atom_site_fract_y
_atom_site_fract_z
Si Si1 0.878085 0.900622 0.769970
Si Si2 0.609926 0.153230 0.418489
Si Si3 0.610486 0.851498 0.595071
Si Si4 0.500000 0.000000 0.008254
Si Si5 0.625108 0.485016 0.763200
O O1 0.750000 0.998770 0.783189
O O2 0.885900 0.856447 0.683271
O O3 0.868455 0.690119 0.802827
O O4 0.000000 0.000000 0.791274
O O5 0.750000 0.102290 0.438689
O O6 0.576507 0.353595 0.457338
O O7 0.615459 0.157418 0.330375
O O8 0.500000 0.000000 0.433079
O O9 0.750000 0.901497 0.574685
O O10 0.577005 0.648053 0.558355
O O11 0.500000 0.000000 0.579014
O O12 0.500000 0.500000 0.720539
O O13 0.750000 0.452922 0.721320
#
# Coordination Sequence:
#
# PCOD9380664 Si02
#       5
#     8   8   8   4   8
#     4   9  19  38  64  95 130 167 210 262 325 391
#     4  10  23  44  66  93 128 170 220 274 323 382
#     4  10  23  42  65  98 134 169 216 271 327 392
#     4  12  24  38  68  98 130 174 222 270 326 388
#     4   9  19  38  62  87 123 165 208 260 315 374
#
# _framework density 25.371272999999999
#
# number of rings (size 3 to 8) (size 9 to 14) (size 15 to 20)
#    0.000    2.222    0.000    1.333    1.556    6.222 
#    8.000    0.000    0.000    0.000    0.000    0.000 
#    0.000    0.000    0.000    0.000    0.000    0.000 
#
# Total GULP energy -100295.764037 kJ/mol
# GULP energy per Si atom -5571.986891 kJ/mol
# Density = 2.531353 g / cm^3
# Si number density = 25.371273 Si / 1000 Ang^3
#
#
#
# Elastic Constant Matrix: (Units=GPa)
#
#
# Indices 1 2 3 4 5 6 
#
# 1 323.8299 102.4379 32.9763 0.0000 0.0000 0.0000
# 2 102.4379 171.4858 35.8108 0.0000 0.0000 0.0000
# 3 32.9763 35.8108 51.8010 0.0000 0.0000 0.0000
# 4 0.0000 0.0000 0.0000 40.3061 0.0000 0.0000
# 5 0.0000 0.0000 0.0000 0.0000 151.4453 0.0000
# 6 0.0000 0.0000 0.0000 0.0000 0.0000 42.3255
#
#
#
# Elastic Compliance Matrix: (Units=1/GPa)
#
#
# Indices 1 2 3 4 5 6 
#
# 1 0.003852 -0.002091 -0.001007 0.000000 0.000000 0.000000
# 2 -0.002091 0.007950 -0.004165 0.000000 0.000000 0.000000
# 3 -0.001007 -0.004165 0.022825 0.000000 0.000000 0.000000
# 4 0.000000 0.000000 0.000000 0.024810 0.000000 0.000000
# 5 0.000000 0.000000 0.000000 0.000000 0.006603 0.000000
# 6 0.000000 0.000000 0.000000 0.000000 0.000000 0.023626
#
#
# Mechanical properties :
#
#
# Convention : Reuss Voigt Hill
#
# Bulk Modulus (GPa) = 49.74673 98.84073 74.29373
# Shear Modulus (GPa) = 45.08881 71.87481 58.48181
#
# Velocity S-wave (km/s) = 4.22021 5.32829 4.80629
# Velocity P-wave (km/s) = 6.58764 8.76907 7.75544
#
# Compressibility (1/GPa) = 0.02010182
#
# Stress axis : x y z
#
# Youngs Moduli (GPa) = 259.61028 125.78514 43.81176
#
# Poissons Ratio (x) = 0.26298 0.04411
# Poissons Ratio (y) = 0.54277 0.18248
# Poissons Ratio (z) = 0.26137 0.52390
#
# Static dielectric constant tensor:
#      x y z
#    x 2.143670 0.000000 0.000000 
#    y 0.000000 2.051270 0.000000 
#    z 0.000000 0.000000 1.976480 
# 
# From -- ./inp_files/23371.got.cif
#   From: 2010.05.17/outbox.cif.g08.bks.cpg/sg46_12_cif.got.tgz:23371.got - 2010.06.03 19:58:25.
