data_PCOD9380465
_publ_section_title
;
Structure prediction by ZEFSAII (Michael W. Deem and Ramdas Pophale) SiO2 
 PCOD9380465
Probable space group: I M A 2
;
_chemical_formula_sum "Si O2"
_cell_formula_units_Z 64
_cell_length_a 18.897874
_cell_length_b 5.395638
_cell_length_c 29.512582
_cell_angle_alpha 90.000000
_cell_angle_beta 90.000000
_cell_angle_gamma 90.000000
_cell_volume 3009.282506
_symmetry_space_group_name_H-M "I M A 2"
_symmetry_group_IT_number 46
_symmetry_cell_setting 'orthorhombic'
loop_
_space_group_symop_operation_xyz
x,y,z
-x,-y,z
1/2-x,y,z
1/2+x,-y,z
1/2+x,1/2+y,1/2+z
1/2-x,1/2-y,1/2+z
-x,1/2+y,1/2+z
x,1/2-y,1/2+z
loop_
_atom_site_type_symbol
_atom_site_label
_atom_site_fract_x
_atom_site_fract_y
_atom_site_fract_z
Si Si1 0.829044 0.325480 0.941100
Si Si2 0.915409 0.506561 0.676474
Si Si3 0.331473 0.929270 0.268787
Si Si4 0.929774 0.645936 0.891199
Si Si5 0.084621 0.988635 0.621362
Si Si6 0.170832 0.378760 0.036071
Si Si7 0.166468 0.434263 0.327041
Si Si8 0.073204 0.076640 0.982212
O O1 0.750000 0.231704 0.932700
O O2 0.860191 0.475223 0.898864
O O3 0.885819 0.121986 0.952800
O O4 0.825530 0.485344 0.987334
O O5 0.878938 0.470002 0.724785
O O6 0.897030 0.764773 0.650907
O O7 0.000000 0.500000 0.682553
O O8 0.897445 0.264328 0.647087
O O9 0.250000 0.892671 0.254571
O O10 0.349434 0.685021 0.298730
O O11 0.335504 0.184790 0.296821
O O12 0.897152 0.874189 0.862604
O O13 0.946792 0.724832 0.943198
O O14 0.000000 0.500000 0.873962
O O15 0.126625 0.987308 0.574382
O O16 0.000000 0.000000 0.613270
O O17 0.250000 0.327056 0.051374
O O18 0.126289 0.140834 0.022172
O O19 0.250000 0.453433 0.343009
O O20 0.000000 0.000000 0.003692
#
# Coordination Sequence:
#
# PCOD9380465 Si02
#       8
#     8   8   8   8   8   8   8   8
#     4  10  22  40  61  87 125 168 214 270 327 383
#     4  10  22  42  64  95 128 167 210 260 324 389
#     4  10  22  42  67  95 125 167 213 262 325 392
#     4  11  23  40  59  93 127 166 219 267 323 389
#     4  10  23  39  64  94 129 169 213 263 323 387
#     4  10  24  40  59  92 127 166 219 272 330 392
#     4  10  23  41  65  96 131 168 213 266 326 388
#     4  11  23  38  64  89 122 171 218 270 325 386
#
# _framework density 21.267527999999999
#
# number of rings (size 3 to 8) (size 9 to 14) (size 15 to 20)
#    0.000    1.750    1.250    1.500    5.250    3.500 
#    0.000    1.250    0.000    0.000    0.000    0.000 
#    0.000    0.000    0.000    0.000    0.000    0.000 
#
# Total GULP energy -178565.090166 kJ/mol
# GULP energy per Si atom -5580.159068 kJ/mol
# Density = 2.121912 g / cm^3
# Si number density = 21.267528 Si / 1000 Ang^3
#
#
#
# Elastic Constant Matrix: (Units=GPa)
#
#
# Indices 1 2 3 4 5 6 
#
# 1 72.5653 36.1221 34.3949 0.0000 0.0000 0.0000
# 2 36.1221 109.5888 36.1863 0.0000 0.0000 0.0000
# 3 34.3949 36.1863 93.5000 0.0000 0.0000 0.0000
# 4 0.0000 0.0000 0.0000 44.9063 0.0000 0.0000
# 5 0.0000 0.0000 0.0000 0.0000 29.2787 0.0000
# 6 0.0000 0.0000 0.0000 0.0000 0.0000 16.3114
#
#
#
# Elastic Compliance Matrix: (Units=1/GPa)
#
#
# Indices 1 2 3 4 5 6 
#
# 1 0.018359 -0.004381 -0.005058 0.000000 0.000000 0.000000
# 2 -0.004381 0.011508 -0.002842 0.000000 0.000000 0.000000
# 3 -0.005058 -0.002842 0.013656 0.000000 0.000000 0.000000
# 4 0.000000 0.000000 0.000000 0.022269 0.000000 0.000000
# 5 0.000000 0.000000 0.000000 0.000000 0.034155 0.000000
# 6 0.000000 0.000000 0.000000 0.000000 0.000000 0.061307
#
#
# Mechanical properties :
#
#
# Convention : Reuss Voigt Hill
#
# Bulk Modulus (GPa) = 52.74266 54.34007 53.54136
# Shear Modulus (GPa) = 26.02345 29.36267 27.69306
#
# Velocity S-wave (km/s) = 3.50183 3.71972 3.61242
# Velocity P-wave (km/s) = 6.41902 6.63736 6.52911
#
# Compressibility (1/GPa) = 0.01895999
#
# Stress axis : x y z
#
# Youngs Moduli (GPa) = 54.46921 86.89930 73.22956
#
# Poissons Ratio (x) = 0.38073 0.37039
# Poissons Ratio (y) = 0.23864 0.20812
# Poissons Ratio (z) = 0.27550 0.24696
#
# Static dielectric constant tensor:
#      x y z
#    x 1.764140 0.000000 0.000000 
#    y 0.000000 1.845570 0.000000 
#    z 0.000000 0.000000 1.775520 
# 
# From -- ./inp_files/25494.got.cif
#   From: 2010.05.17/outbox.cif.g08.bks.cpg/sg46_13_cif.got.tgz:25494.got - 2010.06.03 19:58:25.
