data_PCOD9380325
_publ_section_title
;
Structure prediction by ZEFSAII (Michael W. Deem and Ramdas Pophale) SiO2 
 PCOD9380325
Probable space group: I M A 2
;
_chemical_formula_sum "Si O2"
_cell_formula_units_Z 64
_cell_length_a 17.307256
_cell_length_b 19.707172
_cell_length_c 8.866378
_cell_angle_alpha 90.000000
_cell_angle_beta 90.000000
_cell_angle_gamma 90.000000
_cell_volume 3024.118237
_symmetry_space_group_name_H-M "I M A 2"
_symmetry_group_IT_number 46
_symmetry_cell_setting 'orthorhombic'
loop_
_space_group_symop_operation_xyz
x,y,z
-x,-y,z
1/2-x,y,z
1/2+x,-y,z
1/2+x,1/2+y,1/2+z
1/2-x,1/2-y,1/2+z
-x,1/2+y,1/2+z
x,1/2-y,1/2+z
loop_
_atom_site_type_symbol
_atom_site_label
_atom_site_fract_x
_atom_site_fract_y
_atom_site_fract_z
Si Si1 0.338703 0.692476 0.884480
Si Si2 0.838225 0.824819 0.997804
Si Si3 0.912859 0.443684 0.938986
Si Si4 0.339670 0.472004 0.400890
Si Si5 0.922223 0.927194 0.597068
Si Si6 0.941762 0.440607 0.581864
Si Si7 0.412340 0.278434 0.197308
Si Si8 0.933259 0.208734 0.090745
O O1 0.250000 0.711529 0.897487
O O2 0.353935 0.618160 0.955299
O O3 0.367156 0.691223 0.712423
O O4 0.394214 0.745803 0.965147
O O5 0.750000 0.813207 0.948326
O O6 0.847515 0.905646 0.007648
O O7 0.894685 0.796775 0.868774
O O8 0.856536 0.781794 0.144739
O O9 0.937207 0.442778 0.763557
O O10 0.884862 0.519128 0.980613
O O11 0.987269 0.429018 0.046990
O O12 0.250000 0.475318 0.351054
O O13 0.395733 0.457599 0.258606
O O14 0.363984 0.537554 0.495873
O O15 0.899251 0.848173 0.603448
O O16 0.964033 0.364465 0.536990
O O17 0.000000 0.500000 0.535158
O O18 0.497896 0.250528 0.168136
#
# Coordination Sequence:
#
# PCOD9380325 Si02
#       8
#     8   8   8   8   8   8   8   8
#     4  11  24  43  63  92 132 170 214 270 321 381
#     4  10  22  39  61  94 131 166 207 263 326 383
#     4  10  22  42  65  93 123 164 218 264 323 376
#     4  10  24  42  61  93 132 171 212 261 328 389
#     4  10  21  41  67  90 125 163 215 268 317 386
#     4  11  23  39  66  93 128 168 217 270 318 381
#     4  11  21  38  66  92 128 166 213 263 316 391
#     4  11  24  40  65  95 127 173 222 258 322 383
#
# _framework density 21.163193
#
# number of rings (size 3 to 8) (size 9 to 14) (size 15 to 20)
#    0.000    1.500    2.500    2.250    3.500    6.500 
#    0.000    0.000    0.000    0.000    0.000    0.000 
#    0.000    0.000    0.000    0.000    0.000    0.000 
#
# Total GULP energy -178639.236427 kJ/mol
# GULP energy per Si atom -5582.476138 kJ/mol
# Density = 2.111502 g / cm^3
# Si number density = 21.163193 Si / 1000 Ang^3
#
#
#
# Elastic Constant Matrix: (Units=GPa)
#
#
# Indices 1 2 3 4 5 6 
#
# 1 83.7745 19.2968 27.2751 0.0000 0.0000 0.0000
# 2 19.2968 103.3305 20.5378 0.0000 0.0000 0.0000
# 3 27.2751 20.5378 39.3415 0.0000 0.0000 0.0000
# 4 0.0000 0.0000 0.0000 31.0456 0.0000 0.0000
# 5 0.0000 0.0000 0.0000 0.0000 25.0399 0.0000
# 6 0.0000 0.0000 0.0000 0.0000 0.0000 23.4953
#
#
#
# Elastic Compliance Matrix: (Units=1/GPa)
#
#
# Indices 1 2 3 4 5 6 
#
# 1 0.015483 -0.000846 -0.010292 0.000000 0.000000 0.000000
# 2 -0.000846 0.010844 -0.005075 0.000000 0.000000 0.000000
# 3 -0.010292 -0.005075 0.035203 0.000000 0.000000 0.000000
# 4 0.000000 0.000000 0.000000 0.032211 0.000000 0.000000
# 5 0.000000 0.000000 0.000000 0.000000 0.039936 0.000000
# 6 0.000000 0.000000 0.000000 0.000000 0.000000 0.042562
#
#
# Mechanical properties :
#
#
# Convention : Reuss Voigt Hill
#
# Bulk Modulus (GPa) = 34.35916 40.07399 37.21658
# Shear Modulus (GPa) = 22.89728 26.53860 24.71794
#
# Velocity S-wave (km/s) = 3.29285 3.54502 3.42126
# Velocity P-wave (km/s) = 5.54326 5.97772 5.76458
#
# Compressibility (1/GPa) = 0.02910432
#
# Stress axis : x y z
#
# Youngs Moduli (GPa) = 64.58866 92.21455 28.40630
#
# Poissons Ratio (x) = 0.07798 0.29237
# Poissons Ratio (y) = 0.05462 0.14416
# Poissons Ratio (z) = 0.66478 0.46798
#
# Static dielectric constant tensor:
#      x y z
#    x 1.791570 0.000000 0.000000 
#    y 0.000000 1.784220 0.000000 
#    z 0.000000 0.000000 1.749950 
# 
# From -- ./inp_files/6906.got.cif
#   From: 2010.05.17/outbox.cif.g08.bks.cpg/sg46_4_cif.got.tgz:6906.got - 2010.06.03 19:58:25.
