data_PCOD9380784
_publ_section_title
;
Structure prediction by ZEFSAII (Michael W. Deem and Ramdas Pophale) SiO2 
 PCOD9380784
Probable space group: I M A 2
;
_chemical_formula_sum "Si O2"
_cell_formula_units_Z 44
_cell_length_a 23.811091
_cell_length_b 5.110623
_cell_length_c 15.887515
_cell_angle_alpha 90.000000
_cell_angle_beta 90.000000
_cell_angle_gamma 90.000000
_cell_volume 1933.343905
_symmetry_space_group_name_H-M "I M A 2"
_symmetry_group_IT_number 46
_symmetry_cell_setting 'orthorhombic'
loop_
_space_group_symop_operation_xyz
x,y,z
-x,-y,z
1/2-x,y,z
1/2+x,-y,z
1/2+x,1/2+y,1/2+z
1/2-x,1/2-y,1/2+z
-x,1/2+y,1/2+z
x,1/2-y,1/2+z
loop_
_atom_site_type_symbol
_atom_site_label
_atom_site_fract_x
_atom_site_fract_y
_atom_site_fract_z
Si Si1 0.500000 0.000000 0.678741
Si Si2 0.379043 0.316036 0.373981
Si Si3 0.250000 0.721931 0.221715
Si Si4 0.423144 0.678434 0.773601
Si Si5 0.398098 0.122752 0.550778
Si Si6 0.146644 0.625044 0.609493
Si Si7 0.750000 0.773082 0.337614
O O1 0.515418 0.224573 0.746985
O O2 0.450619 0.098594 0.615080
O O3 0.393944 0.585605 0.326750
O O4 0.409997 0.267265 0.463037
O O5 0.310727 0.278059 0.382526
O O6 0.403580 0.082471 0.318181
O O7 0.301086 0.770851 0.159935
O O8 0.250000 0.437015 0.261999
O O9 0.250000 0.937122 0.296865
O O10 0.400462 0.651471 0.679508
O O11 0.351467 0.320970 0.587811
O O12 0.371843 0.833528 0.538406
#
# Coordination Sequence:
#
# PCOD9380784 Si02
#       7
#     4   8   4   8   8   8   4
#     4  10  26  46  70  96 136 186 236 290 346 386
#     4  12  24  43  68 104 138 175 222 280 347 406
#     4  12  22  38  72  98 134 180 232 268 334 406
#     4  11  23  43  68  96 128 179 236 274 325 415
#     4  11  26  43  66  99 143 171 223 290 345 399
#     4  11  22  42  65  98 132 179 224 276 331 411
#     4  12  22  40  68 104 140 178 214 284 336 410
#
# _framework density 22.758493999999999
#
# number of rings (size 3 to 8) (size 9 to 14) (size 15 to 20)
#    0.000    0.727    3.636    4.364    0.000    9.455 
#    0.000    0.000    0.000    0.000    0.000    0.000 
#    0.000    0.000    0.000    0.000    0.000    0.000 
#
# Total GULP energy -122635.205609 kJ/mol
# GULP energy per Si atom -5574.327528 kJ/mol
# Density = 2.270669 g / cm^3
# Si number density = 22.758494 Si / 1000 Ang^3
#
#
#
# Elastic Constant Matrix: (Units=GPa)
#
#
# Indices 1 2 3 4 5 6 
#
# 1 61.0847 10.6130 -9.3837 0.0000 0.0000 0.0000
# 2 10.6130 114.4831 9.3645 0.0000 0.0000 0.0000
# 3 -9.3837 9.3645 53.0540 0.0000 0.0000 0.0000
# 4 0.0000 0.0000 0.0000 27.1991 0.0000 0.0000
# 5 0.0000 0.0000 0.0000 0.0000 21.4513 0.0000
# 6 0.0000 0.0000 0.0000 0.0000 0.0000 40.1397
#
#
#
# Elastic Compliance Matrix: (Units=1/GPa)
#
#
# Indices 1 2 3 4 5 6 
#
# 1 0.017214 -0.001872 0.003375 0.000000 0.000000 0.000000
# 2 -0.001872 0.009066 -0.001931 0.000000 0.000000 0.000000
# 3 0.003375 -0.001931 0.019787 0.000000 0.000000 0.000000
# 4 0.000000 0.000000 0.000000 0.036766 0.000000 0.000000
# 5 0.000000 0.000000 0.000000 0.000000 0.046617 0.000000
# 6 0.000000 0.000000 0.000000 0.000000 0.000000 0.024913
#
#
# Mechanical properties :
#
#
# Convention : Reuss Voigt Hill
#
# Bulk Modulus (GPa) = 22.11843 27.75657 24.93750
# Shear Modulus (GPa) = 29.36162 32.29321 30.82742
#
# Velocity S-wave (km/s) = 3.59575 3.77098 3.68441
# Velocity P-wave (km/s) = 5.19414 5.58418 5.39269
#
# Compressibility (1/GPa) = 0.04521116
#
# Stress axis : x y z
#
# Youngs Moduli (GPa) = 58.09080 110.29695 50.53925
#
# Poissons Ratio (x) = 0.20647 -0.17058
# Poissons Ratio (y) = 0.10874 0.09761
# Poissons Ratio (z) = -0.19607 0.21303
#
# Static dielectric constant tensor:
#      x y z
#    x 1.947290 0.000000 0.000000 
#    y 0.000000 2.047650 0.000000 
#    z 0.000000 0.000000 1.915620 
# 
# From -- ./inp_files/17526.got.cif
#   From: 2010.05.17/outbox.cif.g08.bks.cpg/sg46_9_cif.got.tgz:17526.got - 2010.06.03 19:58:25.
