data_PCOD9380515
_publ_section_title
;
Structure prediction by ZEFSAII (Michael W. Deem and Ramdas Pophale) SiO2 
 PCOD9380515
Probable space group: I M A 2
;
_chemical_formula_sum "Si O2"
_cell_formula_units_Z 24
_cell_length_a 21.102856
_cell_length_b 8.073843
_cell_length_c 5.365324
_cell_angle_alpha 90.000000
_cell_angle_beta 90.000000
_cell_angle_gamma 90.000000
_cell_volume 914.150053
_symmetry_space_group_name_H-M "I M A 2"
_symmetry_group_IT_number 46
_symmetry_cell_setting 'orthorhombic'
loop_
_space_group_symop_operation_xyz
x,y,z
-x,-y,z
1/2-x,y,z
1/2+x,-y,z
1/2+x,1/2+y,1/2+z
1/2-x,1/2-y,1/2+z
-x,1/2+y,1/2+z
x,1/2-y,1/2+z
loop_
_atom_site_type_symbol
_atom_site_label
_atom_site_fract_x
_atom_site_fract_y
_atom_site_fract_z
Si Si1 0.180292 0.473482 0.610690
Si Si2 0.871870 0.299205 0.257229
Si Si3 0.452400 0.152237 0.299145
O O1 0.250000 0.398032 0.615259
O O2 0.155106 0.522977 0.332614
O O3 0.182491 0.660229 0.724696
O O4 0.122150 0.392381 0.754192
O O5 0.961059 0.788860 0.582459
O O6 0.907473 0.229524 0.500065
O O7 0.500000 0.000000 0.243077
#
# Coordination Sequence:
#
# PCOD9380515 Si02
#       3
#     8   8   8
#     4  10  22  40  71 107 148 185 241 299 368 431
#     4   8  19  32  60 102 140 184 229 282 351 430
#     4  12  31  52  77 108 148 200 247 306 375 440
#
# _framework density 26.253896999999998
#
# number of rings (size 3 to 8) (size 9 to 14) (size 15 to 20)
#    2.000    0.000    0.000    2.000    9.333    1.333 
#    0.000    0.000    0.000    0.000    0.000    0.000 
#    0.000    0.000    0.000    0.000    0.000    0.000 
#
# Total GULP energy -66842.673972 kJ/mol
# GULP energy per Si atom -5570.222831 kJ/mol
# Density = 2.619414 g / cm^3
# Si number density = 26.253897 Si / 1000 Ang^3
#
#
#
# Elastic Constant Matrix: (Units=GPa)
#
#
# Indices 1 2 3 4 5 6 
#
# 1 168.3223 16.5169 -21.6265 0.0000 0.0000 0.0000
# 2 16.5169 51.7814 1.1332 0.0002 -0.0003 0.0000
# 3 -21.6265 1.1332 137.4483 0.0004 -0.0005 0.0001
# 4 0.0000 0.0002 0.0004 63.3201 -0.0006 0.0001
# 5 0.0000 -0.0003 -0.0005 -0.0006 -23.5333 -0.0002
# 6 0.0000 0.0000 0.0001 0.0001 -0.0002 26.5051
#
#
#
# Elastic Compliance Matrix: (Units=1/GPa)
#
#
# Indices 1 2 3 4 5 6 
#
# 1 0.006268 -0.002021 0.001003 0.000000 0.000000 0.000000
# 2 -0.002021 0.019967 -0.000483 0.000000 0.000000 0.000000
# 3 0.001003 -0.000483 0.007437 0.000000 0.000000 0.000000
# 4 0.000000 0.000000 0.000000 0.015793 0.000000 0.000000
# 5 0.000000 0.000000 0.000000 0.000000 -0.042493 0.000000
# 6 0.000000 0.000000 0.000000 0.000000 0.000000 0.037729
#
#
# Mechanical properties :
#
#
# Convention : Reuss Voigt Hill
#
# Bulk Modulus (GPa) = 32.60457 38.84435 35.72446
# Shear Modulus (GPa) = 86.31587 37.36028 61.83807
#
# Velocity S-wave (km/s) = 5.74010 3.77641 4.85850
# Velocity P-wave (km/s) = 7.50850 5.81746 6.71641
#
# Compressibility (1/GPa) = 0.03067055
#
# Stress axis : x y z
#
# Youngs Moduli (GPa) = 159.53580 50.08197 134.45837
#
# Poissons Ratio (x) = 0.10123 -0.13485
# Poissons Ratio (y) = 0.32247 0.06490
# Poissons Ratio (z) = -0.16000 0.02417
#
# Static dielectric constant tensor:
#      x y z
#    x 2.044730 0.000000 0.000000 
#    y 0.000000 2.131640 0.000000 
#    z 0.000000 0.000000 2.284020 
# 
# From -- ./inp_files/6252.got.cif
#   From: 2010.05.17/outbox.cif.g08.bks.cpg/sg46_4_cif.got.tgz:6252.got - 2010.06.03 19:58:25.
