data_PCOD9380781
_publ_section_title
;
Structure prediction by ZEFSAII (Michael W. Deem and Ramdas Pophale) SiO2 
 PCOD9380781
Probable space group: I M A 2
;
_chemical_formula_sum "Si O2"
_cell_formula_units_Z 36
_cell_length_a 21.488666
_cell_length_b 14.230415
_cell_length_c 4.955879
_cell_angle_alpha 90.000000
_cell_angle_beta 90.000000
_cell_angle_gamma 90.000000
_cell_volume 1515.471298
_symmetry_space_group_name_H-M "I M A 2"
_symmetry_group_IT_number 46
_symmetry_cell_setting 'orthorhombic'
loop_
_space_group_symop_operation_xyz
x,y,z
-x,-y,z
1/2-x,y,z
1/2+x,-y,z
1/2+x,1/2+y,1/2+z
1/2-x,1/2-y,1/2+z
-x,1/2+y,1/2+z
x,1/2-y,1/2+z
loop_
_atom_site_type_symbol
_atom_site_label
_atom_site_fract_x
_atom_site_fract_y
_atom_site_fract_z
Si Si1 0.524891 0.808830 0.440260
Si Si2 0.750000 0.179991 0.972409
Si Si3 0.500000 0.000000 0.166119
Si Si4 0.150004 0.088351 0.421240
Si Si5 0.861883 0.472247 0.417829
Si Si6 0.750000 0.693007 0.267950
O O1 0.509217 0.776427 0.739696
O O2 0.497664 0.907387 0.350347
O O3 0.597021 0.833246 0.390556
O O4 0.750000 0.237302 0.250703
O O5 0.686496 0.115909 0.944748
O O6 0.435246 0.986030 0.003394
O O7 0.194169 0.137861 0.634236
O O8 0.167653 0.046810 0.132625
O O9 0.133766 0.997301 0.601901
O O10 0.750000 0.711656 0.584896
#
# Coordination Sequence:
#
# PCOD9380781 Si02
#       6
#     8   4   4   8   8   4
#     4  11  23  40  63  93 132 174 223 288 357 426
#     4  12  26  46  72 104 142 188 244 302 368 448
#     4  10  26  44  70 102 138 188 246 304 372 436
#     4  11  22  40  63  92 129 172 220 273 344 418
#     4  11  24  44  68  95 133 180 232 292 356 426
#     4  12  22  34  58  90 124 160 204 256 318 402
#
# _framework density 23.754988999999998
#
# number of rings (size 3 to 8) (size 9 to 14) (size 15 to 20)
#    0.000    0.889    0.000    8.000    0.000    9.778 
#    0.000    0.000    0.000    0.000    0.000    0.000 
#    0.000    0.000    0.000    0.000    0.000    0.000 
#
# Total GULP energy -100277.371662 kJ/mol
# GULP energy per Si atom -5570.965092 kJ/mol
# Density = 2.370092 g / cm^3
# Si number density = 23.754989 Si / 1000 Ang^3
#
#
#
# Elastic Constant Matrix: (Units=GPa)
#
#
# Indices 1 2 3 4 5 6 
#
# 1 77.2056 42.9931 -10.1078 0.0000 0.0000 0.0000
# 2 42.9931 80.4863 13.7984 0.0000 0.0000 0.0000
# 3 -10.1078 13.7984 105.5373 0.0000 0.0000 0.0000
# 4 0.0000 0.0000 0.0000 38.9076 0.0000 0.0000
# 5 0.0000 0.0000 0.0000 0.0000 1.5293 0.0000
# 6 0.0000 0.0000 0.0000 0.0000 0.0000 45.5219
#
#
#
# Elastic Compliance Matrix: (Units=1/GPa)
#
#
# Indices 1 2 3 4 5 6 
#
# 1 0.019501 -0.010983 0.003304 0.000000 0.000000 0.000000
# 2 -0.010983 0.018895 -0.003522 0.000000 0.000000 0.000000
# 3 0.003304 -0.003522 0.010252 0.000000 0.000000 0.000000
# 4 0.000000 0.000000 0.000000 0.025702 0.000000 0.000000
# 5 0.000000 0.000000 0.000000 0.000000 0.653890 0.000000
# 6 0.000000 0.000000 0.000000 0.000000 0.000000 0.021967
#
#
# Mechanical properties :
#
#
# Convention : Reuss Voigt Hill
#
# Bulk Modulus (GPa) = 38.10270 39.62183 38.86227
# Shear Modulus (GPa) = 6.39910 31.62814 19.01362
#
# Velocity S-wave (km/s) = 1.64306 3.65284 2.83221
# Velocity P-wave (km/s) = 4.43556 5.87423 5.20484
#
# Compressibility (1/GPa) = 0.02624486
#
# Stress axis : x y z
#
# Youngs Moduli (GPa) = 51.27907 52.92346 97.53942
#
# Poissons Ratio (x) = 0.58127 -0.32224
# Poissons Ratio (y) = 0.56321 0.34357
# Poissons Ratio (z) = -0.16941 0.18642
#
# Static dielectric constant tensor:
#      x y z
#    x 2.075840 0.000000 0.000000 
#    y 0.000000 1.993580 0.000000 
#    z 0.000000 0.000000 1.848900 
# 
# From -- ./inp_files/2283.got.cif
#   From: 2010.05.17/outbox.cif.g08.bks.cpg/sg46_2_cif.got.tgz:2283.got - 2010.06.03 19:58:25.
