data_PCOD9380771
_publ_section_title
;
Structure prediction by ZEFSAII (Michael W. Deem and Ramdas Pophale) SiO2 
 PCOD9380771
Probable space group: I M A 2
;
_chemical_formula_sum "Si O2"
_cell_formula_units_Z 48
_cell_length_a 22.376820
_cell_length_b 11.479411
_cell_length_c 8.040821
_cell_angle_alpha 90.000000
_cell_angle_beta 90.000000
_cell_angle_gamma 90.000000
_cell_volume 2065.467510
_symmetry_space_group_name_H-M "I M A 2"
_symmetry_group_IT_number 46
_symmetry_cell_setting 'orthorhombic'
loop_
_space_group_symop_operation_xyz
x,y,z
-x,-y,z
1/2-x,y,z
1/2+x,-y,z
1/2+x,1/2+y,1/2+z
1/2-x,1/2-y,1/2+z
-x,1/2+y,1/2+z
x,1/2-y,1/2+z
loop_
_atom_site_type_symbol
_atom_site_label
_atom_site_fract_x
_atom_site_fract_y
_atom_site_fract_z
Si Si1 0.128424 0.391517 0.025380
Si Si2 0.483066 0.619349 0.598816
Si Si3 0.681987 0.120254 0.449494
Si Si4 0.750000 0.810848 0.348914
Si Si5 0.844327 0.381892 0.557849
Si Si6 0.250000 0.431506 0.481933
Si Si7 0.445849 0.279230 0.310287
O O1 0.104822 0.336710 0.196267
O O2 0.135371 0.530597 0.031230
O O3 0.191552 0.347861 0.952575
O O4 0.082035 0.335657 0.894484
O O5 0.500000 0.500000 0.689647
O O6 0.415209 0.611622 0.543434
O O7 0.529460 0.633225 0.447333
O O8 0.497300 0.732992 0.707215
O O9 0.750000 0.087614 0.493810
O O10 0.673893 0.254309 0.496200
O O11 0.673075 0.108027 0.251951
O O12 0.750000 0.670618 0.347472
O O13 0.750000 0.869347 0.165617
O O14 0.807436 0.484552 0.469988
#
# Coordination Sequence:
#
# PCOD9380771 Si02
#       7
#     8   8   8   4   8   4   8
#     4  11  22  43  71 101 141 179 236 291 355 418
#     4  11  25  45  68  97 136 184 239 288 348 413
#     4  12  23  45  69 105 144 186 231 290 359 430
#     4  12  24  43  75 105 141 180 224 293 357 419
#     4  12  25  47  70 100 146 184 237 293 353 425
#     4  12  26  47  73 111 139 186 230 291 361 427
#     4  10  25  43  67 102 137 186 240 295 347 417
#
# _framework density 23.239291999999999
#
# number of rings (size 3 to 8) (size 9 to 14) (size 15 to 20)
#    0.000    0.667    4.167    3.000    4.667    2.667 
#    3.000    3.333    0.000    0.000    0.000    0.000 
#    0.000    0.000    0.000    0.000    0.000    0.000 
#
# Total GULP energy -134354.369049 kJ/mol
# GULP energy per Si atom -5598.098710 kJ/mol
# Density = 2.318640 g / cm^3
# Si number density = 23.239292 Si / 1000 Ang^3
#
#
#
# Elastic Constant Matrix: (Units=GPa)
#
#
# Indices 1 2 3 4 5 6 
#
# 1 128.1644 40.3670 1.4660 0.0000 0.0000 0.0000
# 2 40.3670 164.2400 21.3369 0.0000 0.0000 0.0000
# 3 1.4660 21.3369 41.6841 0.0000 0.0000 0.0000
# 4 0.0000 0.0000 0.0000 33.3580 0.0000 0.0000
# 5 0.0000 0.0000 0.0000 0.0000 0.5873 0.0000
# 6 0.0000 0.0000 0.0000 0.0000 0.0000 37.5484
#
#
#
# Elastic Compliance Matrix: (Units=1/GPa)
#
#
# Indices 1 2 3 4 5 6 
#
# 1 0.008483 -0.002192 0.000824 0.000000 0.000000 0.000000
# 2 -0.002192 0.007089 -0.003551 0.000000 0.000000 0.000000
# 3 0.000824 -0.003551 0.025779 0.000000 0.000000 0.000000
# 4 0.000000 0.000000 0.000000 0.029978 0.000000 0.000000
# 5 0.000000 0.000000 0.000000 0.000000 1.702709 0.000000
# 6 0.000000 0.000000 0.000000 0.000000 0.000000 0.026632
#
#
# Mechanical properties :
#
#
# Convention : Reuss Voigt Hill
#
# Bulk Modulus (GPa) = 31.73448 51.15872 41.44660
# Shear Modulus (GPa) = 2.74572 32.35998 17.55285
#
# Velocity S-wave (km/s) = 1.08815 3.73563 2.75127
# Velocity P-wave (km/s) = 3.90691 6.37716 5.28830
#
# Compressibility (1/GPa) = 0.03151147
#
# Stress axis : x y z
#
# Youngs Moduli (GPa) = 117.87610 141.06750 38.79146
#
# Poissons Ratio (x) = 0.30923 -0.03195
# Poissons Ratio (y) = 0.25839 0.13777
# Poissons Ratio (z) = -0.09709 0.50100
#
# Static dielectric constant tensor:
#      x y z
#    x 1.857370 0.000000 0.000000 
#    y 0.000000 1.880900 0.000000 
#    z 0.000000 0.000000 1.879940 
# 
# From -- ./inp_files/7844.got.cif
#   From: 2010.05.17/outbox.cif.g08.bks.cpg/sg46_4_cif.got.tgz:7844.got - 2010.06.03 19:58:25.
