data_PCOD9380597
_publ_section_title
;
Structure prediction by ZEFSAII (Michael W. Deem and Ramdas Pophale) SiO2 
 PCOD9380597
Probable space group: I M A 2
;
_chemical_formula_sum "Si O2"
_cell_formula_units_Z 48
_cell_length_a 14.841425
_cell_length_b 5.260384
_cell_length_c 26.999505
_cell_angle_alpha 90.000000
_cell_angle_beta 90.000000
_cell_angle_gamma 90.000000
_cell_volume 2107.894409
_symmetry_space_group_name_H-M "I M A 2"
_symmetry_group_IT_number 46
_symmetry_cell_setting 'orthorhombic'
loop_
_space_group_symop_operation_xyz
x,y,z
-x,-y,z
1/2-x,y,z
1/2+x,-y,z
1/2+x,1/2+y,1/2+z
1/2-x,1/2-y,1/2+z
-x,1/2+y,1/2+z
x,1/2-y,1/2+z
loop_
_atom_site_type_symbol
_atom_site_label
_atom_site_fract_x
_atom_site_fract_y
_atom_site_fract_z
Si Si1 0.356183 0.040061 0.248510
Si Si2 0.650428 0.813602 0.531915
Si Si3 0.000000 0.000000 0.897671
Si Si4 0.856376 0.471653 0.312052
Si Si5 0.500000 0.000000 0.464602
Si Si6 0.250000 0.487929 0.129286
Si Si7 0.428911 0.798627 0.668527
Si Si8 0.000000 0.000000 0.076940
O O1 0.250000 0.067335 0.236261
O O2 0.368253 0.798188 0.284819
O O3 0.408120 0.958432 0.199228
O O4 0.384851 0.294307 0.276727
O O5 0.750000 0.753408 0.510137
O O6 0.589528 0.997004 0.498747
O O7 0.674304 0.917010 0.586392
O O8 0.583941 0.580849 0.543327
O O9 0.995929 0.749887 0.931174
O O10 0.914067 0.016665 0.861638
O O11 0.750000 0.504102 0.322006
O O12 0.169316 0.572429 0.166503
O O13 0.465350 0.714349 0.614771
O O14 0.500000 0.000000 0.689172
#
# Coordination Sequence:
#
# PCOD9380597 Si02
#       8
#     8   8   4   8   4   4   8   4
#     4  10  23  42  69 103 146 187 242 291 347 427
#     4  10  24  46  71 100 149 194 239 306 386 429
#     4  12  27  46  80 105 142 177 248 308 381 452
#     4  10  24  47  70 101 142 189 229 296 373 438
#     4  12  26  50  73 115 138 179 253 320 360 474
#     4  10  22  44  66  96 148 196 232 290 366 428
#     4  12  24  41  65 106 146 190 254 295 339 426
#     4  12  25  42  69 102 142 200 253 302 347 448
#
# _framework density 22.771540999999999
#
# number of rings (size 3 to 8) (size 9 to 14) (size 15 to 20)
#    0.500    0.667    2.500    2.500    4.667    1.333 
#    3.000    0.000    0.000    0.000    0.000    0.000 
#    0.000    0.000    0.000    0.000    0.000    0.000 
#
# Total GULP energy -133781.689533 kJ/mol
# GULP energy per Si atom -5574.237064 kJ/mol
# Density = 2.271971 g / cm^3
# Si number density = 22.771541 Si / 1000 Ang^3
#
#
#
# Elastic Constant Matrix: (Units=GPa)
#
#
# Indices 1 2 3 4 5 6 
#
# 1 182.6504 37.8654 39.9243 0.0000 0.0000 0.0000
# 2 37.8654 105.4773 21.5507 0.0000 0.0000 0.0000
# 3 39.9243 21.5507 53.9324 0.0000 0.0000 0.0000
# 4 0.0000 0.0000 0.0000 35.1069 0.0000 0.0000
# 5 0.0000 0.0000 0.0000 0.0000 46.8369 0.0000
# 6 0.0000 0.0000 0.0000 0.0000 0.0000 27.9822
#
#
#
# Elastic Compliance Matrix: (Units=1/GPa)
#
#
# Indices 1 2 3 4 5 6 
#
# 1 0.006750 -0.001527 -0.004387 0.000000 0.000000 0.000000
# 2 -0.001527 0.010669 -0.003133 0.000000 0.000000 0.000000
# 3 -0.004387 -0.003133 0.023041 0.000000 0.000000 0.000000
# 4 0.000000 0.000000 0.000000 0.028484 0.000000 0.000000
# 5 0.000000 0.000000 0.000000 0.000000 0.021351 0.000000
# 6 0.000000 0.000000 0.000000 0.000000 0.000000 0.035737
#
#
# Mechanical properties :
#
#
# Convention : Reuss Voigt Hill
#
# Bulk Modulus (GPa) = 44.70878 60.08233 52.39555
# Shear Modulus (GPa) = 32.98553 38.16652 35.57603
#
# Velocity S-wave (km/s) = 3.81010 4.09842 3.95688
# Velocity P-wave (km/s) = 6.24756 6.98843 6.62836
#
# Compressibility (1/GPa) = 0.02236697
#
# Stress axis : x y z
#
# Youngs Moduli (GPa) = 148.13901 93.72970 43.40085
#
# Poissons Ratio (x) = 0.14313 0.19040
# Poissons Ratio (y) = 0.22621 0.13597
# Poissons Ratio (z) = 0.64987 0.29363
#
# Static dielectric constant tensor:
#      x y z
#    x 1.884210 0.000000 0.000000 
#    y 0.000000 1.907410 0.000000 
#    z 0.000000 0.000000 1.836790 
# 
# From -- ./inp_files/24642.got.cif
#   From: 2010.05.17/outbox.cif.g08.bks.cpg/sg46_13_cif.got.tgz:24642.got - 2010.06.03 19:58:25.
