data_PCOD9380048
_publ_section_title
;
Structure prediction by ZEFSAII (Michael W. Deem and Ramdas Pophale) SiO2 
 PCOD9380048
Probable space group: I M A 2
;
_chemical_formula_sum "Si O2"
_cell_formula_units_Z 64
_cell_length_a 8.803148
_cell_length_b 27.268372
_cell_length_c 13.358909
_cell_angle_alpha 90.000000
_cell_angle_beta 90.000000
_cell_angle_gamma 90.000000
_cell_volume 3206.772901
_symmetry_space_group_name_H-M "I M A 2"
_symmetry_group_IT_number 46
_symmetry_cell_setting 'orthorhombic'
loop_
_space_group_symop_operation_xyz
x,y,z
-x,-y,z
1/2-x,y,z
1/2+x,-y,z
1/2+x,1/2+y,1/2+z
1/2-x,1/2-y,1/2+z
-x,1/2+y,1/2+z
x,1/2-y,1/2+z
loop_
_atom_site_type_symbol
_atom_site_label
_atom_site_fract_x
_atom_site_fract_y
_atom_site_fract_z
Si Si1 0.931225 0.376031 0.969620
Si Si2 0.067581 0.098880 0.087859
Si Si3 0.578977 0.728391 0.967666
Si Si4 0.067271 0.945644 0.885937
Si Si5 0.565848 0.119322 0.696473
Si Si6 0.576602 0.707162 0.661511
Si Si7 0.567688 0.946719 0.301281
Si Si8 0.427316 0.720857 0.298916
O O1 0.750000 0.382523 0.964119
O O2 0.972101 0.318662 0.959289
O O3 0.007665 0.407516 0.882054
O O4 0.985317 0.390406 0.082604
O O5 0.250000 0.094498 0.074359
O O6 0.033376 0.155237 0.115072
O O7 0.024289 0.068373 0.187457
O O8 0.988044 0.081527 0.986532
O O9 0.750000 0.713110 0.942110
O O10 0.525168 0.772897 0.897872
O O11 0.578490 0.751353 0.077098
O O12 0.250000 0.947240 0.886347
O O13 0.017218 0.917511 0.784453
O O14 0.000000 0.000000 0.886642
O O15 0.750000 0.117941 0.692985
O O16 0.524901 0.174050 0.733457
O O17 0.750000 0.702309 0.701263
O O18 0.461544 0.728322 0.742224
O O19 0.750000 0.947784 0.305679
O O20 0.500000 0.000000 0.324162
O O21 0.250000 0.715663 0.321916
#
# Coordination Sequence:
#
# PCOD9380048 Si02
#       8
#     8   8   8   8   8   8   8   8
#     4  11  22  41  65  90 125 165 210 260 311 369
#     4  10  22  41  63  90 125 160 201 255 309 370
#     4  11  22  36  56  87 125 163 203 246 300 363
#     4  11  23  41  64  90 121 158 204 257 313 370
#     4   9  21  40  61  89 125 161 203 257 306 365
#     4  10  21  37  58  87 123 159 196 242 297 360
#     4  11  24  42  64  91 124 162 209 264 322 378
#     4  11  21  36  59  86 119 160 204 249 301 358
#
# _framework density 19.95776
#
# number of rings (size 3 to 8) (size 9 to 14) (size 15 to 20)
#    0.000    1.500    1.250    3.750    0.000    4.500 
#    0.000    5.625    0.000    0.000    0.000    0.000 
#    0.000    0.000    0.000    0.000    0.000    0.000 
#
# Total GULP energy -178741.333210 kJ/mol
# GULP energy per Si atom -5585.666663 kJ/mol
# Density = 1.991234 g / cm^3
# Si number density = 19.957760 Si / 1000 Ang^3
#
#
#
# Elastic Constant Matrix: (Units=GPa)
#
#
# Indices 1 2 3 4 5 6 
#
# 1 40.1270 7.6098 18.5968 -0.0001 0.0000 0.0000
# 2 7.6098 81.8269 12.8589 -0.0001 0.0000 0.0000
# 3 18.5968 12.8589 102.3363 -0.0003 0.0000 0.0000
# 4 -0.0001 -0.0001 -0.0003 32.5636 0.0000 0.0000
# 5 0.0000 0.0000 0.0000 0.0000 22.7568 0.0000
# 6 0.0000 0.0000 0.0000 0.0000 0.0000 26.0173
#
#
#
# Elastic Compliance Matrix: (Units=1/GPa)
#
#
# Indices 1 2 3 4 5 6 
#
# 1 0.027472 -0.001806 -0.004765 0.000000 0.000000 0.000000
# 2 -0.001806 0.012586 -0.001253 0.000000 0.000000 0.000000
# 3 -0.004765 -0.001253 0.010795 0.000000 0.000000 0.000000
# 4 0.000000 0.000000 0.000000 0.030709 0.000000 0.000000
# 5 0.000000 0.000000 0.000000 0.000000 0.043943 0.000000
# 6 0.000000 0.000000 0.000000 0.000000 0.000000 0.038436
#
#
# Mechanical properties :
#
#
# Convention : Reuss Voigt Hill
#
# Bulk Modulus (GPa) = 28.40613 33.60236 31.00425
# Shear Modulus (GPa) = 26.13360 28.61585 27.37473
#
# Velocity S-wave (km/s) = 3.62255 3.79069 3.70757
# Velocity P-wave (km/s) = 5.63571 6.00270 5.82210
#
# Compressibility (1/GPa) = 0.03520367
#
# Stress axis : x y z
#
# Youngs Moduli (GPa) = 36.40087 79.45451 92.63418
#
# Poissons Ratio (x) = 0.14349 0.44143
# Poissons Ratio (y) = 0.06574 0.11609
# Poissons Ratio (z) = 0.17346 0.09958
#
# Static dielectric constant tensor:
#      x y z
#    x 1.687860 0.000000 0.000000 
#    y 0.000000 1.679480 0.000000 
#    z 0.000000 0.000000 1.749730 
# 
# From -- ./inp_files/9707.got.cif
#   From: 2010.05.17/outbox.cif.g08.bks.cpg/sg46_5_cif.got.tgz:9707.got - 2010.06.03 19:58:25.
