data_PCOD9380298
_publ_section_title
;
Structure prediction by ZEFSAII (Michael W. Deem and Ramdas Pophale) SiO2 
 PCOD9380298
Probable space group: I M A 2
;
_chemical_formula_sum "Si O2"
_cell_formula_units_Z 60
_cell_length_a 15.344492
_cell_length_b 5.189967
_cell_length_c 33.232008
_cell_angle_alpha 90.000000
_cell_angle_beta 90.000000
_cell_angle_gamma 90.000000
_cell_volume 2646.510950
_symmetry_space_group_name_H-M "I M A 2"
_symmetry_group_IT_number 46
_symmetry_cell_setting 'orthorhombic'
loop_
_space_group_symop_operation_xyz
x,y,z
-x,-y,z
1/2-x,y,z
1/2+x,-y,z
1/2+x,1/2+y,1/2+z
1/2-x,1/2-y,1/2+z
-x,1/2+y,1/2+z
x,1/2-y,1/2+z
loop_
_atom_site_type_symbol
_atom_site_label
_atom_site_fract_x
_atom_site_fract_y
_atom_site_fract_z
Si Si1 0.903837 0.620252 0.781190
Si Si2 0.440694 0.253325 0.365698
Si Si3 0.846244 0.384616 0.238128
Si Si4 0.650219 0.868721 0.571786
Si Si5 0.406686 0.874575 0.649143
Si Si6 0.500000 0.500000 0.590399
Si Si7 0.145236 0.781974 0.498320
Si Si8 0.355637 0.215651 0.951321
O O1 0.880663 0.693705 0.827000
O O2 0.852194 0.382664 0.762126
O O3 0.000000 0.500000 0.783159
O O4 0.903974 0.880104 0.754848
O O5 0.500000 0.500000 0.354973
O O6 0.390200 0.317498 0.406453
O O7 0.500000 0.000000 0.372727
O O8 0.750000 0.494380 0.242602
O O9 0.863377 0.322101 0.191488
O O10 0.750000 0.776307 0.561552
O O11 0.565770 0.686446 0.566374
O O12 0.647278 0.945539 0.618692
O O13 0.631500 0.117436 0.543640
O O14 0.432987 0.638058 0.620988
O O15 0.500000 0.000000 0.658416
O O16 0.250000 0.768665 0.494810
O O17 0.113505 0.512604 0.480821
O O18 0.114724 0.013175 0.469688
O O19 0.250000 0.216748 0.950751
#
# Coordination Sequence:
#
# PCOD9380298 Si02
#       8
#     8   8   8   8   8   4   8   8
#     4  11  24  45  68  94 134 182 221 275 346 417
#     4  11  23  43  66  98 131 172 223 270 341 412
#     4  12  26  42  67 102 134 172 232 287 340 407
#     4  10  22  41  67  96 138 186 234 293 349 412
#     4  10  23  42  62  92 131 179 228 283 343 411
#     4  10  24  42  64 100 130 178 248 280 356 420
#     4   9  20  38  63  96 129 174 222 267 338 403
#     4  10  21  40  66  95 131 172 216 272 336 406
#
# _framework density 22.671358000000001
#
# number of rings (size 3 to 8) (size 9 to 14) (size 15 to 20)
#    0.000    1.600    0.000    4.400    6.533    2.133 
#    1.200    3.333    0.000    0.000    0.000    0.000 
#    0.000    0.000    0.000    0.000    0.000    0.000 
#
# Total GULP energy -167613.670085 kJ/mol
# GULP energy per Si atom -5587.122336 kJ/mol
# Density = 2.261976 g / cm^3
# Si number density = 22.671358 Si / 1000 Ang^3
#
#
#
# Elastic Constant Matrix: (Units=GPa)
#
#
# Indices 1 2 3 4 5 6 
#
# 1 70.5629 19.7578 27.2588 0.0000 0.0000 0.0000
# 2 19.7578 118.8239 44.1566 0.0000 0.0000 0.0000
# 3 27.2588 44.1566 163.8126 0.0000 0.0000 0.0000
# 4 0.0000 0.0000 0.0000 28.1253 0.0000 0.0000
# 5 0.0000 0.0000 0.0000 0.0000 20.0945 0.0000
# 6 0.0000 0.0000 0.0000 0.0000 0.0000 23.6363
#
#
#
# Elastic Compliance Matrix: (Units=1/GPa)
#
#
# Indices 1 2 3 4 5 6 
#
# 1 0.015483 -0.001797 -0.002092 0.000000 0.000000 0.000000
# 2 -0.001797 0.009561 -0.002278 0.000000 0.000000 0.000000
# 3 -0.002092 -0.002278 0.007067 0.000000 0.000000 0.000000
# 4 0.000000 0.000000 0.000000 0.035555 0.000000 0.000000
# 5 0.000000 0.000000 0.000000 0.000000 0.049765 0.000000
# 6 0.000000 0.000000 0.000000 0.000000 0.000000 0.042308
#
#
# Mechanical properties :
#
#
# Convention : Reuss Voigt Hill
#
# Bulk Modulus (GPa) = 50.56521 59.50508 55.03514
# Shear Modulus (GPa) = 27.98519 31.83962 29.91241
#
# Velocity S-wave (km/s) = 3.51719 3.75160 3.63628
# Velocity P-wave (km/s) = 6.23267 6.71340 6.47750
#
# Compressibility (1/GPa) = 0.01977644
#
# Stress axis : x y z
#
# Youngs Moduli (GPa) = 64.58653 104.58869 141.50740
#
# Poissons Ratio (x) = 0.18795 0.29603
# Poissons Ratio (y) = 0.11607 0.32239
# Poissons Ratio (z) = 0.13512 0.23828
#
# Static dielectric constant tensor:
#      x y z
#    x 1.850130 0.000000 0.000000 
#    y 0.000000 1.874660 0.000000 
#    z 0.000000 0.000000 1.828660 
# 
# From -- ./inp_files/24696.got.cif
#   From: 2010.05.17/outbox.cif.g08.bks.cpg/sg46_13_cif.got.tgz:24696.got - 2010.06.03 19:58:25.
