data_PCOD9380963
_publ_section_title
;
Structure prediction by ZEFSAII (Michael W. Deem and Ramdas Pophale) SiO2 
 PCOD9380963
Probable space group: I M A 2
;
_chemical_formula_sum "Si O2"
_cell_formula_units_Z 48
_cell_length_a 26.410312
_cell_length_b 9.051983
_cell_length_c 8.806539
_cell_angle_alpha 90.000000
_cell_angle_beta 90.000000
_cell_angle_gamma 90.000000
_cell_volume 2105.341369
_symmetry_space_group_name_H-M "I M A 2"
_symmetry_group_IT_number 46
_symmetry_cell_setting 'orthorhombic'
loop_
_space_group_symop_operation_xyz
x,y,z
-x,-y,z
1/2-x,y,z
1/2+x,-y,z
1/2+x,1/2+y,1/2+z
1/2-x,1/2-y,1/2+z
-x,1/2+y,1/2+z
x,1/2-y,1/2+z
loop_
_atom_site_type_symbol
_atom_site_label
_atom_site_fract_x
_atom_site_fract_y
_atom_site_fract_z
Si Si1 0.552019 0.826353 0.752790
Si Si2 0.511551 0.167768 0.031250
Si Si3 0.353480 0.961231 0.792677
Si Si4 0.134447 0.087520 0.319289
Si Si5 0.878179 0.201697 0.500876
Si Si6 0.808755 0.815800 0.011497
O O1 0.529431 0.784949 0.591777
O O2 0.584678 0.684587 0.798781
O O3 0.591532 0.959474 0.772445
O O4 0.502711 0.842175 0.855442
O O5 0.500000 0.000000 0.092032
O O6 0.566936 0.235973 0.052653
O O7 0.347234 0.870697 0.638529
O O8 0.352883 0.842758 0.926360
O O9 0.316901 0.087247 0.857658
O O10 0.165074 0.162812 0.459674
O O11 0.119683 0.923648 0.370261
O O12 0.164109 0.110988 0.158895
O O13 0.750000 0.797633 0.044430
#
# Coordination Sequence:
#
# PCOD9380963 Si02
#       6
#     8   8   8   8   8   8
#     4  11  24  43  63  96 139 184 241 279 335 411
#     4  12  26  41  65 100 141 191 243 284 330 403
#     4  11  24  45  66 100 139 187 232 290 363 408
#     4  11  24  43  73 104 136 187 229 291 361 412
#     4  12  25  42  67  99 145 188 235 289 350 406
#     4  11  24  48  76 106 138 176 236 290 353 449
#
# _framework density 22.799151999999999
#
# number of rings (size 3 to 8) (size 9 to 14) (size 15 to 20)
#    0.000    0.667    1.667    7.500    4.667    1.333 
#    0.000    5.000    0.000    0.000    0.000    0.000 
#    0.000    0.000    0.000    0.000    0.000    0.000 
#
# Total GULP energy -134085.773526 kJ/mol
# GULP energy per Si atom -5586.907230 kJ/mol
# Density = 2.274726 g / cm^3
# Si number density = 22.799152 Si / 1000 Ang^3
#
#
#
# Elastic Constant Matrix: (Units=GPa)
#
#
# Indices 1 2 3 4 5 6 
#
# 1 59.3632 18.2636 20.4057 0.0000 0.0000 0.0000
# 2 18.2636 115.4908 15.6455 0.0000 0.0000 0.0000
# 3 20.4057 15.6455 98.5243 0.0000 0.0000 0.0000
# 4 0.0000 0.0000 0.0000 41.9402 0.0000 0.0000
# 5 0.0000 0.0000 0.0000 0.0000 17.1153 0.0000
# 6 0.0000 0.0000 0.0000 0.0000 0.0000 -25.4053
#
#
#
# Elastic Compliance Matrix: (Units=1/GPa)
#
#
# Indices 1 2 3 4 5 6 
#
# 1 0.018818 -0.002502 -0.003500 0.000000 0.000000 0.000000
# 2 -0.002502 0.009182 -0.000940 0.000000 0.000000 0.000000
# 3 -0.003500 -0.000940 0.011024 0.000000 0.000000 0.000000
# 4 0.000000 0.000000 0.000000 0.023843 0.000000 0.000000
# 5 0.000000 0.000000 0.000000 0.000000 0.058427 0.000000
# 6 0.000000 0.000000 0.000000 0.000000 0.000000 -0.039362
#
#
# Mechanical properties :
#
#
# Convention : Reuss Voigt Hill
#
# Bulk Modulus (GPa) = 39.77696 42.44533 41.11115
# Shear Modulus (GPa) = 47.98617 21.33427 34.66022
#
# Velocity S-wave (km/s) = 4.59272 3.06232 3.90326
# Velocity P-wave (km/s) = 6.75341 5.58222 6.19556
#
# Compressibility (1/GPa) = 0.02514018
#
# Stress axis : x y z
#
# Youngs Moduli (GPa) = 53.13973 108.91291 90.71136
#
# Poissons Ratio (x) = 0.27247 0.31751
# Poissons Ratio (y) = 0.13294 0.08526
# Poissons Ratio (z) = 0.18600 0.10237
#
# Static dielectric constant tensor:
#      x y z
#    x 1.785660 0.000000 0.000000 
#    y 0.000000 1.895120 0.000000 
#    z 0.000000 0.000000 1.887330 
# 
# From -- ./inp_files/8401.got.cif
#   From: 2010.05.17/outbox.cif.g08.bks.cpg/sg46_5_cif.got.tgz:8401.got - 2010.06.03 19:58:25.
