data_PCOD9380919
_publ_section_title
;
Structure prediction by ZEFSAII (Michael W. Deem and Ramdas Pophale) SiO2 
 PCOD9380919
Probable space group: I M A 2
;
_chemical_formula_sum "Si O2"
_cell_formula_units_Z 64
_cell_length_a 8.537901
_cell_length_b 29.209389
_cell_length_c 13.235638
_cell_angle_alpha 90.000000
_cell_angle_beta 90.000000
_cell_angle_gamma 90.000000
_cell_volume 3300.794354
_symmetry_space_group_name_H-M "I M A 2"
_symmetry_group_IT_number 46
_symmetry_cell_setting 'orthorhombic'
loop_
_space_group_symop_operation_xyz
x,y,z
-x,-y,z
1/2-x,y,z
1/2+x,-y,z
1/2+x,1/2+y,1/2+z
1/2-x,1/2-y,1/2+z
-x,1/2+y,1/2+z
x,1/2-y,1/2+z
loop_
_atom_site_type_symbol
_atom_site_label
_atom_site_fract_x
_atom_site_fract_y
_atom_site_fract_z
Si Si1 0.560453 0.051687 0.563500
Si Si2 0.422125 0.205603 0.670792
Si Si3 0.061103 0.874884 0.168937
Si Si4 0.564111 0.647589 0.453251
Si Si5 0.928102 0.794317 0.303601
Si Si6 0.570002 0.251415 0.482768
Si Si7 0.067507 0.616939 0.244192
Si Si8 0.438779 0.551569 0.837392
O O1 0.750000 0.052097 0.564879
O O2 0.507524 0.081657 0.659114
O O3 0.511962 0.068113 0.450361
O O4 0.500000 0.000000 0.573131
O O5 0.250000 0.183778 0.665511
O O6 0.419798 0.243802 0.756592
O O7 0.460039 0.234089 0.571685
O O8 0.546970 0.166825 0.693952
O O9 0.250000 0.873152 0.163692
O O10 0.013024 0.915650 0.245368
O O11 0.995495 0.829125 0.221757
O O12 0.992964 0.876977 0.055981
O O13 0.750000 0.654823 0.457073
O O14 0.480408 0.697371 0.451444
O O15 0.519825 0.620338 0.351442
O O16 0.750000 0.807497 0.332703
O O17 0.043791 0.786589 0.396509
O O18 0.750000 0.252817 0.515073
O O19 0.250000 0.607525 0.263856
O O20 0.500000 0.500000 0.824722
O O21 0.250000 0.550531 0.837085
#
# Coordination Sequence:
#
# PCOD9380919 Si02
#       8
#     8   8   8   8   8   8   8   8
#     4   9  20  40  65  93 122 152 189 240 298 359
#     4  11  23  38  57  84 120 158 201 247 295 349
#     4  11  23  39  62  90 120 158 204 247 297 358
#     4  12  24  40  59  83 120 161 204 250 300 353
#     4  11  23  38  57  84 120 158 201 247 295 349
#     4  12  24  38  58  81 114 159 204 250 299 349
#     4  11  23  39  62  90 120 158 204 247 297 358
#     4   9  20  40  65  93 122 152 189 240 298 359
#
# _framework density 19.389272999999999
#
# number of rings (size 3 to 8) (size 9 to 14) (size 15 to 20)
#    0.000    1.250    2.500    3.750    1.750    3.000 
#    0.000    0.625    0.000    0.000    0.000    0.000 
#    0.000    0.000    0.000    0.000    0.000    0.000 
#
# Total GULP energy -178659.103147 kJ/mol
# GULP energy per Si atom -5583.096973 kJ/mol
# Density = 1.934514 g / cm^3
# Si number density = 19.389273 Si / 1000 Ang^3
#
#
#
# Elastic Constant Matrix: (Units=GPa)
#
#
# Indices 1 2 3 4 5 6 
#
# 1 41.9639 2.0713 6.6792 0.0000 0.0001 0.0000
# 2 2.0713 63.3062 49.2429 -0.0002 0.0000 0.0000
# 3 6.6792 49.2429 125.0289 -0.0003 -0.0001 0.0000
# 4 0.0000 -0.0002 -0.0003 35.6036 -0.0001 0.0000
# 5 0.0001 0.0000 -0.0001 -0.0001 -42.6860 0.0000
# 6 0.0000 0.0000 0.0000 0.0000 0.0000 23.1840
#
#
#
# Elastic Compliance Matrix: (Units=1/GPa)
#
#
# Indices 1 2 3 4 5 6 
#
# 1 0.024038 0.000306 -0.001405 0.000000 0.000000 0.000000
# 2 0.000306 0.022777 -0.008987 0.000000 0.000000 0.000000
# 3 -0.001405 -0.008987 0.011613 0.000000 0.000000 0.000000
# 4 0.000000 0.000000 0.000000 0.028087 0.000000 0.000000
# 5 0.000000 0.000000 0.000000 0.000000 -0.023427 0.000000
# 6 0.000000 0.000000 0.000000 0.000000 0.000000 0.043133
#
#
# Mechanical properties :
#
#
# Convention : Reuss Voigt Hill
#
# Bulk Modulus (GPa) = 26.13911 38.47617 32.30764
# Shear Modulus (GPa) = 35.93374 14.70736 25.32055
#
# Velocity S-wave (km/s) = 4.30964 2.75713 3.61765
# Velocity P-wave (km/s) = 6.18664 5.47931 5.84369
#
# Compressibility (1/GPa) = 0.03825684
#
# Stress axis : x y z
#
# Youngs Moduli (GPa) = 41.59995 43.90430 86.11219
#
# Poissons Ratio (x) = -0.01344 0.12097
# Poissons Ratio (y) = -0.01274 0.77389
# Poissons Ratio (z) = 0.05844 0.39457
#
# Static dielectric constant tensor:
#      x y z
#    x 1.675420 0.000000 0.000000 
#    y 0.000000 1.644570 0.000000 
#    z 0.000000 0.000000 1.718830 
# 
# From -- ./inp_files/9660.got.cif
#   From: 2010.05.17/outbox.cif.g08.bks.cpg/sg46_5_cif.got.tgz:9660.got - 2010.06.03 19:58:25.
