data_PCOD9380113
_publ_section_title
;
Structure prediction by ZEFSAII (Michael W. Deem and Ramdas Pophale) SiO2 
 PCOD9380113
Probable space group: I M A 2
;
_chemical_formula_sum "Si O2"
_cell_formula_units_Z 60
_cell_length_a 7.605666
_cell_length_b 30.067927
_cell_length_c 11.783940
_cell_angle_alpha 90.000000
_cell_angle_beta 90.000000
_cell_angle_gamma 90.000000
_cell_volume 2694.829292
_symmetry_space_group_name_H-M "I M A 2"
_symmetry_group_IT_number 46
_symmetry_cell_setting 'orthorhombic'
loop_
_space_group_symop_operation_xyz
x,y,z
-x,-y,z
1/2-x,y,z
1/2+x,-y,z
1/2+x,1/2+y,1/2+z
1/2-x,1/2-y,1/2+z
-x,1/2+y,1/2+z
x,1/2-y,1/2+z
loop_
_atom_site_type_symbol
_atom_site_label
_atom_site_fract_x
_atom_site_fract_y
_atom_site_fract_z
Si Si1 0.948579 0.436801 0.181840
Si Si2 0.959240 0.333344 0.228796
Si Si3 0.250000 0.054394 0.506127
Si Si4 0.450006 0.205379 0.964687
Si Si5 0.544692 0.302825 0.995922
Si Si6 0.541135 0.952139 0.937513
Si Si7 0.964200 0.625378 0.607545
Si Si8 0.041853 0.608125 0.867582
O O1 0.250000 0.557251 0.140047
O O2 0.958245 0.451225 0.312764
O O3 0.987860 0.383725 0.188251
O O4 0.096643 0.456384 0.102038
O O5 0.750000 0.327203 0.246853
O O6 0.044697 0.322078 0.348022
O O7 0.027186 0.303789 0.124228
O O8 0.407997 0.071939 0.418219
O O9 0.250000 0.214274 0.996892
O O10 0.529444 0.253860 0.945801
O O11 0.527563 0.173330 0.061474
O O12 0.750000 0.312448 0.009829
O O13 0.480524 0.344435 0.922315
O O14 0.750000 0.947355 0.922573
O O15 0.500000 0.000000 0.990799
O O16 0.479521 0.912007 0.016946
O O17 0.750000 0.626083 0.607458
O O18 0.025786 0.613362 0.732633
O O19 0.250000 0.599998 0.894057
#
# Coordination Sequence:
#
# PCOD9380113 Si02
#       8
#     8   8   4   8   8   8   8   8
#     4  11  22  39  68 102 131 169 215 265 339 398
#     4  10  21  38  59  84 120 164 212 268 325 386
#     4  12  22  40  68  96 138 172 216 280 316 392
#     4  11  24  36  58  87 124 167 219 275 334 390
#     4  10  23  40  55  85 123 168 224 276 327 385
#     4  11  23  43  71 106 139 170 214 273 341 407
#     4  10  23  43  63  94 133 176 221 277 336 398
#     4  11  24  41  66  96 129 183 234 270 328 392
#
# _framework density 22.264859999999999
#
# number of rings (size 3 to 8) (size 9 to 14) (size 15 to 20)
#    0.000    1.333    4.000    1.200    3.733    2.667 
#    0.000    0.000    0.000    0.800    3.467    0.000 
#    0.000    0.000    0.000    0.000    0.000    0.000 
#
# Total GULP energy -167165.173104 kJ/mol
# GULP energy per Si atom -5572.172437 kJ/mol
# Density = 2.221418 g / cm^3
# Si number density = 22.264860 Si / 1000 Ang^3
#
#
#
# Elastic Constant Matrix: (Units=GPa)
#
#
# Indices 1 2 3 4 5 6 
#
# 1 98.9537 2.4033 19.8187 0.0000 0.0000 0.0000
# 2 2.4033 28.4048 14.0900 0.0003 0.0000 0.0000
# 3 19.8187 14.0900 119.6428 0.0010 -0.0001 0.0000
# 4 0.0000 0.0003 0.0010 -19.8760 0.0001 -0.0002
# 5 0.0000 0.0000 -0.0001 0.0001 18.6444 0.0000
# 6 0.0000 0.0000 0.0000 -0.0002 0.0000 15.8688
#
#
#
# Elastic Compliance Matrix: (Units=1/GPa)
#
#
# Indices 1 2 3 4 5 6 
#
# 1 0.010453 -0.000027 -0.001728 0.000000 0.000000 0.000000
# 2 -0.000027 0.037390 -0.004399 0.000000 0.000000 0.000000
# 3 -0.001728 -0.004399 0.009163 0.000000 0.000000 0.000000
# 4 0.000000 0.000000 0.000000 -0.050312 0.000000 -0.000001
# 5 0.000000 0.000000 0.000000 0.000000 0.053635 0.000000
# 6 0.000000 0.000000 0.000000 -0.000001 0.000000 0.063017
#
#
# Mechanical properties :
#
#
# Convention : Reuss Voigt Hill
#
# Bulk Modulus (GPa) = 22.37317 35.51392 28.94355
# Shear Modulus (GPa) = 33.21115 16.97340 25.09227
#
# Velocity S-wave (km/s) = 3.86636 2.76405 3.36071
# Velocity P-wave (km/s) = 5.47742 5.11585 5.29972
#
# Compressibility (1/GPa) = 0.04469639
#
# Stress axis : x y z
#
# Youngs Moduli (GPa) = 95.67058 26.74542 109.14018
#
# Poissons Ratio (x) = 0.00072 0.18862
# Poissons Ratio (y) = 0.00259 0.48008
# Poissons Ratio (z) = 0.16534 0.11765
#
# Static dielectric constant tensor:
#      x y z
#    x 1.834410 0.000000 0.000000 
#    y 0.000000 1.902770 0.000000 
#    z 0.000000 0.000000 1.789900 
# 
# From -- ./inp_files/9640.got.cif
#   From: 2010.05.17/outbox.cif.g08.bks.cpg/sg46_5_cif.got.tgz:9640.got - 2010.06.03 19:58:25.
