data_PCOD9380370
_publ_section_title
;
Structure prediction by ZEFSAII (Michael W. Deem and Ramdas Pophale) SiO2 
 PCOD9380370
Probable space group: I M A 2
;
_chemical_formula_sum "Si O2"
_cell_formula_units_Z 48
_cell_length_a 14.690016
_cell_length_b 5.325155
_cell_length_c 26.389142
_cell_angle_alpha 90.000000
_cell_angle_beta 90.000000
_cell_angle_gamma 90.000000
_cell_volume 2064.333176
_symmetry_space_group_name_H-M "I M A 2"
_symmetry_group_IT_number 46
_symmetry_cell_setting 'orthorhombic'
loop_
_space_group_symop_operation_xyz
x,y,z
-x,-y,z
1/2-x,y,z
1/2+x,-y,z
1/2+x,1/2+y,1/2+z
1/2-x,1/2-y,1/2+z
-x,1/2+y,1/2+z
x,1/2-y,1/2+z
loop_
_atom_site_type_symbol
_atom_site_label
_atom_site_fract_x
_atom_site_fract_y
_atom_site_fract_z
Si Si1 0.091759 0.592816 0.265770
Si Si2 0.857663 0.415455 0.436933
Si Si3 0.855077 0.646917 0.162851
Si Si4 0.000000 0.500000 0.089823
Si Si5 0.901284 0.907583 0.374517
Si Si6 0.500000 0.500000 0.692176
Si Si7 0.000000 0.000000 0.024425
Si Si8 0.250000 0.918995 0.312043
O O1 0.136917 0.415133 0.222807
O O2 0.169743 0.715709 0.298339
O O3 0.000000 0.500000 0.293841
O O4 0.046338 0.799029 0.228653
O O5 0.750000 0.461429 0.443273
O O6 0.866923 0.141695 0.410137
O O7 0.914317 0.430082 0.488641
O O8 0.898652 0.646359 0.404394
O O9 0.750000 0.669430 0.149197
O O10 0.912323 0.462239 0.126621
O O11 0.917658 0.892033 0.159336
O O12 0.983068 0.746548 0.056204
O O13 0.830183 0.884355 0.329346
O O14 0.000000 0.000000 0.358236
#
# Coordination Sequence:
#
# PCOD9380370 Si02
#       8
#     8   8   8   4   8   4   4   4
#     4  10  23  45  68 101 148 202 246 306 374 437
#     4  12  24  50  78 106 146 196 240 301 406 450
#     4  11  23  44  72 100 154 201 248 306 390 438
#     4  12  26  46  72 118 146 195 257 312 360 466
#     4  12  25  47  75 109 150 199 241 312 377 455
#     4  10  21  44  66  99 136 214 247 298 370 449
#     4  12  27  46  80 107 152 187 250 318 370 465
#     4  12  26  44  70 118 142 188 272 296 360 454
#
# _framework density 23.252058999999999
#
# number of rings (size 3 to 8) (size 9 to 14) (size 15 to 20)
#    0.000    0.667    6.667    1.500    2.333    2.667 
#    9.000    0.000    0.000    0.000    0.000    0.000 
#    0.000    0.000    0.000    0.000    0.000    0.000 
#
# Total GULP energy -133692.126557 kJ/mol
# GULP energy per Si atom -5570.505273 kJ/mol
# Density = 2.319914 g / cm^3
# Si number density = 23.252059 Si / 1000 Ang^3
#
#
#
# Elastic Constant Matrix: (Units=GPa)
#
#
# Indices 1 2 3 4 5 6 
#
# 1 215.4062 -3.0987 18.0988 0.0000 0.0000 0.0000
# 2 -3.0987 95.8096 26.1876 0.0000 0.0000 0.0000
# 3 18.0988 26.1876 74.0607 0.0000 0.0000 0.0000
# 4 0.0000 0.0000 0.0000 91.9862 0.0000 0.0000
# 5 0.0000 0.0000 0.0000 0.0000 -0.2443 0.0000
# 6 0.0000 0.0000 0.0000 0.0000 0.0000 36.0269
#
#
#
# Elastic Compliance Matrix: (Units=1/GPa)
#
#
# Indices 1 2 3 4 5 6 
#
# 1 0.004763 0.000523 -0.001349 0.000000 0.000000 0.000000
# 2 0.000523 0.011611 -0.004234 0.000000 0.000000 0.000000
# 3 -0.001349 -0.004234 0.015329 0.000000 0.000000 0.000000
# 4 0.000000 0.000000 0.000000 0.010871 0.000000 0.000000
# 5 0.000000 0.000000 0.000000 0.000000 -4.093431 0.000000
# 6 0.000000 0.000000 0.000000 0.000000 0.000000 0.027757
#
#
# Mechanical properties :
#
#
# Convention : Reuss Voigt Hill
#
# Bulk Modulus (GPa) = 46.32971 51.96132 49.14551
# Shear Modulus (GPa) = -1.24819 48.49302 23.62242
#
# Velocity S-wave (km/s) = -0.73347 4.57172 3.19082
# Velocity P-wave (km/s) = 4.38759 7.08964 5.89551
#
# Compressibility (1/GPa) = 0.02158442
#
# Stress axis : x y z
#
# Youngs Moduli (GPa) = 209.94081 86.12218 65.23570
#
# Poissons Ratio (x) = -0.04502 0.08799
# Poissons Ratio (y) = -0.10974 0.27618
# Poissons Ratio (z) = 0.28318 0.36460
#
# Static dielectric constant tensor:
#      x y z
#    x 1.834020 0.000000 0.000000 
#    y 0.000000 1.970600 0.000000 
#    z 0.000000 0.000000 1.920760 
# 
# From -- ./inp_files/24638.got.cif
#   From: 2010.05.17/outbox.cif.g08.bks.cpg/sg46_13_cif.got.tgz:24638.got - 2010.06.03 19:58:25.
