data_PCOD9380119
_publ_section_title
;
Structure prediction by ZEFSAII (Michael W. Deem and Ramdas Pophale) SiO2 
 PCOD9380119
Probable space group: I M A 2
;
_chemical_formula_sum "Si O2"
_cell_formula_units_Z 60
_cell_length_a 17.428013
_cell_length_b 27.963969
_cell_length_c 5.032418
_cell_angle_alpha 90.000000
_cell_angle_beta 90.000000
_cell_angle_gamma 90.000000
_cell_volume 2452.581197
_symmetry_space_group_name_H-M "I M A 2"
_symmetry_group_IT_number 46
_symmetry_cell_setting 'orthorhombic'
loop_
_space_group_symop_operation_xyz
x,y,z
-x,-y,z
1/2-x,y,z
1/2+x,-y,z
1/2+x,1/2+y,1/2+z
1/2-x,1/2-y,1/2+z
-x,1/2+y,1/2+z
x,1/2-y,1/2+z
loop_
_atom_site_type_symbol
_atom_site_label
_atom_site_fract_x
_atom_site_fract_y
_atom_site_fract_z
Si Si1 0.659732 0.728002 0.509180
Si Si2 0.029616 0.604406 0.308603
Si Si3 0.611131 0.625685 0.649996
Si Si4 0.000000 0.500000 0.497231
Si Si5 0.663178 0.014040 0.314722
Si Si6 0.664789 0.575011 0.148883
Si Si7 0.160131 0.774360 0.459662
Si Si8 0.878881 0.380320 0.807682
O O1 0.750000 0.736851 0.465323
O O2 0.625669 0.734097 0.216867
O O3 0.651247 0.676529 0.638907
O O4 0.003258 0.548857 0.328906
O O5 0.103749 0.612319 0.496213
O O6 0.967170 0.632075 0.485204
O O7 0.049133 0.618720 0.011311
O O8 0.611010 0.603703 0.943238
O O9 0.654174 0.588571 0.453885
O O10 0.080897 0.503251 0.664507
O O11 0.750000 0.004274 0.196938
O O12 0.662414 0.070150 0.383235
O O13 0.658643 0.980445 0.574647
O O14 0.750000 0.591289 0.071753
O O15 0.250000 0.763198 0.496428
O O16 0.124892 0.738276 0.243779
O O17 0.155944 0.828624 0.361362
#
# Coordination Sequence:
#
# PCOD9380119 Si02
#       8
#     8   8   8   4   8   8   8   8
#     4  10  21  38  60  84 113 156 207 265 331 385
#     4  11  25  40  67  93 132 184 225 264 348 411
#     4  12  23  41  61  90 126 165 218 269 332 402
#     4  10  22  44  68  96 144 182 224 282 330 404
#     4  10  23  42  69 103 139 184 229 276 341 408
#     4  11  23  38  61  94 126 164 216 272 326 393
#     4  10  21  41  70  99 130 172 225 288 355 414
#     4  11  24  43  65  97 136 175 225 282 337 415
#
# _framework density 24.464023999999998
#
# number of rings (size 3 to 8) (size 9 to 14) (size 15 to 20)
#    0.000    1.333    1.333    4.000    3.733    1.600 
#    0.000   11.333    0.000    0.000    0.000    0.000 
#    0.000    0.000    0.000    0.000    0.000    0.000 
#
# Total GULP energy -167456.230008 kJ/mol
# GULP energy per Si atom -5581.874334 kJ/mol
# Density = 2.440834 g / cm^3
# Si number density = 24.464024 Si / 1000 Ang^3
#
#
#
# Elastic Constant Matrix: (Units=GPa)
#
#
# Indices 1 2 3 4 5 6 
#
# 1 74.5507 -9.6221 18.3747 0.0000 -0.0003 0.0000
# 2 -9.6221 55.2255 14.5106 0.0000 -0.0004 -0.0002
# 3 18.3747 14.5106 82.8341 -0.0002 -0.0017 -0.0008
# 4 0.0000 0.0000 -0.0002 31.7029 0.0000 0.0000
# 5 -0.0003 -0.0004 -0.0017 0.0000 20.1763 -0.0001
# 6 0.0000 -0.0002 -0.0008 0.0000 -0.0001 26.8291
#
#
#
# Elastic Compliance Matrix: (Units=1/GPa)
#
#
# Indices 1 2 3 4 5 6 
#
# 1 0.014849 0.003619 -0.003928 0.000000 0.000000 0.000000
# 2 0.003619 0.019863 -0.004282 0.000000 0.000000 0.000000
# 3 -0.003928 -0.004282 0.013694 0.000000 0.000001 0.000000
# 4 0.000000 0.000000 0.000000 0.031543 0.000000 0.000000
# 5 0.000000 0.000000 0.000001 0.000000 0.049563 0.000000
# 6 0.000000 0.000000 0.000000 0.000000 0.000000 0.037273
#
#
# Mechanical properties :
#
#
# Convention : Reuss Voigt Hill
#
# Bulk Modulus (GPa) = 25.49463 28.79297 27.14380
# Shear Modulus (GPa) = 26.44918 28.36481 27.40699
#
# Velocity S-wave (km/s) = 3.29165 3.40876 3.35072
# Velocity P-wave (km/s) = 4.98903 5.22379 5.10776
#
# Compressibility (1/GPa) = 0.03922395
#
# Stress axis : x y z
#
# Youngs Moduli (GPa) = 67.34493 50.34390 73.02571
#
# Poissons Ratio (x) = -0.18221 0.28684
# Poissons Ratio (y) = -0.24374 0.31273
# Poissons Ratio (z) = 0.26452 0.21559
#
# Static dielectric constant tensor:
#      x y z
#    x 2.064780 0.000000 0.000000 
#    y 0.000000 1.899910 0.000000 
#    z 0.000000 0.000000 1.963900 
# 
# From -- ./inp_files/1809.got.cif
#   From: 2010.05.17/outbox.cif.g08.bks.cpg/sg46_1_cif.got.tgz:1809.got - 2010.06.03 19:58:25.
