data_PCOD9380715
_publ_section_title
;
Structure prediction by ZEFSAII (Michael W. Deem and Ramdas Pophale) SiO2 
 PCOD9380715
Probable space group: I M A 2
;
_chemical_formula_sum "Si O2"
_cell_formula_units_Z 16
_cell_length_a 8.185504
_cell_length_b 7.652006
_cell_length_c 8.762238
_cell_angle_alpha 90.000000
_cell_angle_beta 90.000000
_cell_angle_gamma 90.000000
_cell_volume 548.827384
_symmetry_space_group_name_H-M "I M A 2"
_symmetry_group_IT_number 46
_symmetry_cell_setting 'orthorhombic'
loop_
_space_group_symop_operation_xyz
x,y,z
-x,-y,z
1/2-x,y,z
1/2+x,-y,z
1/2+x,1/2+y,1/2+z
1/2-x,1/2-y,1/2+z
-x,1/2+y,1/2+z
x,1/2-y,1/2+z
loop_
_atom_site_type_symbol
_atom_site_label
_atom_site_fract_x
_atom_site_fract_y
_atom_site_fract_z
Si Si1 0.434162 0.333177 0.416530
Si Si2 0.750000 0.987612 0.368050
Si Si3 0.750000 0.244670 0.608195
O O1 0.500000 0.500000 0.321653
O O2 0.250000 0.374469 0.475615
O O3 0.577588 0.309031 0.537426
O O4 0.398109 0.147566 0.339664
O O5 0.750000 0.043865 0.547070
O O6 0.750000 0.167942 0.274871
#
# Coordination Sequence:
#
# PCOD9380715 Si02
#       3
#     8   4   4
#     4  10  23  49  81 126 172 233 294 356 449 517
#     4  10  27  48  92 128 175 242 284 364 470 504
#     4  12  23  54  80 132 183 214 300 378 420 556
#
# _framework density 29.153067
#
# number of rings (size 3 to 8) (size 9 to 14) (size 15 to 20)
#    1.500    0.000    2.500    1.500    0.000    4.000 
#    4.500   15.000    0.000    0.000    0.000    3.500 
#    0.000    0.000    0.000    0.000    0.000    0.000 
#
# Total GULP energy -44635.629602 kJ/mol
# GULP energy per Si atom -5579.453700 kJ/mol
# Density = 2.908671 g / cm^3
# Si number density = 29.153067 Si / 1000 Ang^3
#
#
#
# Elastic Constant Matrix: (Units=GPa)
#
#
# Indices 1 2 3 4 5 6 
#
# 1 256.1066 51.5678 66.2803 0.0001 0.0001 0.0001
# 2 51.5678 250.9258 56.7253 0.0011 0.0004 0.0005
# 3 66.2803 56.7253 122.3472 0.0014 0.0004 0.0005
# 4 0.0001 0.0011 0.0014 10.4771 0.0004 0.0005
# 5 0.0001 0.0004 0.0004 0.0004 51.1223 0.0002
# 6 0.0001 0.0005 0.0005 0.0005 0.0002 67.9809
#
#
#
# Elastic Compliance Matrix: (Units=1/GPa)
#
#
# Indices 1 2 3 4 5 6 
#
# 1 0.004582 -0.000425 -0.002285 0.000000 0.000000 0.000000
# 2 -0.000425 0.004491 -0.001852 0.000000 0.000000 0.000000
# 3 -0.002285 -0.001852 0.010270 -0.000001 0.000000 0.000000
# 4 0.000000 0.000000 -0.000001 0.095446 -0.000001 -0.000001
# 5 0.000000 0.000000 0.000000 -0.000001 0.019561 0.000000
# 6 0.000000 0.000000 0.000000 -0.000001 0.000000 0.014710
#
#
# Mechanical properties :
#
#
# Convention : Reuss Voigt Hill
#
# Bulk Modulus (GPa) = 97.85961 108.72518 103.29239
# Shear Modulus (GPa) = 30.94240 56.23647 43.58943
#
# Velocity S-wave (km/s) = 3.26141 4.39681 3.87097
# Velocity P-wave (km/s) = 6.91540 7.94679 7.44897
#
# Compressibility (1/GPa) = 0.01021872
#
# Stress axis : x y z
#
# Youngs Moduli (GPa) = 218.26694 222.65373 97.37075
#
# Poissons Ratio (x) = 0.09463 0.22249
# Poissons Ratio (y) = 0.09277 0.18034
# Poissons Ratio (z) = 0.49873 0.41238
#
# Static dielectric constant tensor:
#      x y z
#    x 2.355930 0.000000 0.000000 
#    y 0.000000 2.374000 0.000000 
#    z 0.000000 0.000000 2.261340 
# 
# From -- ./inp_files/2973.got.cif
#   From: 2010.05.17/outbox.cif.g08.bks.cpg/sg46_2_cif.got.tgz:2973.got - 2010.06.03 19:58:25.
