data_PCOD9380572
_publ_section_title
;
Structure prediction by ZEFSAII (Michael W. Deem and Ramdas Pophale) SiO2 
 PCOD9380572
Probable space group: I M A 2
;
_chemical_formula_sum "Si O2"
_cell_formula_units_Z 32
_cell_length_a 20.541835
_cell_length_b 5.222339
_cell_length_c 13.254224
_cell_angle_alpha 90.000000
_cell_angle_beta 90.000000
_cell_angle_gamma 90.000000
_cell_volume 1421.865781
_symmetry_space_group_name_H-M "I M A 2"
_symmetry_group_IT_number 46
_symmetry_cell_setting 'orthorhombic'
loop_
_space_group_symop_operation_xyz
x,y,z
-x,-y,z
1/2-x,y,z
1/2+x,-y,z
1/2+x,1/2+y,1/2+z
1/2-x,1/2-y,1/2+z
-x,1/2+y,1/2+z
x,1/2-y,1/2+z
loop_
_atom_site_type_symbol
_atom_site_label
_atom_site_fract_x
_atom_site_fract_y
_atom_site_fract_z
Si Si1 0.628900 0.187038 0.982420
Si Si2 0.325514 0.208718 0.590888
Si Si3 0.958991 0.249434 0.303007
Si Si4 0.820551 0.127155 0.768543
O O1 0.561806 0.228979 0.921346
O O2 0.676618 0.111711 0.889059
O O3 0.631481 0.944036 0.054748
O O4 0.652393 0.446865 0.035119
O O5 0.250000 0.259815 0.565691
O O6 0.327285 0.140368 0.709655
O O7 0.889072 0.235536 0.248070
O O8 0.000000 0.500000 0.274801
O O9 0.000000 0.000000 0.284371
O O10 0.750000 0.236135 0.736417
#
# Coordination Sequence:
#
# PCOD9380572 Si02
#       4
#     8   8   8   8
#     4  10  23  39  65  91 136 172 218 269 337 383
#     4  11  21  38  62 100 133 169 221 276 329 398
#     4  10  22  43  64  91 131 175 220 274 329 397
#     4   9  22  40  68 100 134 174 223 275 334 394
#
# _framework density 22.505642999999999
#
# number of rings (size 3 to 8) (size 9 to 14) (size 15 to 20)
#    1.500    0.500    0.000    3.750    0.000    4.000 
#    0.000   11.250    0.000    0.000    0.000    0.000 
#    0.000    0.000    0.000    0.000    0.000    0.000 
#
# Total GULP energy -89184.492168 kJ/mol
# GULP energy per Si atom -5574.030760 kJ/mol
# Density = 2.245442 g / cm^3
# Si number density = 22.505643 Si / 1000 Ang^3
#
#
#
# Elastic Constant Matrix: (Units=GPa)
#
#
# Indices 1 2 3 4 5 6 
#
# 1 159.4708 59.3915 5.8700 0.0000 0.0000 0.0000
# 2 59.3915 154.4166 37.2284 0.0000 0.0000 0.0000
# 3 5.8700 37.2284 61.9185 0.0000 0.0000 0.0000
# 4 0.0000 0.0000 0.0000 3.3994 0.0000 0.0000
# 5 0.0000 0.0000 0.0000 0.0000 9.8091 0.0000
# 6 0.0000 0.0000 0.0000 0.0000 0.0000 1.6855
#
#
#
# Elastic Compliance Matrix: (Units=1/GPa)
#
#
# Indices 1 2 3 4 5 6 
#
# 1 0.007392 -0.003128 0.001180 0.000000 0.000000 0.000000
# 2 -0.003128 0.008897 -0.005053 0.000000 0.000000 0.000000
# 3 0.001180 -0.005053 0.019076 0.000000 0.000000 0.000000
# 4 0.000000 0.000000 0.000000 0.294170 0.000000 0.000000
# 5 0.000000 0.000000 0.000000 0.000000 0.101946 0.000000
# 6 0.000000 0.000000 0.000000 0.000000 0.000000 0.593287
#
#
# Mechanical properties :
#
#
# Convention : Reuss Voigt Hill
#
# Bulk Modulus (GPa) = 46.80746 64.53176 55.66961
# Shear Modulus (GPa) = 4.78061 21.19987 12.99024
#
# Velocity S-wave (km/s) = 1.45904 3.07250 2.40510
# Velocity P-wave (km/s) = 4.86638 6.42828 5.70107
#
# Compressibility (1/GPa) = 0.02136412
#
# Stress axis : x y z
#
# Youngs Moduli (GPa) = 135.27945 112.39617 52.42065
#
# Poissons Ratio (x) = 0.35152 -0.06184
# Poissons Ratio (y) = 0.42309 0.26487
# Poissons Ratio (z) = -0.15958 0.56792
#
# Static dielectric constant tensor:
#      x y z
#    x 1.879540 0.000000 0.000000 
#    y 0.000000 1.794840 0.000000 
#    z 0.000000 0.000000 1.860780 
# 
# From -- ./inp_files/12160.got.cif
#   From: 2010.05.17/outbox.cif.g08.bks.cpg/sg46_7_cif.got.tgz:12160.got - 2010.06.03 19:58:25.
