data_PCOD9380161
_publ_section_title
;
Structure prediction by ZEFSAII (Michael W. Deem and Ramdas Pophale) SiO2 
 PCOD9380161
Probable space group: I M A 2
;
_chemical_formula_sum "Si O2"
_cell_formula_units_Z 64
_cell_length_a 19.099245
_cell_length_b 11.523285
_cell_length_c 14.960747
_cell_angle_alpha 90.000000
_cell_angle_beta 90.000000
_cell_angle_gamma 90.000000
_cell_volume 3292.651614
_symmetry_space_group_name_H-M "I M A 2"
_symmetry_group_IT_number 46
_symmetry_cell_setting 'orthorhombic'
loop_
_space_group_symop_operation_xyz
x,y,z
-x,-y,z
1/2-x,y,z
1/2+x,-y,z
1/2+x,1/2+y,1/2+z
1/2-x,1/2-y,1/2+z
-x,1/2+y,1/2+z
x,1/2-y,1/2+z
loop_
_atom_site_type_symbol
_atom_site_label
_atom_site_fract_x
_atom_site_fract_y
_atom_site_fract_z
Si Si1 0.566805 0.662453 0.069900
Si Si2 0.405621 0.593555 0.038443
Si Si3 0.924425 0.941370 0.044425
Si Si4 0.171890 0.031060 0.209464
Si Si5 0.830369 0.965067 0.876851
Si Si6 0.333697 0.854460 0.356613
Si Si7 0.671482 0.694497 0.227504
Si Si8 0.832684 0.153172 0.724065
O O1 0.484570 0.634318 0.061034
O O2 0.598543 0.546565 0.022683
O O3 0.575696 0.798882 0.043501
O O4 0.607005 0.655351 0.165551
O O5 0.364361 0.628811 0.127798
O O6 0.374791 0.651958 0.949303
O O7 0.883965 0.988440 0.131822
O O8 0.881713 0.981075 0.957884
O O9 0.000000 0.000000 0.043073
O O10 0.250000 0.987797 0.183513
O O11 0.174929 0.168551 0.218720
O O12 0.155649 0.975263 0.304933
O O13 0.750000 0.982412 0.905865
O O14 0.837786 0.840107 0.830410
O O15 0.844404 0.047837 0.792678
O O16 0.250000 0.837580 0.372869
O O17 0.358265 0.763111 0.281229
O O18 0.750000 0.648307 0.200166
O O19 0.750000 0.168128 0.712215
#
# Coordination Sequence:
#
# PCOD9380161 Si02
#       8
#     8   8   8   8   8   8   8   8
#     4  10  24  42  58  93 122 164 215 243 315 370
#     4  11  23  43  63  88 129 164 207 265 301 372
#     4  11  25  40  60  92 129 168 205 251 313 382
#     4   9  20  41  63  90 122 157 205 259 313 367
#     4  10  21  38  63  94 121 157 207 259 312 367
#     4  10  23  40  65  95 122 166 213 254 315 370
#     4   9  18  38  65  90 120 156 204 264 313 364
#     4  10  22  40  65  94 123 163 210 257 314 369
#
# _framework density 19.437221000000001
#
# number of rings (size 3 to 8) (size 9 to 14) (size 15 to 20)
#    0.000    2.000    1.250    0.750    5.250    2.000 
#    2.250    3.750    0.000    0.000    0.000    0.000 
#    0.000    0.000    0.000    0.000    0.000    0.000 
#
# Total GULP energy -178260.056631 kJ/mol
# GULP energy per Si atom -5570.626770 kJ/mol
# Density = 1.939298 g / cm^3
# Si number density = 19.437221 Si / 1000 Ang^3
#
#
#
# Elastic Constant Matrix: (Units=GPa)
#
#
# Indices 1 2 3 4 5 6 
#
# 1 89.0930 22.4249 86.4768 0.0000 0.0000 0.0000
# 2 22.4249 50.6427 28.2103 0.0000 0.0000 0.0000
# 3 86.4768 28.2103 126.6138 0.0000 0.0000 0.0000
# 4 0.0000 0.0000 0.0000 9.6111 0.0000 0.0000
# 5 0.0000 0.0000 0.0000 0.0000 -286.3646 0.0000
# 6 0.0000 0.0000 0.0000 0.0000 0.0000 25.3041
#
#
#
# Elastic Compliance Matrix: (Units=1/GPa)
#
#
# Indices 1 2 3 4 5 6 
#
# 1 0.033552 -0.002388 -0.022384 0.000000 0.000000 0.000000
# 2 -0.002388 0.022714 -0.003430 0.000000 0.000000 0.000000
# 3 -0.022384 -0.003430 0.023950 0.000000 0.000000 0.000000
# 4 0.000000 0.000000 0.000000 0.104046 0.000000 0.000000
# 5 0.000000 0.000000 0.000000 0.000000 -0.003492 0.000000
# 6 0.000000 0.000000 0.000000 0.000000 0.000000 0.039519
#
#
# Mechanical properties :
#
#
# Convention : Reuss Voigt Hill
#
# Bulk Modulus (GPa) = 41.99396 60.06373 51.02884
# Shear Modulus (GPa) = 17.56669 -41.67404 -12.05367
#
# Velocity S-wave (km/s) = 3.00953 -4.63539 -2.49295
# Velocity P-wave (km/s) = 5.80760 1.52293 4.24544
#
# Compressibility (1/GPa) = 0.02381295
#
# Stress axis : x y z
#
# Youngs Moduli (GPa) = 29.80479 44.02536 41.75350
#
# Poissons Ratio (x) = 0.10514 0.93459
# Poissons Ratio (y) = 0.07118 0.14320
# Poissons Ratio (z) = 0.66714 0.15099
#
# Static dielectric constant tensor:
#      x y z
#    x 1.679890 0.000000 0.000000 
#    y 0.000000 1.798750 0.000000 
#    z 0.000000 0.000000 1.630830 
# 
# From -- ./inp_files/16800.got.cif
#   From: 2010.05.17/outbox.cif.g08.bks.cpg/sg46_9_cif.got.tgz:16800.got - 2010.06.03 19:58:25.
