data_PCOD9380767
_publ_section_title
;
Structure prediction by ZEFSAII (Michael W. Deem and Ramdas Pophale) SiO2 
 PCOD9380767
Probable space group: I M A 2
;
_chemical_formula_sum "Si O2"
_cell_formula_units_Z 48
_cell_length_a 24.713681
_cell_length_b 15.963912
_cell_length_c 4.841045
_cell_angle_alpha 90.000000
_cell_angle_beta 90.000000
_cell_angle_gamma 90.000000
_cell_volume 1909.923100
_symmetry_space_group_name_H-M "I M A 2"
_symmetry_group_IT_number 46
_symmetry_cell_setting 'orthorhombic'
loop_
_space_group_symop_operation_xyz
x,y,z
-x,-y,z
1/2-x,y,z
1/2+x,-y,z
1/2+x,1/2+y,1/2+z
1/2-x,1/2-y,1/2+z
-x,1/2+y,1/2+z
x,1/2-y,1/2+z
loop_
_atom_site_type_symbol
_atom_site_label
_atom_site_fract_x
_atom_site_fract_y
_atom_site_fract_z
Si Si1 0.974125 0.198678 0.977090
Si Si2 0.888609 0.077951 0.796880
Si Si3 0.545505 0.935343 0.662109
Si Si4 0.327729 0.937268 0.296201
Si Si5 0.750000 0.198760 0.522981
Si Si6 0.363530 0.190513 0.433957
Si Si7 0.750000 0.594738 0.931385
O O1 0.981295 0.283086 0.797728
O O2 0.915313 0.162956 0.897990
O O3 0.014004 0.131792 0.847225
O O4 0.883061 0.067466 0.469252
O O5 0.923698 0.997489 0.872306
O O6 0.833997 0.066397 0.969079
O O7 0.591819 0.881516 0.501019
O O8 0.500000 0.000000 0.531150
O O9 0.299749 0.855339 0.417788
O O10 0.295986 0.020405 0.374555
O O11 0.750000 0.216921 0.844489
O O12 0.371734 0.271449 0.630597
O O13 0.300729 0.161091 0.474286
#
# Coordination Sequence:
#
# PCOD9380767 Si02
#       7
#     8   8   8   8   4   8   4
#     4  11  24  43  68 103 143 182 235 302 363 430
#     4  11  24  43  69 100 136 189 238 290 355 427
#     4  10  24  47  74 105 148 194 245 300 369 445
#     4  11  25  43  70 100 138 191 241 289 356 438
#     4  11  24  42  64  96 136 176 226 295 356 412
#     4  12  27  47  75 110 149 193 242 305 371 436
#     4  11  26  48  74 106 152 192 246 297 364 450
#
# _framework density 25.131903000000001
#
# number of rings (size 3 to 8) (size 9 to 14) (size 15 to 20)
#    0.000    1.000    1.667    3.500    2.333    8.667 
#    0.000    7.500    0.000    0.000    0.000    0.000 
#    0.000    0.000    0.000    0.000    0.000    0.000 
#
# Total GULP energy -133615.786056 kJ/mol
# GULP energy per Si atom -5567.324419 kJ/mol
# Density = 2.507470 g / cm^3
# Si number density = 25.131903 Si / 1000 Ang^3
#
#
#
# Elastic Constant Matrix: (Units=GPa)
#
#
# Indices 1 2 3 4 5 6 
#
# 1 119.3935 45.9759 9.5734 0.0000 0.0000 0.0000
# 2 45.9759 106.9022 7.6220 0.0000 0.0000 0.0000
# 3 9.5734 7.6220 82.2493 0.0000 0.0000 0.0000
# 4 0.0000 0.0000 0.0000 8.0191 0.0000 0.0000
# 5 0.0000 0.0000 0.0000 0.0000 15.1933 0.0000
# 6 0.0000 0.0000 0.0000 0.0000 0.0000 66.7163
#
#
#
# Elastic Compliance Matrix: (Units=1/GPa)
#
#
# Indices 1 2 3 4 5 6 
#
# 1 0.010087 -0.004283 -0.000777 0.000000 0.000000 0.000000
# 2 -0.004283 0.011235 -0.000543 0.000000 0.000000 0.000000
# 3 -0.000777 -0.000543 0.012299 0.000000 0.000000 0.000000
# 4 0.000000 0.000000 0.000000 0.124702 0.000000 0.000000
# 5 0.000000 0.000000 0.000000 0.000000 0.065818 0.000000
# 6 0.000000 0.000000 0.000000 0.000000 0.000000 0.014989
#
#
# Mechanical properties :
#
#
# Convention : Reuss Voigt Hill
#
# Bulk Modulus (GPa) = 44.61154 48.32083 46.46618
# Shear Modulus (GPa) = 19.39432 34.34400 26.86916
#
# Velocity S-wave (km/s) = 2.78096 3.70070 3.27330
# Velocity P-wave (km/s) = 5.30105 6.12608 5.72844
#
# Compressibility (1/GPa) = 0.02241573
#
# Stress axis : x y z
#
# Youngs Moduli (GPa) = 99.13531 89.00773 81.30805
#
# Poissons Ratio (x) = 0.38121 0.06319
# Poissons Ratio (y) = 0.42458 0.04412
# Poissons Ratio (z) = 0.07705 0.04830
#
# Static dielectric constant tensor:
#      x y z
#    x 2.152610 0.000000 0.000000 
#    y 0.000000 2.006120 0.000000 
#    z 0.000000 0.000000 1.914420 
# 
# From -- ./inp_files/2537.got.cif
#   From: 2010.05.17/outbox.cif.g08.bks.cpg/sg46_2_cif.got.tgz:2537.got - 2010.06.03 19:58:25.
