data_PCOD9380627
_publ_section_title
;
Structure prediction by ZEFSAII (Michael W. Deem and Ramdas Pophale) SiO2 
 PCOD9380627
Probable space group: I M A 2
;
_chemical_formula_sum "Si O2"
_cell_formula_units_Z 40
_cell_length_a 21.198381
_cell_length_b 9.183970
_cell_length_c 8.176584
_cell_angle_alpha 90.000000
_cell_angle_beta 90.000000
_cell_angle_gamma 90.000000
_cell_volume 1591.860669
_symmetry_space_group_name_H-M "I M A 2"
_symmetry_group_IT_number 46
_symmetry_cell_setting 'orthorhombic'
loop_
_space_group_symop_operation_xyz
x,y,z
-x,-y,z
1/2-x,y,z
1/2+x,-y,z
1/2+x,1/2+y,1/2+z
1/2-x,1/2-y,1/2+z
-x,1/2+y,1/2+z
x,1/2-y,1/2+z
loop_
_atom_site_type_symbol
_atom_site_label
_atom_site_fract_x
_atom_site_fract_y
_atom_site_fract_z
Si Si1 0.181826 0.480337 0.143370
Si Si2 0.373845 0.971100 0.156129
Si Si3 0.397992 0.701382 0.319061
Si Si4 0.026844 0.141517 0.369021
Si Si5 0.654007 0.781251 0.951773
O O1 0.250000 0.553760 0.158503
O O2 0.125356 0.590649 0.179273
O O3 0.174150 0.360765 0.287523
O O4 0.179960 0.378906 0.984890
O O5 0.356933 0.848073 0.288916
O O6 0.433934 0.056626 0.229227
O O7 0.389106 0.879300 0.991313
O O8 0.330035 0.100117 0.090895
O O9 0.469445 0.758560 0.308997
O O10 0.078889 0.245571 0.450096
O O11 0.000000 0.000000 0.467820
#
# Coordination Sequence:
#
# PCOD9380627 Si02
#       5
#     8   8   8   8   8
#     4  11  25  45  69  99 137 190 242 287 344 418
#     4  10  23  43  64 102 134 181 223 279 355 414
#     4  10  25  40  70  98 145 174 231 285 352 424
#     4  10  23  39  69  99 142 173 228 285 357 417
#     4  11  23  43  69 100 141 180 237 287 346 415
#
# _framework density 25.127828000000001
#
# number of rings (size 3 to 8) (size 9 to 14) (size 15 to 20)
#    0.000    1.600    2.000    0.600   14.000    2.400 
#    0.000    5.000    0.000    0.000    0.000    0.000 
#    0.000    0.000    0.000    0.000    0.000    0.000 
#
# Total GULP energy -111639.594018 kJ/mol
# GULP energy per Si atom -5581.979701 kJ/mol
# Density = 2.507064 g / cm^3
# Si number density = 25.127828 Si / 1000 Ang^3
#
#
#
# Elastic Constant Matrix: (Units=GPa)
#
#
# Indices 1 2 3 4 5 6 
#
# 1 97.5192 36.9308 -9.3092 0.0000 0.0000 0.0000
# 2 36.9308 143.6747 42.9848 0.0000 0.0000 0.0000
# 3 -9.3092 42.9848 58.4828 0.0000 0.0000 0.0000
# 4 0.0000 0.0000 0.0000 65.8921 0.0000 0.0000
# 5 0.0000 0.0000 0.0000 0.0000 -14.7976 0.0000
# 6 0.0000 0.0000 0.0000 0.0000 0.0000 6.9481
#
#
#
# Elastic Compliance Matrix: (Units=1/GPa)
#
#
# Indices 1 2 3 4 5 6 
#
# 1 0.012668 -0.004947 0.005653 0.000000 0.000000 0.000000
# 2 -0.004947 0.010854 -0.008765 0.000000 0.000000 0.000000
# 3 0.005653 -0.008765 0.024441 0.000000 0.000000 0.000000
# 4 0.000000 0.000000 0.000000 0.015176 0.000000 0.000000
# 5 0.000000 0.000000 0.000000 0.000000 -0.067578 0.000000
# 6 0.000000 0.000000 0.000000 0.000000 0.000000 0.143925
#
#
# Mechanical properties :
#
#
# Convention : Reuss Voigt Hill
#
# Bulk Modulus (GPa) = 31.40390 48.98772 40.19581
# Shear Modulus (GPa) = 30.08058 26.87986 28.48022
#
# Velocity S-wave (km/s) = 3.46367 3.27421 3.37027
# Velocity P-wave (km/s) = 5.34049 5.81650 5.58357
#
# Compressibility (1/GPa) = 0.03184317
#
# Stress axis : x y z
#
# Youngs Moduli (GPa) = 78.94180 92.12946 40.91420
#
# Poissons Ratio (x) = 0.45579 -0.23127
# Poissons Ratio (y) = 0.39055 0.35863
# Poissons Ratio (z) = -0.44623 0.80755
#
# Static dielectric constant tensor:
#      x y z
#    x 2.041860 0.000000 0.000000 
#    y 0.000000 2.008110 0.000000 
#    z 0.000000 0.000000 2.067940 
# 
# From -- ./inp_files/8102.got.cif
#   From: 2010.05.17/outbox.cif.g08.bks.cpg/sg46_5_cif.got.tgz:8102.got - 2010.06.03 19:58:25.
