data_PCOD9380939
_publ_section_title
;
Structure prediction by ZEFSAII (Michael W. Deem and Ramdas Pophale) SiO2 
 PCOD9380939
Probable space group: I M A 2
;
_chemical_formula_sum "Si O2"
_cell_formula_units_Z 48
_cell_length_a 27.024254
_cell_length_b 9.465349
_cell_length_c 8.935224
_cell_angle_alpha 90.000000
_cell_angle_beta 90.000000
_cell_angle_gamma 90.000000
_cell_volume 2285.576648
_symmetry_space_group_name_H-M "I M A 2"
_symmetry_group_IT_number 46
_symmetry_cell_setting 'orthorhombic'
loop_
_space_group_symop_operation_xyz
x,y,z
-x,-y,z
1/2-x,y,z
1/2+x,-y,z
1/2+x,1/2+y,1/2+z
1/2-x,1/2-y,1/2+z
-x,1/2+y,1/2+z
x,1/2-y,1/2+z
loop_
_atom_site_type_symbol
_atom_site_label
_atom_site_fract_x
_atom_site_fract_y
_atom_site_fract_z
Si Si1 0.592920 0.424618 0.764840
Si Si2 0.410215 0.067575 0.587131
Si Si3 0.195102 0.354568 0.073799
Si Si4 0.533185 0.655251 0.577151
Si Si5 0.695299 0.557012 0.726624
Si Si6 0.035001 0.655061 0.285979
O O1 0.557567 0.517412 0.654009
O O2 0.648671 0.454944 0.712637
O O3 0.582145 0.259502 0.786684
O O4 0.584230 0.487359 0.930314
O O5 0.353187 0.068166 0.639106
O O6 0.423583 0.230076 0.547309
O O7 0.445609 0.987519 0.705913
O O8 0.250000 0.401995 0.124878
O O9 0.191261 0.190135 0.116181
O O10 0.192644 0.379529 0.895423
O O11 0.495615 0.639797 0.438604
O O12 0.501391 0.745527 0.692748
O O13 0.750000 0.492624 0.708297
#
# Coordination Sequence:
#
# PCOD9380939 Si02
#       6
#     8   8   8   8   8   8
#     4  11  23  43  63  93 128 166 214 262 320 381
#     4  11  23  43  63  92 129 167 211 264 321 379
#     4   9  18  36  63  94 124 160 207 262 318 378
#     4  12  24  42  63  89 122 174 211 258 314 375
#     4   9  18  36  63  93 125 161 205 261 319 379
#     4  12  26  42  61  91 128 168 214 267 312 376
#
# _framework density 21.001263999999999
#
# number of rings (size 3 to 8) (size 9 to 14) (size 15 to 20)
#    0.000    1.333    5.000    1.000    0.000    2.667 
#    3.000    0.833    0.000    0.000    0.000    0.000 
#    0.000    0.000    0.000    0.000    0.000    0.500 
#
# Total GULP energy -133843.222535 kJ/mol
# GULP energy per Si atom -5576.800939 kJ/mol
# Density = 2.095346 g / cm^3
# Si number density = 21.001264 Si / 1000 Ang^3
#
#
#
# Elastic Constant Matrix: (Units=GPa)
#
#
# Indices 1 2 3 4 5 6 
#
# 1 174.5317 50.6830 53.5116 0.0000 0.0000 0.0000
# 2 50.6830 113.9162 33.1602 0.0000 0.0000 0.0000
# 3 53.5116 33.1602 68.8926 0.0000 0.0000 0.0000
# 4 0.0000 0.0000 0.0000 24.3771 0.0000 0.0000
# 5 0.0000 0.0000 0.0000 0.0000 25.1742 0.0000
# 6 0.0000 0.0000 0.0000 0.0000 0.0000 30.9635
#
#
#
# Elastic Compliance Matrix: (Units=1/GPa)
#
#
# Indices 1 2 3 4 5 6 
#
# 1 0.007897 -0.002010 -0.005167 0.000000 0.000000 0.000000
# 2 -0.002010 0.010720 -0.003599 0.000000 0.000000 0.000000
# 3 -0.005167 -0.003599 0.020261 0.000000 0.000000 0.000000
# 4 0.000000 0.000000 0.000000 0.041022 0.000000 0.000000
# 5 0.000000 0.000000 0.000000 0.000000 0.039723 0.000000
# 6 0.000000 0.000000 0.000000 0.000000 0.000000 0.032296
#
#
# Mechanical properties :
#
#
# Convention : Reuss Voigt Hill
#
# Bulk Modulus (GPa) = 57.71182 70.22777 63.96980
# Shear Modulus (GPa) = 27.89450 30.76867 29.33159
#
# Velocity S-wave (km/s) = 3.64844 3.83180 3.74124
# Velocity P-wave (km/s) = 6.72964 7.28624 7.01346
#
# Compressibility (1/GPa) = 0.01732747
#
# Stress axis : x y z
#
# Youngs Moduli (GPa) = 126.62429 93.28249 49.35591
#
# Poissons Ratio (x) = 0.18746 0.25502
# Poissons Ratio (y) = 0.25446 0.17763
# Poissons Ratio (z) = 0.65426 0.33572
#
# Static dielectric constant tensor:
#      x y z
#    x 1.875270 0.000000 0.000000 
#    y 0.000000 1.823390 0.000000 
#    z 0.000000 0.000000 1.768220 
# 
# From -- ./inp_files/8389.got.cif
#   From: 2010.05.17/outbox.cif.g08.bks.cpg/sg46_5_cif.got.tgz:8389.got - 2010.06.03 19:58:25.
