data_PCOD9380397
_publ_section_title
;
Structure prediction by ZEFSAII (Michael W. Deem and Ramdas Pophale) SiO2 
 PCOD9380397
Probable space group: I M A 2
;
_chemical_formula_sum "Si O2"
_cell_formula_units_Z 40
_cell_length_a 19.972103
_cell_length_b 7.916133
_cell_length_c 10.253351
_cell_angle_alpha 90.000000
_cell_angle_beta 90.000000
_cell_angle_gamma 90.000000
_cell_volume 1621.073491
_symmetry_space_group_name_H-M "I M A 2"
_symmetry_group_IT_number 46
_symmetry_cell_setting 'orthorhombic'
loop_
_space_group_symop_operation_xyz
x,y,z
-x,-y,z
1/2-x,y,z
1/2+x,-y,z
1/2+x,1/2+y,1/2+z
1/2-x,1/2-y,1/2+z
-x,1/2+y,1/2+z
x,1/2-y,1/2+z
loop_
_atom_site_type_symbol
_atom_site_label
_atom_site_fract_x
_atom_site_fract_y
_atom_site_fract_z
Si Si1 0.358330 0.271374 0.270570
Si Si2 0.022991 0.318448 0.441077
Si Si3 0.874152 0.243221 0.388139
Si Si4 0.352948 0.390662 0.015808
Si Si5 0.829447 0.078967 0.138895
O O1 0.428833 0.350417 0.316612
O O2 0.325698 0.381272 0.159786
O O3 0.322576 0.232648 0.406597
O O4 0.364381 0.088431 0.198788
O O5 0.069972 0.183831 0.517773
O O6 0.000000 0.500000 0.500655
O O7 0.954165 0.236698 0.395358
O O8 0.850782 0.228968 0.238690
O O9 0.849869 0.386532 0.489282
O O10 0.847579 0.074045 0.456982
O O11 0.750000 0.055410 0.147332
#
# Coordination Sequence:
#
# PCOD9380397 Si02
#       5
#     8   8   8   8   8
#     4   9  22  40  61  92 133 169 215 275 339 402
#     4  10  22  37  65  98 135 167 209 277 347 412
#     4  11  24  40  69  95 134 174 226 279 336 402
#     4   9  21  38  60  96 130 165 214 266 351 399
#     4  11  25  45  65  92 133 182 235 277 326 404
#
# _framework density 24.675006
#
# number of rings (size 3 to 8) (size 9 to 14) (size 15 to 20)
#    1.200    0.800    0.000    2.400    5.600    0.000 
#    0.000    5.000    0.000    0.000    0.000    0.000 
#    0.000    0.000    0.000    0.000    0.000    0.000 
#
# Total GULP energy -111505.003599 kJ/mol
# GULP energy per Si atom -5575.250180 kJ/mol
# Density = 2.461884 g / cm^3
# Si number density = 24.675006 Si / 1000 Ang^3
#
#
#
# Elastic Constant Matrix: (Units=GPa)
#
#
# Indices 1 2 3 4 5 6 
#
# 1 109.5125 -0.1213 13.7901 0.0000 0.0000 0.0000
# 2 -0.1213 77.2689 0.8879 0.0000 0.0000 0.0000
# 3 13.7901 0.8879 78.8204 0.0000 0.0000 0.0000
# 4 0.0000 0.0000 0.0000 43.8146 0.0000 0.0000
# 5 0.0000 0.0000 0.0000 0.0000 52.1065 0.0000
# 6 0.0000 0.0000 0.0000 0.0000 0.0000 -74.7509
#
#
#
# Elastic Compliance Matrix: (Units=1/GPa)
#
#
# Indices 1 2 3 4 5 6 
#
# 1 0.009337 0.000033 -0.001634 0.000000 0.000000 0.000000
# 2 0.000033 0.012944 -0.000152 0.000000 0.000000 0.000000
# 3 -0.001634 -0.000152 0.012975 0.000000 0.000000 0.000000
# 4 0.000000 0.000000 0.000000 0.022823 0.000000 0.000000
# 5 0.000000 0.000000 0.000000 0.000000 0.019191 0.000000
# 6 0.000000 0.000000 0.000000 0.000000 0.000000 -0.013378
#
#
# Mechanical properties :
#
#
# Convention : Reuss Voigt Hill
#
# Bulk Modulus (GPa) = 31.49502 32.74613 32.12058
# Shear Modulus (GPa) = 64.11849 20.97039 42.54444
#
# Velocity S-wave (km/s) = 5.10310 2.91840 4.15684
# Velocity P-wave (km/s) = 6.89302 4.96547 6.00707
#
# Compressibility (1/GPa) = 0.03175105
#
# Stress axis : x y z
#
# Youngs Moduli (GPa) = 107.09890 77.25818 77.07337
#
# Poissons Ratio (x) = -0.00258 0.12594
# Poissons Ratio (y) = -0.00358 0.01169
# Poissons Ratio (z) = 0.17500 0.01172
#
# Static dielectric constant tensor:
#      x y z
#    x 1.929480 0.000000 0.000000 
#    y 0.000000 2.037260 0.000000 
#    z 0.000000 0.000000 1.983220 
# 
# From -- ./inp_files/7712.got.cif
#   From: 2010.05.17/outbox.cif.g08.bks.cpg/sg46_4_cif.got.tgz:7712.got - 2010.06.03 19:58:25.
