data_PCOD9380308
_publ_section_title
;
Structure prediction by ZEFSAII (Michael W. Deem and Ramdas Pophale) SiO2 
 PCOD9380308
Probable space group: I M A 2
;
_chemical_formula_sum "Si O2"
_cell_formula_units_Z 64
_cell_length_a 21.471656
_cell_length_b 14.324645
_cell_length_c 7.736543
_cell_angle_alpha 90.000000
_cell_angle_beta 90.000000
_cell_angle_gamma 90.000000
_cell_volume 2379.558314
_symmetry_space_group_name_H-M "I M A 2"
_symmetry_group_IT_number 46
_symmetry_cell_setting 'orthorhombic'
loop_
_space_group_symop_operation_xyz
x,y,z
-x,-y,z
1/2-x,y,z
1/2+x,-y,z
1/2+x,1/2+y,1/2+z
1/2-x,1/2-y,1/2+z
-x,1/2+y,1/2+z
x,1/2-y,1/2+z
loop_
_atom_site_type_symbol
_atom_site_label
_atom_site_fract_x
_atom_site_fract_y
_atom_site_fract_z
Si Si1 0.820988 0.887900 0.664390
Si Si2 0.507609 0.114382 0.317682
Si Si3 0.319947 0.196987 0.283158
Si Si4 0.042775 0.799442 0.683406
Si Si5 0.317657 0.892387 0.300231
Si Si6 0.944897 0.934872 0.793437
Si Si7 0.680656 0.187470 0.687713
Si Si8 0.603775 0.556741 0.668844
O O1 0.750000 0.921071 0.706882
O O2 0.819726 0.853632 0.467078
O O3 0.848140 0.799553 0.771766
O O4 0.880402 0.954551 0.692055
O O5 0.534615 0.154407 0.494671
O O6 0.537450 0.186513 0.180251
O O7 0.627398 0.037232 0.256602
O O8 0.433417 0.127894 0.294264
O O9 0.250000 0.225799 0.240810
O O10 0.337207 0.122151 0.137446
O O11 0.110529 0.828458 0.760847
O O12 0.982132 0.837026 0.783514
O O13 0.250000 0.939758 0.279652
O O14 0.320581 0.855175 0.495941
O O15 0.318115 0.800346 0.182508
O O16 0.931133 0.958827 0.991548
O O17 0.000000 0.000000 0.722555
O O18 0.750000 0.161493 0.763446
O O19 0.500000 0.500000 0.799480
#
# Coordination Sequence:
#
# PCOD9380308 Si02
#       8
#     8   8   8   8   8   8   8   8
#     4  10  22  44  73 105 143 191 241 294 359 436
#     4  12  26  45  72 104 144 202 258 311 386 462
#     4  10  21  40  71 107 141 180 233 293 362 443
#     4  12  25  46  73 106 153 200 250 321 385 452
#     4  10  23  44  73 107 142 188 250 316 382 453
#     4  12  28  46  67 102 148 198 254 311 372 450
#     4  10  22  43  71 101 136 185 245 307 376 452
#     4  12  24  42  66  98 143 190 242 305 373 452
#
# _framework density 26.895748000000001
#
# number of rings (size 3 to 8) (size 9 to 14) (size 15 to 20)
#    0.000    1.000    0.000    6.375    0.000    5.000 
#    0.000    3.125    0.000    0.000    0.000    0.000 
#    0.000    0.000    0.000    0.000    0.000    0.000 
#
# Total GULP energy -178643.314834 kJ/mol
# GULP energy per Si atom -5582.603589 kJ/mol
# Density = 2.683453 g / cm^3
# Si number density = 26.895748 Si / 1000 Ang^3
#
#
#
# Elastic Constant Matrix: (Units=GPa)
#
#
# Indices 1 2 3 4 5 6 
#
# 1 211.9340 39.8121 31.8354 0.0000 0.0000 0.0000
# 2 39.8121 134.6384 41.5090 0.0000 0.0000 0.0000
# 3 31.8354 41.5090 67.8200 0.0000 0.0000 0.0000
# 4 0.0000 0.0000 0.0000 33.6370 0.0000 0.0000
# 5 0.0000 0.0000 0.0000 0.0000 31.3896 0.0000
# 6 0.0000 0.0000 0.0000 0.0000 0.0000 45.4702
#
#
#
# Elastic Compliance Matrix: (Units=1/GPa)
#
#
# Indices 1 2 3 4 5 6 
#
# 1 0.005176 -0.000963 -0.001840 0.000000 0.000000 0.000000
# 2 -0.000963 0.009334 -0.005261 0.000000 0.000000 0.000000
# 3 -0.001840 -0.005261 0.018828 0.000000 0.000000 0.000000
# 4 0.000000 0.000000 0.000000 0.029729 0.000000 0.000000
# 5 0.000000 0.000000 0.000000 0.000000 0.031858 0.000000
# 6 0.000000 0.000000 0.000000 0.000000 0.000000 0.021992
#
#
# Mechanical properties :
#
#
# Convention : Reuss Voigt Hill
#
# Bulk Modulus (GPa) = 58.10462 71.18949 64.64706
# Shear Modulus (GPa) = 36.02768 42.18175 39.10472
#
# Velocity S-wave (km/s) = 3.66393 3.96453 3.81719
# Velocity P-wave (km/s) = 6.28886 6.89077 6.59668
#
# Compressibility (1/GPa) = 0.01721034
#
# Stress axis : x y z
#
# Youngs Moduli (GPa) = 193.20737 107.13544 53.11112
#
# Poissons Ratio (x) = 0.10319 0.09773
# Poissons Ratio (y) = 0.18609 0.27940
# Poissons Ratio (z) = 0.35551 0.56361
#
# Static dielectric constant tensor:
#      x y z
#    x 3.383220 0.000000 0.000000 
#    y 0.000000 2.214060 0.000000 
#    z 0.000000 0.000000 2.092920 
# 
# From -- ./inp_files/7573.got.cif
#   From: 2010.05.17/outbox.cif.g08.bks.cpg/sg46_4_cif.got.tgz:7573.got - 2010.06.03 19:58:25.
