data_PCOD9380069
_publ_section_title
;
Structure prediction by ZEFSAII (Michael W. Deem and Ramdas Pophale) SiO2 
 PCOD9380069
Probable space group: I M A 2
;
_chemical_formula_sum "Si O2"
_cell_formula_units_Z 48
_cell_length_a 9.306532
_cell_length_b 27.858705
_cell_length_c 7.619318
_cell_angle_alpha 90.000000
_cell_angle_beta 90.000000
_cell_angle_gamma 90.000000
_cell_volume 1975.444803
_symmetry_space_group_name_H-M "I M A 2"
_symmetry_group_IT_number 46
_symmetry_cell_setting 'orthorhombic'
loop_
_space_group_symop_operation_xyz
x,y,z
-x,-y,z
1/2-x,y,z
1/2+x,-y,z
1/2+x,1/2+y,1/2+z
1/2-x,1/2-y,1/2+z
-x,1/2+y,1/2+z
x,1/2-y,1/2+z
loop_
_atom_site_type_symbol
_atom_site_label
_atom_site_fract_x
_atom_site_fract_y
_atom_site_fract_z
Si Si1 0.586422 0.719240 0.351340
Si Si2 0.044721 0.146092 0.534255
Si Si3 0.250000 0.683120 0.102600
Si Si4 0.750000 0.236467 0.877835
Si Si5 0.096062 0.138647 0.139608
Si Si6 0.411911 0.953480 0.067143
Si Si7 0.580784 0.047758 0.643555
O O1 0.750000 0.741569 0.361150
O O2 0.429040 0.745509 0.341302
O O3 0.570322 0.685872 0.523999
O O4 0.593925 0.682934 0.184655
O O5 0.108196 0.150552 0.343634
O O6 0.881432 0.160894 0.510854
O O7 0.026555 0.091640 0.597869
O O8 0.250000 0.680738 0.312682
O O9 0.250000 0.740943 0.074673
O O10 0.250000 0.118766 0.075578
O O11 0.980935 0.096894 0.120426
O O12 0.250000 0.956836 0.131882
O O13 0.411745 0.954122 0.855038
O O14 0.500000 0.000000 0.127740
O O15 0.750000 0.052652 0.586063
O O16 0.500000 0.000000 0.579666
#
# Coordination Sequence:
#
# PCOD9380069 Si02
#       7
#     8   8   4   4   8   8   8
#     4  10  23  44  68  95 136 176 224 276 341 409
#     4  11  22  41  67  97 134 174 225 280 338 409
#     4  10  24  42  72 102 136 174 236 279 349 424
#     4  10  24  44  70 102 132 182 222 285 341 422
#     4  11  24  38  63  94 126 171 219 271 337 412
#     4  10  21  37  61  89 126 171 222 280 334 404
#     4  10  21  38  62  93 129 176 227 276 337 403
#
# _framework density 24.298324999999998
#
# number of rings (size 3 to 8) (size 9 to 14) (size 15 to 20)
#    0.000    1.667    2.500    1.000    4.667    2.667 
#    0.000    4.167    0.000    0.000    0.000    0.000 
#    0.000    0.000    0.000    0.000    0.000    0.000 
#
# Total GULP energy -133643.440765 kJ/mol
# GULP energy per Si atom -5568.476699 kJ/mol
# Density = 2.424302 g / cm^3
# Si number density = 24.298325 Si / 1000 Ang^3
#
#
#
# Elastic Constant Matrix: (Units=GPa)
#
#
# Indices 1 2 3 4 5 6 
#
# 1 194.4141 31.9765 24.8469 -0.0013 -0.0081 -0.0021
# 2 31.9765 78.5116 15.6854 0.0007 0.0019 -0.0013
# 3 24.8469 15.6854 79.2809 -0.0189 0.0091 -0.0209
# 4 -0.0013 0.0007 -0.0189 10.3063 0.0110 -0.0025
# 5 -0.0081 0.0019 0.0091 0.0110 19.1325 0.0014
# 6 -0.0021 -0.0013 -0.0209 -0.0025 0.0014 28.0246
#
#
#
# Elastic Compliance Matrix: (Units=1/GPa)
#
#
# Indices 1 2 3 4 5 6 
#
# 1 0.005652 -0.002028 -0.001370 -0.000002 0.000003 -0.000001
# 2 -0.002028 0.013989 -0.002132 -0.000005 -0.000001 -0.000001
# 3 -0.001370 -0.002132 0.013465 0.000025 -0.000007 0.000010
# 4 -0.000002 -0.000005 0.000025 0.097028 -0.000056 0.000009
# 5 0.000003 -0.000001 -0.000007 -0.000056 0.052267 -0.000003
# 6 -0.000001 -0.000001 0.000010 0.000009 -0.000003 0.035683
#
#
# Mechanical properties :
#
#
# Convention : Reuss Voigt Hill
#
# Bulk Modulus (GPa) = 45.36180 55.24713 50.30447
# Shear Modulus (GPa) = 21.14221 30.13919 25.64070
#
# Velocity S-wave (km/s) = 2.95296 3.52573 3.25198
# Velocity P-wave (km/s) = 5.50780 6.27381 5.90324
#
# Compressibility (1/GPa) = 0.02204498
#
# Stress axis : x y z
#
# Youngs Moduli (GPa) = 176.91610 71.48453 74.26875
#
# Poissons Ratio (x) = 0.14500 0.10176
# Poissons Ratio (y) = 0.35886 0.15834
# Poissons Ratio (z) = 0.24241 0.15240
#
# Static dielectric constant tensor:
#      x y z
#    x 1.954830 0.000000 0.000000 
#    y 0.000000 1.929360 0.000000 
#    z 0.000000 0.000000 1.956400 
# 
# From -- ./inp_files/3997.got.cif
#   From: 2010.05.17/outbox.cif.g08.bks.cpg/sg46_2_cif.got.tgz:3997.got - 2010.06.03 19:58:25.
