data_PCOD9380218
_publ_section_title
;
Structure prediction by ZEFSAII (Michael W. Deem and Ramdas Pophale) SiO2 
 PCOD9380218
Probable space group: I M A 2
;
_chemical_formula_sum "Si O2"
_cell_formula_units_Z 64
_cell_length_a 27.485051
_cell_length_b 5.803967
_cell_length_c 17.731093
_cell_angle_alpha 90.000000
_cell_angle_beta 90.000000
_cell_angle_gamma 90.000000
_cell_volume 2828.505251
_symmetry_space_group_name_H-M "I M A 2"
_symmetry_group_IT_number 46
_symmetry_cell_setting 'orthorhombic'
loop_
_space_group_symop_operation_xyz
x,y,z
-x,-y,z
1/2-x,y,z
1/2+x,-y,z
1/2+x,1/2+y,1/2+z
1/2-x,1/2-y,1/2+z
-x,1/2+y,1/2+z
x,1/2-y,1/2+z
loop_
_atom_site_type_symbol
_atom_site_label
_atom_site_fract_x
_atom_site_fract_y
_atom_site_fract_z
Si Si1 0.876249 0.169438 0.528160
Si Si2 0.374541 0.307889 0.907398
Si Si3 0.872172 0.607561 0.735308
Si Si4 0.694126 0.884929 0.637491
Si Si5 0.472038 0.251539 0.157041
Si Si6 0.304015 0.723245 0.278663
Si Si7 0.696342 0.016656 0.947039
Si Si8 0.553670 0.546184 0.509045
O O1 0.836940 0.360154 0.506834
O O2 0.923234 0.321334 0.550580
O O3 0.888887 0.041080 0.449516
O O4 0.846860 0.004168 0.584676
O O5 0.370384 0.284930 0.818816
O O6 0.411583 0.122570 0.941846
O O7 0.321151 0.244252 0.937984
O O8 0.832427 0.660179 0.670435
O O9 0.923820 0.698507 0.705682
O O10 0.854186 0.353255 0.758966
O O11 0.750000 0.860068 0.608250
O O12 0.698538 0.031679 0.714477
O O13 0.500000 0.500000 0.171961
O O14 0.500000 0.000000 0.163480
O O15 0.452718 0.248307 0.070617
O O16 0.250000 0.847364 0.275137
O O17 0.307208 0.630834 0.364124
O O18 0.750000 0.035100 0.974532
O O19 0.500000 0.500000 0.479722
#
# Coordination Sequence:
#
# PCOD9380218 Si02
#       8
#     8   8   8   8   8   8   8   8
#     4  11  23  43  66 102 138 185 236 299 369 433
#     4  11  24  40  65 101 132 182 232 295 364 438
#     4  12  24  42  69  97 144 180 242 302 371 447
#     4  11  24  40  67 103 140 185 236 294 361 447
#     4  11  28  49  76 109 141 192 246 308 382 448
#     4  10  21  39  64  95 137 189 238 294 368 447
#     4  10  21  39  62  94 138 185 236 290 362 447
#     4  10  25  45  71  97 134 182 235 298 370 448
#
# _framework density 22.626792999999999
#
# number of rings (size 3 to 8) (size 9 to 14) (size 15 to 20)
#    0.000    1.250    2.500    2.250    8.750    3.000 
#    2.250    0.000    0.000    0.000    0.000    0.000 
#    0.000    0.000    0.000    0.000    0.000    0.000 
#
# Total GULP energy -178205.115588 kJ/mol
# GULP energy per Si atom -5568.909862 kJ/mol
# Density = 2.257529 g / cm^3
# Si number density = 22.626793 Si / 1000 Ang^3
#
#
#
# Elastic Constant Matrix: (Units=GPa)
#
#
# Indices 1 2 3 4 5 6 
#
# 1 102.4477 36.7529 3.9520 0.0000 0.0000 0.0000
# 2 36.7529 68.7821 15.0250 0.0000 0.0000 0.0000
# 3 3.9520 15.0250 55.4675 0.0000 0.0000 0.0000
# 4 0.0000 0.0000 0.0000 31.6673 0.0000 0.0000
# 5 0.0000 0.0000 0.0000 0.0000 21.6008 0.0000
# 6 0.0000 0.0000 0.0000 0.0000 0.0000 28.3239
#
#
#
# Elastic Compliance Matrix: (Units=1/GPa)
#
#
# Indices 1 2 3 4 5 6 
#
# 1 0.012123 -0.006684 0.000947 0.000000 0.000000 0.000000
# 2 -0.006684 0.019139 -0.004708 0.000000 0.000000 0.000000
# 3 0.000947 -0.004708 0.019236 0.000000 0.000000 0.000000
# 4 0.000000 0.000000 0.000000 0.031578 0.000000 0.000000
# 5 0.000000 0.000000 0.000000 0.000000 0.046295 0.000000
# 6 0.000000 0.000000 0.000000 0.000000 0.000000 0.035306
#
#
# Mechanical properties :
#
#
# Convention : Reuss Voigt Hill
#
# Bulk Modulus (GPa) = 33.77603 37.57301 35.67452
# Shear Modulus (GPa) = 25.71532 27.71622 26.71577
#
# Velocity S-wave (km/s) = 3.37486 3.50370 3.43988
# Velocity P-wave (km/s) = 5.49054 5.74538 5.61941
#
# Compressibility (1/GPa) = 0.02960679
#
# Stress axis : x y z
#
# Youngs Moduli (GPa) = 82.49081 52.24974 51.98470
#
# Poissons Ratio (x) = 0.34926 -0.04923
# Poissons Ratio (y) = 0.55140 0.24475
# Poissons Ratio (z) = -0.07812 0.24600
#
# Static dielectric constant tensor:
#      x y z
#    x 1.939310 0.000000 0.000000 
#    y 0.000000 1.944660 0.000000 
#    z 0.000000 0.000000 1.827060 
# 
# From -- ./inp_files/22637.got.cif
#   From: 2010.05.17/outbox.cif.g08.bks.cpg/sg46_12_cif.got.tgz:22637.got - 2010.06.03 19:58:25.
