data_PCOD9380404
_publ_section_title
;
Structure prediction by ZEFSAII (Michael W. Deem and Ramdas Pophale) SiO2 
 PCOD9380404
Probable space group: I M A 2
;
_chemical_formula_sum "Si O2"
_cell_formula_units_Z 64
_cell_length_a 14.804326
_cell_length_b 20.746591
_cell_length_c 10.995201
_cell_angle_alpha 90.000000
_cell_angle_beta 90.000000
_cell_angle_gamma 90.000000
_cell_volume 3377.058301
_symmetry_space_group_name_H-M "I M A 2"
_symmetry_group_IT_number 46
_symmetry_cell_setting 'orthorhombic'
loop_
_space_group_symop_operation_xyz
x,y,z
-x,-y,z
1/2-x,y,z
1/2+x,-y,z
1/2+x,1/2+y,1/2+z
1/2-x,1/2-y,1/2+z
-x,1/2+y,1/2+z
x,1/2-y,1/2+z
loop_
_atom_site_type_symbol
_atom_site_label
_atom_site_fract_x
_atom_site_fract_y
_atom_site_fract_z
Si Si1 0.146235 0.109384 0.921130
Si Si2 0.444835 0.435152 0.659919
Si Si3 0.995092 0.819974 0.582705
Si Si4 0.861234 0.759565 0.394525
Si Si5 0.643924 0.128077 0.404621
Si Si6 0.855580 0.974593 0.408474
Si Si7 0.478917 0.694984 0.718066
Si Si8 0.926709 0.944869 0.683268
O O1 0.250000 0.123062 0.928369
O O2 0.111561 0.183978 0.910600
O O3 0.132065 0.062768 0.804758
O O4 0.120332 0.073921 0.045859
O O5 0.500000 0.500000 0.644401
O O6 0.404451 0.437918 0.797453
O O7 0.505159 0.371714 0.650594
O O8 0.904989 0.798816 0.507911
O O9 0.966627 0.873084 0.678617
O O10 0.072448 0.856535 0.508863
O O11 0.038204 0.755563 0.634493
O O12 0.750000 0.767224 0.382419
O O13 0.925369 0.786688 0.285536
O O14 0.750000 0.138131 0.429567
O O15 0.605214 0.176937 0.303581
O O16 0.632621 0.051166 0.380906
O O17 0.750000 0.959232 0.402622
O O18 0.887482 0.958603 0.546606
O O19 0.000000 0.000000 0.703034
#
# Coordination Sequence:
#
# PCOD9380404 Si02
#       8
#     8   8   8   8   8   8   8   8
#     4  11  24  41  61  90 132 170 201 250 311 380
#     4  12  23  41  63  92 124 168 205 255 311 374
#     4  11  22  39  64  89 124 162 208 259 312 368
#     4  10  22  38  59  93 129 164 203 246 312 385
#     4  10  22  41  64  91 120 159 215 270 315 359
#     4  11  22  39  66  95 123 159 209 263 309 366
#     4  11  22  39  64  89 124 162 208 259 312 368
#     4  12  23  41  63  92 124 168 205 255 311 374
#
# _framework density 18.951404
#
# number of rings (size 3 to 8) (size 9 to 14) (size 15 to 20)
#    0.000    1.000    5.000    3.000    0.000    4.000 
#    0.000    0.000    0.000    1.500    0.000    0.000 
#    0.000    0.000    0.000    0.000    0.000    0.000 
#
# Total GULP energy -178150.267496 kJ/mol
# GULP energy per Si atom -5567.195859 kJ/mol
# Density = 1.890827 g / cm^3
# Si number density = 18.951404 Si / 1000 Ang^3
#
#
#
# Elastic Constant Matrix: (Units=GPa)
#
#
# Indices 1 2 3 4 5 6 
#
# 1 68.0163 11.1611 8.4642 0.0000 0.0000 0.0000
# 2 11.1611 74.4597 -2.0235 0.0000 0.0000 0.0000
# 3 8.4642 -2.0235 44.4872 0.0000 0.0000 0.0000
# 4 0.0000 0.0000 0.0000 13.4031 0.0000 0.0000
# 5 0.0000 0.0000 0.0000 0.0000 24.2191 0.0000
# 6 0.0000 0.0000 0.0000 0.0000 0.0000 26.5625
#
#
#
# Elastic Compliance Matrix: (Units=1/GPa)
#
#
# Indices 1 2 3 4 5 6 
#
# 1 0.015477 -0.002403 -0.003054 0.000000 0.000000 0.000000
# 2 -0.002403 0.013820 0.001086 0.000000 0.000000 0.000000
# 3 -0.003054 0.001086 0.023109 0.000000 0.000000 0.000000
# 4 0.000000 0.000000 0.000000 0.074610 0.000000 0.000000
# 5 0.000000 0.000000 0.000000 0.000000 0.041290 0.000000
# 6 0.000000 0.000000 0.000000 0.000000 0.000000 0.037647
#
#
# Mechanical properties :
#
#
# Convention : Reuss Voigt Hill
#
# Bulk Modulus (GPa) = 22.90259 24.68522 23.79390
# Shear Modulus (GPa) = 21.81042 24.12770 22.96906
#
# Velocity S-wave (km/s) = 3.39611 3.57197 3.48515
# Velocity P-wave (km/s) = 5.24302 5.48323 5.36447
#
# Compressibility (1/GPa) = 0.04366319
#
# Stress axis : x y z
#
# Youngs Moduli (GPa) = 64.61327 72.36014 43.27359
#
# Poissons Ratio (x) = 0.17387 0.13215
# Poissons Ratio (y) = 0.15526 -0.04698
# Poissons Ratio (z) = 0.19732 -0.07857
#
# Static dielectric constant tensor:
#      x y z
#    x 1.646300 0.000000 0.000000 
#    y 0.000000 1.680460 0.000000 
#    z 0.000000 0.000000 1.759860 
# 
# From -- ./inp_files/11341.got.cif
#   From: 2010.05.17/outbox.cif.g08.bks.cpg/sg46_6_cif.got.tgz:11341.got - 2010.06.03 19:58:25.
