data_PCOD9380854
_publ_section_title
;
Structure prediction by ZEFSAII (Michael W. Deem and Ramdas Pophale) SiO2 
 PCOD9380854
Probable space group: I M A 2
;
_chemical_formula_sum "Si O2"
_cell_formula_units_Z 40
_cell_length_a 17.843363
_cell_length_b 22.082055
_cell_length_c 5.113023
_cell_angle_alpha 90.000000
_cell_angle_beta 90.000000
_cell_angle_gamma 90.000000
_cell_volume 2014.623726
_symmetry_space_group_name_H-M "I M A 2"
_symmetry_group_IT_number 46
_symmetry_cell_setting 'orthorhombic'
loop_
_space_group_symop_operation_xyz
x,y,z
-x,-y,z
1/2-x,y,z
1/2+x,-y,z
1/2+x,1/2+y,1/2+z
1/2-x,1/2-y,1/2+z
-x,1/2+y,1/2+z
x,1/2-y,1/2+z
loop_
_atom_site_type_symbol
_atom_site_label
_atom_site_fract_x
_atom_site_fract_y
_atom_site_fract_z
Si Si1 0.664426 0.996027 0.758530
Si Si2 0.528070 0.289813 0.471194
Si Si3 0.164434 0.864789 0.757389
Si Si4 0.072539 0.565034 0.906697
Si Si5 0.031067 0.415600 0.411383
O O1 0.750000 0.976073 0.744204
O O2 0.664937 0.065657 0.869312
O O3 0.627347 0.009021 0.472429
O O4 0.609346 0.950190 0.902430
O O5 0.520794 0.262836 0.758167
O O6 0.608429 0.321420 0.410813
O O7 0.467645 0.343006 0.425840
O O8 0.250000 0.844207 0.742490
O O9 0.126620 0.877476 0.472035
O O10 0.022669 0.565811 0.651477
O O11 0.013630 0.567895 0.147250
#
# Coordination Sequence:
#
# PCOD9380854 Si02
#       5
#     8   8   8   8   8
#     4   9  20  40  64  98 129 162 202 264 336 388
#     4  11  23  39  58  87 121 170 222 260 302 368
#     4   8  18  39  60  89 126 160 202 259 316 377
#     4   9  20  36  59  90 121 159 200 248 313 379
#     4  11  21  40  63  88 125 162 211 262 311 374
#
# _framework density 19.854823
#
# number of rings (size 3 to 8) (size 9 to 14) (size 15 to 20)
#    1.200    1.200    0.000    3.000    0.000    4.000 
#    3.600   17.000    0.000    1.200    0.000    0.000 
#    0.000    0.000    0.000    0.000    0.000    0.000 
#
# Total GULP energy -111471.118489 kJ/mol
# GULP energy per Si atom -5573.555924 kJ/mol
# Density = 1.980963 g / cm^3
# Si number density = 19.854823 Si / 1000 Ang^3
#
#
#
# Elastic Constant Matrix: (Units=GPa)
#
#
# Indices 1 2 3 4 5 6 
#
# 1 119.5341 30.1318 33.2645 0.0000 0.0000 0.0000
# 2 30.1318 75.0665 4.8699 0.0000 0.0000 0.0000
# 3 33.2645 4.8699 87.3251 0.0000 0.0000 0.0000
# 4 0.0000 0.0000 0.0000 24.6400 0.0000 0.0000
# 5 0.0000 0.0000 0.0000 0.0000 11.4453 0.0000
# 6 0.0000 0.0000 0.0000 0.0000 0.0000 34.3277
#
#
#
# Elastic Compliance Matrix: (Units=1/GPa)
#
#
# Indices 1 2 3 4 5 6 
#
# 1 0.010398 -0.003931 -0.003742 0.000000 0.000000 0.000000
# 2 -0.003931 0.014856 0.000669 0.000000 0.000000 0.000000
# 3 -0.003742 0.000669 0.012839 0.000000 0.000000 0.000000
# 4 0.000000 0.000000 0.000000 0.040584 0.000000 0.000000
# 5 0.000000 0.000000 0.000000 0.000000 0.087372 0.000000
# 6 0.000000 0.000000 0.000000 0.000000 0.000000 0.029131
#
#
# Mechanical properties :
#
#
# Convention : Reuss Voigt Hill
#
# Bulk Modulus (GPa) = 41.51786 46.49535 44.00660
# Shear Modulus (GPa) = 23.01840 28.32656 25.67248
#
# Velocity S-wave (km/s) = 3.40860 3.78125 3.59975
# Velocity P-wave (km/s) = 6.03717 6.52168 6.28410
#
# Compressibility (1/GPa) = 0.02408602
#
# Stress axis : x y z
#
# Youngs Moduli (GPa) = 96.17255 67.31269 77.88497
#
# Poissons Ratio (x) = 0.26461 0.29142
# Poissons Ratio (y) = 0.37806 -0.05210
# Poissons Ratio (z) = 0.35984 -0.04503
#
# Static dielectric constant tensor:
#      x y z
#    x 1.694810 0.000000 0.000000 
#    y 0.000000 1.785020 0.000000 
#    z 0.000000 0.000000 1.798430 
# 
# From -- ./inp_files/1264.got.cif
#   From: 2010.05.17/outbox.cif.g08.bks.cpg/sg46_1_cif.got.tgz:1264.got - 2010.06.03 19:58:25.
