data_PCOD9380722
_publ_section_title
;
Structure prediction by ZEFSAII (Michael W. Deem and Ramdas Pophale) SiO2 
 PCOD9380722
Probable space group: I M A 2
;
_chemical_formula_sum "Si O2"
_cell_formula_units_Z 32
_cell_length_a 11.985318
_cell_length_b 11.876755
_cell_length_c 8.297055
_cell_angle_alpha 90.000000
_cell_angle_beta 90.000000
_cell_angle_gamma 90.000000
_cell_volume 1181.058279
_symmetry_space_group_name_H-M "I M A 2"
_symmetry_group_IT_number 46
_symmetry_cell_setting 'orthorhombic'
loop_
_space_group_symop_operation_xyz
x,y,z
-x,-y,z
1/2-x,y,z
1/2+x,-y,z
1/2+x,1/2+y,1/2+z
1/2-x,1/2-y,1/2+z
-x,1/2+y,1/2+z
x,1/2-y,1/2+z
loop_
_atom_site_type_symbol
_atom_site_label
_atom_site_fract_x
_atom_site_fract_y
_atom_site_fract_z
Si Si1 0.927690 0.590413 0.898990
Si Si2 0.126768 0.220945 0.084105
Si Si3 0.750000 0.088665 0.466881
Si Si4 0.374756 0.998481 0.868049
Si Si5 0.750000 0.337260 0.588740
O O1 0.881455 0.672583 0.762605
O O2 0.853687 0.494996 0.983383
O O3 0.000000 0.500000 0.800990
O O4 0.959830 0.682186 0.034091
O O5 0.250000 0.274252 0.066979
O O6 0.124158 0.113509 0.969620
O O7 0.750000 0.203457 0.566654
O O8 0.750000 0.127980 0.276168
O O9 0.250000 0.997500 0.786261
O O10 0.500000 0.000000 0.795186
O O11 0.354719 0.894449 0.993883
#
# Coordination Sequence:
#
# PCOD9380722 Si02
#       5
#     8   8   4   8   4
#     4  12  26  43  75 105 146 189 251 309 379 449
#     4  11  21  46  72 100 145 195 247 307 372 451
#     4  12  24  47  61 109 137 196 237 316 370 450
#     4   9  19  38  66  98 136 188 231 295 371 426
#     4  10  24  41  71  93 151 182 241 314 382 428
#
# _framework density 27.094346000000002
#
# number of rings (size 3 to 8) (size 9 to 14) (size 15 to 20)
#    0.750    0.500    5.000    0.750    3.500    0.000 
#    4.500    2.500    0.000    0.000    0.000    0.000 
#    0.000    0.000    0.000    0.000    0.000    0.000 
#
# Total GULP energy -89233.907739 kJ/mol
# GULP energy per Si atom -5577.119234 kJ/mol
# Density = 2.703268 g / cm^3
# Si number density = 27.094346 Si / 1000 Ang^3
#
#
#
# Elastic Constant Matrix: (Units=GPa)
#
#
# Indices 1 2 3 4 5 6 
#
# 1 112.6709 26.9741 37.0310 0.0000 0.0000 0.0000
# 2 26.9741 258.4991 64.1224 0.0000 0.0000 0.0000
# 3 37.0310 64.1224 105.2615 0.0000 0.0000 0.0000
# 4 0.0000 0.0000 0.0000 45.5318 0.0000 0.0000
# 5 0.0000 0.0000 0.0000 0.0000 17.2667 0.0000
# 6 0.0000 0.0000 0.0000 0.0000 0.0000 39.5935
#
#
#
# Elastic Compliance Matrix: (Units=1/GPa)
#
#
# Indices 1 2 3 4 5 6 
#
# 1 0.010045 -0.000202 -0.003411 0.000000 0.000000 0.000000
# 2 -0.000202 0.004561 -0.002707 0.000000 0.000000 0.000000
# 3 -0.003411 -0.002707 0.012349 0.000000 0.000000 0.000000
# 4 0.000000 0.000000 0.000000 0.021963 0.000000 0.000000
# 5 0.000000 0.000000 0.000000 0.000000 0.057915 0.000000
# 6 0.000000 0.000000 0.000000 0.000000 0.000000 0.025257
#
#
# Mechanical properties :
#
#
# Convention : Reuss Voigt Hill
#
# Bulk Modulus (GPa) = 69.85744 81.40963 75.63353
# Shear Modulus (GPa) = 33.44450 43.69867 38.57158
#
# Velocity S-wave (km/s) = 3.51717 4.02037 3.77716
# Velocity P-wave (km/s) = 6.50638 7.18770 6.85551
#
# Compressibility (1/GPa) = 0.01431487
#
# Stress axis : x y z
#
# Youngs Moduli (GPa) = 99.55450 219.24179 80.97628
#
# Poissons Ratio (x) = 0.04432 0.27618
# Poissons Ratio (y) = 0.02012 0.21924
# Poissons Ratio (z) = 0.33954 0.59358
#
# Static dielectric constant tensor:
#      x y z
#    x 2.540820 0.000000 0.000000 
#    y 0.000000 1.924480 0.000000 
#    z 0.000000 0.000000 2.146770 
# 
# From -- ./inp_files/5257.got.cif
#   From: 2010.05.17/outbox.cif.g08.bks.cpg/sg46_3_cif.got.tgz:5257.got - 2010.06.03 19:58:25.
