data_PCOD9380198
_publ_section_title
;
Structure prediction by ZEFSAII (Michael W. Deem and Ramdas Pophale) SiO2 
 PCOD9380198
Probable space group: I M A 2
;
_chemical_formula_sum "Si O2"
_cell_formula_units_Z 60
_cell_length_a 15.072135
_cell_length_b 10.293981
_cell_length_c 19.504734
_cell_angle_alpha 90.000000
_cell_angle_beta 90.000000
_cell_angle_gamma 90.000000
_cell_volume 3026.203782
_symmetry_space_group_name_H-M "I M A 2"
_symmetry_group_IT_number 46
_symmetry_cell_setting 'orthorhombic'
loop_
_space_group_symop_operation_xyz
x,y,z
-x,-y,z
1/2-x,y,z
1/2+x,-y,z
1/2+x,1/2+y,1/2+z
1/2-x,1/2-y,1/2+z
-x,1/2+y,1/2+z
x,1/2-y,1/2+z
loop_
_atom_site_type_symbol
_atom_site_label
_atom_site_fract_x
_atom_site_fract_y
_atom_site_fract_z
Si Si1 0.583430 0.901971 0.305240
Si Si2 0.500000 0.500000 0.049152
Si Si3 0.538338 0.203928 0.656945
Si Si4 0.150203 0.324804 0.661806
Si Si5 0.650049 0.983829 0.452275
Si Si6 0.853289 0.293602 0.440774
Si Si7 0.145116 0.581559 0.581813
Si Si8 0.530787 0.352690 0.309752
O O1 0.638856 0.898299 0.235051
O O2 0.545684 0.756582 0.315539
O O3 0.500000 0.000000 0.296988
O O4 0.634588 0.944104 0.373493
O O5 0.447173 0.596011 0.099344
O O6 0.428519 0.429785 0.000004
O O7 0.431947 0.226673 0.658769
O O8 0.587152 0.334377 0.634164
O O9 0.567996 0.164301 0.732758
O O10 0.250000 0.270645 0.657636
O O11 0.137653 0.431520 0.602220
O O12 0.750000 0.948995 0.473581
O O13 0.639251 0.140105 0.456374
O O14 0.750000 0.323315 0.431655
O O15 0.884983 0.377976 0.505687
O O16 0.902795 0.322438 0.370836
O O17 0.250000 0.616267 0.587737
O O18 0.500000 0.500000 0.316354
#
# Coordination Sequence:
#
# PCOD9380198 Si02
#       8
#     8   4   8   8   8   8   8   8
#     4  11  20  39  65  93 123 160 208 254 306 366
#     4  12  22  40  62  86 120 162 202 250 302 370
#     4  11  23  39  62  87 120 162 203 247 305 367
#     4  10  22  39  61  92 124 157 202 255 305 363
#     4  11  22  39  64  93 121 158 206 260 310 362
#     4  10  21  39  61  88 122 157 203 253 305 366
#     4  10  21  39  63  92 121 155 202 255 308 364
#     4  11  23  40  60  89 123 165 203 247 308 369
#
# _framework density 19.826820999999999
#
# number of rings (size 3 to 8) (size 9 to 14) (size 15 to 20)
#    0.000    1.333    4.000    2.400    0.000    2.133 
#    0.000    3.333    0.000    0.000    0.000    0.000 
#    0.000    0.000    0.000    0.000    0.000    0.000 
#
# Total GULP energy -167527.079159 kJ/mol
# GULP energy per Si atom -5584.235972 kJ/mol
# Density = 1.978169 g / cm^3
# Si number density = 19.826821 Si / 1000 Ang^3
#
#
#
# Elastic Constant Matrix: (Units=GPa)
#
#
# Indices 1 2 3 4 5 6 
#
# 1 57.0167 5.4117 22.8323 0.0000 0.0000 0.0000
# 2 5.4117 47.6146 10.0764 0.0000 0.0000 0.0000
# 3 22.8323 10.0764 112.3028 0.0000 0.0000 0.0000
# 4 0.0000 0.0000 0.0000 20.8557 0.0000 0.0000
# 5 0.0000 0.0000 0.0000 0.0000 14.5409 0.0000
# 6 0.0000 0.0000 0.0000 0.0000 0.0000 14.7973
#
#
#
# Elastic Compliance Matrix: (Units=1/GPa)
#
#
# Indices 1 2 3 4 5 6 
#
# 1 0.019182 -0.001381 -0.003776 0.000000 0.000000 0.000000
# 2 -0.001381 0.021508 -0.001649 0.000000 0.000000 0.000000
# 3 -0.003776 -0.001649 0.009820 0.000000 0.000000 0.000000
# 4 0.000000 0.000000 0.000000 0.047949 0.000000 0.000000
# 5 0.000000 0.000000 0.000000 0.000000 0.068772 0.000000
# 6 0.000000 0.000000 0.000000 0.000000 0.000000 0.067580
#
#
# Mechanical properties :
#
#
# Convention : Reuss Voigt Hill
#
# Bulk Modulus (GPa) = 27.10184 32.61943 29.86063
# Shear Modulus (GPa) = 19.17756 21.94635 20.56196
#
# Velocity S-wave (km/s) = 3.11344 3.33062 3.22386
# Velocity P-wave (km/s) = 5.15981 5.59273 5.38063
#
# Compressibility (1/GPa) = 0.03689787
#
# Stress axis : x y z
#
# Youngs Moduli (GPa) = 52.13249 46.49457 101.83147
#
# Poissons Ratio (x) = 0.06421 0.38451
# Poissons Ratio (y) = 0.07200 0.16792
# Poissons Ratio (z) = 0.19685 0.07667
#
# Static dielectric constant tensor:
#      x y z
#    x 1.739260 0.000000 0.000000 
#    y 0.000000 1.699510 0.000000 
#    z 0.000000 0.000000 1.704080 
# 
# From -- ./inp_files/19594.got.cif
#   From: 2010.05.17/outbox.cif.g08.bks.cpg/sg46_10_cif.got.tgz:19594.got - 2010.06.03 19:58:25.
