data_PCOD9380700
_publ_section_title
;
Structure prediction by ZEFSAII (Michael W. Deem and Ramdas Pophale) SiO2 
 PCOD9380700
Probable space group: I M A 2
;
_chemical_formula_sum "Si O2"
_cell_formula_units_Z 48
_cell_length_a 16.202678
_cell_length_b 23.389273
_cell_length_c 4.985861
_cell_angle_alpha 90.000000
_cell_angle_beta 90.000000
_cell_angle_gamma 90.000000
_cell_volume 1889.486055
_symmetry_space_group_name_H-M "I M A 2"
_symmetry_group_IT_number 46
_symmetry_cell_setting 'orthorhombic'
loop_
_space_group_symop_operation_xyz
x,y,z
-x,-y,z
1/2-x,y,z
1/2+x,-y,z
1/2+x,1/2+y,1/2+z
1/2-x,1/2-y,1/2+z
-x,1/2+y,1/2+z
x,1/2-y,1/2+z
loop_
_atom_site_type_symbol
_atom_site_label
_atom_site_fract_x
_atom_site_fract_y
_atom_site_fract_z
Si Si1 0.650797 0.209990 0.394990
Si Si2 0.500000 0.500000 0.777247
Si Si3 0.119729 0.074873 0.531292
Si Si4 0.604498 0.641594 0.517979
Si Si5 0.750000 0.721480 0.529346
Si Si6 0.079357 0.612744 0.552489
Si Si7 0.750000 0.413855 0.295386
Si Si8 0.250000 0.511529 0.798735
O O1 0.750000 0.199602 0.387680
O O2 0.631212 0.241354 0.672506
O O3 0.603947 0.152091 0.309165
O O4 0.532112 0.547079 0.986296
O O5 0.444066 0.544941 0.601738
O O6 0.118828 0.128267 0.329923
O O7 0.175244 0.027225 0.394900
O O8 0.138416 0.089843 0.833485
O O9 0.664546 0.692339 0.441555
O O10 0.507135 0.641180 0.456577
O O11 0.750000 0.777437 0.348748
O O12 0.163186 0.615706 0.375057
O O13 0.750000 0.432957 0.988598
O O14 0.750000 0.469054 0.493576
#
# Coordination Sequence:
#
# PCOD9380700 Si02
#       8
#     8   4   8   8   4   8   4   4
#     4  10  23  44  70  98 133 185 241 295 353 421
#     4  10  24  40  70 102 150 198 238 298 360 446
#     4  11  23  42  64  96 142 186 242 280 351 432
#     4  11  26  43  72 100 138 187 233 301 361 439
#     4  12  26  50  78 108 138 179 247 314 378 432
#     4  11  25  47  70 108 151 187 248 297 373 442
#     4  12  26  41  64 103 142 192 231 296 350 433
#     4  12  24  39  64  91 136 189 232 280 340 423
#
# _framework density 25.403735000000001
#
# number of rings (size 3 to 8) (size 9 to 14) (size 15 to 20)
#    0.000    1.000    2.500    3.000    4.667    6.000 
#    0.000    0.000    0.000    0.000    0.000    0.000 
#    0.000    0.000    0.000    0.000    0.000    0.000 
#
# Total GULP energy -133982.242517 kJ/mol
# GULP energy per Si atom -5582.593438 kJ/mol
# Density = 2.534592 g / cm^3
# Si number density = 25.403735 Si / 1000 Ang^3
#
#
#
# Elastic Constant Matrix: (Units=GPa)
#
#
# Indices 1 2 3 4 5 6 
#
# 1 98.6754 45.9671 8.6721 0.0000 0.0000 0.0000
# 2 45.9671 82.9315 11.8657 0.0000 0.0000 0.0000
# 3 8.6721 11.8657 74.9500 0.0000 0.0000 0.0000
# 4 0.0000 0.0000 0.0000 36.0622 0.0000 0.0000
# 5 0.0000 0.0000 0.0000 0.0000 20.6444 0.0000
# 6 0.0000 0.0000 0.0000 0.0000 0.0000 34.2646
#
#
#
# Elastic Compliance Matrix: (Units=1/GPa)
#
#
# Indices 1 2 3 4 5 6 
#
# 1 0.013673 -0.007523 -0.000391 0.000000 0.000000 0.000000
# 2 -0.007523 0.016476 -0.001738 0.000000 0.000000 0.000000
# 3 -0.000391 -0.001738 0.013663 0.000000 0.000000 0.000000
# 4 0.000000 0.000000 0.000000 0.027730 0.000000 0.000000
# 5 0.000000 0.000000 0.000000 0.000000 0.048439 0.000000
# 6 0.000000 0.000000 0.000000 0.000000 0.000000 0.029185
#
#
# Mechanical properties :
#
#
# Convention : Reuss Voigt Hill
#
# Bulk Modulus (GPa) = 40.80224 43.28520 42.04372
# Shear Modulus (GPa) = 28.30630 30.86436 29.58533
#
# Velocity S-wave (km/s) = 3.34167 3.48940 3.41633
# Velocity P-wave (km/s) = 5.56645 5.77152 5.66991
#
# Compressibility (1/GPa) = 0.02450846
#
# Stress axis : x y z
#
# Youngs Moduli (GPa) = 73.13687 60.69251 73.19227
#
# Poissons Ratio (x) = 0.45657 0.02862
# Poissons Ratio (y) = 0.55019 0.12721
# Poissons Ratio (z) = 0.02860 0.10549
#
# Static dielectric constant tensor:
#      x y z
#    x 1.977560 0.000000 0.000000 
#    y 0.000000 2.070990 0.000000 
#    z 0.000000 0.000000 1.980280 
# 
# From -- ./inp_files/1737.got.cif
#   From: 2010.05.17/outbox.cif.g08.bks.cpg/sg46_1_cif.got.tgz:1737.got - 2010.06.03 19:58:25.
