data_PCOD9380495
_publ_section_title
;
Structure prediction by ZEFSAII (Michael W. Deem and Ramdas Pophale) SiO2 
 PCOD9380495
Probable space group: I M A 2
;
_chemical_formula_sum "Si O2"
_cell_formula_units_Z 64
_cell_length_a 14.716758
_cell_length_b 12.277136
_cell_length_c 16.539016
_cell_angle_alpha 90.000000
_cell_angle_beta 90.000000
_cell_angle_gamma 90.000000
_cell_volume 2988.263448
_symmetry_space_group_name_H-M "I M A 2"
_symmetry_group_IT_number 46
_symmetry_cell_setting 'orthorhombic'
loop_
_space_group_symop_operation_xyz
x,y,z
-x,-y,z
1/2-x,y,z
1/2+x,-y,z
1/2+x,1/2+y,1/2+z
1/2-x,1/2-y,1/2+z
-x,1/2+y,1/2+z
x,1/2-y,1/2+z
loop_
_atom_site_type_symbol
_atom_site_label
_atom_site_fract_x
_atom_site_fract_y
_atom_site_fract_z
Si Si1 0.896597 0.455846 0.428910
Si Si2 0.605336 0.034508 0.579110
Si Si3 0.857991 0.211096 0.071003
Si Si4 0.143469 0.239405 0.294591
Si Si5 0.351181 0.370755 0.551046
Si Si6 0.891054 0.989841 0.760116
Si Si7 0.855115 0.662896 0.969389
Si Si8 0.510838 0.611763 0.681302
O O1 0.884199 0.355515 0.489814
O O2 0.846379 0.557493 0.470698
O O3 0.865569 0.434863 0.336881
O O4 0.000000 0.500000 0.425545
O O5 0.621754 0.160792 0.560993
O O6 0.500000 0.000000 0.581327
O O7 0.643746 0.011908 0.669543
O O8 0.641666 0.955190 0.508784
O O9 0.750000 0.194565 0.085695
O O10 0.921042 0.166405 0.144250
O O11 0.250000 0.209504 0.281707
O O12 0.136007 0.369444 0.289226
O O13 0.110634 0.187403 0.379734
O O14 0.073698 0.196239 0.228188
O O15 0.250000 0.363085 0.586726
O O16 0.392974 0.252351 0.531627
O O17 0.422786 0.427226 0.608851
O O18 0.000000 0.000000 0.753214
O O19 0.750000 0.696865 0.964151
O O20 0.500000 0.500000 0.731173
#
# Coordination Sequence:
#
# PCOD9380495 Si02
#       8
#     8   8   8   8   8   8   8   8
#     4  11  21  39  69 100 136 174 223 274 334 401
#     4  11  24  42  67  95 135 181 226 275 339 403
#     4  12  25  43  66  96 135 181 225 273 339 413
#     4  11  24  42  67  98 132 171 226 285 339 399
#     4  11  19  36  66  97 127 167 217 274 333 392
#     4  10  22  41  68 101 136 173 224 281 334 398
#     4  10  22  40  64  96 129 167 220 279 337 399
#     4  12  24  41  63  94 133 175 225 273 335 401
#
# _framework density 21.417121000000002
#
# number of rings (size 3 to 8) (size 9 to 14) (size 15 to 20)
#    0.000    1.000    3.750    4.125    0.000    3.500 
#    0.000    1.250    0.000    0.000    0.000    0.000 
#    0.000    0.000    0.000    0.000    0.000    0.000 
#
# Total GULP energy -178602.539402 kJ/mol
# GULP energy per Si atom -5581.329356 kJ/mol
# Density = 2.136837 g / cm^3
# Si number density = 21.417121 Si / 1000 Ang^3
#
#
#
# Elastic Constant Matrix: (Units=GPa)
#
#
# Indices 1 2 3 4 5 6 
#
# 1 121.1894 19.2673 30.8303 0.0000 0.0000 0.0000
# 2 19.2673 144.7072 54.3000 0.0000 0.0000 0.0000
# 3 30.8303 54.3000 114.8759 0.0000 0.0000 0.0000
# 4 0.0000 0.0000 0.0000 29.1075 0.0000 0.0000
# 5 0.0000 0.0000 0.0000 0.0000 -9.3721 0.0000
# 6 0.0000 0.0000 0.0000 0.0000 0.0000 19.2108
#
#
#
# Elastic Compliance Matrix: (Units=1/GPa)
#
#
# Indices 1 2 3 4 5 6 
#
# 1 0.008871 -0.000350 -0.002215 0.000000 0.000000 0.000000
# 2 -0.000350 0.008414 -0.003883 0.000000 0.000000 0.000000
# 3 -0.002215 -0.003883 0.011135 0.000000 0.000000 0.000000
# 4 0.000000 0.000000 0.000000 0.034355 0.000000 0.000000
# 5 0.000000 0.000000 0.000000 0.000000 -0.106700 0.000000
# 6 0.000000 0.000000 0.000000 0.000000 0.000000 0.052054
#
#
# Mechanical properties :
#
#
# Convention : Reuss Voigt Hill
#
# Bulk Modulus (GPa) = 64.42026 65.50752 64.96389
# Shear Modulus (GPa) = 190.83051 26.21424 108.52238
#
# Velocity S-wave (km/s) = 9.44962 3.50235 7.12607
# Velocity P-wave (km/s) = 12.21493 6.85625 9.90486
#
# Compressibility (1/GPa) = 0.01552307
#
# Stress axis : x y z
#
# Youngs Moduli (GPa) = 112.73005 118.84533 89.80495
#
# Poissons Ratio (x) = 0.04157 0.19895
# Poissons Ratio (y) = 0.03943 0.34875
# Poissons Ratio (z) = 0.24974 0.46153
#
# Static dielectric constant tensor:
#      x y z
#    x 1.792760 0.000000 0.000000 
#    y 0.000000 1.793600 0.000000 
#    z 0.000000 0.000000 1.820680 
# 
# From -- ./inp_files/19658.got.cif
#   From: 2010.05.17/outbox.cif.g08.bks.cpg/sg46_10_cif.got.tgz:19658.got - 2010.06.03 19:58:25.
