data_PCOD9380671
_publ_section_title
;
Structure prediction by ZEFSAII (Michael W. Deem and Ramdas Pophale) SiO2 
 PCOD9380671
Probable space group: I M A 2
;
_chemical_formula_sum "Si O2"
_cell_formula_units_Z 48
_cell_length_a 17.460332
_cell_length_b 11.574007
_cell_length_c 12.191248
_cell_angle_alpha 90.000000
_cell_angle_beta 90.000000
_cell_angle_gamma 90.000000
_cell_volume 2463.680602
_symmetry_space_group_name_H-M "I M A 2"
_symmetry_group_IT_number 46
_symmetry_cell_setting 'orthorhombic'
loop_
_space_group_symop_operation_xyz
x,y,z
-x,-y,z
1/2-x,y,z
1/2+x,-y,z
1/2+x,1/2+y,1/2+z
1/2-x,1/2-y,1/2+z
-x,1/2+y,1/2+z
x,1/2-y,1/2+z
loop_
_atom_site_type_symbol
_atom_site_label
_atom_site_fract_x
_atom_site_fract_y
_atom_site_fract_z
Si Si1 0.659299 0.059356 0.928610
Si Si2 0.339760 0.010283 0.593738
Si Si3 0.419462 0.565337 0.663377
Si Si4 0.392322 0.155826 0.786733
Si Si5 0.930692 0.171831 0.738973
Si Si6 0.841790 0.588493 0.848724
O O1 0.750000 0.074812 0.927137
O O2 0.637943 0.935549 0.875689
O O3 0.619237 0.151714 0.848344
O O4 0.626466 0.065209 0.050029
O O5 0.250000 0.975951 0.596481
O O6 0.350832 0.120803 0.673276
O O7 0.361872 0.043167 0.470323
O O8 0.392147 0.910662 0.647280
O O9 0.500000 0.500000 0.647716
O O10 0.431414 0.696786 0.700218
O O11 0.373593 0.497868 0.757441
O O12 0.482366 0.137914 0.766397
O O13 0.375677 0.285043 0.824910
O O14 0.750000 0.595906 0.842829
#
# Coordination Sequence:
#
# PCOD9380671 Si02
#       6
#     8   8   8   8   8   8
#     4  11  25  44  70  98 132 177 224 271 331 399
#     4  10  23  42  67  99 132 175 224 267 331 400
#     4  12  26  45  65  99 133 172 225 277 333 393
#     4  11  22  44  68  98 132 171 221 273 334 395
#     4  11  24  44  69  95 133 175 221 276 330 395
#     4  11  25  42  67  98 134 173 220 278 334 394
#
# _framework density 19.483044
#
# number of rings (size 3 to 8) (size 9 to 14) (size 15 to 20)
#    0.000    1.000    1.667    6.500    4.667    5.333 
#    0.000    0.000    0.000    0.000    0.000    0.000 
#    0.000    0.000    0.000    0.000    0.000    0.000 
#
# Total GULP energy -134263.777720 kJ/mol
# GULP energy per Si atom -5594.324072 kJ/mol
# Density = 1.943870 g / cm^3
# Si number density = 19.483044 Si / 1000 Ang^3
#
#
#
# Elastic Constant Matrix: (Units=GPa)
#
#
# Indices 1 2 3 4 5 6 
#
# 1 135.2933 36.2008 54.5138 0.0000 0.0000 0.0000
# 2 36.2008 61.6901 16.5723 0.0000 0.0000 0.0000
# 3 54.5138 16.5723 117.3839 0.0000 0.0000 0.0000
# 4 0.0000 0.0000 0.0000 10.3837 0.0000 0.0000
# 5 0.0000 0.0000 0.0000 0.0000 89.2762 0.0000
# 6 0.0000 0.0000 0.0000 0.0000 0.0000 24.7612
#
#
#
# Elastic Compliance Matrix: (Units=1/GPa)
#
#
# Indices 1 2 3 4 5 6 
#
# 1 0.010386 -0.004988 -0.004119 0.000000 0.000000 0.000000
# 2 -0.004988 0.019245 -0.000401 0.000000 0.000000 0.000000
# 3 -0.004119 -0.000401 0.010488 0.000000 0.000000 0.000000
# 4 0.000000 0.000000 0.000000 0.096305 0.000000 0.000000
# 5 0.000000 0.000000 0.000000 0.000000 0.011201 0.000000
# 6 0.000000 0.000000 0.000000 0.000000 0.000000 0.040386
#
#
# Mechanical properties :
#
#
# Convention : Reuss Voigt Hill
#
# Bulk Modulus (GPa) = 47.38463 58.77125 53.07794
# Shear Modulus (GPa) = 23.35792 38.68958 31.02375
#
# Velocity S-wave (km/s) = 3.46625 4.46107 3.99475
# Velocity P-wave (km/s) = 6.35559 7.53430 6.96991
#
# Compressibility (1/GPa) = 0.02110389
#
# Stress axis : x y z
#
# Youngs Moduli (GPa) = 96.28676 51.96241 95.34277
#
# Poissons Ratio (x) = 0.25919 0.39271
# Poissons Ratio (y) = 0.48028 0.03819
# Poissons Ratio (z) = 0.39660 0.02081
#
# Static dielectric constant tensor:
#      x y z
#    x 1.661410 0.000000 0.000000 
#    y 0.000000 1.662570 0.000000 
#    z 0.000000 0.000000 1.654700 
# 
# From -- ./inp_files/11804.got.cif
#   From: 2010.05.17/outbox.cif.g08.bks.cpg/sg46_6_cif.got.tgz:11804.got - 2010.06.03 19:58:25.
