data_PCOD9380458
_publ_section_title
;
Structure prediction by ZEFSAII (Michael W. Deem and Ramdas Pophale) SiO2 
 PCOD9380458
Probable space group: I M A 2
;
_chemical_formula_sum "Si O2"
_cell_formula_units_Z 40
_cell_length_a 31.947820
_cell_length_b 5.018165
_cell_length_c 9.086170
_cell_angle_alpha 90.000000
_cell_angle_beta 90.000000
_cell_angle_gamma 90.000000
_cell_volume 1456.689615
_symmetry_space_group_name_H-M "I M A 2"
_symmetry_group_IT_number 46
_symmetry_cell_setting 'orthorhombic'
loop_
_space_group_symop_operation_xyz
x,y,z
-x,-y,z
1/2-x,y,z
1/2+x,-y,z
1/2+x,1/2+y,1/2+z
1/2-x,1/2-y,1/2+z
-x,1/2+y,1/2+z
x,1/2-y,1/2+z
loop_
_atom_site_type_symbol
_atom_site_label
_atom_site_fract_x
_atom_site_fract_y
_atom_site_fract_z
Si Si1 0.250000 0.376098 0.431741
Si Si2 0.084257 0.444285 0.017798
Si Si3 0.250000 0.758738 0.669409
Si Si4 0.473304 0.274057 0.765620
Si Si5 0.160213 0.125706 0.934325
Si Si6 0.656424 0.246558 0.170007
O O1 0.250000 0.461023 0.602877
O O2 0.250000 0.656695 0.340237
O O3 0.294654 0.253812 0.395184
O O4 0.064177 0.302543 0.158019
O O5 0.112691 0.671551 0.092992
O O6 0.045483 0.440719 0.904353
O O7 0.119807 0.301133 0.920961
O O8 0.203182 0.853216 0.620818
O O9 0.500000 0.500000 0.683284
O O10 0.500000 0.000000 0.795024
O O11 0.154610 0.862086 0.834051
O O12 0.160184 0.052352 0.108569
#
# Coordination Sequence:
#
# PCOD9380458 Si02
#       6
#     4   8   4   8   8   8
#     4   8  16  35  58  92 137 185 231 285 346 409
#     4  12  26  43  72 102 136 182 238 293 364 432
#     4   8  16  35  58  92 137 185 231 285 346 409
#     4  12  30  52  76 105 142 185 236 302 378 444
#     4  10  22  39  66  99 140 186 238 292 350 425
#     4  10  22  39  66  99 140 186 238 292 350 425
#
# _framework density 27.459523999999998
#
# number of rings (size 3 to 8) (size 9 to 14) (size 15 to 20)
#    0.000    1.600    2.000    1.200    8.400    0.800 
#    0.000    0.000    0.000    0.000    0.000    0.000 
#    0.000    0.000    0.000    0.000    0.000    0.000 
#
# Total GULP energy -111371.121172 kJ/mol
# GULP energy per Si atom -5568.556059 kJ/mol
# Density = 2.739702 g / cm^3
# Si number density = 27.459524 Si / 1000 Ang^3
#
#
#
# Elastic Constant Matrix: (Units=GPa)
#
#
# Indices 1 2 3 4 5 6 
#
# 1 209.0117 40.0897 13.1457 0.0000 0.0000 0.0000
# 2 40.0897 61.2883 -3.9054 0.0000 0.0000 0.0000
# 3 13.1457 -3.9054 77.4044 0.0000 0.0000 0.0000
# 4 0.0000 0.0000 0.0000 31.2941 0.0000 0.0000
# 5 0.0000 0.0000 0.0000 0.0000 29.6601 0.0000
# 6 0.0000 0.0000 0.0000 0.0000 0.0000 42.9482
#
#
#
# Elastic Compliance Matrix: (Units=1/GPa)
#
#
# Indices 1 2 3 4 5 6 
#
# 1 0.005568 -0.003714 -0.001133 0.000000 0.000000 0.000000
# 2 -0.003714 0.018847 0.001582 0.000000 0.000000 0.000000
# 3 -0.001133 0.001582 0.013191 0.000000 0.000000 0.000000
# 4 0.000000 0.000000 0.000000 0.031955 0.000000 0.000000
# 5 0.000000 0.000000 0.000000 0.000000 0.033715 0.000000
# 6 0.000000 0.000000 0.000000 0.000000 0.000000 0.023284
#
#
# Mechanical properties :
#
#
# Convention : Reuss Voigt Hill
#
# Bulk Modulus (GPa) = 32.18038 49.59605 40.88821
# Shear Modulus (GPa) = 34.85531 40.67210 37.76370
#
# Velocity S-wave (km/s) = 3.56664 3.85277 3.71246
# Velocity P-wave (km/s) = 5.35778 6.15569 5.77054
#
# Compressibility (1/GPa) = 0.03107484
#
# Stress axis : x y z
#
# Youngs Moduli (GPa) = 179.59350 53.05945 75.80701
#
# Poissons Ratio (x) = 0.19708 0.08589
# Poissons Ratio (y) = 0.66708 -0.11991
# Poissons Ratio (z) = 0.20349 -0.08393
#
# Static dielectric constant tensor:
#      x y z
#    x 2.220510 0.000000 0.000000 
#    y 0.000000 2.224010 0.000000 
#    z 0.000000 0.000000 2.120740 
# 
# From -- ./inp_files/13140.got.cif
#   From: 2010.05.17/outbox.cif.g08.bks.cpg/sg46_7_cif.got.tgz:13140.got - 2010.06.03 19:58:25.
