data_PCOD9380634
_publ_section_title
;
Structure prediction by ZEFSAII (Michael W. Deem and Ramdas Pophale) SiO2 
 PCOD9380634
Probable space group: I M A 2
;
_chemical_formula_sum "Si O2"
_cell_formula_units_Z 60
_cell_length_a 23.132908
_cell_length_b 13.033917
_cell_length_c 9.463841
_cell_angle_alpha 90.000000
_cell_angle_beta 90.000000
_cell_angle_gamma 90.000000
_cell_volume 2853.465440
_symmetry_space_group_name_H-M "I M A 2"
_symmetry_group_IT_number 46
_symmetry_cell_setting 'orthorhombic'
loop_
_space_group_symop_operation_xyz
x,y,z
-x,-y,z
1/2-x,y,z
1/2+x,-y,z
1/2+x,1/2+y,1/2+z
1/2-x,1/2-y,1/2+z
-x,1/2+y,1/2+z
x,1/2-y,1/2+z
loop_
_atom_site_type_symbol
_atom_site_label
_atom_site_fract_x
_atom_site_fract_y
_atom_site_fract_z
Si Si1 0.000000 0.000000 0.693521
Si Si2 0.538041 0.180002 0.863005
Si Si3 0.399811 0.876852 0.301757
Si Si4 0.315615 0.503375 0.601603
Si Si5 0.861920 0.671391 0.775920
Si Si6 0.111443 0.041247 0.538449
Si Si7 0.013906 0.162067 0.173789
Si Si8 0.819423 0.904751 0.801444
O O1 0.953769 0.944969 0.593394
O O2 0.040089 0.931348 0.795273
O O3 0.592560 0.255813 0.838863
O O4 0.490166 0.234467 0.765443
O O5 0.513073 0.177351 0.019750
O O6 0.465012 0.905545 0.251874
O O7 0.356646 0.912636 0.177931
O O8 0.385979 0.940111 0.441645
O O9 0.250000 0.542565 0.589010
O O10 0.315600 0.403248 0.703419
O O11 0.335035 0.461949 0.447917
O O12 0.919140 0.638730 0.686080
O O13 0.845488 0.790095 0.783070
O O14 0.872715 0.634265 0.935217
O O15 0.155247 0.035587 0.667693
O O16 0.750000 0.896799 0.798336
#
# Coordination Sequence:
#
# PCOD9380634 Si02
#       8
#     4   8   8   8   8   8   8   8
#     4  12  24  38  70 104 136 172 226 274 348 406
#     4  10  24  40  65  95 139 175 215 272 335 420
#     4   9  23  43  64  93 136 176 223 275 343 406
#     4  10  23  42  63  92 131 182 238 288 339 401
#     4  11  23  37  66  96 143 181 219 283 352 420
#     4  11  24  39  64  96 138 181 223 277 335 412
#     4  10  23  40  63 100 138 176 207 270 345 415
#     4  11  25  41  64 100 137 180 237 289 343 407
#
# _framework density 21.027065
#
# number of rings (size 3 to 8) (size 9 to 14) (size 15 to 20)
#    0.800    0.800    0.000    3.600    9.333    6.400 
#    0.000    0.000    0.000    1.600    0.000    0.000 
#    0.000    0.000    0.000    0.000    0.000    0.000 
#
# Total GULP energy -167300.370986 kJ/mol
# GULP energy per Si atom -5576.679033 kJ/mol
# Density = 2.097921 g / cm^3
# Si number density = 21.027065 Si / 1000 Ang^3
#
#
#
# Elastic Constant Matrix: (Units=GPa)
#
#
# Indices 1 2 3 4 5 6 
#
# 1 102.7300 30.2437 51.9216 0.0000 0.0000 0.0000
# 2 30.2437 77.6269 47.8334 0.0000 0.0000 0.0000
# 3 51.9216 47.8334 168.6379 0.0000 0.0000 0.0000
# 4 0.0000 0.0000 0.0000 12.8399 0.0000 0.0000
# 5 0.0000 0.0000 0.0000 0.0000 24.1711 0.0000
# 6 0.0000 0.0000 0.0000 0.0000 0.0000 47.1776
#
#
#
# Elastic Compliance Matrix: (Units=1/GPa)
#
#
# Indices 1 2 3 4 5 6 
#
# 1 0.012050 -0.002919 -0.002882 0.000000 0.000000 0.000000
# 2 -0.002919 0.016318 -0.003730 0.000000 0.000000 0.000000
# 3 -0.002882 -0.003730 0.007875 0.000000 0.000000 0.000000
# 4 0.000000 0.000000 0.000000 0.077882 0.000000 0.000000
# 5 0.000000 0.000000 0.000000 0.000000 0.041372 0.000000
# 6 0.000000 0.000000 0.000000 0.000000 0.000000 0.021196
#
#
# Mechanical properties :
#
#
# Convention : Reuss Voigt Hill
#
# Bulk Modulus (GPa) = 58.20221 67.66579 62.93400
# Shear Modulus (GPa) = 24.81609 31.43746 28.12678
#
# Velocity S-wave (km/s) = 3.43913 3.87084 3.66135
# Velocity P-wave (km/s) = 6.59620 7.22690 6.91874
#
# Compressibility (1/GPa) = 0.01718148
#
# Stress axis : x y z
#
# Youngs Moduli (GPa) = 82.98557 61.28365 126.98105
#
# Poissons Ratio (x) = 0.17888 0.36599
# Poissons Ratio (y) = 0.24222 0.47361
# Poissons Ratio (z) = 0.23918 0.22857
#
# Static dielectric constant tensor:
#      x y z
#    x 1.743390 0.000000 0.000000 
#    y 0.000000 1.865070 0.000000 
#    z 0.000000 0.000000 1.757050 
# 
# From -- ./inp_files/7924.got.cif
#   From: 2010.05.17/outbox.cif.g08.bks.cpg/sg46_4_cif.got.tgz:7924.got - 2010.06.03 19:58:25.
