data_PCOD9380311
_publ_section_title
;
Structure prediction by ZEFSAII (Michael W. Deem and Ramdas Pophale) SiO2 
 PCOD9380311
Probable space group: I M A 2
;
_chemical_formula_sum "Si O2"
_cell_formula_units_Z 40
_cell_length_a 10.108459
_cell_length_b 7.943471
_cell_length_c 26.067646
_cell_angle_alpha 90.000000
_cell_angle_beta 90.000000
_cell_angle_gamma 90.000000
_cell_volume 2093.134244
_symmetry_space_group_name_H-M "I M A 2"
_symmetry_group_IT_number 46
_symmetry_cell_setting 'orthorhombic'
loop_
_space_group_symop_operation_xyz
x,y,z
-x,-y,z
1/2-x,y,z
1/2+x,-y,z
1/2+x,1/2+y,1/2+z
1/2-x,1/2-y,1/2+z
-x,1/2+y,1/2+z
x,1/2-y,1/2+z
loop_
_atom_site_type_symbol
_atom_site_label
_atom_site_fract_x
_atom_site_fract_y
_atom_site_fract_z
Si Si1 0.481063 0.806207 0.296300
Si Si2 0.500000 0.000000 0.018813
Si Si3 0.750000 0.289264 0.363401
Si Si4 0.596600 0.161806 0.186688
Si Si5 0.750000 0.657909 0.337650
Si Si6 0.407201 0.662671 0.079264
Si Si7 0.250000 0.455864 0.448692
O O1 0.380588 0.799273 0.343931
O O2 0.429913 0.745211 0.241018
O O3 0.618244 0.728370 0.313324
O O4 0.500000 0.000000 0.285521
O O5 0.452688 0.835458 0.050572
O O6 0.379175 0.057694 0.982883
O O7 0.750000 0.459174 0.329741
O O8 0.750000 0.359617 0.420794
O O9 0.750000 0.102779 0.187204
O O10 0.579979 0.288395 0.139269
O O11 0.500000 0.000000 0.179247
O O12 0.750000 0.670006 0.399880
O O13 0.500000 0.500000 0.067451
O O14 0.250000 0.631618 0.068403
#
# Coordination Sequence:
#
# PCOD9380311 Si02
#       7
#     8   4   4   8   4   8   4
#     4  11  21  38  62  96 131 172 216 269 327 390
#     4  12  22  48  74  96 134 186 222 292 344 394
#     4  10  21  41  61  87 128 166 220 269 316 407
#     4  10  22  40  64  96 135 182 219 264 337 406
#     4  10  23  39  63  89 122 174 222 265 324 395
#     4  11  26  45  70 105 138 175 228 283 342 411
#     4  10  24  42  72  90 126 184 228 272 346 398
#
# _framework density 19.110097
#
# number of rings (size 3 to 8) (size 9 to 14) (size 15 to 20)
#    0.600    0.800    3.000    2.400    5.600    2.400 
#    0.000    6.000    0.000    0.000    0.000    0.000 
#    0.000    0.000    0.000    0.000    0.000    0.000 
#
# Total GULP energy -111419.558337 kJ/mol
# GULP energy per Si atom -5570.977917 kJ/mol
# Density = 1.906660 g / cm^3
# Si number density = 19.110097 Si / 1000 Ang^3
#
#
#
# Elastic Constant Matrix: (Units=GPa)
#
#
# Indices 1 2 3 4 5 6 
#
# 1 150.8562 35.0989 42.7173 0.0000 0.0000 0.0000
# 2 35.0989 69.6033 23.6380 0.0000 0.0000 0.0000
# 3 42.7173 23.6380 94.2610 0.0000 0.0000 0.0000
# 4 0.0000 0.0000 0.0000 27.8789 0.0000 0.0000
# 5 0.0000 0.0000 0.0000 0.0000 21.9909 0.0000
# 6 0.0000 0.0000 0.0000 0.0000 0.0000 6.2266
#
#
#
# Elastic Compliance Matrix: (Units=1/GPa)
#
#
# Indices 1 2 3 4 5 6 
#
# 1 0.008186 -0.003135 -0.002924 0.000000 0.000000 0.000000
# 2 -0.003135 0.016905 -0.002819 0.000000 0.000000 0.000000
# 3 -0.002924 -0.002819 0.012641 0.000000 0.000000 0.000000
# 4 0.000000 0.000000 0.000000 0.035869 0.000000 0.000000
# 5 0.000000 0.000000 0.000000 0.000000 0.045473 0.000000
# 6 0.000000 0.000000 0.000000 0.000000 0.000000 0.160601
#
#
# Mechanical properties :
#
#
# Convention : Reuss Voigt Hill
#
# Bulk Modulus (GPa) = 50.05659 57.51430 53.78545
# Shear Modulus (GPa) = 16.44255 25.43704 20.93979
#
# Velocity S-wave (km/s) = 2.93646 3.65235 3.31379
# Velocity P-wave (km/s) = 6.14392 6.92444 6.54582
#
# Compressibility (1/GPa) = 0.01997739
#
# Stress axis : x y z
#
# Youngs Moduli (GPa) = 122.15788 59.15295 79.11034
#
# Poissons Ratio (x) = 0.18545 0.23129
# Poissons Ratio (y) = 0.38298 0.22298
# Poissons Ratio (z) = 0.35714 0.16673
#
# Static dielectric constant tensor:
#      x y z
#    x 1.818370 0.000000 0.000000 
#    y 0.000000 1.657350 0.000000 
#    z 0.000000 0.000000 1.672340 
# 
# From -- ./inp_files/24106.got.cif
#   From: 2010.05.17/outbox.cif.g08.bks.cpg/sg46_13_cif.got.tgz:24106.got - 2010.06.03 19:58:25.
