data_PCOD9380666
_publ_section_title
;
Structure prediction by ZEFSAII (Michael W. Deem and Ramdas Pophale) SiO2 
 PCOD9380666
Probable space group: I M A 2
;
_chemical_formula_sum "Si O2"
_cell_formula_units_Z 44
_cell_length_a 13.907881
_cell_length_b 9.111691
_cell_length_c 16.254683
_cell_angle_alpha 90.000000
_cell_angle_beta 90.000000
_cell_angle_gamma 90.000000
_cell_volume 2059.863555
_symmetry_space_group_name_H-M "I M A 2"
_symmetry_group_IT_number 46
_symmetry_cell_setting 'orthorhombic'
loop_
_space_group_symop_operation_xyz
x,y,z
-x,-y,z
1/2-x,y,z
1/2+x,-y,z
1/2+x,1/2+y,1/2+z
1/2-x,1/2-y,1/2+z
-x,1/2+y,1/2+z
x,1/2-y,1/2+z
loop_
_atom_site_type_symbol
_atom_site_label
_atom_site_fract_x
_atom_site_fract_y
_atom_site_fract_z
Si Si1 0.250000 0.001408 0.619310
Si Si2 0.750000 0.271138 0.822640
Si Si3 0.750000 0.721845 0.963798
Si Si4 0.250000 0.101700 0.283400
Si Si5 0.084438 0.902026 0.735791
Si Si6 0.554248 0.856628 0.192722
Si Si7 0.750000 0.217229 0.009023
Si Si8 0.100866 0.041803 0.008466
O O1 0.153554 0.996823 0.675169
O O2 0.250000 0.841762 0.576774
O O3 0.250000 0.123829 0.547385
O O4 0.750000 0.424618 0.773669
O O5 0.842875 0.176426 0.797793
O O6 0.750000 0.291951 0.919913
O O7 0.750000 0.631051 0.880448
O O8 0.840353 0.832044 0.963279
O O9 0.346781 0.165948 0.242584
O O10 0.023088 0.773770 0.691684
O O11 0.000000 0.000000 0.773404
O O12 0.583413 0.897013 0.100103
O O13 0.500000 0.000000 0.228752
O O14 0.839102 0.107079 0.015953
O O15 0.000000 0.000000 0.969952
#
# Coordination Sequence:
#
# PCOD9380666 Si02
#       8
#     4   4   4   4   8   8   4   8
#     4  11  22  42  67  94 137 167 212 267 325 386
#     4  11  25  44  64  91 136 171 212 270 326 386
#     4  11  24  42  66 100 132 172 212 261 336 390
#     4  12  24  43  67  96 133 175 214 266 322 397
#     4  11  25  42  66  97 128 170 216 271 325 377
#     4  11  22  42  71  95 125 173 226 264 312 388
#     4  11  23  39  64  93 128 171 204 264 327 373
#     4  10  23  42  66  96 126 167 220 268 312 380
#
# _framework density 21.360636
#
# number of rings (size 3 to 8) (size 9 to 14) (size 15 to 20)
#    0.000    1.091    2.727    4.364    2.545    6.545 
#    0.000    0.909    0.000    0.000    0.000    0.000 
#    0.000    0.000    0.000    0.000    0.000    0.000 
#
# Total GULP energy -123016.967969 kJ/mol
# GULP energy per Si atom -5591.680362 kJ/mol
# Density = 2.131202 g / cm^3
# Si number density = 21.360636 Si / 1000 Ang^3
#
#
#
# Elastic Constant Matrix: (Units=GPa)
#
#
# Indices 1 2 3 4 5 6 
#
# 1 178.5229 51.7547 35.3830 0.0000 0.0000 0.0000
# 2 51.7547 98.4223 7.6503 0.0000 0.0000 0.0000
# 3 35.3830 7.6503 76.4765 0.0000 0.0000 0.0000
# 4 0.0000 0.0000 0.0000 21.2102 0.0000 0.0000
# 5 0.0000 0.0000 0.0000 0.0000 4.7768 0.0000
# 6 0.0000 0.0000 0.0000 0.0000 0.0000 22.7460
#
#
#
# Elastic Compliance Matrix: (Units=1/GPa)
#
#
# Indices 1 2 3 4 5 6 
#
# 1 0.007228 -0.003569 -0.002987 0.000000 0.000000 0.000000
# 2 -0.003569 0.012002 0.000451 0.000000 0.000000 0.000000
# 3 -0.002987 0.000451 0.014413 0.000000 0.000000 0.000000
# 4 0.000000 0.000000 0.000000 0.047147 0.000000 0.000000
# 5 0.000000 0.000000 0.000000 0.000000 0.209347 0.000000
# 6 0.000000 0.000000 0.000000 0.000000 0.000000 0.043964
#
#
# Mechanical properties :
#
#
# Convention : Reuss Voigt Hill
#
# Bulk Modulus (GPa) = 46.65892 60.33308 53.49600
# Shear Modulus (GPa) = 14.14604 26.98883 20.56743
#
# Velocity S-wave (km/s) = 2.57621 3.55841 3.10637
# Velocity P-wave (km/s) = 5.54436 6.72230 6.16155
#
# Compressibility (1/GPa) = 0.02143213
#
# Stress axis : x y z
#
# Youngs Moduli (GPa) = 138.34762 83.32045 69.38211
#
# Poissons Ratio (x) = 0.29734 0.20726
# Poissons Ratio (y) = 0.49372 -0.03126
# Poissons Ratio (z) = 0.41328 -0.03754
#
# Static dielectric constant tensor:
#      x y z
#    x 1.760420 0.000000 0.000000 
#    y 0.000000 1.782970 0.000000 
#    z 0.000000 0.000000 1.742570 
# 
# From -- ./inp_files/19371.got.cif
#   From: 2010.05.17/outbox.cif.g08.bks.cpg/sg46_10_cif.got.tgz:19371.got - 2010.06.03 19:58:25.
