data_PCOD9380653
_publ_section_title
;
Structure prediction by ZEFSAII (Michael W. Deem and Ramdas Pophale) SiO2 
 PCOD9380653
Probable space group: I M A 2
;
_chemical_formula_sum "Si O2"
_cell_formula_units_Z 64
_cell_length_a 9.172374
_cell_length_b 14.692390
_cell_length_c 24.229529
_cell_angle_alpha 90.000000
_cell_angle_beta 90.000000
_cell_angle_gamma 90.000000
_cell_volume 3265.270573
_symmetry_space_group_name_H-M "I M A 2"
_symmetry_group_IT_number 46
_symmetry_cell_setting 'orthorhombic'
loop_
_space_group_symop_operation_xyz
x,y,z
-x,-y,z
1/2-x,y,z
1/2+x,-y,z
1/2+x,1/2+y,1/2+z
1/2-x,1/2-y,1/2+z
-x,1/2+y,1/2+z
x,1/2-y,1/2+z
loop_
_atom_site_type_symbol
_atom_site_label
_atom_site_fract_x
_atom_site_fract_y
_atom_site_fract_z
Si Si1 0.425735 0.799357 0.445290
Si Si2 0.574105 0.903721 0.213522
Si Si3 0.424442 0.236594 0.641047
Si Si4 0.583761 0.916615 0.722647
Si Si5 0.417740 0.591753 0.452668
Si Si6 0.416869 0.666758 0.823828
Si Si7 0.424264 0.901989 0.557759
Si Si8 0.407109 0.884408 0.822790
O O1 0.250000 0.787924 0.437927
O O2 0.477749 0.695787 0.460725
O O3 0.477512 0.841144 0.386681
O O4 0.450696 0.868175 0.495106
O O5 0.750000 0.907480 0.217056
O O6 0.536945 0.837212 0.161854
O O7 0.511100 0.869495 0.272764
O O8 0.500000 0.000000 0.203357
O O9 0.250000 0.233735 0.629468
O O10 0.457300 0.177938 0.695855
O O11 0.509573 0.180148 0.594686
O O12 0.750000 0.930372 0.712091
O O13 0.542890 0.913410 0.786510
O O14 0.500000 0.000000 0.696196
O O15 0.500000 0.500000 0.472418
O O16 0.250000 0.589238 0.472688
O O17 0.414621 0.586786 0.385909
O O18 0.250000 0.629730 0.820399
O O19 0.406509 0.775724 0.819708
O O20 0.250000 0.909287 0.567048
O O21 0.500000 0.000000 0.566965
O O22 0.250000 0.915135 0.799076
#
# Coordination Sequence:
#
# PCOD9380653 Si02
#       8
#     8   8   8   8   8   8   8   8
#     4   8  18  37  59  85 119 158 198 243 295 353
#     4  11  23  40  61  89 122 156 196 243 294 354
#     4  10  23  42  60  82 116 151 191 245 294 345
#     4  11  21  32  48  74 108 145 184 230 282 336
#     4   9  17  31  50  76 112 152 191 231 279 336
#     4   9  17  34  59  85 118 158 197 238 290 347
#     4  11  23  41  66  90 116 152 197 248 302 357
#     4   9  17  29  48  75 109 149 187 227 276 335
#
# _framework density 19.600214999999999
#
# number of rings (size 3 to 8) (size 9 to 14) (size 15 to 20)
#    0.000    2.250    1.250    3.375    0.000    5.000 
#    0.000    6.250    0.000    3.000    0.000    0.000 
#    0.000    0.000    0.000    0.000    0.000    0.000 
#
# Total GULP energy -178220.294640 kJ/mol
# GULP energy per Si atom -5569.384207 kJ/mol
# Density = 1.955560 g / cm^3
# Si number density = 19.600215 Si / 1000 Ang^3
#
#
#
# Elastic Constant Matrix: (Units=GPa)
#
#
# Indices 1 2 3 4 5 6 
#
# 1 62.3877 49.4451 36.9690 0.0000 0.0000 0.0000
# 2 49.4451 125.6829 45.1402 0.0000 0.0000 0.0000
# 3 36.9690 45.1402 82.6085 0.0000 0.0000 0.0000
# 4 0.0000 0.0000 0.0000 22.6141 0.0000 0.0000
# 5 0.0000 0.0000 0.0000 0.0000 6.0222 0.0000
# 6 0.0000 0.0000 0.0000 0.0000 0.0000 28.1143
#
#
#
# Elastic Compliance Matrix: (Units=1/GPa)
#
#
# Indices 1 2 3 4 5 6 
#
# 1 0.026754 -0.007745 -0.007741 0.000000 0.000000 0.000000
# 2 -0.007745 0.012142 -0.003168 0.000000 0.000000 0.000000
# 3 -0.007741 -0.003168 0.017301 0.000000 0.000000 0.000000
# 4 0.000000 0.000000 0.000000 0.044220 0.000000 0.000000
# 5 0.000000 0.000000 0.000000 0.000000 0.166053 0.000000
# 6 0.000000 0.000000 0.000000 0.000000 0.000000 0.035569
#
#
# Mechanical properties :
#
#
# Convention : Reuss Voigt Hill
#
# Bulk Modulus (GPa) = 52.94461 59.30975 56.12718
# Shear Modulus (GPa) = 14.46577 20.62511 17.54544
#
# Velocity S-wave (km/s) = 2.71964 3.24742 2.99518
# Velocity P-wave (km/s) = 6.07724 6.66231 6.37649
#
# Compressibility (1/GPa) = 0.01888766
#
# Stress axis : x y z
#
# Youngs Moduli (GPa) = 37.37728 82.36169 57.80086
#
# Poissons Ratio (x) = 0.63791 0.44742
# Poissons Ratio (y) = 0.28950 0.18314
# Poissons Ratio (z) = 0.28933 0.26096
#
# Static dielectric constant tensor:
#      x y z
#    x 1.698790 0.000000 0.000000 
#    y 0.000000 1.726030 0.000000 
#    z 0.000000 0.000000 1.709690 
# 
# From -- ./inp_files/23189.got.cif
#   From: 2010.05.17/outbox.cif.g08.bks.cpg/sg46_12_cif.got.tgz:23189.got - 2010.06.03 19:58:25.
