data_PCOD9380172
_publ_section_title
;
Structure prediction by ZEFSAII (Michael W. Deem and Ramdas Pophale) SiO2 
 PCOD9380172
Probable space group: I M A 2
;
_chemical_formula_sum "Si O2"
_cell_formula_units_Z 56
_cell_length_a 14.125111
_cell_length_b 8.741124
_cell_length_c 21.416647
_cell_angle_alpha 90.000000
_cell_angle_beta 90.000000
_cell_angle_gamma 90.000000
_cell_volume 2644.299415
_symmetry_space_group_name_H-M "I M A 2"
_symmetry_group_IT_number 46
_symmetry_cell_setting 'orthorhombic'
loop_
_space_group_symop_operation_xyz
x,y,z
-x,-y,z
1/2-x,y,z
1/2+x,-y,z
1/2+x,1/2+y,1/2+z
1/2-x,1/2-y,1/2+z
-x,1/2+y,1/2+z
x,1/2-y,1/2+z
loop_
_atom_site_type_symbol
_atom_site_label
_atom_site_fract_x
_atom_site_fract_y
_atom_site_fract_z
Si Si1 0.363155 0.886441 0.748180
Si Si2 0.863843 0.303957 0.628797
Si Si3 0.861043 0.194242 0.501035
Si Si4 0.053096 0.284268 0.286773
Si Si5 0.477363 0.318911 0.919257
Si Si6 0.636071 0.851523 0.164885
Si Si7 0.362301 0.160712 0.541508
O O1 0.250000 0.868574 0.757398
O O2 0.386941 0.832223 0.677147
O O3 0.438274 0.785672 0.786301
O O4 0.398138 0.055517 0.766423
O O5 0.750000 0.294463 0.624271
O O6 0.898415 0.291974 0.558625
O O7 0.886738 0.472793 0.651090
O O8 0.750000 0.211563 0.489917
O O9 0.918732 0.237415 0.439589
O O10 0.875419 0.022223 0.529991
O O11 0.074036 0.239377 0.357542
O O12 0.088939 0.179548 0.231183
O O13 0.500000 0.500000 0.912434
O O14 0.415058 0.278947 0.980139
O O15 0.750000 0.834699 0.170975
O O16 0.607525 0.736001 0.107965
O O17 0.250000 0.190314 0.537710
#
# Coordination Sequence:
#
# PCOD9380172 Si02
#       7
#     8   8   8   8   8   8   8
#     4  10  23  43  62  88 125 164 213 261 314 384
#     4   9  19  37  63  96 125 161 208 263 325 372
#     4   9  18  37  63  88 124 169 210 256 315 381
#     4  11  24  40  65  93 124 172 213 257 323 374
#     4  10  23  40  60  93 128 162 214 259 312 383
#     4  10  21  38  64  99 129 159 209 266 318 377
#     4   9  19  38  62  90 125 167 212 259 313 376
#
# _framework density 21.177630000000001
#
# number of rings (size 3 to 8) (size 9 to 14) (size 15 to 20)
#    0.000    2.286    0.000    1.286    4.000    4.000 
#    5.143    0.000    0.000    0.000    0.000    0.000 
#    0.000    0.000    0.000    0.000    0.000    0.000 
#
# Total GULP energy -155968.098086 kJ/mol
# GULP energy per Si atom -5570.289217 kJ/mol
# Density = 2.112943 g / cm^3
# Si number density = 21.177630 Si / 1000 Ang^3
#
#
#
# Elastic Constant Matrix: (Units=GPa)
#
#
# Indices 1 2 3 4 5 6 
#
# 1 82.8616 22.4925 38.5228 0.0000 0.0000 0.0000
# 2 22.4925 46.9922 53.2295 0.0000 0.0000 0.0000
# 3 38.5228 53.2295 165.9514 0.0000 0.0000 0.0000
# 4 0.0000 0.0000 0.0000 -1.5604 0.0000 0.0000
# 5 0.0000 0.0000 0.0000 0.0000 28.5143 0.0000
# 6 0.0000 0.0000 0.0000 0.0000 0.0000 17.1946
#
#
#
# Elastic Compliance Matrix: (Units=1/GPa)
#
#
# Indices 1 2 3 4 5 6 
#
# 1 0.014187 -0.004807 -0.001752 0.000000 0.000000 0.000000
# 2 -0.004807 0.035052 -0.010127 0.000000 0.000000 0.000000
# 3 -0.001752 -0.010127 0.009681 0.000000 0.000000 0.000000
# 4 0.000000 0.000000 0.000000 -0.640849 0.000000 0.000000
# 5 0.000000 0.000000 0.000000 0.000000 0.035070 0.000000
# 6 0.000000 0.000000 0.000000 0.000000 0.000000 0.058158
#
#
# Mechanical properties :
#
#
# Convention : Reuss Voigt Hill
#
# Bulk Modulus (GPa) = 39.13986 58.25500 48.69743
# Shear Modulus (GPa) = -11.19038 20.93370 4.87166
#
# Velocity S-wave (km/s) = -2.30120 3.14742 1.51835
# Velocity P-wave (km/s) = 3.38543 6.38560 5.11063
#
# Compressibility (1/GPa) = 0.02554940
#
# Stress axis : x y z
#
# Youngs Moduli (GPa) = 70.48509 28.52877 103.29647
#
# Poissons Ratio (x) = 0.13713 0.18094
# Poissons Ratio (y) = 0.33879 1.04612
# Poissons Ratio (z) = 0.12347 0.28892
#
# Static dielectric constant tensor:
#      x y z
#    x 1.813140 0.000000 0.000000 
#    y 0.000000 1.861610 0.000000 
#    z 0.000000 0.000000 1.770810 
# 
# From -- ./inp_files/22021.got.cif
#   From: 2010.05.17/outbox.cif.g08.bks.cpg/sg46_12_cif.got.tgz:22021.got - 2010.06.03 19:58:25.
