data_PCOD9380732
_publ_section_title
;
Structure prediction by ZEFSAII (Michael W. Deem and Ramdas Pophale) SiO2 
 PCOD9380732
Probable space group: I M A 2
;
_chemical_formula_sum "Si O2"
_cell_formula_units_Z 40
_cell_length_a 7.942740
_cell_length_b 25.932955
_cell_length_c 9.704681
_cell_angle_alpha 90.000000
_cell_angle_beta 90.000000
_cell_angle_gamma 90.000000
_cell_volume 1998.957761
_symmetry_space_group_name_H-M "I M A 2"
_symmetry_group_IT_number 46
_symmetry_cell_setting 'orthorhombic'
loop_
_space_group_symop_operation_xyz
x,y,z
-x,-y,z
1/2-x,y,z
1/2+x,-y,z
1/2+x,1/2+y,1/2+z
1/2-x,1/2-y,1/2+z
-x,1/2+y,1/2+z
x,1/2-y,1/2+z
loop_
_atom_site_type_symbol
_atom_site_label
_atom_site_fract_x
_atom_site_fract_y
_atom_site_fract_z
Si Si1 0.939344 0.415090 0.620840
Si Si2 0.951824 0.440509 0.309484
Si Si3 0.562791 0.554942 0.899081
Si Si4 0.750000 0.183925 0.190808
Si Si5 0.250000 0.786245 0.517552
Si Si6 0.447859 0.141600 0.585085
O O1 0.750000 0.437995 0.636760
O O2 0.995711 0.426626 0.467233
O O3 0.906923 0.354927 0.657895
O O4 0.052467 0.440504 0.736113
O O5 0.750000 0.435610 0.293555
O O6 0.000000 0.500000 0.280763
O O7 0.036189 0.397412 0.213599
O O8 0.500000 0.500000 0.945107
O O9 0.750000 0.558976 0.951369
O O10 0.478675 0.604983 0.962527
O O11 0.750000 0.205245 0.349314
O O12 0.750000 0.228229 0.075640
O O13 0.418617 0.812231 0.582487
O O14 0.250000 0.157254 0.567887
#
# Coordination Sequence:
#
# PCOD9380732 Si02
#       6
#     8   8   8   4   4   8
#     4   9  20  40  59  90 127 164 216 264 320 394
#     4  11  22  36  60  92 137 179 221 262 322 388
#     4  11  22  35  60  91 127 171 216 260 324 396
#     4  10  24  42  76  96 122 176 224 270 355 384
#     4  12  24  46  76  94 132 172 218 290 337 388
#     4  11  24  42  64  96 133 171 219 273 325 394
#
# _framework density 20.010428000000001
#
# number of rings (size 3 to 8) (size 9 to 14) (size 15 to 20)
#    0.600    0.800    3.000    2.400    4.200    4.800 
#    0.000    2.000    0.000    0.000    0.000    0.000 
#    0.000    0.000    0.000    0.000    0.000    0.000 
#
# Total GULP energy -111440.288946 kJ/mol
# GULP energy per Si atom -5572.014447 kJ/mol
# Density = 1.996488 g / cm^3
# Si number density = 20.010428 Si / 1000 Ang^3
#
#
#
# Elastic Constant Matrix: (Units=GPa)
#
#
# Indices 1 2 3 4 5 6 
#
# 1 53.5242 14.6740 9.3288 0.0001 0.0000 0.0000
# 2 14.6740 94.3572 15.6033 -0.0001 0.0000 0.0000
# 3 9.3288 15.6033 95.5168 0.0002 0.0000 0.0000
# 4 0.0001 -0.0001 0.0002 1.9344 0.0000 0.0000
# 5 0.0000 0.0000 0.0000 0.0000 38.1109 0.0000
# 6 0.0000 0.0000 0.0000 0.0000 0.0000 20.9170
#
#
#
# Elastic Compliance Matrix: (Units=1/GPa)
#
#
# Indices 1 2 3 4 5 6 
#
# 1 0.019712 -0.002823 -0.001464 -0.000001 0.000000 0.000000
# 2 -0.002823 0.011297 -0.001570 0.000001 0.000000 0.000000
# 3 -0.001464 -0.001570 0.010869 -0.000001 0.000000 0.000000
# 4 -0.000001 0.000001 -0.000001 0.516944 -0.000001 0.000001
# 5 0.000000 0.000000 0.000000 -0.000001 0.026239 0.000000
# 6 0.000000 0.000000 0.000000 0.000001 0.000000 0.047808
#
#
# Mechanical properties :
#
#
# Convention : Reuss Voigt Hill
#
# Bulk Modulus (GPa) = 33.15255 35.84559 34.49907
# Shear Modulus (GPa) = 7.63781 25.77861 16.70821
#
# Velocity S-wave (km/s) = 1.95581 3.59313 2.89273
# Velocity P-wave (km/s) = 4.65874 5.93013 5.33246
#
# Compressibility (1/GPa) = 0.03016359
#
# Stress axis : x y z
#
# Youngs Moduli (GPa) = 50.72951 88.52153 92.00682
#
# Poissons Ratio (x) = 0.24994 0.13470
# Poissons Ratio (y) = 0.14323 0.14442
# Poissons Ratio (z) = 0.07427 0.13895
#
# Static dielectric constant tensor:
#      x y z
#    x 1.697550 0.000000 0.000000 
#    y 0.000000 1.808250 0.000000 
#    z 0.000000 0.000000 1.737350 
# 
# From -- ./inp_files/3687.got.cif
#   From: 2010.05.17/outbox.cif.g08.bks.cpg/sg46_2_cif.got.tgz:3687.got - 2010.06.03 19:58:25.
