data_PCOD9380229
_publ_section_title
;
Structure prediction by ZEFSAII (Michael W. Deem and Ramdas Pophale) SiO2 
 PCOD9380229
Probable space group: I M A 2
;
_chemical_formula_sum "Si O2"
_cell_formula_units_Z 48
_cell_length_a 18.332092
_cell_length_b 14.915288
_cell_length_c 8.934009
_cell_angle_alpha 90.000000
_cell_angle_beta 90.000000
_cell_angle_gamma 90.000000
_cell_volume 2442.812071
_symmetry_space_group_name_H-M "I M A 2"
_symmetry_group_IT_number 46
_symmetry_cell_setting 'orthorhombic'
loop_
_space_group_symop_operation_xyz
x,y,z
-x,-y,z
1/2-x,y,z
1/2+x,-y,z
1/2+x,1/2+y,1/2+z
1/2-x,1/2-y,1/2+z
-x,1/2+y,1/2+z
x,1/2-y,1/2+z
loop_
_atom_site_type_symbol
_atom_site_label
_atom_site_fract_x
_atom_site_fract_y
_atom_site_fract_z
Si Si1 0.167968 0.185776 0.074780
Si Si2 0.613926 0.539615 0.777919
Si Si3 0.893875 0.851890 0.763374
Si Si4 0.834733 0.016411 0.608169
Si Si5 0.950796 0.168409 0.621504
Si Si6 0.040615 0.640387 0.767903
O O1 0.250000 0.203175 0.017623
O O2 0.168250 0.097899 0.179343
O O3 0.140459 0.269579 0.171262
O O4 0.112991 0.172163 0.937014
O O5 0.539077 0.595545 0.755917
O O6 0.597455 0.438157 0.728173
O O7 0.636219 0.527826 0.951817
O O8 0.975620 0.866876 0.702182
O O9 0.847207 0.940117 0.731069
O O10 0.750000 0.038869 0.590193
O O11 0.883339 0.102130 0.651948
O O12 0.945279 0.270560 0.674866
O O13 0.956271 0.165311 0.442647
#
# Coordination Sequence:
#
# PCOD9380229 Si02
#       6
#     8   8   8   8   8   8
#     4  12  24  38  60  94 131 166 209 268 336 390
#     4  10  21  40  63  92 125 163 211 262 322 383
#     4  12  23  40  60  90 129 168 212 266 324 393
#     4  11  23  42  65  91 128 170 213 267 327 386
#     4  11  22  41  64  93 122 168 214 264 314 384
#     4  10  21  39  64  91 124 163 215 259 307 381
#
# _framework density 19.649484999999999
#
# number of rings (size 3 to 8) (size 9 to 14) (size 15 to 20)
#    0.000    1.000    3.333    4.500    0.000    1.333 
#    3.000    4.167    0.000    0.000    0.000    0.000 
#    0.000    0.000    0.000    0.000    0.000    0.000 
#
# Total GULP energy -134095.549850 kJ/mol
# GULP energy per Si atom -5587.314577 kJ/mol
# Density = 1.960476 g / cm^3
# Si number density = 19.649485 Si / 1000 Ang^3
#
#
#
# Elastic Constant Matrix: (Units=GPa)
#
#
# Indices 1 2 3 4 5 6 
#
# 1 99.1456 57.3738 17.0792 0.0000 0.0000 0.0000
# 2 57.3738 131.0584 54.5737 0.0000 0.0000 0.0000
# 3 17.0792 54.5737 57.0949 0.0000 0.0000 0.0000
# 4 0.0000 0.0000 0.0000 34.3363 0.0000 0.0000
# 5 0.0000 0.0000 0.0000 0.0000 18.0069 0.0000
# 6 0.0000 0.0000 0.0000 0.0000 0.0000 12.8733
#
#
#
# Elastic Compliance Matrix: (Units=1/GPa)
#
#
# Indices 1 2 3 4 5 6 
#
# 1 0.013759 -0.007159 0.002727 0.000000 0.000000 0.000000
# 2 -0.007159 0.016400 -0.013534 0.000000 0.000000 0.000000
# 3 0.002727 -0.013534 0.029636 0.000000 0.000000 0.000000
# 4 0.000000 0.000000 0.000000 0.029124 0.000000 0.000000
# 5 0.000000 0.000000 0.000000 0.000000 0.055534 0.000000
# 6 0.000000 0.000000 0.000000 0.000000 0.000000 0.077680
#
#
# Mechanical properties :
#
#
# Convention : Reuss Voigt Hill
#
# Bulk Modulus (GPa) = 41.90734 60.59472 51.25103
# Shear Modulus (GPa) = 18.79562 23.59478 21.19520
#
# Velocity S-wave (km/s) = 3.09616 3.46899 3.28787
# Velocity P-wave (km/s) = 5.84426 6.85200 6.36810
#
# Compressibility (1/GPa) = 0.02386217
#
# Stress axis : x y z
#
# Youngs Moduli (GPa) = 72.67895 60.97603 33.74326
#
# Poissons Ratio (x) = 0.43652 -0.09201
# Poissons Ratio (y) = 0.52030 0.45669
# Poissons Ratio (z) = -0.19819 0.82526
#
# Static dielectric constant tensor:
#      x y z
#    x 1.724900 0.000000 0.000000 
#    y 0.000000 1.678440 0.000000 
#    z 0.000000 0.000000 1.677310 
# 
# From -- ./inp_files/6603.got.cif
#   From: 2010.05.17/outbox.cif.g08.bks.cpg/sg46_4_cif.got.tgz:6603.got - 2010.06.03 19:58:25.
