data_PCOD9380543
_publ_section_title
;
Structure prediction by ZEFSAII (Michael W. Deem and Ramdas Pophale) SiO2 
 PCOD9380543
Probable space group: I M A 2
;
_chemical_formula_sum "Si O2"
_cell_formula_units_Z 56
_cell_length_a 14.522200
_cell_length_b 5.627027
_cell_length_c 27.654715
_cell_angle_alpha 90.000000
_cell_angle_beta 90.000000
_cell_angle_gamma 90.000000
_cell_volume 2259.855133
_symmetry_space_group_name_H-M "I M A 2"
_symmetry_group_IT_number 46
_symmetry_cell_setting 'orthorhombic'
loop_
_space_group_symop_operation_xyz
x,y,z
-x,-y,z
1/2-x,y,z
1/2+x,-y,z
1/2+x,1/2+y,1/2+z
1/2-x,1/2-y,1/2+z
-x,1/2+y,1/2+z
x,1/2-y,1/2+z
loop_
_atom_site_type_symbol
_atom_site_label
_atom_site_fract_x
_atom_site_fract_y
_atom_site_fract_z
Si Si1 0.641450 0.318087 0.920810
Si Si2 0.139478 0.099696 0.141031
Si Si3 0.099309 0.613179 0.326422
Si Si4 0.646478 0.657591 0.004753
Si Si5 0.358941 0.605914 0.100100
Si Si6 0.108019 0.524302 0.752786
Si Si7 0.750000 0.724880 0.316269
Si Si8 0.000000 0.000000 0.981404
O O1 0.750000 0.256605 0.924681
O O2 0.611072 0.326053 0.865085
O O3 0.634257 0.561908 0.950590
O O4 0.571537 0.141775 0.947470
O O5 0.250000 0.112494 0.132251
O O6 0.103118 0.863794 0.113865
O O7 0.123158 0.033887 0.196958
O O8 0.104664 0.363315 0.125870
O O9 0.131794 0.714020 0.274235
O O10 0.170146 0.420271 0.345480
O O11 0.000000 0.500000 0.324025
O O12 0.750000 0.755756 0.011077
O O13 0.564750 0.836006 0.013534
O O14 0.636805 0.444442 0.042923
O O15 0.250000 0.616263 0.113195
O O16 0.170251 0.346164 0.782613
O O17 0.000000 0.500000 0.763719
#
# Coordination Sequence:
#
# PCOD9380543 Si02
#       8
#     8   8   8   8   8   8   4   4
#     4  11  25  45  69 106 142 191 243 308 379 453
#     4  10  22  41  73 107 147 197 251 314 384 459
#     4  12  26  48  76 108 150 197 254 309 384 466
#     4  10  24  46  73 104 148 192 248 316 383 462
#     4   9  21  42  73 107 144 195 249 311 390 460
#     4  12  27  45  72 110 151 198 254 317 380 463
#     4  12  26  48  76 106 150 202 246 322 386 448
#     4  12  24  44  70 102 140 192 242 308 376 452
#
# _framework density 24.780351
#
# number of rings (size 3 to 8) (size 9 to 14) (size 15 to 20)
#    0.000    1.143    3.571    1.286    4.000    2.286 
#    3.857    0.000    0.000    0.000    0.000    0.000 
#    0.000    0.000    0.000    0.000    0.000    0.000 
#
# Total GULP energy -156146.711326 kJ/mol
# GULP energy per Si atom -5576.668262 kJ/mol
# Density = 2.472395 g / cm^3
# Si number density = 24.780351 Si / 1000 Ang^3
#
#
#
# Elastic Constant Matrix: (Units=GPa)
#
#
# Indices 1 2 3 4 5 6 
#
# 1 119.6752 54.5883 3.1940 0.0000 0.0000 0.0000
# 2 54.5883 112.1190 51.2134 0.0000 0.0000 0.0000
# 3 3.1940 51.2134 99.3258 0.0000 0.0000 0.0000
# 4 0.0000 0.0000 0.0000 37.0063 0.0000 0.0000
# 5 0.0000 0.0000 0.0000 0.0000 55.2052 0.0000
# 6 0.0000 0.0000 0.0000 0.0000 0.0000 23.0259
#
#
#
# Elastic Compliance Matrix: (Units=1/GPa)
#
#
# Indices 1 2 3 4 5 6 
#
# 1 0.011511 -0.007110 0.003296 0.000000 0.000000 0.000000
# 2 -0.007110 0.016058 -0.008051 0.000000 0.000000 0.000000
# 3 0.003296 -0.008051 0.014113 0.000000 0.000000 0.000000
# 4 0.000000 0.000000 0.000000 0.027022 0.000000 0.000000
# 5 0.000000 0.000000 0.000000 0.000000 0.018114 0.000000
# 6 0.000000 0.000000 0.000000 0.000000 0.000000 0.043429
#
#
# Mechanical properties :
#
#
# Convention : Reuss Voigt Hill
#
# Bulk Modulus (GPa) = 55.70433 61.01236 58.35834
# Shear Modulus (GPa) = 31.25714 37.85577 34.55645
#
# Velocity S-wave (km/s) = 3.55543 3.91276 3.73837
# Velocity P-wave (km/s) = 6.27557 6.71473 6.49886
#
# Compressibility (1/GPa) = 0.01795193
#
# Stress axis : x y z
#
# Youngs Moduli (GPa) = 86.87268 62.27276 70.85565
#
# Poissons Ratio (x) = 0.44276 -0.23353
# Poissons Ratio (y) = 0.61766 0.57048
# Poissons Ratio (z) = -0.28632 0.50137
#
# Static dielectric constant tensor:
#      x y z
#    x 1.890490 0.000000 0.000000 
#    y 0.000000 2.067000 0.000000 
#    z 0.000000 0.000000 1.933930 
# 
# From -- ./inp_files/25406.got.cif
#   From: 2010.05.17/outbox.cif.g08.bks.cpg/sg46_13_cif.got.tgz:25406.got - 2010.06.03 19:58:25.
