data_PCOD9380590
_publ_section_title
;
Structure prediction by ZEFSAII (Michael W. Deem and Ramdas Pophale) SiO2 
 PCOD9380590
Probable space group: I M A 2
;
_chemical_formula_sum "Si O2"
_cell_formula_units_Z 40
_cell_length_a 10.771539
_cell_length_b 19.650246
_cell_length_c 9.040147
_cell_angle_alpha 90.000000
_cell_angle_beta 90.000000
_cell_angle_gamma 90.000000
_cell_volume 1913.468171
_symmetry_space_group_name_H-M "I M A 2"
_symmetry_group_IT_number 46
_symmetry_cell_setting 'orthorhombic'
loop_
_space_group_symop_operation_xyz
x,y,z
-x,-y,z
1/2-x,y,z
1/2+x,-y,z
1/2+x,1/2+y,1/2+z
1/2-x,1/2-y,1/2+z
-x,1/2+y,1/2+z
x,1/2-y,1/2+z
loop_
_atom_site_type_symbol
_atom_site_label
_atom_site_fract_x
_atom_site_fract_y
_atom_site_fract_z
Si Si1 0.458495 0.679458 0.757700
Si Si2 0.891497 0.318543 0.102168
Si Si3 0.750000 0.844754 0.263385
Si Si4 0.750000 0.433935 0.699084
Si Si5 0.250000 0.462728 0.983737
Si Si6 0.439026 0.066844 0.739588
Si Si7 0.750000 0.939820 0.986695
O O1 0.405592 0.744197 0.671698
O O2 0.610042 0.685428 0.747334
O O3 0.375940 0.613225 0.704649
O O4 0.428423 0.683787 0.931108
O O5 0.750000 0.342033 0.113904
O O6 0.976691 0.372144 0.186786
O O7 0.750000 0.887438 0.414223
O O8 0.750000 0.899376 0.135344
O O9 0.750000 0.481418 0.850945
O O10 0.750000 0.482296 0.551407
O O11 0.134833 0.462528 0.096342
O O12 0.359423 0.086068 0.881176
O O13 0.500000 0.000000 0.801275
#
# Coordination Sequence:
#
# PCOD9380590 Si02
#       7
#     8   8   4   4   4   8   4
#     4  12  27  47  77 107 154 194 250 310 378 454
#     4  12  26  49  75 112 143 199 248 312 382 450
#     4  11  26  46  70 107 143 199 240 308 367 438
#     4  11  24  48  76 108 148 198 253 300 369 444
#     4  10  22  43  72  98 141 192 245 293 362 438
#     4  11  25  44  69 106 145 187 243 307 364 435
#     4  10  28  43  72 105 148 199 244 299 370 440
#
# _framework density 20.904450000000001
#
# number of rings (size 3 to 8) (size 9 to 14) (size 15 to 20)
#    0.000    0.800    4.000    1.200    8.400    4.000 
#    0.000    0.000    0.000    0.000    0.000    0.000 
#    0.000    0.000    0.000    0.000    0.000    0.000 
#
# Total GULP energy -111415.109922 kJ/mol
# GULP energy per Si atom -5570.755496 kJ/mol
# Density = 2.085687 g / cm^3
# Si number density = 20.904450 Si / 1000 Ang^3
#
#
#
# Elastic Constant Matrix: (Units=GPa)
#
#
# Indices 1 2 3 4 5 6 
#
# 1 140.7403 36.7211 34.4209 -0.0001 -0.0001 0.0000
# 2 36.7211 81.5394 28.5077 -0.0001 -0.0001 -0.0003
# 3 34.4209 28.5077 80.6516 0.0005 -0.0011 -0.0005
# 4 -0.0001 -0.0001 0.0005 54.1155 -0.0002 0.0000
# 5 -0.0001 -0.0001 -0.0011 -0.0002 -95.8464 0.0000
# 6 0.0000 -0.0003 -0.0005 0.0000 0.0000 41.9576
#
#
#
# Elastic Compliance Matrix: (Units=1/GPa)
#
#
# Indices 1 2 3 4 5 6 
#
# 1 0.008502 -0.002921 -0.002596 0.000000 0.000000 0.000000
# 2 -0.002921 0.014997 -0.004054 0.000000 0.000000 0.000000
# 3 -0.002596 -0.004054 0.014940 0.000000 0.000000 0.000000
# 4 0.000000 0.000000 0.000000 0.018479 0.000000 0.000000
# 5 0.000000 0.000000 0.000000 0.000000 -0.010433 0.000000
# 6 0.000000 0.000000 0.000000 0.000000 0.000000 0.023834
#
#
# Mechanical properties :
#
#
# Convention : Reuss Voigt Hill
#
# Bulk Modulus (GPa) = 51.82374 55.80343 53.81358
# Shear Modulus (GPa) = 52.14085 13.59745 32.86915
#
# Velocity S-wave (km/s) = 4.99966 2.55317 3.96959
# Velocity P-wave (km/s) = 7.62715 5.95349 6.84169
#
# Compressibility (1/GPa) = 0.01929618
#
# Stress axis : x y z
#
# Youngs Moduli (GPa) = 117.61317 66.67973 66.93444
#
# Poissons Ratio (x) = 0.19480 0.17377
# Poissons Ratio (y) = 0.34360 0.27136
# Poissons Ratio (z) = 0.30534 0.27033
#
# Static dielectric constant tensor:
#      x y z
#    x 1.928960 0.000000 0.000000 
#    y 0.000000 1.666210 0.000000 
#    z 0.000000 0.000000 1.680920 
# 
# From -- ./inp_files/4485.got.cif
#   From: 2010.05.17/outbox.cif.g08.bks.cpg/sg46_3_cif.got.tgz:4485.got - 2010.06.03 19:58:25.
