data_PCOD9380689
_publ_section_title
;
Structure prediction by ZEFSAII (Michael W. Deem and Ramdas Pophale) SiO2 
 PCOD9380689
Probable space group: I M A 2
;
_chemical_formula_sum "Si O2"
_cell_formula_units_Z 40
_cell_length_a 8.691200
_cell_length_b 28.674208
_cell_length_c 7.886968
_cell_angle_alpha 90.000000
_cell_angle_beta 90.000000
_cell_angle_gamma 90.000000
_cell_volume 1965.537137
_symmetry_space_group_name_H-M "I M A 2"
_symmetry_group_IT_number 46
_symmetry_cell_setting 'orthorhombic'
loop_
_space_group_symop_operation_xyz
x,y,z
-x,-y,z
1/2-x,y,z
1/2+x,-y,z
1/2+x,1/2+y,1/2+z
1/2-x,1/2-y,1/2+z
-x,1/2+y,1/2+z
x,1/2-y,1/2+z
loop_
_atom_site_type_symbol
_atom_site_label
_atom_site_fract_x
_atom_site_fract_y
_atom_site_fract_z
Si Si1 0.929734 0.802551 0.318390
Si Si2 0.565364 0.614825 0.297999
Si Si3 0.430870 0.791107 0.679529
Si Si4 0.431334 0.095276 0.169747
Si Si5 0.432490 0.948799 0.500452
O O1 0.750000 0.799043 0.367449
O O2 0.947936 0.849815 0.212523
O O3 0.032020 0.804963 0.486660
O O4 0.980496 0.756615 0.218569
O O5 0.750000 0.619343 0.292903
O O6 0.492631 0.666275 0.292092
O O7 0.523208 0.589367 0.473950
O O8 0.507986 0.586513 0.135149
O O9 0.250000 0.784418 0.705710
O O10 0.250000 0.083604 0.188359
O O11 0.524207 0.067239 0.310513
O O12 0.250000 0.948473 0.522580
O O13 0.500000 0.000000 0.529984
#
# Coordination Sequence:
#
# PCOD9380689 Si02
#       5
#     8   8   8   8   8
#     4  11  22  39  63  91 130 179 225 268 329 399
#     4  11  23  43  69  98 134 175 223 273 333 400
#     4  12  24  38  60  95 135 174 222 277 331 389
#     4  10  23  43  69  97 130 174 222 273 329 396
#     4  12  26  45  71  99 133 174 221 278 340 399
#
# _framework density 20.350671999999999
#
# number of rings (size 3 to 8) (size 9 to 14) (size 15 to 20)
#    0.000    0.800    2.000    6.000    0.000    4.800 
#    0.000    0.000    0.000    0.000    0.000    0.000 
#    0.000    0.000    0.000    0.000    0.000    0.000 
#
# Total GULP energy -111935.758546 kJ/mol
# GULP energy per Si atom -5596.787927 kJ/mol
# Density = 2.030435 g / cm^3
# Si number density = 20.350672 Si / 1000 Ang^3
#
#
#
# Elastic Constant Matrix: (Units=GPa)
#
#
# Indices 1 2 3 4 5 6 
#
# 1 54.1240 7.1019 -4.1966 0.0003 -0.0001 0.0000
# 2 7.1019 56.2832 -22.7596 0.0006 0.0002 0.0003
# 3 -4.1966 -22.7596 62.2719 -0.0013 -0.0012 0.0018
# 4 0.0003 0.0006 -0.0013 15.6726 -0.0003 0.0002
# 5 -0.0001 0.0002 -0.0012 -0.0003 0.6063 0.0006
# 6 0.0000 0.0003 0.0018 0.0002 0.0006 24.7048
#
#
#
# Elastic Compliance Matrix: (Units=1/GPa)
#
#
# Indices 1 2 3 4 5 6 
#
# 1 0.018799 -0.002182 0.000469 0.000000 0.000003 0.000000
# 2 -0.002182 0.021102 0.007565 0.000000 0.000009 -0.000001
# 3 0.000469 0.007565 0.018855 0.000001 0.000036 -0.000001
# 4 0.000000 0.000000 0.000001 0.063806 0.000032 0.000000
# 5 0.000003 0.000009 0.000036 0.000032 1.649256 -0.000039
# 6 0.000000 -0.000001 -0.000001 0.000000 -0.000039 0.040478
#
#
# Mechanical properties :
#
#
# Convention : Reuss Voigt Hill
#
# Bulk Modulus (GPa) = 14.19226 14.77449 14.48337
# Shear Modulus (GPa) = 2.74111 21.03232 11.88671
#
# Velocity S-wave (km/s) = 1.16184 3.21829 2.41943
# Velocity P-wave (km/s) = 2.96459 4.59190 3.86487
#
# Compressibility (1/GPa) = 0.07046094
#
# Stress axis : x y z
#
# Youngs Moduli (GPa) = 53.19476 47.38893 53.03548
#
# Poissons Ratio (x) = 0.10342 -0.02489
# Poissons Ratio (y) = 0.11609 -0.40124
# Poissons Ratio (z) = -0.02496 -0.35852
#
# Static dielectric constant tensor:
#      x y z
#    x 1.676980 0.000000 0.000000 
#    y 0.000000 1.718150 0.000000 
#    z 0.000000 0.000000 1.724690 
# 
# From -- ./inp_files/3667.got.cif
#   From: 2010.05.17/outbox.cif.g08.bks.cpg/sg46_2_cif.got.tgz:3667.got - 2010.06.03 19:58:25.
