data_PCOD9380648
_publ_section_title
;
Structure prediction by ZEFSAII (Michael W. Deem and Ramdas Pophale) SiO2 
 PCOD9380648
Probable space group: I M A 2
;
_chemical_formula_sum "Si O2"
_cell_formula_units_Z 60
_cell_length_a 14.696422
_cell_length_b 16.244935
_cell_length_c 10.816901
_cell_angle_alpha 90.000000
_cell_angle_beta 90.000000
_cell_angle_gamma 90.000000
_cell_volume 2582.453123
_symmetry_space_group_name_H-M "I M A 2"
_symmetry_group_IT_number 46
_symmetry_cell_setting 'orthorhombic'
loop_
_space_group_symop_operation_xyz
x,y,z
-x,-y,z
1/2-x,y,z
1/2+x,-y,z
1/2+x,1/2+y,1/2+z
1/2-x,1/2-y,1/2+z
-x,1/2+y,1/2+z
x,1/2-y,1/2+z
loop_
_atom_site_type_symbol
_atom_site_label
_atom_site_fract_x
_atom_site_fract_y
_atom_site_fract_z
Si Si1 0.847879 0.498730 0.664910
Si Si2 0.542877 0.649993 0.601555
Si Si3 0.851987 0.094019 0.424826
Si Si4 0.404221 0.589300 0.417816
Si Si5 0.850196 0.730420 0.411038
Si Si6 0.451992 0.759388 0.310775
Si Si7 0.851282 0.934754 0.748889
Si Si8 0.500000 0.500000 0.084656
O O1 0.750000 0.540554 0.648629
O O2 0.921669 0.570940 0.674017
O O3 0.849707 0.449949 0.791636
O O4 0.856616 0.436255 0.548567
O O5 0.750000 0.728908 0.903451
O O6 0.625086 0.706189 0.552252
O O7 0.468135 0.704545 0.672834
O O8 0.750000 0.094538 0.476633
O O9 0.888643 0.183718 0.394040
O O10 0.924661 0.047895 0.507833
O O11 0.502884 0.606071 0.478552
O O12 0.405004 0.670390 0.330152
O O13 0.374477 0.514243 0.332462
O O14 0.844916 0.647266 0.329847
O O15 0.943898 0.770167 0.362121
O O16 0.750000 0.945489 0.691781
O O17 0.939067 0.934284 0.660776
#
# Coordination Sequence:
#
# PCOD9380648 Si02
#       8
#     8   8   8   8   8   8   8   4
#     4  11  22  41  74 103 131 179 246 307 351 425
#     4  11  21  39  67 101 137 185 235 296 358 435
#     4  11  26  46  68 102 140 183 238 293 361 439
#     4  11  23  40  71 103 138 186 241 302 363 433
#     4  10  23  41  65  99 138 184 244 300 357 430
#     4  11  25  40  65 100 149 187 227 296 380 431
#     4  11  24  43  70 104 137 185 248 305 366 442
#     4  12  24  46  70  96 138 192 232 294 362 444
#
# _framework density 23.233723000000001
#
# number of rings (size 3 to 8) (size 9 to 14) (size 15 to 20)
#    0.000    1.067    2.667    4.000    1.867    6.400 
#    0.000    2.667    0.000    0.000    0.000    0.000 
#    0.000    0.000    0.000    0.000    0.000    0.000 
#
# Total GULP energy -167256.663714 kJ/mol
# GULP energy per Si atom -5575.222124 kJ/mol
# Density = 2.318084 g / cm^3
# Si number density = 23.233723 Si / 1000 Ang^3
#
#
#
# Elastic Constant Matrix: (Units=GPa)
#
#
# Indices 1 2 3 4 5 6 
#
# 1 127.9617 17.1568 41.8961 0.0000 0.0000 0.0000
# 2 17.1568 69.2948 23.7688 0.0000 0.0000 0.0000
# 3 41.8961 23.7688 58.2136 0.0000 0.0000 0.0000
# 4 0.0000 0.0000 0.0000 20.9826 0.0000 0.0000
# 5 0.0000 0.0000 0.0000 0.0000-2797.2716 0.0000
# 6 0.0000 0.0000 0.0000 0.0000 0.0000 26.2890
#
#
#
# Elastic Compliance Matrix: (Units=1/GPa)
#
#
# Indices 1 2 3 4 5 6 
#
# 1 0.010224 -0.000009 -0.007355 0.000000 0.000000 0.000000
# 2 -0.000009 0.016781 -0.006846 0.000000 0.000000 0.000000
# 3 -0.007355 -0.006846 0.025266 0.000000 0.000000 0.000000
# 4 0.000000 0.000000 0.000000 0.047658 0.000000 0.000000
# 5 0.000000 0.000000 0.000000 0.000000 -0.000357 0.000000
# 6 0.000000 0.000000 0.000000 0.000000 0.000000 0.038039
#
#
# Mechanical properties :
#
#
# Convention : Reuss Voigt Hill
#
# Bulk Modulus (GPa) = 41.92209 46.79042 44.35625
# Shear Modulus (GPa) = 28.73882 -538.49012 -254.87565
#
# Velocity S-wave (km/s) = 3.52084 -15.24054 -10.48517
# Velocity P-wave (km/s) = 5.88313 17.01517 11.28948
#
# Compressibility (1/GPa) = 0.02385377
#
# Stress axis : x y z
#
# Youngs Moduli (GPa) = 97.80913 59.58984 39.57834
#
# Poissons Ratio (x) = 0.00052 0.29108
# Poissons Ratio (y) = 0.00085 0.27094
# Poissons Ratio (z) = 0.71935 0.40793
#
# Static dielectric constant tensor:
#      x y z
#    x 2.148700 0.000000 0.000000 
#    y 0.000000 1.946240 0.000000 
#    z 0.000000 0.000000 1.966280 
# 
# From -- ./inp_files/11275.got.cif
#   From: 2010.05.17/outbox.cif.g08.bks.cpg/sg46_6_cif.got.tgz:11275.got - 2010.06.03 19:58:25.
