data_PCOD9380039
_publ_section_title
;
Structure prediction by ZEFSAII (Michael W. Deem and Ramdas Pophale) SiO2 
 PCOD9380039
Probable space group: I M A 2
;
_chemical_formula_sum "Si O2"
_cell_formula_units_Z 60
_cell_length_a 12.469568
_cell_length_b 28.687021
_cell_length_c 8.725159
_cell_angle_alpha 90.000000
_cell_angle_beta 90.000000
_cell_angle_gamma 90.000000
_cell_volume 3121.118150
_symmetry_space_group_name_H-M "I M A 2"
_symmetry_group_IT_number 46
_symmetry_cell_setting 'orthorhombic'
loop_
_space_group_symop_operation_xyz
x,y,z
-x,-y,z
1/2-x,y,z
1/2+x,-y,z
1/2+x,1/2+y,1/2+z
1/2-x,1/2-y,1/2+z
-x,1/2+y,1/2+z
x,1/2-y,1/2+z
loop_
_atom_site_type_symbol
_atom_site_label
_atom_site_fract_x
_atom_site_fract_y
_atom_site_fract_z
Si Si1 0.124882 0.315564 0.564140
Si Si2 0.129665 0.807462 0.807431
Si Si3 0.621814 0.074114 0.167548
Si Si4 0.880168 0.922424 0.570764
Si Si5 0.456688 0.756855 0.531778
Si Si6 0.498327 0.651624 0.858851
Si Si7 0.500000 0.500000 0.872383
Si Si8 0.506274 0.893955 0.874201
O O1 0.250000 0.312023 0.568856
O O2 0.076074 0.328442 0.728399
O O3 0.071880 0.267070 0.512318
O O4 0.088129 0.357627 0.453711
O O5 0.250000 0.807288 0.751494
O O6 0.061774 0.772102 0.705095
O O7 0.082020 0.858910 0.803004
O O8 0.120854 0.784765 0.976166
O O9 0.750000 0.073066 0.143539
O O10 0.585939 0.118464 0.270948
O O11 0.577717 0.030424 0.264112
O O12 0.555296 0.077976 0.008002
O O13 0.750000 0.921308 0.573325
O O14 0.931163 0.878281 0.479279
O O15 0.931522 0.921268 0.741303
O O16 0.926820 0.966579 0.477741
O O17 0.443346 0.804907 0.441598
#
# Coordination Sequence:
#
# PCOD9380039 Si02
#       8
#     8   8   8   8   8   8   4   8
#     4  10  21  37  57  81 120 166 204 247 295 342
#     4  11  22  37  56  81 122 164 200 250 298 337
#     4  10  22  43  68  89 120 161 196 248 308 364
#     4  11  22  41  67  92 124 156 190 253 315 361
#     4  11  21  38  51  85 120 155 211 251 285 352
#     4  10  21  39  58  86 119 156 210 252 289 368
#     4  10  24  44  66  98 124 146 202 242 298 394
#     4  10  22  40  60  93 123 151 209 244 293 366
#
# _framework density 19.223880999999999
#
# number of rings (size 3 to 8) (size 9 to 14) (size 15 to 20)
#    0.000    1.600    2.667    2.000    0.000    2.667 
#    0.000    5.333    0.000    0.000    0.000    0.000 
#    0.000    0.000    0.000    0.000    0.000    0.000 
#
# Total GULP energy -167408.196297 kJ/mol
# GULP energy per Si atom -5580.273210 kJ/mol
# Density = 1.918013 g / cm^3
# Si number density = 19.223881 Si / 1000 Ang^3
#
#
#
# Elastic Constant Matrix: (Units=GPa)
#
#
# Indices 1 2 3 4 5 6 
#
# 1 96.6541 28.0770 23.4607 0.0271 0.0000 -0.0002
# 2 28.0770 80.4370 33.7665 0.0075 0.0001 -0.0001
# 3 23.4607 33.7665 94.7982 0.0643 0.0000 0.0001
# 4 0.0271 0.0075 0.0643 124.6724 -0.0129 -0.0062
# 5 0.0000 0.0001 0.0000 -0.0129 13.9239 -0.0002
# 6 -0.0002 -0.0001 0.0001 -0.0062 -0.0002 4.7494
#
#
#
# Elastic Compliance Matrix: (Units=1/GPa)
#
#
# Indices 1 2 3 4 5 6 
#
# 1 0.011742 -0.003385 -0.001700 -0.000001 0.000000 0.000000
# 2 -0.003385 0.015594 -0.004717 0.000002 0.000000 0.000000
# 3 -0.001700 -0.004717 0.012650 -0.000006 0.000000 -0.000001
# 4 -0.000001 0.000002 -0.000006 0.008021 0.000007 0.000010
# 5 0.000000 0.000000 0.000000 0.000007 0.071819 0.000003
# 6 0.000000 0.000000 -0.000001 0.000010 0.000003 0.210551
#
#
# Mechanical properties :
#
#
# Convention : Reuss Voigt Hill
#
# Bulk Modulus (GPa) = 49.06372 49.16641 49.11506
# Shear Modulus (GPa) = 14.01448 41.10817 27.56133
#
# Velocity S-wave (km/s) = 2.70296 4.62929 3.79053
# Velocity P-wave (km/s) = 5.94298 7.36240 6.69044
#
# Compressibility (1/GPa) = 0.02038166
#
# Stress axis : x y z
#
# Youngs Moduli (GPa) = 85.16328 64.12887 79.05423
#
# Poissons Ratio (x) = 0.21707 0.13441
# Poissons Ratio (y) = 0.28827 0.37287
# Poissons Ratio (z) = 0.14480 0.30247
#
# Static dielectric constant tensor:
#      x y z
#    x 1.641280 0.000000 0.000000 
#    y 0.000000 1.621430 -0.000020 
#    z 0.000000 -0.000020 1.726340 
# 
# From -- ./inp_files/4927.got.cif
#   From: 2010.05.17/outbox.cif.g08.bks.cpg/sg46_3_cif.got.tgz:4927.got - 2010.06.03 19:58:25.
