data_PCOD9380239
_publ_section_title
;
Structure prediction by ZEFSAII (Michael W. Deem and Ramdas Pophale) SiO2 
 PCOD9380239
Probable space group: I M A 2
;
_chemical_formula_sum "Si O2"
_cell_formula_units_Z 64
_cell_length_a 16.837442
_cell_length_b 13.429986
_cell_length_c 13.082500
_cell_angle_alpha 90.000000
_cell_angle_beta 90.000000
_cell_angle_gamma 90.000000
_cell_volume 2958.301380
_symmetry_space_group_name_H-M "I M A 2"
_symmetry_group_IT_number 46
_symmetry_cell_setting 'orthorhombic'
loop_
_space_group_symop_operation_xyz
x,y,z
-x,-y,z
1/2-x,y,z
1/2+x,-y,z
1/2+x,1/2+y,1/2+z
1/2-x,1/2-y,1/2+z
-x,1/2+y,1/2+z
x,1/2-y,1/2+z
loop_
_atom_site_type_symbol
_atom_site_label
_atom_site_fract_x
_atom_site_fract_y
_atom_site_fract_z
Si Si1 0.337390 0.406149 0.105540
Si Si2 0.157786 0.535358 0.638821
Si Si3 0.010184 0.114978 0.485878
Si Si4 0.338836 0.207578 0.821658
Si Si5 0.060572 0.117134 0.262357
Si Si6 0.433349 0.764882 0.136321
Si Si7 0.090013 0.034579 0.932309
Si Si8 0.156544 0.594553 0.244041
O O1 0.250000 0.400249 0.059723
O O2 0.339637 0.344118 0.210357
O O3 0.350029 0.518387 0.147935
O O4 0.401899 0.364966 0.028701
O O5 0.250000 0.529556 0.669105
O O6 0.096381 0.484713 0.718329
O O7 0.130516 0.648489 0.618347
O O8 0.141927 0.477453 0.533366
O O9 0.007173 0.113715 0.363991
O O10 0.954186 0.196035 0.539193
O O11 0.000000 0.000000 0.519985
O O12 0.250000 0.196301 0.863803
O O13 0.364250 0.318789 0.799363
O O14 0.401394 0.146561 0.890004
O O15 0.011782 0.179104 0.177735
O O16 0.397596 0.689290 0.220119
O O17 0.125346 0.964254 0.843073
O O18 0.000000 0.000000 0.952812
O O19 0.250000 0.618430 0.256036
#
# Coordination Sequence:
#
# PCOD9380239 Si02
#       8
#     8   8   8   8   8   8   8   8
#     4   9  19  38  64  97 133 169 222 286 351 416
#     4  12  28  50  69  98 147 196 241 299 375 453
#     4  12  25  44  69 104 137 181 236 298 357 436
#     4  10  21  39  66 101 134 174 227 289 361 427
#     4  12  27  45  68 102 143 188 236 298 361 440
#     4  12  25  44  73 101 137 188 244 300 365 436
#     4  11  23  40  72 106 138 178 238 304 367 439
#     4  10  21  40  68 104 140 176 231 298 361 432
#
# _framework density 21.634035999999998
#
# number of rings (size 3 to 8) (size 9 to 14) (size 15 to 20)
#    0.000    1.000    2.500    5.250    7.000    1.000 
#    0.000    0.000    0.000    0.000    0.000    0.000 
#    0.000    0.000    0.000    0.000    0.000    0.000 
#
# Total GULP energy -178865.251693 kJ/mol
# GULP energy per Si atom -5589.539115 kJ/mol
# Density = 2.158480 g / cm^3
# Si number density = 21.634036 Si / 1000 Ang^3
#
#
#
# Elastic Constant Matrix: (Units=GPa)
#
#
# Indices 1 2 3 4 5 6 
#
# 1 85.7427 23.3341 19.2656 0.0000 0.0000 0.0000
# 2 23.3341 103.3116 26.9817 0.0000 0.0000 0.0000
# 3 19.2656 26.9817 81.1142 0.0000 0.0000 0.0000
# 4 0.0000 0.0000 0.0000 25.0428 0.0000 0.0000
# 5 0.0000 0.0000 0.0000 0.0000 28.4775 0.0000
# 6 0.0000 0.0000 0.0000 0.0000 0.0000 25.4778
#
#
#
# Elastic Compliance Matrix: (Units=1/GPa)
#
#
# Indices 1 2 3 4 5 6 
#
# 1 0.012799 -0.002296 -0.002276 0.000000 0.000000 0.000000
# 2 -0.002296 0.011012 -0.003118 0.000000 0.000000 0.000000
# 3 -0.002276 -0.003118 0.013906 0.000000 0.000000 0.000000
# 4 0.000000 0.000000 0.000000 0.039932 0.000000 0.000000
# 5 0.000000 0.000000 0.000000 0.000000 0.035115 0.000000
# 6 0.000000 0.000000 0.000000 0.000000 0.000000 0.039250
#
#
# Mechanical properties :
#
#
# Convention : Reuss Voigt Hill
#
# Bulk Modulus (GPa) = 44.76856 45.48125 45.12490
# Shear Modulus (GPa) = 28.59748 29.17208 28.88478
#
# Velocity S-wave (km/s) = 3.63970 3.67609 3.65794
# Velocity P-wave (km/s) = 6.19692 6.25194 6.22449
#
# Compressibility (1/GPa) = 0.02233711
#
# Stress axis : x y z
#
# Youngs Moduli (GPa) = 78.13012 90.80695 71.91155
#
# Poissons Ratio (x) = 0.20853 0.16368
# Poissons Ratio (y) = 0.17942 0.22420
# Poissons Ratio (z) = 0.17783 0.28311
#
# Static dielectric constant tensor:
#      x y z
#    x 1.790810 0.000000 0.000000 
#    y 0.000000 1.827330 0.000000 
#    z 0.000000 0.000000 1.758590 
# 
# From -- ./inp_files/11979.got.cif
#   From: 2010.05.17/outbox.cif.g08.bks.cpg/sg46_6_cif.got.tgz:11979.got - 2010.06.03 19:58:25.
