data_PCOD9380299
_publ_section_title
;
Structure prediction by ZEFSAII (Michael W. Deem and Ramdas Pophale) SiO2 
 PCOD9380299
Probable space group: I M A 2
;
_chemical_formula_sum "Si O2"
_cell_formula_units_Z 24
_cell_length_a 16.790256
_cell_length_b 5.513645
_cell_length_c 7.734739
_cell_angle_alpha 90.000000
_cell_angle_beta 90.000000
_cell_angle_gamma 90.000000
_cell_volume 716.047416
_symmetry_space_group_name_H-M "I M A 2"
_symmetry_group_IT_number 46
_symmetry_cell_setting 'orthorhombic'
loop_
_space_group_symop_operation_xyz
x,y,z
-x,-y,z
1/2-x,y,z
1/2+x,-y,z
1/2+x,1/2+y,1/2+z
1/2-x,1/2-y,1/2+z
-x,1/2+y,1/2+z
x,1/2-y,1/2+z
loop_
_atom_site_type_symbol
_atom_site_label
_atom_site_fract_x
_atom_site_fract_y
_atom_site_fract_z
Si Si1 0.574072 0.269598 0.750000
Si Si2 0.750000 0.258693 0.762639
Si Si3 0.750000 0.856804 0.574884
Si Si4 0.576986 0.769228 0.976693
O O1 0.663219 0.280343 0.673029
O O2 0.575000 0.516235 0.867325
O O3 0.423921 0.982241 0.861450
O O4 0.499029 0.261202 0.613652
O O5 0.750000 0.966743 0.771999
O O6 0.750000 0.439740 0.921845
O O7 0.836738 0.740585 0.563785
#
# Coordination Sequence:
#
# PCOD9380299 Si02
#       4
#     8   4   4   8
#     4   9  18  36  61  92 129 175 224 280 345 417
#     4  10  21  40  67 100 140 184 236 294 360 428
#     4  10  21  40  69 106 142 184 240 302 362 428
#     4   9  18  36  62  91 130 175 226 282 346 415
#
# _framework density 33.517333999999998
#
# number of rings (size 3 to 8) (size 9 to 14) (size 15 to 20)
#    0.000    2.667    0.000    1.000    0.000    0.000 
#    0.000   40.000    0.000   56.000    0.000    0.000 
#    0.000   32.000    0.000    0.000    0.000    0.000 
#
# Total GULP energy -66895.758038 kJ/mol
# GULP energy per Si atom -5574.646503 kJ/mol
# Density = 3.344105 g / cm^3
# Si number density = 33.517334 Si / 1000 Ang^3
#
#
#
# Elastic Constant Matrix: (Units=GPa)
#
#
# Indices 1 2 3 4 5 6 
#
# 1 475.9063 88.1784 148.1900 0.0000 0.0000 0.0000
# 2 88.1784 394.9309 167.8560 0.0000 0.0000 0.0000
# 3 148.1900 167.8560 134.0838 0.0000 0.0000 0.0000
# 4 0.0000 0.0000 0.0000 147.2144 0.0000 0.0000
# 5 0.0000 0.0000 0.0000 0.0000 100.3098 0.0000
# 6 0.0000 0.0000 0.0000 0.0000 0.0000 23.9561
#
#
#
# Elastic Compliance Matrix: (Units=1/GPa)
#
#
# Indices 1 2 3 4 5 6 
#
# 1 0.003834 0.002019 -0.006765 0.000000 0.000000 0.000000
# 2 0.002019 0.006475 -0.010337 0.000000 0.000000 0.000000
# 3 -0.006765 -0.010337 0.027875 0.000000 0.000000 0.000000
# 4 0.000000 0.000000 0.000000 0.006793 0.000000 0.000000
# 5 0.000000 0.000000 0.000000 0.000000 0.009969 0.000000
# 6 0.000000 0.000000 0.000000 0.000000 0.000000 0.041743
#
#
# Mechanical properties :
#
#
# Convention : Reuss Voigt Hill
#
# Bulk Modulus (GPa) = 124.71579 201.48552 163.10066
# Shear Modulus (GPa) = 38.60189 94.34250 66.47220
#
# Velocity S-wave (km/s) = 3.39735 5.31117 4.45817
# Velocity P-wave (km/s) = 7.25806 9.89220 8.67569
#
# Compressibility (1/GPa) = 0.00801823
#
# Stress axis : x y z
#
# Youngs Moduli (GPa) = 260.85656 154.44196 35.87386
#
# Poissons Ratio (x) = -0.31185 0.24267
# Poissons Ratio (y) = -0.52672 0.37084
# Poissons Ratio (z) = 1.76460 1.59653
#
# Static dielectric constant tensor:
#      x y z
#    x 2.589310 0.000000 0.000000 
#    y 0.000000 2.869790 0.000000 
#    z 0.000000 0.000000 3.010390 
# 
# From -- ./inp_files/5144.got.cif
#   From: 2010.05.17/outbox.cif.g08.bks.cpg/sg46_3_cif.got.tgz:5144.got - 2010.06.03 19:58:25.
