data_PCOD9380927
_publ_section_title
;
Structure prediction by ZEFSAII (Michael W. Deem and Ramdas Pophale) SiO2 
 PCOD9380927
Probable space group: I M A 2
;
_chemical_formula_sum "Si O2"
_cell_formula_units_Z 64
_cell_length_a 29.928440
_cell_length_b 11.159685
_cell_length_c 9.024042
_cell_angle_alpha 90.000000
_cell_angle_beta 90.000000
_cell_angle_gamma 90.000000
_cell_volume 3013.957501
_symmetry_space_group_name_H-M "I M A 2"
_symmetry_group_IT_number 46
_symmetry_cell_setting 'orthorhombic'
loop_
_space_group_symop_operation_xyz
x,y,z
-x,-y,z
1/2-x,y,z
1/2+x,-y,z
1/2+x,1/2+y,1/2+z
1/2-x,1/2-y,1/2+z
-x,1/2+y,1/2+z
x,1/2-y,1/2+z
loop_
_atom_site_type_symbol
_atom_site_label
_atom_site_fract_x
_atom_site_fract_y
_atom_site_fract_z
Si Si1 0.965764 0.646593 0.899650
Si Si2 0.347668 0.301875 0.597391
Si Si3 0.802957 0.095847 0.617462
Si Si4 0.931739 0.104345 0.341336
Si Si5 0.068960 0.353335 0.208606
Si Si6 0.364920 0.509224 0.361129
Si Si7 0.802111 0.888647 0.395029
Si Si8 0.117994 0.731712 0.567786
O O1 0.932233 0.540965 0.844593
O O2 0.949217 0.774901 0.843809
O O3 0.015422 0.631379 0.837748
O O4 0.966250 0.633440 0.076951
O O5 0.390833 0.223206 0.636435
O O6 0.358540 0.404843 0.480141
O O7 0.313510 0.211226 0.518025
O O8 0.329234 0.358834 0.747857
O O9 0.750000 0.118475 0.629123
O O10 0.821997 0.019311 0.755146
O O11 0.834625 0.211562 0.614819
O O12 0.811790 0.017037 0.470035
O O13 0.910788 0.163728 0.488771
O O14 0.906989 0.165096 0.202476
O O15 0.091702 0.474201 0.265130
O O16 0.372903 0.632481 0.443871
O O17 0.750000 0.885010 0.359340
#
# Coordination Sequence:
#
# PCOD9380927 Si02
#       8
#     8   8   8   8   8   8   8   8
#     4  11  25  44  73 107 140 179 233 291 345 426
#     4  12  22  38  68 100 136 187 224 287 364 423
#     4  11  26  48  71  98 137 188 247 301 349 421
#     4  11  26  47  73 100 144 183 234 289 348 417
#     4  12  22  43  70 105 141 178 231 283 359 421
#     4  12  25  42  71 104 138 186 235 293 352 429
#     4  11  23  40  64  98 139 180 235 299 357 418
#     4  12  26  48  71 100 140 189 234 287 357 419
#
# _framework density 21.234541
#
# number of rings (size 3 to 8) (size 9 to 14) (size 15 to 20)
#    0.000    0.500    5.000    2.625    3.500    2.500 
#    0.000    0.000    0.000    0.000    0.000    0.000 
#    0.000    0.000    0.000    0.000    0.000    0.000 
#
# Total GULP energy -179056.164086 kJ/mol
# GULP energy per Si atom -5595.505128 kJ/mol
# Density = 2.118621 g / cm^3
# Si number density = 21.234541 Si / 1000 Ang^3
#
#
#
# Elastic Constant Matrix: (Units=GPa)
#
#
# Indices 1 2 3 4 5 6 
#
# 1 67.7324 27.1654 29.7414 0.0000 0.0000 0.0000
# 2 27.1654 63.4401 24.4556 0.0000 0.0000 0.0000
# 3 29.7414 24.4556 112.9582 0.0000 0.0000 0.0000
# 4 0.0000 0.0000 0.0000 46.9969 0.0000 0.0000
# 5 0.0000 0.0000 0.0000 0.0000 28.4463 0.0000
# 6 0.0000 0.0000 0.0000 0.0000 0.0000 33.3849
#
#
#
# Elastic Compliance Matrix: (Units=1/GPa)
#
#
# Indices 1 2 3 4 5 6 
#
# 1 0.019043 -0.006788 -0.003544 0.000000 0.000000 0.000000
# 2 -0.006788 0.019618 -0.002460 0.000000 0.000000 0.000000
# 3 -0.003544 -0.002460 0.010319 0.000000 0.000000 0.000000
# 4 0.000000 0.000000 0.000000 0.021278 0.000000 0.000000
# 5 0.000000 0.000000 0.000000 0.000000 0.035154 0.000000
# 6 0.000000 0.000000 0.000000 0.000000 0.000000 0.029954
#
#
# Mechanical properties :
#
#
# Convention : Reuss Voigt Hill
#
# Bulk Modulus (GPa) = 42.74471 45.20616 43.97544
# Shear Modulus (GPa) = 29.63007 32.61685 31.12346
#
# Velocity S-wave (km/s) = 3.73952 3.92347 3.83260
# Velocity P-wave (km/s) = 6.23048 6.46993 6.35133
#
# Compressibility (1/GPa) = 0.02339471
#
# Stress axis : x y z
#
# Youngs Moduli (GPa) = 52.51358 50.97398 96.91211
#
# Poissons Ratio (x) = 0.34601 0.34348
# Poissons Ratio (y) = 0.35646 0.23841
# Poissons Ratio (z) = 0.18612 0.12540
#
# Static dielectric constant tensor:
#      x y z
#    x 1.740950 0.000000 0.000000 
#    y 0.000000 1.778340 0.000000 
#    z 0.000000 0.000000 1.760070 
# 
# From -- ./inp_files/8511.got.cif
#   From: 2010.05.17/outbox.cif.g08.bks.cpg/sg46_5_cif.got.tgz:8511.got - 2010.06.03 19:58:25.
