data_PCOD9380757
_publ_section_title
;
Structure prediction by ZEFSAII (Michael W. Deem and Ramdas Pophale) SiO2 
 PCOD9380757
Probable space group: I M A 2
;
_chemical_formula_sum "Si O2"
_cell_formula_units_Z 60
_cell_length_a 26.063152
_cell_length_b 9.160582
_cell_length_c 11.823008
_cell_angle_alpha 90.000000
_cell_angle_beta 90.000000
_cell_angle_gamma 90.000000
_cell_volume 2822.786208
_symmetry_space_group_name_H-M "I M A 2"
_symmetry_group_IT_number 46
_symmetry_cell_setting 'orthorhombic'
loop_
_space_group_symop_operation_xyz
x,y,z
-x,-y,z
1/2-x,y,z
1/2+x,-y,z
1/2+x,1/2+y,1/2+z
1/2-x,1/2-y,1/2+z
-x,1/2+y,1/2+z
x,1/2-y,1/2+z
loop_
_atom_site_type_symbol
_atom_site_label
_atom_site_fract_x
_atom_site_fract_y
_atom_site_fract_z
Si Si1 0.540892 0.210429 0.098730
Si Si2 0.405552 0.019214 0.939235
Si Si3 0.310444 0.931930 0.318269
Si Si4 0.500000 0.000000 0.288663
Si Si5 0.366783 0.851195 0.726905
Si Si6 0.691673 0.599057 0.587616
Si Si7 0.338670 0.070357 0.558980
Si Si8 0.945756 0.659417 0.977517
O O1 0.517383 0.131214 0.208428
O O2 0.592448 0.289126 0.137480
O O3 0.498873 0.316225 0.043834
O O4 0.557166 0.085384 0.010411
O O5 0.428777 0.180748 0.934690
O O6 0.395583 0.949889 0.818278
O O7 0.351243 0.032768 0.005093
O O8 0.250000 0.899607 0.319713
O O9 0.341034 0.784520 0.290774
O O10 0.319999 0.043128 0.214184
O O11 0.324896 0.005036 0.436943
O O12 0.455051 0.054724 0.371048
O O13 0.328110 0.952955 0.656369
O O14 0.750000 0.554093 0.559072
O O15 0.687530 0.774002 0.579744
O O16 0.399730 0.103453 0.555333
#
# Coordination Sequence:
#
# PCOD9380757 Si02
#       8
#     8   8   8   4   8   8   8   8
#     4  12  23  44  64  98 138 184 235 284 347 410
#     4  11  24  44  68 101 142 183 233 291 345 418
#     4  11  25  47  73 103 143 185 233 298 362 426
#     4  12  24  40  68  90 138 182 232 292 338 408
#     4  12  26  43  72 102 145 184 232 296 353 425
#     4  10  24  46  74 100 136 184 232 289 360 425
#     4  11  26  45  71 104 140 181 239 293 350 429
#     4  11  25  42  67  99 136 190 238 282 352 412
#
# _framework density 21.255595
#
# number of rings (size 3 to 8) (size 9 to 14) (size 15 to 20)
#    0.000    0.800    2.667    3.600    5.600    1.600 
#    0.000    0.000    0.000    0.000    0.000    0.000 
#    0.000    0.000    0.000    0.000    0.000    0.000 
#
# Total GULP energy -167950.556650 kJ/mol
# GULP energy per Si atom -5598.351888 kJ/mol
# Density = 2.120722 g / cm^3
# Si number density = 21.255595 Si / 1000 Ang^3
#
#
#
# Elastic Constant Matrix: (Units=GPa)
#
#
# Indices 1 2 3 4 5 6 
#
# 1 57.1392 1.8859 1.4791 0.0000 0.0000 0.0000
# 2 1.8859 84.6817 29.5087 0.0000 0.0000 0.0000
# 3 1.4791 29.5087 76.9199 0.0000 0.0000 0.0000
# 4 0.0000 0.0000 0.0000 -0.0497 0.0000 0.0000
# 5 0.0000 0.0000 0.0000 0.0000 28.0991 0.0000
# 6 0.0000 0.0000 0.0000 0.0000 0.0000 10.1278
#
#
#
# Elastic Compliance Matrix: (Units=1/GPa)
#
#
# Indices 1 2 3 4 5 6 
#
# 1 0.017517 -0.000315 -0.000216 0.000000 0.000000 0.000000
# 2 -0.000315 0.013637 -0.005225 0.000000 0.000000 0.000000
# 3 -0.000216 -0.005225 0.015009 0.000000 0.000000 0.000000
# 4 0.000000 0.000000 0.000000-20.107767 0.000000 0.000000
# 5 0.000000 0.000000 0.000000 0.000000 0.035588 0.000000
# 6 0.000000 0.000000 0.000000 0.000000 0.000000 0.098738
#
#
# Mechanical properties :
#
#
# Convention : Reuss Voigt Hill
#
# Bulk Modulus (GPa) = 28.85953 31.60981 30.23467
# Shear Modulus (GPa) = -0.25120 20.02659 9.88769
#
# Velocity S-wave (km/s) = -0.34415 3.07282 2.15914
# Velocity P-wave (km/s) = 3.66728 5.24340 4.52450
#
# Compressibility (1/GPa) = 0.03465060
#
# Stress axis : x y z
#
# Youngs Moduli (GPa) = 57.08710 73.33090 66.62531
#
# Poissons Ratio (x) = 0.02309 0.01440
# Poissons Ratio (y) = 0.01797 0.34815
# Poissons Ratio (z) = 0.01233 0.38319
#
# Static dielectric constant tensor:
#      x y z
#    x 1.785670 0.000000 0.000000 
#    y 0.000000 1.757740 0.000000 
#    z 0.000000 0.000000 1.726540 
# 
# From -- ./inp_files/13077.got.cif
#   From: 2010.05.17/outbox.cif.g08.bks.cpg/sg46_7_cif.got.tgz:13077.got - 2010.06.03 19:58:25.
