data_PCOD9380945
_publ_section_title
;
Structure prediction by ZEFSAII (Michael W. Deem and Ramdas Pophale) SiO2 
 PCOD9380945
Probable space group: I M A 2
;
_chemical_formula_sum "Si O2"
_cell_formula_units_Z 32
_cell_length_a 26.352379
_cell_length_b 6.739416
_cell_length_c 9.713298
_cell_angle_alpha 90.000000
_cell_angle_beta 90.000000
_cell_angle_gamma 90.000000
_cell_volume 1725.078273
_symmetry_space_group_name_H-M "I M A 2"
_symmetry_group_IT_number 46
_symmetry_cell_setting 'orthorhombic'
loop_
_space_group_symop_operation_xyz
x,y,z
-x,-y,z
1/2-x,y,z
1/2+x,-y,z
1/2+x,1/2+y,1/2+z
1/2-x,1/2-y,1/2+z
-x,1/2+y,1/2+z
x,1/2-y,1/2+z
loop_
_atom_site_type_symbol
_atom_site_label
_atom_site_fract_x
_atom_site_fract_y
_atom_site_fract_z
Si Si1 0.440068 0.970973 0.670460
Si Si2 0.610097 0.309398 0.446743
Si Si3 0.859035 0.698266 0.616651
Si Si4 0.190137 0.024231 0.391205
O O1 0.423898 0.830202 0.544084
O O2 0.419816 0.871946 0.810413
O O3 0.500000 0.000000 0.674458
O O4 0.409520 0.176782 0.652397
O O5 0.626404 0.503649 0.530654
O O6 0.659378 0.180846 0.405995
O O7 0.824528 0.840622 0.522266
O O8 0.830701 0.634046 0.755388
O O9 0.250000 0.993183 0.382872
#
# Coordination Sequence:
#
# PCOD9380945 Si02
#       4
#     8   8   8   8
#     4  11  26  42  69  96 130 174 212 266 325 378
#     4  11  24  46  63  97 133 165 221 268 309 391
#     4  11  23  45  63  98 132 163 222 267 311 391
#     4  11  24  42  69  95 129 174 212 266 327 378
#
# _framework density 18.549883999999999
#
# number of rings (size 3 to 8) (size 9 to 14) (size 15 to 20)
#    0.000    1.000    5.000    0.750    3.500    2.000 
#    0.000    0.000    0.000    0.000    0.000    0.000 
#    0.000    0.000    0.000    0.000    0.000    0.000 
#
# Total GULP energy -89487.260109 kJ/mol
# GULP energy per Si atom -5592.953757 kJ/mol
# Density = 1.850766 g / cm^3
# Si number density = 18.549884 Si / 1000 Ang^3
#
#
#
# Elastic Constant Matrix: (Units=GPa)
#
#
# Indices 1 2 3 4 5 6 
#
# 1 216.2802 94.6493 85.0214 0.0000 0.0000 0.0000
# 2 94.6493 126.6126 64.1717 0.0000 0.0000 0.0000
# 3 85.0214 64.1717 134.6921 0.0000 0.0000 0.0000
# 4 0.0000 0.0000 0.0000 44.8780 0.0000 0.0000
# 5 0.0000 0.0000 0.0000 0.0000 12.4375 0.0000
# 6 0.0000 0.0000 0.0000 0.0000 0.0000 8.1837
#
#
#
# Elastic Compliance Matrix: (Units=1/GPa)
#
#
# Indices 1 2 3 4 5 6 
#
# 1 0.007571 -0.004268 -0.002745 0.000000 0.000000 0.000000
# 2 -0.004268 0.012818 -0.003413 0.000000 0.000000 0.000000
# 3 -0.002745 -0.003413 0.010783 0.000000 0.000000 0.000000
# 4 0.000000 0.000000 0.000000 0.022283 0.000000 0.000000
# 5 0.000000 0.000000 0.000000 0.000000 0.080402 0.000000
# 6 0.000000 0.000000 0.000000 0.000000 0.000000 0.122194
#
#
# Mechanical properties :
#
#
# Convention : Reuss Voigt Hill
#
# Bulk Modulus (GPa) = 96.90257 107.25220 102.07739
# Shear Modulus (GPa) = 17.83521 28.68267 23.25894
#
# Velocity S-wave (km/s) = 3.10413 3.93650 3.54483
# Velocity P-wave (km/s) = 8.07464 8.86595 8.47953
#
# Compressibility (1/GPa) = 0.01031964
#
# Stress axis : x y z
#
# Youngs Moduli (GPa) = 132.08931 78.01227 92.73499
#
# Poissons Ratio (x) = 0.33295 0.25459
# Poissons Ratio (y) = 0.56375 0.31651
# Poissons Ratio (z) = 0.36264 0.26626
#
# Static dielectric constant tensor:
#      x y z
#    x 1.587140 0.000000 0.000000 
#    y 0.000000 1.623680 0.000000 
#    z 0.000000 0.000000 1.626940 
# 
# From -- ./inp_files/7100.got.cif
#   From: 2010.05.17/outbox.cif.g08.bks.cpg/sg46_4_cif.got.tgz:7100.got - 2010.06.03 19:58:25.
