data_PCOD9380286
_publ_section_title
;
Structure prediction by ZEFSAII (Michael W. Deem and Ramdas Pophale) SiO2 
 PCOD9380286
Probable space group: I M A 2
;
_chemical_formula_sum "Si O2"
_cell_formula_units_Z 64
_cell_length_a 16.699722
_cell_length_b 15.568308
_cell_length_c 12.295942
_cell_angle_alpha 90.000000
_cell_angle_beta 90.000000
_cell_angle_gamma 90.000000
_cell_volume 3196.777887
_symmetry_space_group_name_H-M "I M A 2"
_symmetry_group_IT_number 46
_symmetry_cell_setting 'orthorhombic'
loop_
_space_group_symop_operation_xyz
x,y,z
-x,-y,z
1/2-x,y,z
1/2+x,-y,z
1/2+x,1/2+y,1/2+z
1/2-x,1/2-y,1/2+z
-x,1/2+y,1/2+z
x,1/2-y,1/2+z
loop_
_atom_site_type_symbol
_atom_site_label
_atom_site_fract_x
_atom_site_fract_y
_atom_site_fract_z
Si Si1 0.842168 0.567365 0.346700
Si Si2 0.020586 0.099515 0.003834
Si Si3 0.563664 0.673565 0.727205
Si Si4 0.342373 0.325962 0.123126
Si Si5 0.843927 0.396834 0.237165
Si Si6 0.071353 0.761623 0.865489
Si Si7 0.342982 0.889132 0.491679
Si Si8 0.417726 0.441852 0.937873
O O1 0.750000 0.560110 0.383658
O O2 0.896125 0.610371 0.438294
O O3 0.843469 0.618563 0.233673
O O4 0.875657 0.474093 0.311279
O O5 0.961112 0.168991 0.951319
O O6 0.025757 0.118136 0.131107
O O7 0.000000 0.000000 0.989368
O O8 0.627932 0.733152 0.664615
O O9 0.499234 0.736500 0.783150
O O10 0.588245 0.611045 0.825865
O O11 0.250000 0.323635 0.082865
O O12 0.399838 0.373242 0.034995
O O13 0.750000 0.414769 0.226207
O O14 0.860383 0.308068 0.296078
O O15 0.875915 0.394676 0.114997
O O16 0.104639 0.677696 0.924227
O O17 0.250000 0.861594 0.493555
O O18 0.350596 0.984647 0.445181
O O19 0.500000 0.500000 0.945795
#
# Coordination Sequence:
#
# PCOD9380286 Si02
#       8
#     8   8   8   8   8   8   8   8
#     4  10  21  41  65  94 126 166 219 274 332 397
#     4  12  25  43  66  96 132 179 218 272 335 409
#     4  12  27  43  65  99 139 179 222 284 347 410
#     4  11  25  44  71 102 134 175 233 293 352 417
#     4  10  21  40  65  94 130 167 220 279 333 402
#     4  12  23  41  67  99 128 177 224 281 339 404
#     4  11  24  43  68  98 134 176 227 285 346 412
#     4  12  25  45  71 101 136 184 234 292 346 423
#
# _framework density 20.020159
#
# number of rings (size 3 to 8) (size 9 to 14) (size 15 to 20)
#    0.000    0.750    5.000    2.625    1.750    2.000 
#    0.000    0.000    0.000    0.000    0.000    0.000 
#    0.000    0.000    0.000    0.000    0.000    0.000 
#
# Total GULP energy -178669.892772 kJ/mol
# GULP energy per Si atom -5583.434149 kJ/mol
# Density = 1.997459 g / cm^3
# Si number density = 20.020159 Si / 1000 Ang^3
#
#
#
# Elastic Constant Matrix: (Units=GPa)
#
#
# Indices 1 2 3 4 5 6 
#
# 1 48.4008 22.6831 31.8074 0.0000 0.0000 0.0000
# 2 22.6831 94.4566 41.6051 0.0000 0.0000 0.0000
# 3 31.8074 41.6051 111.2013 0.0000 0.0000 0.0000
# 4 0.0000 0.0000 0.0000 38.7623 0.0000 0.0000
# 5 0.0000 0.0000 0.0000 0.0000 15.4594 0.0000
# 6 0.0000 0.0000 0.0000 0.0000 0.0000 29.4460
#
#
#
# Elastic Compliance Matrix: (Units=1/GPa)
#
#
# Indices 1 2 3 4 5 6 
#
# 1 0.026435 -0.003613 -0.006209 0.000000 0.000000 0.000000
# 2 -0.003613 0.013170 -0.003894 0.000000 0.000000 0.000000
# 3 -0.006209 -0.003894 0.012226 0.000000 0.000000 0.000000
# 4 0.000000 0.000000 0.000000 0.025798 0.000000 0.000000
# 5 0.000000 0.000000 0.000000 0.000000 0.064686 0.000000
# 6 0.000000 0.000000 0.000000 0.000000 0.000000 0.033960
#
#
# Mechanical properties :
#
#
# Convention : Reuss Voigt Hill
#
# Bulk Modulus (GPa) = 40.98812 49.58333 45.28573
# Shear Modulus (GPa) = 23.60278 27.26442 25.43360
#
# Velocity S-wave (km/s) = 3.43731 3.69433 3.56813
# Velocity P-wave (km/s) = 6.02257 6.55880 6.29640
#
# Compressibility (1/GPa) = 0.02439731
#
# Stress axis : x y z
#
# Youngs Moduli (GPa) = 37.82907 75.93221 81.79507
#
# Poissons Ratio (x) = 0.27435 0.50790
# Poissons Ratio (y) = 0.13668 0.31850
# Poissons Ratio (z) = 0.23490 0.29567
#
# Static dielectric constant tensor:
#      x y z
#    x 1.733320 0.000000 0.000000 
#    y 0.000000 1.729060 0.000000 
#    z 0.000000 0.000000 1.683630 
# 
# From -- ./inp_files/11980.got.cif
#   From: 2010.05.17/outbox.cif.g08.bks.cpg/sg46_6_cif.got.tgz:11980.got - 2010.06.03 19:58:25.
