data_PCOD9380459
_publ_section_title
;
Structure prediction by ZEFSAII (Michael W. Deem and Ramdas Pophale) SiO2 
 PCOD9380459
Probable space group: I M A 2
;
_chemical_formula_sum "Si O2"
_cell_formula_units_Z 40
_cell_length_a 21.545130
_cell_length_b 8.446989
_cell_length_c 10.560738
_cell_angle_alpha 90.000000
_cell_angle_beta 90.000000
_cell_angle_gamma 90.000000
_cell_volume 1921.964297
_symmetry_space_group_name_H-M "I M A 2"
_symmetry_group_IT_number 46
_symmetry_cell_setting 'orthorhombic'
loop_
_space_group_symop_operation_xyz
x,y,z
-x,-y,z
1/2-x,y,z
1/2+x,-y,z
1/2+x,1/2+y,1/2+z
1/2-x,1/2-y,1/2+z
-x,1/2+y,1/2+z
x,1/2-y,1/2+z
loop_
_atom_site_type_symbol
_atom_site_label
_atom_site_fract_x
_atom_site_fract_y
_atom_site_fract_z
Si Si1 0.250000 0.949341 0.745520
Si Si2 0.250000 0.732393 0.990712
Si Si3 0.386295 0.905195 0.457700
Si Si4 0.383546 0.086288 0.707741
Si Si5 0.071060 0.061428 0.214718
Si Si6 0.931562 0.067903 0.960280
O O1 0.309370 0.058785 0.713279
O O2 0.250000 0.884605 0.892248
O O3 0.250000 0.796998 0.646571
O O4 0.185211 0.648799 0.956222
O O5 0.427660 0.751678 0.429455
O O6 0.404574 0.973055 0.593687
O O7 0.396551 0.029647 0.347501
O O8 0.414890 0.256080 0.683442
O O9 0.403373 0.026549 0.844811
O O10 0.000000 0.000000 0.229440
O O11 0.099260 0.961298 0.097296
O O12 0.000000 0.000000 0.973968
#
# Coordination Sequence:
#
# PCOD9380459 Si02
#       6
#     4   4   8   8   8   8
#     4  10  22  41  67 101 133 172 218 270 332 395
#     4  10  22  39  67 101 131 170 220 264 330 395
#     4  11  23  42  67  97 131 171 219 274 325 398
#     4  11  23  42  66  97 135 169 220 276 331 393
#     4  11  25  43  63  96 133 175 223 274 332 386
#     4  11  23  40  64  95 127 174 223 269 327 391
#
# _framework density 20.81204
#
# number of rings (size 3 to 8) (size 9 to 14) (size 15 to 20)
#    0.000    1.200    2.000    3.600    2.800    4.800 
#    0.000    4.000    0.000    0.000    0.000    0.000 
#    0.000    0.000    0.000    0.000    0.000    0.000 
#
# Total GULP energy -111504.297417 kJ/mol
# GULP energy per Si atom -5575.214871 kJ/mol
# Density = 2.076467 g / cm^3
# Si number density = 20.812040 Si / 1000 Ang^3
#
#
#
# Elastic Constant Matrix: (Units=GPa)
#
#
# Indices 1 2 3 4 5 6 
#
# 1 69.9580 21.7579 9.2783 0.0000 0.0000 0.0000
# 2 21.7579 83.2643 -17.5591 0.0000 0.0000 0.0000
# 3 9.2783 -17.5591 76.3735 0.0000 0.0000 0.0000
# 4 0.0000 0.0000 0.0000 40.4301 0.0000 0.0000
# 5 0.0000 0.0000 0.0000 0.0000 26.7376 0.0000
# 6 0.0000 0.0000 0.0000 0.0000 0.0000 22.6432
#
#
#
# Elastic Compliance Matrix: (Units=1/GPa)
#
#
# Indices 1 2 3 4 5 6 
#
# 1 0.016227 -0.004893 -0.003096 0.000000 0.000000 0.000000
# 2 -0.004893 0.014097 0.003836 0.000000 0.000000 0.000000
# 3 -0.003096 0.003836 0.014352 0.000000 0.000000 0.000000
# 4 0.000000 0.000000 0.000000 0.024734 0.000000 0.000000
# 5 0.000000 0.000000 0.000000 0.000000 0.037400 0.000000
# 6 0.000000 0.000000 0.000000 0.000000 0.000000 0.044163
#
#
# Mechanical properties :
#
#
# Convention : Reuss Voigt Hill
#
# Bulk Modulus (GPa) = 27.49672 28.50557 28.00115
# Shear Modulus (GPa) = 29.17081 32.37010 30.77045
#
# Velocity S-wave (km/s) = 3.74790 3.94808 3.84929
# Velocity P-wave (km/s) = 5.65417 5.87448 5.76537
#
# Compressibility (1/GPa) = 0.03636797
#
# Stress axis : x y z
#
# Youngs Moduli (GPa) = 61.62643 70.93470 69.67883
#
# Poissons Ratio (x) = 0.34710 0.21575
# Poissons Ratio (y) = 0.30155 -0.26726
# Poissons Ratio (z) = 0.19082 -0.27208
#
# Static dielectric constant tensor:
#      x y z
#    x 1.757990 0.000000 0.000000 
#    y 0.000000 1.720520 0.000000 
#    z 0.000000 0.000000 1.771300 
# 
# From -- ./inp_files/7740.got.cif
#   From: 2010.05.17/outbox.cif.g08.bks.cpg/sg46_4_cif.got.tgz:7740.got - 2010.06.03 19:58:25.
