data_PCOD9380120
_publ_section_title
;
Structure prediction by ZEFSAII (Michael W. Deem and Ramdas Pophale) SiO2 
 PCOD9380120
Probable space group: I M A 2
;
_chemical_formula_sum "Si O2"
_cell_formula_units_Z 64
_cell_length_a 17.953061
_cell_length_b 6.941633
_cell_length_c 28.038168
_cell_angle_alpha 90.000000
_cell_angle_beta 90.000000
_cell_angle_gamma 90.000000
_cell_volume 3494.216331
_symmetry_space_group_name_H-M "I M A 2"
_symmetry_group_IT_number 46
_symmetry_cell_setting 'orthorhombic'
loop_
_space_group_symop_operation_xyz
x,y,z
-x,-y,z
1/2-x,y,z
1/2+x,-y,z
1/2+x,1/2+y,1/2+z
1/2-x,1/2-y,1/2+z
-x,1/2+y,1/2+z
x,1/2-y,1/2+z
loop_
_atom_site_type_symbol
_atom_site_label
_atom_site_fract_x
_atom_site_fract_y
_atom_site_fract_z
Si Si1 0.337535 0.260674 0.770190
Si Si2 0.163326 0.922090 0.353199
Si Si3 0.160989 0.674077 0.586184
Si Si4 0.839324 0.759990 0.921236
Si Si5 0.578491 0.928294 0.596484
Si Si6 0.576242 0.887618 0.015843
Si Si7 0.160490 0.370852 0.663893
Si Si8 0.588179 0.480144 0.338935
O O1 0.250000 0.205190 0.767701
O O2 0.343621 0.428305 0.809577
O O3 0.360540 0.344412 0.718982
O O4 0.384022 0.080507 0.790041
O O5 0.250000 0.860713 0.355897
O O6 0.112268 0.740211 0.343829
O O7 0.145543 0.045690 0.400581
O O8 0.250000 0.682896 0.582520
O O9 0.127784 0.536519 0.545313
O O10 0.140886 0.569522 0.636595
O O11 0.126189 0.884856 0.583026
O O12 0.750000 0.779438 0.925883
O O13 0.869481 0.905052 0.880932
O O14 0.881190 0.809621 0.969738
O O15 0.561432 0.791269 0.551300
O O16 0.623322 0.798959 0.633753
O O17 0.500000 0.000000 0.616643
O O18 0.500000 0.000000 0.004003
O O19 0.250000 0.354468 0.660928
O O20 0.500000 0.500000 0.343820
#
# Coordination Sequence:
#
# PCOD9380120 Si02
#       8
#     8   8   8   8   8   8   8   8
#     4   9  19  37  59  85 115 154 199 242 285 343
#     4   9  19  38  61  82 113 154 193 236 288 342
#     4  10  21  38  60  84 115 156 199 247 301 359
#     4  10  22  39  59  85 114 151 200 245 289 346
#     4  11  22  38  58  84 118 157 196 242 302 363
#     4  11  22  40  60  86 120 154 195 248 304 360
#     4   9  20  37  59  86 117 152 200 249 291 346
#     4  11  22  37  57  86 121 155 189 237 296 353
#
# _framework density 18.315982999999999
#
# number of rings (size 3 to 8) (size 9 to 14) (size 15 to 20)
#    0.000    2.000    1.250    3.000    0.000    6.000 
#    2.250    5.000    0.000    0.000    0.000    0.000 
#    0.000    0.000    0.000    0.000    0.000    0.000 
#
# Total GULP energy -178620.133946 kJ/mol
# GULP energy per Si atom -5581.879186 kJ/mol
# Density = 1.827429 g / cm^3
# Si number density = 18.315983 Si / 1000 Ang^3
#
#
#
# Elastic Constant Matrix: (Units=GPa)
#
#
# Indices 1 2 3 4 5 6 
#
# 1 86.8876 63.0513 42.9408 0.0000 0.0000 0.0000
# 2 63.0513 110.9519 28.9961 0.0000 0.0000 0.0000
# 3 42.9408 28.9961 94.7194 0.0000 0.0000 0.0000
# 4 0.0000 0.0000 0.0000 10.4629 0.0000 0.0000
# 5 0.0000 0.0000 0.0000 0.0000 16.9821 0.0000
# 6 0.0000 0.0000 0.0000 0.0000 0.0000 28.2625
#
#
#
# Elastic Compliance Matrix: (Units=1/GPa)
#
#
# Indices 1 2 3 4 5 6 
#
# 1 0.023245 -0.011365 -0.007059 0.000000 0.000000 0.000000
# 2 -0.011365 0.015353 0.000452 0.000000 0.000000 0.000000
# 3 -0.007059 0.000452 0.013619 0.000000 0.000000 0.000000
# 4 0.000000 0.000000 0.000000 0.095576 0.000000 0.000000
# 5 0.000000 0.000000 0.000000 0.000000 0.058886 0.000000
# 6 0.000000 0.000000 0.000000 0.000000 0.000000 0.035383
#
#
# Mechanical properties :
#
#
# Convention : Reuss Voigt Hill
#
# Bulk Modulus (GPa) = 61.44713 62.50394 61.97553
# Shear Modulus (GPa) = 17.64118 21.64621 19.64370
#
# Velocity S-wave (km/s) = 3.10685 3.44149 3.27844
# Velocity P-wave (km/s) = 6.81844 7.07045 6.94559
#
# Compressibility (1/GPa) = 0.01627415
#
# Stress axis : x y z
#
# Youngs Moduli (GPa) = 43.02086 65.13409 73.42571
#
# Poissons Ratio (x) = 0.74022 0.51830
# Poissons Ratio (y) = 0.48891 -0.03320
# Poissons Ratio (z) = 0.30368 -0.02945
#
# Static dielectric constant tensor:
#      x y z
#    x 1.616610 0.000000 0.000000 
#    y 0.000000 1.609240 0.000000 
#    z 0.000000 0.000000 1.625260 
# 
# From -- ./inp_files/25489.got.cif
#   From: 2010.05.17/outbox.cif.g08.bks.cpg/sg46_13_cif.got.tgz:25489.got - 2010.06.03 19:58:25.
