data_PCOD9380033
_publ_section_title
;
Structure prediction by ZEFSAII (Michael W. Deem and Ramdas Pophale) SiO2 
 PCOD9380033
Probable space group: I M A 2
;
_chemical_formula_sum "Si O2"
_cell_formula_units_Z 64
_cell_length_a 17.442924
_cell_length_b 16.661276
_cell_length_c 10.264186
_cell_angle_alpha 90.000000
_cell_angle_beta 90.000000
_cell_angle_gamma 90.000000
_cell_volume 2982.991808
_symmetry_space_group_name_H-M "I M A 2"
_symmetry_group_IT_number 46
_symmetry_cell_setting 'orthorhombic'
loop_
_space_group_symop_operation_xyz
x,y,z
-x,-y,z
1/2-x,y,z
1/2+x,-y,z
1/2+x,1/2+y,1/2+z
1/2-x,1/2-y,1/2+z
-x,1/2+y,1/2+z
x,1/2-y,1/2+z
loop_
_atom_site_type_symbol
_atom_site_label
_atom_site_fract_x
_atom_site_fract_y
_atom_site_fract_z
Si Si1 0.343205 0.429933 0.943840
Si Si2 0.340481 0.075018 0.735331
Si Si3 0.340403 0.130870 0.165737
Si Si4 0.841242 0.114676 0.434806
Si Si5 0.556015 0.251815 0.832959
Si Si6 0.838523 0.119030 0.740053
Si Si7 0.034494 0.230834 0.075611
Si Si8 0.443179 0.429399 0.470835
O O1 0.250000 0.431106 0.951026
O O2 0.363912 0.379915 0.816089
O O3 0.367597 0.522303 0.923055
O O4 0.367282 0.403494 0.088887
O O5 0.250000 0.096670 0.753434
O O6 0.345641 0.977646 0.748893
O O7 0.398162 0.105438 0.845773
O O8 0.250000 0.130833 0.156327
O O9 0.376686 0.212076 0.105436
O O10 0.376110 0.058698 0.078405
O O11 0.750000 0.116530 0.411793
O O12 0.884455 0.174942 0.339980
O O13 0.853097 0.138745 0.587017
O O14 0.606622 0.170368 0.832527
O O15 0.507488 0.242550 0.703251
O O16 0.496489 0.272727 0.948110
O O17 0.750000 0.138820 0.768331
O O18 0.008699 0.139073 0.043184
O O19 0.500000 0.500000 0.436560
#
# Coordination Sequence:
#
# PCOD9380033 Si02
#       8
#     8   8   8   8   8   8   8   8
#     4   8  16  33  59  89 111 142 190 238 291 351
#     4   9  17  34  61  88 114 148 186 235 295 360
#     4   9  20  41  61  82 115 147 190 256 304 341
#     4   9  18  32  56  86 120 158 195 229 281 357
#     4  12  20  41  53  80 118 164 196 245 281 335
#     4   9  18  33  56  85 119 160 196 227 280 357
#     4  10  26  37  59  81 114 156 201 240 298 344
#     4  10  21  37  55  89 121 145 190 243 301 354
#
# _framework density 21.454969999999999
#
# number of rings (size 3 to 8) (size 9 to 14) (size 15 to 20)
#    0.750    1.750    1.250    3.000    1.750    0.000 
#    2.250    1.250    0.000    0.000    0.000    0.000 
#    0.000    0.000    0.000    0.000    0.000    0.000 
#
# Total GULP energy -178245.965819 kJ/mol
# GULP energy per Si atom -5570.186432 kJ/mol
# Density = 2.140614 g / cm^3
# Si number density = 21.454970 Si / 1000 Ang^3
#
#
#
# Elastic Constant Matrix: (Units=GPa)
#
#
# Indices 1 2 3 4 5 6 
#
# 1 87.8283 17.8222 53.7718 0.0000 0.0000 0.0000
# 2 17.8222 27.8115 3.2797 0.0000 0.0000 0.0000
# 3 53.7718 3.2797 117.0109 0.0000 0.0000 0.0000
# 4 0.0000 0.0000 0.0000 15.8462 0.0000 0.0000
# 5 0.0000 0.0000 0.0000 0.0000 24.3330 0.0000
# 6 0.0000 0.0000 0.0000 0.0000 0.0000 -15.7843
#
#
#
# Elastic Compliance Matrix: (Units=1/GPa)
#
#
# Indices 1 2 3 4 5 6 
#
# 1 0.018686 -0.010998 -0.008279 0.000000 0.000000 0.000000
# 2 -0.010998 0.042549 0.003862 0.000000 0.000000 0.000000
# 3 -0.008279 0.003862 0.012243 0.000000 0.000000 0.000000
# 4 0.000000 0.000000 0.000000 0.063107 0.000000 0.000000
# 5 0.000000 0.000000 0.000000 0.000000 0.041096 0.000000
# 6 0.000000 0.000000 0.000000 0.000000 0.000000 -0.063354
#
#
# Mechanical properties :
#
#
# Convention : Reuss Voigt Hill
#
# Bulk Modulus (GPa) = 23.44861 42.48868 32.96864
# Shear Modulus (GPa) = 31.37290 15.39745 23.38518
#
# Velocity S-wave (km/s) = 3.82811 2.68183 3.30504
# Velocity P-wave (km/s) = 5.52197 5.42552 5.47396
#
# Compressibility (1/GPa) = 0.04264645
#
# Stress axis : x y z
#
# Youngs Moduli (GPa) = 53.51518 23.50242 81.68262
#
# Poissons Ratio (x) = 0.25849 0.67624
# Poissons Ratio (y) = 0.58857 -0.31542
# Poissons Ratio (z) = 0.44305 -0.09076
#
# Static dielectric constant tensor:
#      x y z
#    x 1.790440 0.000000 0.000000 
#    y 0.000000 1.819760 0.000000 
#    z 0.000000 0.000000 1.823500 
# 
# From -- ./inp_files/6927.got.cif
#   From: 2010.05.17/outbox.cif.g08.bks.cpg/sg46_4_cif.got.tgz:6927.got - 2010.06.03 19:58:25.
