data_PCOD9380821
_publ_section_title
;
Structure prediction by ZEFSAII (Michael W. Deem and Ramdas Pophale) SiO2 
 PCOD9380821
Probable space group: I M A 2
;
_chemical_formula_sum "Si O2"
_cell_formula_units_Z 64
_cell_length_a 14.895234
_cell_length_b 11.402626
_cell_length_c 17.164312
_cell_angle_alpha 90.000000
_cell_angle_beta 90.000000
_cell_angle_gamma 90.000000
_cell_volume 2915.268838
_symmetry_space_group_name_H-M "I M A 2"
_symmetry_group_IT_number 46
_symmetry_cell_setting 'orthorhombic'
loop_
_space_group_symop_operation_xyz
x,y,z
-x,-y,z
1/2-x,y,z
1/2+x,-y,z
1/2+x,1/2+y,1/2+z
1/2-x,1/2-y,1/2+z
-x,1/2+y,1/2+z
x,1/2-y,1/2+z
loop_
_atom_site_type_symbol
_atom_site_label
_atom_site_fract_x
_atom_site_fract_y
_atom_site_fract_z
Si Si1 0.394051 0.026275 0.333080
Si Si2 0.984626 0.378307 0.433695
Si Si3 0.902263 0.480137 0.593744
Si Si4 0.349786 0.187221 0.186238
Si Si5 0.651589 0.258030 0.829112
Si Si6 0.152462 0.738564 0.147729
Si Si7 0.356537 0.299259 0.975128
Si Si8 0.027338 0.130401 0.621347
O O1 0.367049 0.099555 0.257016
O O2 0.366231 0.106714 0.405579
O O3 0.500000 0.000000 0.334885
O O4 0.350229 0.898497 0.331874
O O5 0.928101 0.427193 0.509030
O O6 0.924607 0.291265 0.384381
O O7 0.000000 0.500000 0.388091
O O8 0.076841 0.310781 0.455478
O O9 0.857219 0.605572 0.608599
O O10 0.849348 0.378065 0.635990
O O11 0.000000 0.500000 0.632073
O O12 0.250000 0.237363 0.191200
O O13 0.424736 0.287458 0.184829
O O14 0.750000 0.216064 0.854866
O O15 0.638738 0.217887 0.739601
O O16 0.250000 0.691966 0.123932
O O17 0.067927 0.689761 0.100784
O O18 0.250000 0.272629 0.984524
O O19 0.402547 0.360657 0.050329
O O20 0.000000 0.000000 0.644267
#
# Coordination Sequence:
#
# PCOD9380821 Si02
#       8
#     8   8   8   8   8   8   8   8
#     4  12  23  44  75 106 140 180 234 303 361 420
#     4  11  25  44  69 101 146 189 230 283 362 436
#     4  11  20  40  69 101 135 174 233 291 349 413
#     4  12  24  43  75 110 140 181 241 304 360 423
#     4  11  24  43  70 106 140 177 229 292 356 426
#     4  11  23  43  69 100 136 177 231 295 353 417
#     4  12  26  47  70 101 143 186 238 299 363 434
#     4  12  27  46  67  97 140 192 234 289 358 427
#
# _framework density 21.953379000000002
#
# number of rings (size 3 to 8) (size 9 to 14) (size 15 to 20)
#    0.000    0.500    5.000    4.125    0.000    3.000 
#    0.000    1.875    0.000    0.000    0.000    0.000 
#    0.000    0.000    0.000    0.000    0.000    0.000 
#
# Total GULP energy -178810.987901 kJ/mol
# GULP energy per Si atom -5587.843372 kJ/mol
# Density = 2.190341 g / cm^3
# Si number density = 21.953379 Si / 1000 Ang^3
#
#
#
# Elastic Constant Matrix: (Units=GPa)
#
#
# Indices 1 2 3 4 5 6 
#
# 1 185.9618 37.1143 35.5027 0.0000 0.0000 0.0000
# 2 37.1143 127.4653 24.8504 0.0000 0.0000 0.0000
# 3 35.5027 24.8504 71.3153 0.0000 0.0000 0.0000
# 4 0.0000 0.0000 0.0000 32.1407 0.0000 0.0000
# 5 0.0000 0.0000 0.0000 0.0000 -52.4727 0.0000
# 6 0.0000 0.0000 0.0000 0.0000 0.0000 1.2422
#
#
#
# Elastic Compliance Matrix: (Units=1/GPa)
#
#
# Indices 1 2 3 4 5 6 
#
# 1 0.006130 -0.001277 -0.002607 0.000000 0.000000 0.000000
# 2 -0.001277 0.008683 -0.002390 0.000000 0.000000 0.000000
# 3 -0.002607 -0.002390 0.016153 0.000000 0.000000 0.000000
# 4 0.000000 0.000000 0.000000 0.031113 0.000000 0.000000
# 5 0.000000 0.000000 0.000000 0.000000 -0.019058 0.000000
# 6 0.000000 0.000000 0.000000 0.000000 0.000000 0.805041
#
#
# Mechanical properties :
#
#
# Convention : Reuss Voigt Hill
#
# Bulk Modulus (GPa) = 54.29283 64.40858 59.35071
# Shear Modulus (GPa) = 5.76868 15.33369 10.55119
#
# Velocity S-wave (km/s) = 1.62278 2.64572 2.19468
# Velocity P-wave (km/s) = 5.31939 6.22379 5.78928
#
# Compressibility (1/GPa) = 0.01841864
#
# Stress axis : x y z
#
# Youngs Moduli (GPa) = 163.13448 115.16800 61.90871
#
# Poissons Ratio (x) = 0.14703 0.16138
# Poissons Ratio (y) = 0.20826 0.14797
# Poissons Ratio (z) = 0.42526 0.27526
#
# Static dielectric constant tensor:
#      x y z
#    x 2.556670 0.000000 0.000000 
#    y 0.000000 1.830680 0.000000 
#    z 0.000000 0.000000 1.845260 
# 
# From -- ./inp_files/19646.got.cif
#   From: 2010.05.17/outbox.cif.g08.bks.cpg/sg46_10_cif.got.tgz:19646.got - 2010.06.03 19:58:25.
