data_PCOD9380638
_publ_section_title
;
Structure prediction by ZEFSAII (Michael W. Deem and Ramdas Pophale) SiO2 
 PCOD9380638
Probable space group: I M A 2
;
_chemical_formula_sum "Si O2"
_cell_formula_units_Z 52
_cell_length_a 9.305026
_cell_length_b 21.240172
_cell_length_c 13.981777
_cell_angle_alpha 90.000000
_cell_angle_beta 90.000000
_cell_angle_gamma 90.000000
_cell_volume 2763.363338
_symmetry_space_group_name_H-M "I M A 2"
_symmetry_group_IT_number 46
_symmetry_cell_setting 'orthorhombic'
loop_
_space_group_symop_operation_xyz
x,y,z
-x,-y,z
1/2-x,y,z
1/2+x,-y,z
1/2+x,1/2+y,1/2+z
1/2-x,1/2-y,1/2+z
-x,1/2+y,1/2+z
x,1/2-y,1/2+z
loop_
_atom_site_type_symbol
_atom_site_label
_atom_site_fract_x
_atom_site_fract_y
_atom_site_fract_z
Si Si1 0.580257 0.330828 0.264790
Si Si2 0.250000 0.981795 0.214486
Si Si3 0.922972 0.932536 0.646562
Si Si4 0.513586 0.588741 0.756970
Si Si5 0.584970 0.718774 0.661793
Si Si6 0.415082 0.723619 0.474973
Si Si7 0.417783 0.874078 0.466511
O O1 0.750000 0.340077 0.243793
O O2 0.487049 0.390349 0.232249
O O3 0.518631 0.272075 0.204825
O O4 0.564824 0.313043 0.375849
O O5 0.371381 0.034497 0.243587
O O6 0.123963 0.929645 0.194741
O O7 0.750000 0.936899 0.648697
O O8 0.978766 0.898648 0.549722
O O9 0.000000 0.000000 0.649222
O O10 0.573360 0.656039 0.724640
O O11 0.458054 0.594048 0.866103
O O12 0.750000 0.741098 0.660346
O O13 0.527836 0.704821 0.555654
O O14 0.250000 0.713765 0.507435
O O15 0.430863 0.798674 0.456841
O O16 0.250000 0.888456 0.488788
#
# Coordination Sequence:
#
# PCOD9380638 Si02
#       7
#     8   4   8   8   8   8   8
#     4  11  23  44  68  95 127 167 216 267 320 380
#     4  10  24  40  60  88 126 172 214 256 322 390
#     4  12  27  43  66  94 132 175 216 266 324 387
#     4  11  23  40  62  90 129 170 212 263 318 386
#     4  12  24  39  64  97 127 167 212 267 323 376
#     4  10  23  40  66  95 128 168 211 264 320 379
#     4  11  22  38  62  98 130 171 212 257 319 385
#
# _framework density 18.817647999999998
#
# number of rings (size 3 to 8) (size 9 to 14) (size 15 to 20)
#    0.000    0.923    4.615    2.308    5.385    1.231 
#    0.000    0.000    3.385    0.000    0.000    0.000 
#    0.000    0.000    0.000    0.000    0.000    0.000 
#
# Total GULP energy -144743.935831 kJ/mol
# GULP energy per Si atom -5567.074455 kJ/mol
# Density = 1.877482 g / cm^3
# Si number density = 18.817648 Si / 1000 Ang^3
#
#
#
# Elastic Constant Matrix: (Units=GPa)
#
#
# Indices 1 2 3 4 5 6 
#
# 1 169.3736 26.1853 37.6650 0.0000 0.0000 0.0000
# 2 26.1853 64.2627 10.8358 0.0000 0.0000 0.0000
# 3 37.6650 10.8358 56.0088 0.0000 0.0000 0.0000
# 4 0.0000 0.0000 0.0000 12.7984 0.0000 0.0000
# 5 0.0000 0.0000 0.0000 0.0000 35.2781 0.0000
# 6 0.0000 0.0000 0.0000 0.0000 0.0000 37.5934
#
#
#
# Elastic Compliance Matrix: (Units=1/GPa)
#
#
# Indices 1 2 3 4 5 6 
#
# 1 0.007231 -0.002198 -0.004437 0.000000 0.000000 0.000000
# 2 -0.002198 0.016754 -0.001763 0.000000 0.000000 0.000000
# 3 -0.004437 -0.001763 0.021179 0.000000 0.000000 0.000000
# 4 0.000000 0.000000 0.000000 0.078135 0.000000 0.000000
# 5 0.000000 0.000000 0.000000 0.000000 0.028346 0.000000
# 6 0.000000 0.000000 0.000000 0.000000 0.000000 0.026600
#
#
# Mechanical properties :
#
#
# Convention : Reuss Voigt Hill
#
# Bulk Modulus (GPa) = 35.25199 48.77969 42.01584
# Shear Modulus (GPa) = 24.45003 31.46456 27.95729
#
# Velocity S-wave (km/s) = 3.60851 4.09354 3.85865
# Velocity P-wave (km/s) = 6.01132 6.95136 6.49836
#
# Compressibility (1/GPa) = 0.02836719
#
# Stress axis : x y z
#
# Youngs Moduli (GPa) = 138.29931 59.68686 47.21557
#
# Poissons Ratio (x) = 0.13120 0.20951
# Poissons Ratio (y) = 0.30400 0.08325
# Poissons Ratio (z) = 0.61367 0.10524
#
# Static dielectric constant tensor:
#      x y z
#    x 1.637780 0.000000 0.000000 
#    y 0.000000 1.654520 0.000000 
#    z 0.000000 0.000000 1.659310 
# 
# From -- ./inp_files/14090.got.cif
#   From: 2010.05.17/outbox.cif.g08.bks.cpg/sg46_8_cif.got.tgz:14090.got - 2010.06.03 19:58:25.
