data_PCOD9380140
_publ_section_title
;
Structure prediction by ZEFSAII (Michael W. Deem and Ramdas Pophale) SiO2 
 PCOD9380140
Probable space group: I M A 2
;
_chemical_formula_sum "Si O2"
_cell_formula_units_Z 36
_cell_length_a 9.635678
_cell_length_b 19.583083
_cell_length_c 9.265627
_cell_angle_alpha 90.000000
_cell_angle_beta 90.000000
_cell_angle_gamma 90.000000
_cell_volume 1748.389366
_symmetry_space_group_name_H-M "I M A 2"
_symmetry_group_IT_number 46
_symmetry_cell_setting 'orthorhombic'
loop_
_space_group_symop_operation_xyz
x,y,z
-x,-y,z
1/2-x,y,z
1/2+x,-y,z
1/2+x,1/2+y,1/2+z
1/2-x,1/2-y,1/2+z
-x,1/2+y,1/2+z
x,1/2-y,1/2+z
loop_
_atom_site_type_symbol
_atom_site_label
_atom_site_fract_x
_atom_site_fract_y
_atom_site_fract_z
Si Si1 0.096059 0.892091 0.963350
Si Si2 0.913779 0.220132 0.723709
Si Si3 0.412901 0.140366 0.217195
Si Si4 0.000000 0.500000 0.239764
Si Si5 0.905560 0.618929 0.041587
O O1 0.250000 0.890110 0.027731
O O2 0.072015 0.822143 0.873451
O O3 0.087660 0.951549 0.844917
O O4 0.980673 0.900084 0.085042
O O5 0.750000 0.231313 0.698664
O O6 0.000789 0.289324 0.727420
O O7 0.981077 0.171542 0.602114
O O8 0.250000 0.153046 0.191248
O O9 0.427149 0.104982 0.372825
O O10 0.916197 0.551092 0.137189
O O11 0.750000 0.648553 0.058042
#
# Coordination Sequence:
#
# PCOD9380140 Si02
#       5
#     8   8   8   4   8
#     4  10  22  39  61  87 117 155 195 239 289 343
#     4  10  21  38  61  89 120 155 194 236 287 345
#     4  11  23  37  58  90 122 153 191 238 292 346
#     4  10  22  42  64  84 110 152 202 246 288 342
#     4  10  22  40  62  87 117 154 195 240 289 344
#
# _framework density 20.590378000000001
#
# number of rings (size 3 to 8) (size 9 to 14) (size 15 to 20)
#    0.000    1.778    0.000    3.333    0.000   12.444 
#    0.000    2.222    0.000    0.000    0.000    0.000 
#    0.000    0.000    0.000    0.000    0.000    0.000 
#
# Total GULP energy -100579.037631 kJ/mol
# GULP energy per Si atom -5587.724313 kJ/mol
# Density = 2.054351 g / cm^3
# Si number density = 20.590378 Si / 1000 Ang^3
#
#
#
# Elastic Constant Matrix: (Units=GPa)
#
#
# Indices 1 2 3 4 5 6 
#
# 1 149.0397 25.4842 84.6846 0.0000 0.0000 0.0000
# 2 25.4842 72.9040 39.4840 0.0006 0.0000 0.0000
# 3 84.6846 39.4840 129.0292 0.0007 0.0000 0.0000
# 4 0.0000 0.0006 0.0007 12.8311 0.0000 0.0000
# 5 0.0000 0.0000 0.0000 0.0000 31.9589 0.0000
# 6 0.0000 0.0000 0.0000 0.0000 0.0000 14.9516
#
#
#
# Elastic Compliance Matrix: (Units=1/GPa)
#
#
# Indices 1 2 3 4 5 6 
#
# 1 0.010700 0.000076 -0.007046 0.000000 0.000000 0.000000
# 2 0.000076 0.016442 -0.005081 -0.000001 0.000000 0.000000
# 3 -0.007046 -0.005081 0.013929 0.000000 0.000000 0.000000
# 4 0.000000 -0.000001 0.000000 0.077936 0.000000 0.000000
# 5 0.000000 0.000000 0.000000 0.000000 0.031290 0.000000
# 6 0.000000 0.000000 0.000000 0.000000 0.000000 0.066883
#
#
# Mechanical properties :
#
#
# Convention : Reuss Voigt Hill
#
# Bulk Modulus (GPa) = 58.93089 72.25317 65.59203
# Shear Modulus (GPa) = 20.24790 25.36964 22.80877
#
# Velocity S-wave (km/s) = 3.13927 3.51395 3.33188
# Velocity P-wave (km/s) = 6.46705 7.18545 6.83570
#
# Compressibility (1/GPa) = 0.01696903
#
# Stress axis : x y z
#
# Youngs Moduli (GPa) = 93.45639 60.81957 71.79056
#
# Poissons Ratio (x) = -0.00460 0.50583
# Poissons Ratio (y) = -0.00707 0.36477
# Poissons Ratio (z) = 0.65848 0.30903
#
# Static dielectric constant tensor:
#      x y z
#    x 1.713430 0.000000 0.000000 
#    y 0.000000 1.730820 0.000000 
#    z 0.000000 0.000000 1.738840 
# 
# From -- ./inp_files/3389.got.cif
#   From: 2010.05.17/outbox.cif.g08.bks.cpg/sg46_2_cif.got.tgz:3389.got - 2010.06.03 19:58:25.
