data_PCOD9380138
_publ_section_title
;
Structure prediction by ZEFSAII (Michael W. Deem and Ramdas Pophale) SiO2 
 PCOD9380138
Probable space group: I M A 2
;
_chemical_formula_sum "Si O2"
_cell_formula_units_Z 48
_cell_length_a 8.712433
_cell_length_b 9.250788
_cell_length_c 31.262685
_cell_angle_alpha 90.000000
_cell_angle_beta 90.000000
_cell_angle_gamma 90.000000
_cell_volume 2519.674579
_symmetry_space_group_name_H-M "I M A 2"
_symmetry_group_IT_number 46
_symmetry_cell_setting 'orthorhombic'
loop_
_space_group_symop_operation_xyz
x,y,z
-x,-y,z
1/2-x,y,z
1/2+x,-y,z
1/2+x,1/2+y,1/2+z
1/2-x,1/2-y,1/2+z
-x,1/2+y,1/2+z
x,1/2-y,1/2+z
loop_
_atom_site_type_symbol
_atom_site_label
_atom_site_fract_x
_atom_site_fract_y
_atom_site_fract_z
Si Si1 0.933899 0.660907 0.885060
Si Si2 0.933933 0.661250 0.725789
Si Si3 0.066472 0.838595 0.805602
Si Si4 0.933412 0.339049 0.561640
Si Si5 0.066266 0.340724 0.469765
Si Si6 0.566325 0.659794 0.139943
O O1 0.750000 0.657861 0.879604
O O2 0.968279 0.733565 0.930881
O O3 0.000000 0.500000 0.882784
O O4 0.006857 0.757795 0.847878
O O5 0.750000 0.656433 0.731042
O O6 0.968973 0.742740 0.681408
O O7 0.000000 0.500000 0.725015
O O8 0.006676 0.749849 0.764764
O O9 0.250000 0.843552 0.805522
O O10 0.000000 0.000000 0.804269
O O11 0.750000 0.345191 0.561852
O O12 0.000000 0.500000 0.569303
O O13 0.993038 0.293818 0.514753
O O14 0.994019 0.233638 0.598249
O O15 0.250000 0.351564 0.474758
O O16 0.000000 0.500000 0.459991
O O17 0.500000 0.500000 0.145990
O O18 0.750000 0.653013 0.135241
#
# Coordination Sequence:
#
# PCOD9380138 Si02
#       6
#     8   8   8   8   8   8
#     4  11  24  41  62  89 122 160 202 248 299 355
#     4  11  24  42  65  92 123 159 200 246 297 354
#     4  12  25  42  65  91 123 159 199 247 298 356
#     4  11  22  38  62  89 121 159 201 249 300 357
#     4  10  21  38  61  88 119 156 201 250 301 358
#     4  11  24  41  62  89 122 159 201 248 299 356
#
# _framework density 19.050079
#
# number of rings (size 3 to 8) (size 9 to 14) (size 15 to 20)
#    0.000    1.000    0.000    8.000    0.000   10.000 
#    0.000    1.667    0.000    0.000    0.000    0.000 
#    0.000    0.000    0.000    0.000    0.000    0.000 
#
# Total GULP energy -134333.414111 kJ/mol
# GULP energy per Si atom -5597.225588 kJ/mol
# Density = 1.900672 g / cm^3
# Si number density = 19.050079 Si / 1000 Ang^3
#
#
#
# Elastic Constant Matrix: (Units=GPa)
#
#
# Indices 1 2 3 4 5 6 
#
# 1 134.8576 95.6934 101.8758 0.0000 0.0000 0.0000
# 2 95.6934 188.9358 128.2385 0.0000 0.0000 0.0000
# 3 101.8758 128.2385 162.7680 0.0000 0.0000 0.0000
# 4 0.0000 0.0000 0.0000 34.4136 0.0000 0.0000
# 5 0.0000 0.0000 0.0000 0.0000 109.4773 0.0000
# 6 0.0000 0.0000 0.0000 0.0000 0.0000 39.0935
#
#
#
# Elastic Compliance Matrix: (Units=1/GPa)
#
#
# Indices 1 2 3 4 5 6 
#
# 1 0.014623 -0.002567 -0.007130 0.000000 0.000000 0.000000
# 2 -0.002567 0.011827 -0.007711 0.000000 0.000000 0.000000
# 3 -0.007130 -0.007711 0.016682 0.000000 0.000000 0.000000
# 4 0.000000 0.000000 0.000000 0.029058 0.000000 0.000000
# 5 0.000000 0.000000 0.000000 0.000000 0.009134 0.000000
# 6 0.000000 0.000000 0.000000 0.000000 0.000000 0.025580
#
#
# Mechanical properties :
#
#
# Convention : Reuss Voigt Hill
#
# Bulk Modulus (GPa) = 120.26323 126.46406 123.36365
# Shear Modulus (GPa) = 34.60386 47.31380 40.95883
#
# Velocity S-wave (km/s) = 4.26663 4.98903 4.64191
# Velocity P-wave (km/s) = 9.35624 9.98581 9.67615
#
# Compressibility (1/GPa) = 0.00831509
#
# Stress axis : x y z
#
# Youngs Moduli (GPa) = 68.38561 84.55301 59.94488
#
# Poissons Ratio (x) = 0.21703 0.42742
# Poissons Ratio (y) = 0.17553 0.46226
# Poissons Ratio (z) = 0.48760 0.65202
#
# Static dielectric constant tensor:
#      x y z
#    x 1.635880 0.000000 0.000000 
#    y 0.000000 1.620410 0.000000 
#    z 0.000000 0.000000 1.638780 
# 
# From -- ./inp_files/25004.got.cif
#   From: 2010.05.17/outbox.cif.g08.bks.cpg/sg46_13_cif.got.tgz:25004.got - 2010.06.03 19:58:25.
