data_PCOD9380292
_publ_section_title
;
Structure prediction by ZEFSAII (Michael W. Deem and Ramdas Pophale) SiO2 
 PCOD9380292
Probable space group: I M A 2
;
_chemical_formula_sum "Si O2"
_cell_formula_units_Z 56
_cell_length_a 14.599666
_cell_length_b 14.912600
_cell_length_c 11.364122
_cell_angle_alpha 90.000000
_cell_angle_beta 90.000000
_cell_angle_gamma 90.000000
_cell_volume 2474.185041
_symmetry_space_group_name_H-M "I M A 2"
_symmetry_group_IT_number 46
_symmetry_cell_setting 'orthorhombic'
loop_
_space_group_symop_operation_xyz
x,y,z
-x,-y,z
1/2-x,y,z
1/2+x,-y,z
1/2+x,1/2+y,1/2+z
1/2-x,1/2-y,1/2+z
-x,1/2+y,1/2+z
x,1/2-y,1/2+z
loop_
_atom_site_type_symbol
_atom_site_label
_atom_site_fract_x
_atom_site_fract_y
_atom_site_fract_z
Si Si1 0.565918 0.819367 0.614390
Si Si2 0.351707 0.134314 0.195023
Si Si3 0.651682 0.333761 0.131022
Si Si4 0.025543 0.093863 0.397921
Si Si5 0.108923 0.983345 0.027945
Si Si6 0.148530 0.646489 0.745395
Si Si7 0.609420 0.989793 0.759825
O O1 0.592154 0.722807 0.661943
O O2 0.455099 0.825833 0.593548
O O3 0.588637 0.843740 0.480070
O O4 0.614298 0.890950 0.701863
O O5 0.250000 0.157154 0.235750
O O6 0.408729 0.075675 0.287465
O O7 0.347168 0.071441 0.082673
O O8 0.750000 0.320331 0.064026
O O9 0.653074 0.253293 0.225786
O O10 0.652516 0.434501 0.178553
O O11 0.931808 0.129262 0.338944
O O12 0.000000 0.000000 0.459877
O O13 0.129274 0.900561 0.117159
O O14 0.138871 0.983823 0.892090
O O15 0.000000 0.000000 0.029533
O O16 0.250000 0.614076 0.781796
O O17 0.500000 0.000000 0.761695
#
# Coordination Sequence:
#
# PCOD9380292 Si02
#       7
#     8   8   8   8   8   8   8
#     4  11  25  46  67  99 141 185 227 287 355 426
#     4  12  26  44  69 102 136 183 239 287 347 421
#     4  10  21  40  65  97 134 172 222 278 342 414
#     4  12  24  45  71  98 142 187 232 295 355 420
#     4  11  20  41  70  97 135 179 227 289 350 413
#     4  11  22  39  65 102 136 173 227 287 349 412
#     4   9  22  41  67  97 132 179 225 274 346 421
#
# _framework density 22.633714999999999
#
# number of rings (size 3 to 8) (size 9 to 14) (size 15 to 20)
#    0.000    1.143    4.286    1.714    2.000    5.143 
#    0.000    4.286    0.000    0.000    0.000    0.000 
#    0.000    0.000    0.000    0.000    0.000    0.000 
#
# Total GULP energy -155966.651755 kJ/mol
# GULP energy per Si atom -5570.237563 kJ/mol
# Density = 2.258220 g / cm^3
# Si number density = 22.633715 Si / 1000 Ang^3
#
#
#
# Elastic Constant Matrix: (Units=GPa)
#
#
# Indices 1 2 3 4 5 6 
#
# 1 115.2788 5.5849 11.2291 0.0000 0.0000 0.0000
# 2 5.5849 100.0858 1.5120 0.0000 0.0000 0.0000
# 3 11.2291 1.5120 53.8872 0.0000 0.0000 0.0000
# 4 0.0000 0.0000 0.0000 7.1162 0.0000 0.0000
# 5 0.0000 0.0000 0.0000 0.0000 -4.3869 0.0000
# 6 0.0000 0.0000 0.0000 0.0000 0.0000 40.7557
#
#
#
# Elastic Compliance Matrix: (Units=1/GPa)
#
#
# Indices 1 2 3 4 5 6 
#
# 1 0.008876 -0.000468 -0.001837 0.000000 0.000000 0.000000
# 2 -0.000468 0.010020 -0.000184 0.000000 0.000000 0.000000
# 3 -0.001837 -0.000184 0.018945 0.000000 0.000000 0.000000
# 4 0.000000 0.000000 0.000000 0.140525 0.000000 0.000000
# 5 0.000000 0.000000 0.000000 0.000000 -0.227949 0.000000
# 6 0.000000 0.000000 0.000000 0.000000 0.000000 0.024536
#
#
# Mechanical properties :
#
#
# Convention : Reuss Voigt Hill
#
# Bulk Modulus (GPa) = 30.42655 33.98929 32.20792
# Shear Modulus (GPa) = -548.50437 25.42538 -261.53949
#
# Velocity S-wave (km/s) = -15.58415 3.35526 -10.76122
# Velocity P-wave (km/s) = 17.61671 5.48271 11.83825
#
# Compressibility (1/GPa) = 0.03286603
#
# Stress axis : x y z
#
# Youngs Moduli (GPa) = 112.66125 99.79748 52.78402
#
# Poissons Ratio (x) = 0.04666 0.09694
# Poissons Ratio (y) = 0.05268 0.00970
# Poissons Ratio (z) = 0.20690 0.01833
#
# Static dielectric constant tensor:
#      x y z
#    x 1.991730 0.000000 0.000000 
#    y 0.000000 1.855560 0.000000 
#    z 0.000000 0.000000 1.877780 
# 
# From -- ./inp_files/11160.got.cif
#   From: 2010.05.17/outbox.cif.g08.bks.cpg/sg46_6_cif.got.tgz:11160.got - 2010.06.03 19:58:25.
