data_PCOD9380729
_publ_section_title
;
Structure prediction by ZEFSAII (Michael W. Deem and Ramdas Pophale) SiO2 
 PCOD9380729
Probable space group: I M A 2
;
_chemical_formula_sum "Si O2"
_cell_formula_units_Z 60
_cell_length_a 30.627159
_cell_length_b 9.231239
_cell_length_c 9.523323
_cell_angle_alpha 90.000000
_cell_angle_beta 90.000000
_cell_angle_gamma 90.000000
_cell_volume 2692.496967
_symmetry_space_group_name_H-M "I M A 2"
_symmetry_group_IT_number 46
_symmetry_cell_setting 'orthorhombic'
loop_
_space_group_symop_operation_xyz
x,y,z
-x,-y,z
1/2-x,y,z
1/2+x,-y,z
1/2+x,1/2+y,1/2+z
1/2-x,1/2-y,1/2+z
-x,1/2+y,1/2+z
x,1/2-y,1/2+z
loop_
_atom_site_type_symbol
_atom_site_label
_atom_site_fract_x
_atom_site_fract_y
_atom_site_fract_z
Si Si1 0.912872 0.447215 0.295940
Si Si2 0.033467 0.395846 0.543246
Si Si3 0.884523 0.714259 0.107846
Si Si4 0.250000 0.889691 0.308236
Si Si5 0.827611 0.522133 0.662739
Si Si6 0.830403 0.287041 0.430128
Si Si7 0.113699 0.538430 0.902723
Si Si8 0.969701 0.137386 0.539902
O O1 0.943905 0.511342 0.418825
O O2 0.891829 0.587929 0.220495
O O3 0.871950 0.357086 0.352626
O O4 0.941223 0.356635 0.183271
O O5 0.073113 0.316617 0.619101
O O6 0.000000 0.500000 0.625667
O O7 0.001149 0.267004 0.497770
O O8 0.842615 0.818168 0.117710
O O9 0.884916 0.624682 0.961968
O O10 0.288084 0.010151 0.270319
O O11 0.211071 0.769213 0.343428
O O12 0.815961 0.409229 0.540145
O O13 0.869274 0.458094 0.745171
O O14 0.852390 0.139493 0.491001
O O15 0.066031 0.601184 0.923421
O O16 0.000000 0.000000 0.563176
#
# Coordination Sequence:
#
# PCOD9380729 Si02
#       8
#     8   8   8   4   8   8   8   8
#     4  11  24  45  71 101 149 198 249 308 380 425
#     4  12  24  41  63  99 140 197 250 303 360 424
#     4  11  24  44  68 100 150 193 240 308 366 437
#     4  10  26  46  78 110 132 176 238 302 354 470
#     4  11  24  47  73 106 145 184 241 300 387 451
#     4  11  24  47  77 103 143 186 246 300 381 454
#     4  10  24  42  70 103 140 197 246 298 371 431
#     4  11  23  43  66  99 146 191 258 308 349 421
#
# _framework density 22.284147000000001
#
# number of rings (size 3 to 8) (size 9 to 14) (size 15 to 20)
#    0.000    1.067    4.000    2.400    7.467    0.000 
#    2.400    3.333    0.000    0.000    0.000    0.000 
#    0.000    0.000    0.000    0.000    0.000    0.000 
#
# Total GULP energy -167025.395997 kJ/mol
# GULP energy per Si atom -5567.513200 kJ/mol
# Density = 2.223343 g / cm^3
# Si number density = 22.284147 Si / 1000 Ang^3
#
#
#
# Elastic Constant Matrix: (Units=GPa)
#
#
# Indices 1 2 3 4 5 6 
#
# 1 152.3947 58.4834 26.8127 0.0000 0.0000 0.0000
# 2 58.4834 108.1780 22.4456 0.0000 0.0000 0.0000
# 3 26.8127 22.4456 25.6095 0.0000 0.0000 0.0000
# 4 0.0000 0.0000 0.0000 27.7713 0.0000 0.0000
# 5 0.0000 0.0000 0.0000 0.0000 6.3278 0.0000
# 6 0.0000 0.0000 0.0000 0.0000 0.0000 55.9515
#
#
#
# Elastic Compliance Matrix: (Units=1/GPa)
#
#
# Indices 1 2 3 4 5 6 
#
# 1 0.009050 -0.003577 -0.006340 0.000000 0.000000 0.000000
# 2 -0.003577 0.012713 -0.007397 0.000000 0.000000 0.000000
# 3 -0.006340 -0.007397 0.052169 0.000000 0.000000 0.000000
# 4 0.000000 0.000000 0.000000 0.036008 0.000000 0.000000
# 5 0.000000 0.000000 0.000000 0.000000 0.158033 0.000000
# 6 0.000000 0.000000 0.000000 0.000000 0.000000 0.017873
#
#
# Mechanical properties :
#
#
# Convention : Reuss Voigt Hill
#
# Bulk Modulus (GPa) = 25.44302 55.74061 40.59182
# Shear Modulus (GPa) = 14.98912 29.90616 22.44764
#
# Velocity S-wave (km/s) = 2.59634 3.66736 3.17730
# Velocity P-wave (km/s) = 4.51999 6.55748 5.63164
#
# Compressibility (1/GPa) = 0.03930351
#
# Stress axis : x y z
#
# Youngs Moduli (GPa) = 110.49466 78.66149 19.16852
#
# Poissons Ratio (x) = 0.28139 0.12153
# Poissons Ratio (y) = 0.39527 0.14179
# Poissons Ratio (z) = 0.70055 0.58184
#
# Static dielectric constant tensor:
#      x y z
#    x 1.747170 0.000000 0.000000 
#    y 0.000000 1.856570 0.000000 
#    z 0.000000 0.000000 1.914680 
# 
# From -- ./inp_files/13072.got.cif
#   From: 2010.05.17/outbox.cif.g08.bks.cpg/sg46_7_cif.got.tgz:13072.got - 2010.06.03 19:58:25.
