data_PCOD9380680
_publ_section_title
;
Structure prediction by ZEFSAII (Michael W. Deem and Ramdas Pophale) SiO2 
 PCOD9380680
Probable space group: I M A 2
;
_chemical_formula_sum "Si O2"
_cell_formula_units_Z 28
_cell_length_a 11.431338
_cell_length_b 14.897225
_cell_length_c 6.969862
_cell_angle_alpha 90.000000
_cell_angle_beta 90.000000
_cell_angle_gamma 90.000000
_cell_volume 1186.934142
_symmetry_space_group_name_H-M "I M A 2"
_symmetry_group_IT_number 46
_symmetry_cell_setting 'orthorhombic'
loop_
_space_group_symop_operation_xyz
x,y,z
-x,-y,z
1/2-x,y,z
1/2+x,-y,z
1/2+x,1/2+y,1/2+z
1/2-x,1/2-y,1/2+z
-x,1/2+y,1/2+z
x,1/2-y,1/2+z
loop_
_atom_site_type_symbol
_atom_site_label
_atom_site_fract_x
_atom_site_fract_y
_atom_site_fract_z
Si Si1 0.750000 0.562156 0.691890
Si Si2 0.942446 0.250000 0.941890
Si Si3 0.250000 0.600776 0.967960
Si Si4 0.750000 0.399225 0.415820
Si Si5 0.379851 0.261230 0.691890
O O1 0.750000 0.494636 0.515879
O O2 0.641815 0.630734 0.691891
O O3 0.750000 0.494636 0.867903
O O4 0.862128 0.161668 0.965570
O O5 0.091505 0.250000 0.941890
O O6 0.862128 0.338331 0.918210
O O7 0.975680 0.263354 0.191890
O O8 0.250000 0.586529 0.191890
O O9 0.250000 0.216497 0.691889
#
# Coordination Sequence:
#
# PCOD9380680 Si02
#       5
#     4   8   4   4   8
#     4  10  26  44  66  98 146 162 218 274 360 356
#     4  11  21  42  70  94 129 175 236 260 320 401
#     4  11  23  42  68 103 129 175 222 279 320 395
#     4  11  23  42  68 103 129 175 222 279 320 395
#     4  10  23  43  66  95 133 180 214 276 327 401
#
# _framework density 23.59019
#
# number of rings (size 3 to 8) (size 9 to 14) (size 15 to 20)
#    0.857    0.571    2.857    2.571    4.000    4.571 
#    5.143    2.857    0.000    0.000    0.000    0.000 
#    0.000    0.000    0.000    0.000    0.000    0.000 
#
# Total GULP energy -78069.837260 kJ/mol
# GULP energy per Si atom -5576.416947 kJ/mol
# Density = 2.353650 g / cm^3
# Si number density = 23.590190 Si / 1000 Ang^3
#
#
#
# Elastic Constant Matrix: (Units=GPa)
#
#
# Indices 1 2 3 4 5 6 
#
# 1 183.2179 60.4304 81.1151 0.0000 0.0000 0.0000
# 2 60.4304 168.1429 56.3379 0.0000 0.0000 0.0000
# 3 81.1151 56.3379 241.2905 0.0000 0.0000 0.0000
# 4 0.0000 0.0000 0.0000 64.9173 0.0000 0.0000
# 5 0.0000 0.0000 0.0000 0.0000 86.3401 0.0000
# 6 0.0000 0.0000 0.0000 0.0000 0.0000 13.0228
#
#
#
# Elastic Compliance Matrix: (Units=1/GPa)
#
#
# Indices 1 2 3 4 5 6 
#
# 1 0.006904 -0.001848 -0.001889 0.000000 0.000000 0.000000
# 2 -0.001848 0.006947 -0.001001 0.000000 0.000000 0.000000
# 3 -0.001889 -0.001001 0.005013 0.000000 0.000000 0.000000
# 4 0.000000 0.000000 0.000000 0.015404 0.000000 0.000000
# 5 0.000000 0.000000 0.000000 0.000000 0.011582 0.000000
# 6 0.000000 0.000000 0.000000 0.000000 0.000000 0.076789
#
#
# Mechanical properties :
#
#
# Convention : Reuss Voigt Hill
#
# Bulk Modulus (GPa) = 106.52497 109.82422 108.17459
# Shear Modulus (GPa) = 36.97001 59.17391 48.07196
#
# Velocity S-wave (km/s) = 3.96305 5.01384 4.51909
# Velocity P-wave (km/s) = 8.13607 8.95400 8.55482
#
# Compressibility (1/GPa) = 0.00938747
#
# Stress axis : x y z
#
# Youngs Moduli (GPa) = 144.84188 143.94980 199.47374
#
# Poissons Ratio (x) = 0.26606 0.37689
# Poissons Ratio (y) = 0.26770 0.19961
# Poissons Ratio (z) = 0.27367 0.14405
#
# Static dielectric constant tensor:
#      x y z
#    x 1.841040 0.000000 0.000000 
#    y 0.000000 1.677480 0.000000 
#    z 0.000000 0.000000 2.468400 
# 
# From -- ./inp_files/4243.got.cif
#   From: 2010.05.17/outbox.cif.g08.bks.cpg/sg46_3_cif.got.tgz:4243.got - 2010.06.03 19:58:25.
