data_PCOD9380537
_publ_section_title
;
Structure prediction by ZEFSAII (Michael W. Deem and Ramdas Pophale) SiO2 
 PCOD9380537
Probable space group: I M A 2
;
_chemical_formula_sum "Si O2"
_cell_formula_units_Z 56
_cell_length_a 14.620407
_cell_length_b 5.262215
_cell_length_c 33.119676
_cell_angle_alpha 90.000000
_cell_angle_beta 90.000000
_cell_angle_gamma 90.000000
_cell_volume 2548.086286
_symmetry_space_group_name_H-M "I M A 2"
_symmetry_group_IT_number 46
_symmetry_cell_setting 'orthorhombic'
loop_
_space_group_symop_operation_xyz
x,y,z
-x,-y,z
1/2-x,y,z
1/2+x,-y,z
1/2+x,1/2+y,1/2+z
1/2-x,1/2-y,1/2+z
-x,1/2+y,1/2+z
x,1/2-y,1/2+z
loop_
_atom_site_type_symbol
_atom_site_label
_atom_site_fract_x
_atom_site_fract_y
_atom_site_fract_z
Si Si1 0.639045 0.189383 0.383230
Si Si2 0.000000 0.000000 0.104616
Si Si3 0.438415 0.749763 0.472451
Si Si4 0.096187 0.147264 0.663188
Si Si5 0.250000 0.476851 0.103704
Si Si6 0.140377 0.190154 0.837693
Si Si7 0.562381 0.749605 0.749977
Si Si8 0.854729 0.196208 0.554782
O O1 0.750000 0.188036 0.383878
O O2 0.604036 0.240895 0.428073
O O3 0.608203 0.415071 0.353264
O O4 0.607592 0.915854 0.366954
O O5 0.942510 0.190152 0.076219
O O6 0.074702 0.112006 0.135305
O O7 0.500000 0.500000 0.476654
O O8 0.363297 0.755061 0.508010
O O9 0.500000 0.000000 0.478738
O O10 0.120516 0.222086 0.708905
O O11 0.170688 0.994119 0.638638
O O12 0.000000 0.000000 0.665057
O O13 0.334073 0.409921 0.068785
O O14 0.250000 0.184673 0.840609
O O15 0.115386 0.257061 0.792041
O O16 0.500000 0.500000 0.745776
O O17 0.500000 0.000000 0.752635
O O18 0.750000 0.269983 0.573780
#
# Coordination Sequence:
#
# PCOD9380537 Si02
#       8
#     8   4   8   8   4   8   8   8
#     4  10  22  43  66  94 133 177 222 277 344 413
#     4  12  22  44  68  92 136 176 230 290 336 420
#     4  12  26  43  68 101 137 177 225 289 347 411
#     4  11  23  43  65  95 137 175 228 291 340 409
#     4  10  24  40  70  94 126 190 226 276 352 412
#     4  10  22  41  67  95 132 176 221 279 340 410
#     4  11  24  41  65  98 134 176 220 281 346 405
#     4  10  24  43  66  99 133 181 232 282 349 414
#
# _framework density 21.977277000000001
#
# number of rings (size 3 to 8) (size 9 to 14) (size 15 to 20)
#    0.429    0.857    2.857    2.143    4.000    3.429 
#    0.000    1.429    4.714    0.000    0.000    0.000 
#    0.000    0.000    0.000    0.000    0.000    0.000 
#
# Total GULP energy -155880.965678 kJ/mol
# GULP energy per Si atom -5567.177346 kJ/mol
# Density = 2.192726 g / cm^3
# Si number density = 21.977277 Si / 1000 Ang^3
#
#
#
# Elastic Constant Matrix: (Units=GPa)
#
#
# Indices 1 2 3 4 5 6 
#
# 1 72.0491 14.0011 12.8149 0.0000 0.0000 0.0000
# 2 14.0011 96.6679 12.5986 0.0000 0.0000 0.0000
# 3 12.8149 12.5986 152.0884 0.0000 0.0000 0.0000
# 4 0.0000 0.0000 0.0000 6.2906 0.0000 0.0000
# 5 0.0000 0.0000 0.0000 0.0000 44.2041 0.0000
# 6 0.0000 0.0000 0.0000 0.0000 0.0000 5.5591
#
#
#
# Elastic Compliance Matrix: (Units=1/GPa)
#
#
# Indices 1 2 3 4 5 6 
#
# 1 0.014447 -0.001955 -0.001055 0.000000 0.000000 0.000000
# 2 -0.001955 0.010722 -0.000723 0.000000 0.000000 0.000000
# 3 -0.001055 -0.000723 0.006724 0.000000 0.000000 0.000000
# 4 0.000000 0.000000 0.000000 0.158966 0.000000 0.000000
# 5 0.000000 0.000000 0.000000 0.000000 0.022622 0.000000
# 6 0.000000 0.000000 0.000000 0.000000 0.000000 0.179884
#
#
# Mechanical properties :
#
#
# Convention : Reuss Voigt Hill
#
# Bulk Modulus (GPa) = 40.94059 44.40383 42.67221
# Shear Modulus (GPa) = 12.22569 29.97017 21.09793
#
# Velocity S-wave (km/s) = 2.36113 3.69682 3.10173
# Velocity P-wave (km/s) = 5.10904 6.20244 5.68210
#
# Compressibility (1/GPa) = 0.02442564
#
# Stress axis : x y z
#
# Youngs Moduli (GPa) = 69.21840 93.26502 148.72155
#
# Poissons Ratio (x) = 0.18233 0.15695
# Poissons Ratio (y) = 0.13532 0.10760
# Poissons Ratio (z) = 0.07305 0.06747
#
# Static dielectric constant tensor:
#      x y z
#    x 1.851510 0.000000 0.000000 
#    y 0.000000 1.832590 0.000000 
#    z 0.000000 0.000000 1.808660 
# 
# From -- ./inp_files/25411.got.cif
#   From: 2010.05.17/outbox.cif.g08.bks.cpg/sg46_13_cif.got.tgz:25411.got - 2010.06.03 19:58:25.
