data_PCOD9380913
_publ_section_title
;
Structure prediction by ZEFSAII (Michael W. Deem and Ramdas Pophale) SiO2 
 PCOD9380913
Probable space group: I M A 2
;
_chemical_formula_sum "Si O2"
_cell_formula_units_Z 40
_cell_length_a 13.299718
_cell_length_b 9.264370
_cell_length_c 15.076135
_cell_angle_alpha 90.000000
_cell_angle_beta 90.000000
_cell_angle_gamma 90.000000
_cell_volume 1857.583487
_symmetry_space_group_name_H-M "I M A 2"
_symmetry_group_IT_number 46
_symmetry_cell_setting 'orthorhombic'
loop_
_space_group_symop_operation_xyz
x,y,z
-x,-y,z
1/2-x,y,z
1/2+x,-y,z
1/2+x,1/2+y,1/2+z
1/2-x,1/2-y,1/2+z
-x,1/2+y,1/2+z
x,1/2-y,1/2+z
loop_
_atom_site_type_symbol
_atom_site_label
_atom_site_fract_x
_atom_site_fract_y
_atom_site_fract_z
Si Si1 0.033843 0.665652 0.489630
Si Si2 0.036919 0.833277 0.317873
Si Si3 0.250000 0.501664 0.093980
Si Si4 0.250000 0.415592 0.706871
Si Si5 0.573262 0.705760 0.156637
Si Si6 0.250000 0.823679 0.072866
Si Si7 0.750000 0.442645 0.880318
O O1 0.995377 0.750896 0.403693
O O2 0.152549 0.662341 0.510656
O O3 0.000000 0.500000 0.488125
O O4 0.987293 0.755128 0.569823
O O5 0.152422 0.855440 0.347260
O O6 0.006153 0.727982 0.237011
O O7 0.000000 0.000000 0.303772
O O8 0.351179 0.427076 0.133903
O O9 0.250000 0.668089 0.117656
O O10 0.250000 0.509334 0.984096
O O11 0.152194 0.332234 0.676142
O O12 0.250000 0.563537 0.652902
O O13 0.250000 0.422170 0.813061
#
# Coordination Sequence:
#
# PCOD9380913 Si02
#       7
#     8   8   4   4   8   4   4
#     4  12  25  46  71 106 149 193 246 315 382 455
#     4  12  24  45  74 109 143 201 257 307 386 474
#     4  11  26  48  71 113 151 195 254 320 380 450
#     4  11  22  44  75 101 139 187 250 294 373 459
#     4  11  25  45  73 106 143 197 244 310 372 455
#     4  12  24  46  72 108 146 197 243 314 388 453
#     4  12  22  44  74 108 142 199 253 308 373 484
#
# _framework density 21.533352000000001
#
# number of rings (size 3 to 8) (size 9 to 14) (size 15 to 20)
#    0.000    0.400    6.000    3.000    0.000    0.000 
#    7.200    2.000    0.000    0.000    0.000    0.000 
#    0.000    0.000    0.000    0.000    0.000    0.000 
#
# Total GULP energy -111597.076110 kJ/mol
# GULP energy per Si atom -5579.853806 kJ/mol
# Density = 2.148434 g / cm^3
# Si number density = 21.533352 Si / 1000 Ang^3
#
#
#
# Elastic Constant Matrix: (Units=GPa)
#
#
# Indices 1 2 3 4 5 6 
#
# 1 97.1431 30.8197 7.1570 0.0000 0.0000 0.0000
# 2 30.8197 107.5377 27.1086 0.0000 0.0000 0.0000
# 3 7.1570 27.1086 135.1376 0.0000 0.0000 0.0000
# 4 0.0000 0.0000 0.0000 34.7784 0.0000 0.0000
# 5 0.0000 0.0000 0.0000 0.0000 22.7050 0.0000
# 6 0.0000 0.0000 0.0000 0.0000 0.0000 -0.0181
#
#
#
# Elastic Compliance Matrix: (Units=1/GPa)
#
#
# Indices 1 2 3 4 5 6 
#
# 1 0.011324 -0.003259 0.000054 0.000000 0.000000 0.000000
# 2 -0.003259 0.010732 -0.001980 0.000000 0.000000 0.000000
# 3 0.000054 -0.001980 0.007794 0.000000 0.000000 0.000000
# 4 0.000000 0.000000 0.000000 0.028753 0.000000 0.000000
# 5 0.000000 0.000000 0.000000 0.000000 0.044043 0.000000
# 6 0.000000 0.000000 0.000000 0.000000 0.000000-55.312892
#
#
# Mechanical properties :
#
#
# Convention : Reuss Voigt Hill
#
# Bulk Modulus (GPa) = 51.33466 52.22099 51.77783
# Shear Modulus (GPa) = -0.09059 29.80860 14.85900
#
# Velocity S-wave (km/s) = -0.20533 3.72465 2.62972
# Velocity P-wave (km/s) = 4.88213 6.54227 5.77219
#
# Compressibility (1/GPa) = 0.01948001
#
# Stress axis : x y z
#
# Youngs Moduli (GPa) = 88.30737 93.17677 128.29968
#
# Poissons Ratio (x) = 0.30367 -0.00693
# Poissons Ratio (y) = 0.28780 0.25407
# Poissons Ratio (z) = -0.00477 0.18452
#
# Static dielectric constant tensor:
#      x y z
#    x 1.848610 0.000000 0.000000 
#    y 0.000000 1.784980 0.000000 
#    z 0.000000 0.000000 1.831000 
# 
# From -- ./inp_files/15726.got.cif
#   From: 2010.05.17/outbox.cif.g08.bks.cpg/sg46_8_cif.got.tgz:15726.got - 2010.06.03 19:58:25.
