data_PCOD9380488
_publ_section_title
;
Structure prediction by ZEFSAII (Michael W. Deem and Ramdas Pophale) SiO2 
 PCOD9380488
Probable space group: I M A 2
;
_chemical_formula_sum "Si O2"
_cell_formula_units_Z 48
_cell_length_a 17.105664
_cell_length_b 9.235338
_cell_length_c 12.807068
_cell_angle_alpha 90.000000
_cell_angle_beta 90.000000
_cell_angle_gamma 90.000000
_cell_volume 2023.216915
_symmetry_space_group_name_H-M "I M A 2"
_symmetry_group_IT_number 46
_symmetry_cell_setting 'orthorhombic'
loop_
_space_group_symop_operation_xyz
x,y,z
-x,-y,z
1/2-x,y,z
1/2+x,-y,z
1/2+x,1/2+y,1/2+z
1/2-x,1/2-y,1/2+z
-x,1/2+y,1/2+z
x,1/2-y,1/2+z
loop_
_atom_site_type_symbol
_atom_site_label
_atom_site_fract_x
_atom_site_fract_y
_atom_site_fract_z
Si Si1 0.836230 0.623263 0.817210
Si Si2 0.411936 0.712645 0.167314
Si Si3 0.165140 0.975345 0.089634
Si Si4 0.552367 0.697665 0.546098
Si Si5 0.659824 0.958349 0.550215
Si Si6 0.497402 0.676730 0.839732
O O1 0.750000 0.692149 0.826087
O O2 0.838087 0.538060 0.708212
O O3 0.911994 0.724747 0.815891
O O4 0.844478 0.525500 0.923227
O O5 0.493848 0.794999 0.142442
O O6 0.397615 0.555423 0.120775
O O7 0.423532 0.738322 0.290276
O O8 0.346398 0.806517 0.110138
O O9 0.250000 0.008043 0.043786
O O10 0.091222 0.042220 0.029096
O O11 0.499740 0.778325 0.460897
O O12 0.628882 0.795696 0.564609
O O13 0.750000 0.975712 0.581346
O O14 0.500000 0.500000 0.826744
#
# Coordination Sequence:
#
# PCOD9380488 Si02
#       6
#     8   8   8   8   8   8
#     4   9  18  36  62  88 117 165 215 253 307 384
#     4  12  22  38  64  96 127 165 211 267 324 382
#     4  11  22  39  65  93 126 166 214 269 321 381
#     4  11  22  39  66  92 125 167 217 264 317 382
#     4  10  22  40  64  93 128 167 212 266 321 383
#     4  11  20  38  62  93 127 169 217 257 322 396
#
# _framework density 23.724595999999998
#
# number of rings (size 3 to 8) (size 9 to 14) (size 15 to 20)
#    0.000    1.333    3.333    4.000    0.000    0.667 
#    0.000    3.333    0.000    2.000    0.000    0.000 
#    0.000    0.000    0.000    0.000    0.000    0.000 
#
# Total GULP energy -133678.668756 kJ/mol
# GULP energy per Si atom -5569.944531 kJ/mol
# Density = 2.367060 g / cm^3
# Si number density = 23.724596 Si / 1000 Ang^3
#
#
#
# Elastic Constant Matrix: (Units=GPa)
#
#
# Indices 1 2 3 4 5 6 
#
# 1 112.9259 0.0264 8.4952 0.0000 0.0000 0.0000
# 2 0.0264 53.4799 16.3648 0.0000 0.0000 0.0000
# 3 8.4952 16.3648 34.4667 0.0000 0.0000 0.0000
# 4 0.0000 0.0000 0.0000 23.0044 0.0000 0.0000
# 5 0.0000 0.0000 0.0000 0.0000 31.7051 0.0000
# 6 0.0000 0.0000 0.0000 0.0000 0.0000 25.7314
#
#
#
# Elastic Compliance Matrix: (Units=1/GPa)
#
#
# Indices 1 2 3 4 5 6 
#
# 1 0.009051 0.000793 -0.002608 0.000000 0.000000 0.000000
# 2 0.000793 0.021947 -0.010616 0.000000 0.000000 0.000000
# 3 -0.002608 -0.010616 0.034697 0.000000 0.000000 0.000000
# 4 0.000000 0.000000 0.000000 0.043470 0.000000 0.000000
# 5 0.000000 0.000000 0.000000 0.000000 0.031541 0.000000
# 6 0.000000 0.000000 0.000000 0.000000 0.000000 0.038863
#
#
# Mechanical properties :
#
#
# Convention : Reuss Voigt Hill
#
# Bulk Modulus (GPa) = 24.48907 27.84950 26.16929
# Shear Modulus (GPa) = 22.93156 27.82057 25.37606
#
# Velocity S-wave (km/s) = 3.11235 3.42811 3.27404
# Velocity P-wave (km/s) = 4.82289 5.23769 5.03456
#
# Compressibility (1/GPa) = 0.04083454
#
# Stress axis : x y z
#
# Youngs Moduli (GPa) = 110.48080 45.56503 28.82118
#
# Poissons Ratio (x) = -0.03615 0.07516
# Poissons Ratio (y) = -0.08766 0.30596
# Poissons Ratio (z) = 0.28810 0.48371
#
# Static dielectric constant tensor:
#      x y z
#    x 1.928160 0.000000 0.000000 
#    y 0.000000 1.874270 0.000000 
#    z 0.000000 0.000000 2.039630 
# 
# From -- ./inp_files/16558.got.cif
#   From: 2010.05.17/outbox.cif.g08.bks.cpg/sg46_9_cif.got.tgz:16558.got - 2010.06.03 19:58:25.
