data_PCOD9380549
_publ_section_title
;
Structure prediction by ZEFSAII (Michael W. Deem and Ramdas Pophale) SiO2 
 PCOD9380549
Probable space group: I M A 2
;
_chemical_formula_sum "Si O2"
_cell_formula_units_Z 40
_cell_length_a 16.100254
_cell_length_b 5.041578
_cell_length_c 23.528303
_cell_angle_alpha 90.000000
_cell_angle_beta 90.000000
_cell_angle_gamma 90.000000
_cell_volume 1909.808503
_symmetry_space_group_name_H-M "I M A 2"
_symmetry_group_IT_number 46
_symmetry_cell_setting 'orthorhombic'
loop_
_space_group_symop_operation_xyz
x,y,z
-x,-y,z
1/2-x,y,z
1/2+x,-y,z
1/2+x,1/2+y,1/2+z
1/2-x,1/2-y,1/2+z
-x,1/2+y,1/2+z
x,1/2-y,1/2+z
loop_
_atom_site_type_symbol
_atom_site_label
_atom_site_fract_x
_atom_site_fract_y
_atom_site_fract_z
Si Si1 0.592916 0.585870 0.505720
Si Si2 0.406140 0.449866 0.189558
Si Si3 0.750000 0.075600 0.769914
Si Si4 0.847065 0.060930 0.127221
Si Si5 0.843112 0.411517 0.949482
Si Si6 0.750000 0.575405 0.843982
O O1 0.500000 0.500000 0.519040
O O2 0.644413 0.534208 0.562687
O O3 0.626582 0.386165 0.457413
O O4 0.600598 0.882698 0.483184
O O5 0.500000 0.500000 0.210065
O O6 0.333293 0.514393 0.234336
O O7 0.392369 0.153632 0.166947
O O8 0.388631 0.654425 0.137806
O O9 0.750000 0.377537 0.790988
O O10 0.750000 0.876269 0.823632
O O11 0.750000 0.074931 0.142538
O O12 0.750000 0.431197 0.975090
O O13 0.827883 0.502716 0.884746
#
# Coordination Sequence:
#
# PCOD9380549 Si02
#       6
#     8   8   4   8   8   4
#     4  12  23  38  62  97 137 167 204 260 317 381
#     4  12  25  43  66  99 133 166 218 268 314 385
#     4  12  22  46  67  96 119 176 214 268 342 366
#     4  12  23  42  64  97 132 177 213 249 321 388
#     4  10  22  42  63  91 115 175 211 258 310 381
#     4  10  24  42  71  84 123 164 218 270 322 382
#
# _framework density 20.944509
#
# number of rings (size 3 to 8) (size 9 to 14) (size 15 to 20)
#    0.600    0.000    2.000    7.800    0.000    0.000 
#    0.000    6.000    0.000    0.000    0.000    0.000 
#    0.000    0.000    0.000    0.000    0.000    0.000 
#
# Total GULP energy -111819.986451 kJ/mol
# GULP energy per Si atom -5590.999323 kJ/mol
# Density = 2.089684 g / cm^3
# Si number density = 20.944509 Si / 1000 Ang^3
#
#
#
# Elastic Constant Matrix: (Units=GPa)
#
#
# Indices 1 2 3 4 5 6 
#
# 1 123.4050 5.6452 7.7491 0.0000 0.0000 0.0000
# 2 5.6452 58.2715 -14.7130 0.0000 0.0000 0.0000
# 3 7.7491 -14.7130 50.9459 0.0000 0.0000 0.0000
# 4 0.0000 0.0000 0.0000 33.3021 0.0000 0.0000
# 5 0.0000 0.0000 0.0000 0.0000 4.8141 0.0000
# 6 0.0000 0.0000 0.0000 0.0000 0.0000 14.7287
#
#
#
# Elastic Compliance Matrix: (Units=1/GPa)
#
#
# Indices 1 2 3 4 5 6 
#
# 1 0.008259 -0.001205 -0.001604 0.000000 0.000000 0.000000
# 2 -0.001205 0.018687 0.005580 0.000000 0.000000 0.000000
# 3 -0.001604 0.005580 0.021484 0.000000 0.000000 0.000000
# 4 0.000000 0.000000 0.000000 0.030028 0.000000 0.000000
# 5 0.000000 0.000000 0.000000 0.000000 0.207724 0.000000
# 6 0.000000 0.000000 0.000000 0.000000 0.000000 0.067895
#
#
# Mechanical properties :
#
#
# Convention : Reuss Voigt Hill
#
# Bulk Modulus (GPa) = 18.52849 25.55391 22.04120
# Shear Modulus (GPa) = 13.64159 26.16505 19.90332
#
# Velocity S-wave (km/s) = 2.55487 3.53832 3.08602
# Velocity P-wave (km/s) = 4.19151 5.37775 4.82125
#
# Compressibility (1/GPa) = 0.05397094
#
# Stress axis : x y z
#
# Youngs Moduli (GPa) = 121.07603 53.51404 46.54594
#
# Poissons Ratio (x) = 0.06450 0.07468
# Poissons Ratio (y) = 0.14592 -0.25973
# Poissons Ratio (z) = 0.19425 -0.29861
#
# Static dielectric constant tensor:
#      x y z
#    x 1.751940 0.000000 0.000000 
#    y 0.000000 1.715280 0.000000 
#    z 0.000000 0.000000 1.741230 
# 
# From -- ./inp_files/23568.got.cif
#   From: 2010.05.17/outbox.cif.g08.bks.cpg/sg46_12_cif.got.tgz:23568.got - 2010.06.03 19:58:25.
