data_PCOD9380204
_publ_section_title
;
Structure prediction by ZEFSAII (Michael W. Deem and Ramdas Pophale) SiO2 
 PCOD9380204
Probable space group: I M A 2
;
_chemical_formula_sum "Si O2"
_cell_formula_units_Z 64
_cell_length_a 16.804334
_cell_length_b 21.045096
_cell_length_c 8.894156
_cell_angle_alpha 90.000000
_cell_angle_beta 90.000000
_cell_angle_gamma 90.000000
_cell_volume 3145.407794
_symmetry_space_group_name_H-M "I M A 2"
_symmetry_group_IT_number 46
_symmetry_cell_setting 'orthorhombic'
loop_
_space_group_symop_operation_xyz
x,y,z
-x,-y,z
1/2-x,y,z
1/2+x,-y,z
1/2+x,1/2+y,1/2+z
1/2-x,1/2-y,1/2+z
-x,1/2+y,1/2+z
x,1/2-y,1/2+z
loop_
_atom_site_type_symbol
_atom_site_label
_atom_site_fract_x
_atom_site_fract_y
_atom_site_fract_z
Si Si1 0.661967 0.575926 0.559790
Si Si2 0.474153 0.874804 0.364181
Si Si3 0.563373 0.758944 0.891342
Si Si4 0.367229 0.066785 0.411865
Si Si5 0.337024 0.569413 0.040639
Si Si6 0.015127 0.628940 0.524901
Si Si7 0.161211 0.558587 0.390826
Si Si8 0.338988 0.311769 0.119802
O O1 0.750000 0.601490 0.510947
O O2 0.659945 0.581554 0.741386
O O3 0.576495 0.604410 0.510682
O O4 0.658859 0.504716 0.492653
O O5 0.522462 0.808643 0.358153
O O6 0.537840 0.927699 0.410654
O O7 0.402565 0.882008 0.479476
O O8 0.452861 0.885572 0.191369
O O9 0.595598 0.798570 0.748878
O O10 0.498241 0.798076 0.983901
O O11 0.638562 0.740625 0.994500
O O12 0.342042 0.119876 0.534974
O O13 0.341980 0.995856 0.448011
O O14 0.250000 0.598534 0.021672
O O15 0.344139 0.546753 0.212633
O O16 0.082738 0.599071 0.422634
O O17 0.250000 0.587471 0.417719
O O18 0.250000 0.302388 0.177781
#
# Coordination Sequence:
#
# PCOD9380204 Si02
#       8
#     8   8   8   8   8   8   8   8
#     4  10  21  39  61  92 134 172 214 260 318 397
#     4  10  23  42  62  90 126 171 218 263 330 398
#     4  11  24  42  60  92 126 171 222 272 321 401
#     4  10  22  39  64  95 130 173 214 266 326 398
#     4  11  23  40  65  96 127 163 216 279 337 394
#     4  11  23  40  63  88 123 171 214 264 326 389
#     4  10  24  40  61  94 128 165 214 277 339 393
#     4  11  23  40  63  93 132 174 220 271 330 394
#
# _framework density 20.347124000000001
#
# number of rings (size 3 to 8) (size 9 to 14) (size 15 to 20)
#    0.000    1.500    1.250    3.000    5.250    5.500 
#    0.000    0.625    0.000    0.000    0.000    0.000 
#    0.000    0.000    0.000    0.000    0.000    0.000 
#
# Total GULP energy -178412.194790 kJ/mol
# GULP energy per Si atom -5575.381087 kJ/mol
# Density = 2.030081 g / cm^3
# Si number density = 20.347124 Si / 1000 Ang^3
#
#
#
# Elastic Constant Matrix: (Units=GPa)
#
#
# Indices 1 2 3 4 5 6 
#
# 1 92.0572 18.1704 44.4121 0.0000 0.0000 0.0000
# 2 18.1704 44.7763 20.8199 0.0000 0.0000 0.0000
# 3 44.4121 20.8199 62.7371 0.0000 0.0000 0.0000
# 4 0.0000 0.0000 0.0000 30.9740 0.0000 0.0000
# 5 0.0000 0.0000 0.0000 0.0000 20.6733 0.0000
# 6 0.0000 0.0000 0.0000 0.0000 0.0000 9.5838
#
#
#
# Elastic Compliance Matrix: (Units=1/GPa)
#
#
# Indices 1 2 3 4 5 6 
#
# 1 0.016582 -0.001503 -0.011240 0.000000 0.000000 0.000000
# 2 -0.001503 0.026544 -0.007745 0.000000 0.000000 0.000000
# 3 -0.011240 -0.007745 0.026467 0.000000 0.000000 0.000000
# 4 0.000000 0.000000 0.000000 0.032285 0.000000 0.000000
# 5 0.000000 0.000000 0.000000 0.000000 0.048372 0.000000
# 6 0.000000 0.000000 0.000000 0.000000 0.000000 0.104343
#
#
# Mechanical properties :
#
#
# Convention : Reuss Voigt Hill
#
# Bulk Modulus (GPa) = 34.94373 40.70836 37.82605
# Shear Modulus (GPa) = 16.38769 19.99077 18.18923
#
# Velocity S-wave (km/s) = 2.84105 3.13786 2.99314
# Velocity P-wave (km/s) = 5.28896 5.76009 5.52955
#
# Compressibility (1/GPa) = 0.02861744
#
# Stress axis : x y z
#
# Youngs Moduli (GPa) = 60.30647 37.67274 37.78351
#
# Poissons Ratio (x) = 0.05661 0.42468
# Poissons Ratio (y) = 0.09063 0.29264
# Poissons Ratio (z) = 0.67783 0.29178
#
# Static dielectric constant tensor:
#      x y z
#    x 1.787340 0.000000 0.000000 
#    y 0.000000 1.727180 0.000000 
#    z 0.000000 0.000000 1.749660 
# 
# From -- ./inp_files/6103.got.cif
#   From: 2010.05.17/outbox.cif.g08.bks.cpg/sg46_4_cif.got.tgz:6103.got - 2010.06.03 19:58:25.
