data_PCOD9380887
_publ_section_title
;
Structure prediction by ZEFSAII (Michael W. Deem and Ramdas Pophale) SiO2 
 PCOD9380887
Probable space group: I M A 2
;
_chemical_formula_sum "Si O2"
_cell_formula_units_Z 60
_cell_length_a 21.223962
_cell_length_b 7.429660
_cell_length_c 14.389859
_cell_angle_alpha 90.000000
_cell_angle_beta 90.000000
_cell_angle_gamma 90.000000
_cell_volume 2269.091128
_symmetry_space_group_name_H-M "I M A 2"
_symmetry_group_IT_number 46
_symmetry_cell_setting 'orthorhombic'
loop_
_space_group_symop_operation_xyz
x,y,z
-x,-y,z
1/2-x,y,z
1/2+x,-y,z
1/2+x,1/2+y,1/2+z
1/2-x,1/2-y,1/2+z
-x,1/2+y,1/2+z
x,1/2-y,1/2+z
loop_
_atom_site_type_symbol
_atom_site_label
_atom_site_fract_x
_atom_site_fract_y
_atom_site_fract_z
Si Si1 0.679373 0.884799 0.469270
Si Si2 0.750000 0.048455 0.868367
Si Si3 0.679373 0.615206 0.767467
Si Si4 0.159353 0.779405 0.726678
Si Si5 0.414767 0.249998 0.618368
Si Si6 0.159353 0.779409 0.010058
Si Si7 0.987436 0.282394 0.759961
Si Si8 0.512564 0.282394 0.976776
O O1 0.750000 0.812446 0.482785
O O2 0.656092 0.818276 0.368369
O O3 0.632988 0.859500 0.554534
O O4 0.683452 0.098256 0.462332
O O5 0.805563 0.066178 0.784794
O O6 0.805563 0.066175 0.951941
O O7 0.750000 0.687560 0.753954
O O8 0.683452 0.401748 0.774404
O O9 0.632988 0.640506 0.682203
O O10 0.175309 0.749998 0.618368
O O11 0.083754 0.772793 0.736206
O O12 0.463044 0.178369 0.695581
O O13 0.463043 0.321630 0.541156
O O14 0.083754 0.772796 0.000530
O O15 0.998083 0.251284 0.868368
O O16 0.000000 0.500000 0.743827
O O17 0.500000 0.500000 0.992910
#
# Coordination Sequence:
#
# PCOD9380887 Si02
#       8
#     8   4   8   8   8   8   8   8
#     4  11  22  42  67  92 127 169 214 261 315 378
#     4  12  22  40  62  92 128 166 214 274 310 372
#     4  11  22  42  67  92 127 169 214 261 315 378
#     4  12  22  38  67  96 123 167 219 264 316 377
#     4  12  23  36  66  99 126 162 212 260 310 381
#     4  12  22  38  67  96 123 167 219 264 316 377
#     4  11  22  39  63  89 123 163 207 256 311 373
#     4  11  22  39  63  89 123 163 207 256 311 373
#
# _framework density 26.442305999999999
#
# number of rings (size 3 to 8) (size 9 to 14) (size 15 to 20)
#    0.000    0.533    8.000    1.600    0.000    0.000 
#    0.000    0.000    5.867    4.800    0.000    0.000 
#    0.000    0.000    0.000    0.000    0.000    0.000 
#
# Total GULP energy -167359.767088 kJ/mol
# GULP energy per Si atom -5578.658903 kJ/mol
# Density = 2.638212 g / cm^3
# Si number density = 26.442306 Si / 1000 Ang^3
#
#
#
# Elastic Constant Matrix: (Units=GPa)
#
#
# Indices 1 2 3 4 5 6 
#
# 1 177.1954 23.5929 62.0667 0.0000 0.0000 0.0000
# 2 23.5929 82.8007 27.0329 0.0000 0.0000 0.0000
# 3 62.0667 27.0329 256.9192 0.0000 0.0000 0.0000
# 4 0.0000 0.0000 0.0000 19.4798 0.0000 0.0000
# 5 0.0000 0.0000 0.0000 0.0000 -23.5731 0.0000
# 6 0.0000 0.0000 0.0000 0.0000 0.0000 30.5291
#
#
#
# Elastic Compliance Matrix: (Units=1/GPa)
#
#
# Indices 1 2 3 4 5 6 
#
# 1 0.006307 -0.001346 -0.001382 0.000000 0.000000 0.000000
# 2 -0.001346 0.012794 -0.001021 0.000000 0.000000 0.000000
# 3 -0.001382 -0.001021 0.004334 0.000000 0.000000 0.000000
# 4 0.000000 0.000000 0.000000 0.051335 0.000000 0.000000
# 5 0.000000 0.000000 0.000000 0.000000 -0.042421 0.000000
# 6 0.000000 0.000000 0.000000 0.000000 0.000000 0.032756
#
#
# Mechanical properties :
#
#
# Convention : Reuss Voigt Hill
#
# Bulk Modulus (GPa) = 62.74857 82.47781 72.61319
# Shear Modulus (GPa) = 64.17337 32.23535 48.20436
#
# Velocity S-wave (km/s) = 4.93172 3.49532 4.27429
# Velocity P-wave (km/s) = 7.49740 6.89558 7.20278
#
# Compressibility (1/GPa) = 0.01593662
#
# Stress axis : x y z
#
# Youngs Moduli (GPa) = 158.56031 78.16145 230.75670
#
# Poissons Ratio (x) = 0.10519 0.31890
# Poissons Ratio (y) = 0.21340 0.23562
# Poissons Ratio (z) = 0.21913 0.07981
#
# Static dielectric constant tensor:
#      x y z
#    x 2.085060 0.000000 0.000000 
#    y 0.000000 2.237250 0.000000 
#    z 0.000000 0.000000 2.045810 
# 
# From -- ./inp_files/12443.got.cif
#   From: 2010.05.17/outbox.cif.g08.bks.cpg/sg46_7_cif.got.tgz:12443.got - 2010.06.03 19:58:25.
