data_PCOD9380005
_publ_section_title
;
Structure prediction by ZEFSAII (Michael W. Deem and Ramdas Pophale) SiO2 
 PCOD9380005
Probable space group: I M A 2
;
_chemical_formula_sum "Si O2"
_cell_formula_units_Z 64
_cell_length_a 20.515619
_cell_length_b 16.705325
_cell_length_c 9.365299
_cell_angle_alpha 90.000000
_cell_angle_beta 90.000000
_cell_angle_gamma 90.000000
_cell_volume 3209.676050
_symmetry_space_group_name_H-M "I M A 2"
_symmetry_group_IT_number 46
_symmetry_cell_setting 'orthorhombic'
loop_
_space_group_symop_operation_xyz
x,y,z
-x,-y,z
1/2-x,y,z
1/2+x,-y,z
1/2+x,1/2+y,1/2+z
1/2-x,1/2-y,1/2+z
-x,1/2+y,1/2+z
x,1/2-y,1/2+z
loop_
_atom_site_type_symbol
_atom_site_label
_atom_site_fract_x
_atom_site_fract_y
_atom_site_fract_z
Si Si1 0.445120 0.443350 0.610510
Si Si2 0.370578 0.594459 0.687400
Si Si3 0.503243 0.820576 0.300844
Si Si4 0.008998 0.369954 0.312794
Si Si5 0.178173 0.521366 0.973017
Si Si6 0.370267 0.851115 0.683005
Si Si7 0.175874 0.725663 0.475450
Si Si8 0.448064 0.071092 0.537603
O O1 0.500000 0.500000 0.684114
O O2 0.387486 0.507989 0.615019
O O3 0.441583 0.362632 0.701861
O O4 0.474895 0.413603 0.460580
O O5 0.435141 0.646404 0.733934
O O6 0.332467 0.647426 0.573577
O O7 0.332475 0.576024 0.832792
O O8 0.508420 0.726046 0.315163
O O9 0.517397 0.857278 0.454599
O O10 0.937159 0.386296 0.247700
O O11 0.060514 0.402454 0.199557
O O12 0.250000 0.485963 0.970032
O O13 0.169000 0.575589 0.114373
O O14 0.119150 0.458683 0.971531
O O15 0.373130 0.789439 0.548693
O O16 0.339180 0.800937 0.813738
O O17 0.250000 0.756538 0.485603
O O18 0.500000 0.000000 0.529609
#
# Coordination Sequence:
#
# PCOD9380005 Si02
#       8
#     8   8   8   8   8   8   8   8
#     4  10  21  36  57  91 125 162 205 262 321 376
#     4  11  21  40  65  90 130 175 212 267 323 392
#     4  11  20  39  61  92 127 160 206 265 324 383
#     4  12  24  36  64  96 130 161 211 274 334 386
#     4  12  25  43  66  94 130 175 223 269 327 395
#     4  12  25  41  62  93 137 179 220 263 324 393
#     4  12  25  40  58  90 137 183 219 256 312 400
#     4  12  22  40  65  94 125 167 213 270 324 388
#
# _framework density 19.939708
#
# number of rings (size 3 to 8) (size 9 to 14) (size 15 to 20)
#    0.000    0.500    5.000    5.250    3.500    0.000 
#    0.000    0.000    0.000    0.750    0.000    0.000 
#    0.000    0.000    0.000    0.000    0.000    0.000 
#
# Total GULP energy -178701.255304 kJ/mol
# GULP energy per Si atom -5584.414228 kJ/mol
# Density = 1.989432 g / cm^3
# Si number density = 19.939708 Si / 1000 Ang^3
#
#
#
# Elastic Constant Matrix: (Units=GPa)
#
#
# Indices 1 2 3 4 5 6 
#
# 1 75.1275 35.7306 19.6835 0.0000 0.0000 0.0000
# 2 35.7306 86.3526 29.1262 0.0000 0.0000 0.0000
# 3 19.6835 29.1262 104.2397 0.0000 0.0000 0.0000
# 4 0.0000 0.0000 0.0000 29.4137 0.0000 0.0000
# 5 0.0000 0.0000 0.0000 0.0000 15.4169 0.0000
# 6 0.0000 0.0000 0.0000 0.0000 0.0000 22.7861
#
#
#
# Elastic Compliance Matrix: (Units=1/GPa)
#
#
# Indices 1 2 3 4 5 6 
#
# 1 0.016743 -0.006471 -0.001353 0.000000 0.000000 0.000000
# 2 -0.006471 0.015287 -0.003049 0.000000 0.000000 0.000000
# 3 -0.001353 -0.003049 0.010701 0.000000 0.000000 0.000000
# 4 0.000000 0.000000 0.000000 0.033998 0.000000 0.000000
# 5 0.000000 0.000000 0.000000 0.000000 0.064864 0.000000
# 6 0.000000 0.000000 0.000000 0.000000 0.000000 0.043886
#
#
# Mechanical properties :
#
#
# Convention : Reuss Voigt Hill
#
# Bulk Modulus (GPa) = 47.65903 48.31115 47.98509
# Shear Modulus (GPa) = 23.34036 25.60196 24.47116
#
# Velocity S-wave (km/s) = 3.42504 3.58714 3.50702
# Velocity P-wave (km/s) = 6.29243 6.43723 6.36524
#
# Compressibility (1/GPa) = 0.02098238
#
# Stress axis : x y z
#
# Youngs Moduli (GPa) = 59.72612 65.41649 93.45035
#
# Poissons Ratio (x) = 0.42334 0.12647
# Poissons Ratio (y) = 0.38651 0.28496
# Poissons Ratio (z) = 0.08083 0.19948
#
# Static dielectric constant tensor:
#      x y z
#    x 1.724830 0.000000 0.000000 
#    y 0.000000 1.739200 0.000000 
#    z 0.000000 0.000000 1.749710 
# 
# From -- ./inp_files/7984.got.cif
#   From: 2010.05.17/outbox.cif.g08.bks.cpg/sg46_4_cif.got.tgz:7984.got - 2010.06.03 19:58:25.
