data_PCOD9380346
_publ_section_title
;
Structure prediction by ZEFSAII (Michael W. Deem and Ramdas Pophale) SiO2 
 PCOD9380346
Probable space group: I M A 2
;
_chemical_formula_sum "Si O2"
_cell_formula_units_Z 56
_cell_length_a 14.143717
_cell_length_b 14.702044
_cell_length_c 11.482367
_cell_angle_alpha 90.000000
_cell_angle_beta 90.000000
_cell_angle_gamma 90.000000
_cell_volume 2387.661188
_symmetry_space_group_name_H-M "I M A 2"
_symmetry_group_IT_number 46
_symmetry_cell_setting 'orthorhombic'
loop_
_space_group_symop_operation_xyz
x,y,z
-x,-y,z
1/2-x,y,z
1/2+x,-y,z
1/2+x,1/2+y,1/2+z
1/2-x,1/2-y,1/2+z
-x,1/2+y,1/2+z
x,1/2-y,1/2+z
loop_
_atom_site_type_symbol
_atom_site_label
_atom_site_fract_x
_atom_site_fract_y
_atom_site_fract_z
Si Si1 0.062302 0.822062 0.484480
Si Si2 0.636750 0.540854 0.385728
Si Si3 0.362211 0.875113 0.042826
Si Si4 0.857745 0.846019 0.114380
Si Si5 0.467758 0.594731 0.769307
Si Si6 0.641556 0.018031 0.636279
Si Si7 0.350011 0.337020 0.994370
O O1 0.094947 0.724776 0.527899
O O2 0.100781 0.851902 0.358646
O O3 0.083630 0.898005 0.582079
O O4 0.952926 0.821049 0.444058
O O5 0.750000 0.554250 0.378454
O O6 0.614543 0.441262 0.436248
O O7 0.609712 0.611766 0.488289
O O8 0.604346 0.533372 0.252245
O O9 0.250000 0.867395 0.049893
O O10 0.403330 0.923345 0.156434
O O11 0.750000 0.880349 0.137371
O O12 0.849910 0.737712 0.097165
O O13 0.936945 0.865277 0.209743
O O14 0.500000 0.500000 0.826200
O O15 0.750000 0.050508 0.659778
O O16 0.648726 0.938853 0.541093
O O17 0.250000 0.321349 0.928948
#
# Coordination Sequence:
#
# PCOD9380346 Si02
#       7
#     8   8   8   8   8   8   8
#     4  12  26  44  65 101 142 184 228 286 353 426
#     4   9  20  41  70  99 131 172 225 285 346 411
#     4  11  25  45  69 101 138 184 237 288 349 420
#     4  10  21  42  67  99 135 173 225 289 349 408
#     4  12  25  44  69 101 142 186 236 291 352 426
#     4  10  22  43  69  99 134 177 224 279 351 425
#     4  10  22  42  65  94 133 173 223 278 341 412
#
# _framework density 23.453914000000001
#
# number of rings (size 3 to 8) (size 9 to 14) (size 15 to 20)
#    0.000    1.429    2.857    1.714    2.000    2.857 
#    5.143    2.857    0.000    0.000    0.000    0.000 
#    0.000    0.000    0.000    0.000    0.000    0.000 
#
# Total GULP energy -156218.650734 kJ/mol
# GULP energy per Si atom -5579.237526 kJ/mol
# Density = 2.340053 g / cm^3
# Si number density = 23.453914 Si / 1000 Ang^3
#
#
#
# Elastic Constant Matrix: (Units=GPa)
#
#
# Indices 1 2 3 4 5 6 
#
# 1 69.5632 10.0902 12.2554 0.0000 0.0000 0.0000
# 2 10.0902 112.6285 2.8012 0.0000 0.0000 0.0000
# 3 12.2554 2.8012 81.7223 0.0000 0.0000 0.0000
# 4 0.0000 0.0000 0.0000 7.4251 0.0000 0.0000
# 5 0.0000 0.0000 0.0000 0.0000 18.3554 0.0000
# 6 0.0000 0.0000 0.0000 0.0000 0.0000 22.7879
#
#
#
# Elastic Compliance Matrix: (Units=1/GPa)
#
#
# Indices 1 2 3 4 5 6 
#
# 1 0.014949 -0.001285 -0.002198 0.000000 0.000000 0.000000
# 2 -0.001285 0.008997 -0.000116 0.000000 0.000000 0.000000
# 3 -0.002198 -0.000116 0.012570 0.000000 0.000000 0.000000
# 4 0.000000 0.000000 0.000000 0.134679 0.000000 0.000000
# 5 0.000000 0.000000 0.000000 0.000000 0.054480 0.000000
# 6 0.000000 0.000000 0.000000 0.000000 0.000000 0.043883
#
#
# Mechanical properties :
#
#
# Convention : Reuss Voigt Hill
#
# Bulk Modulus (GPa) = 34.10691 34.91195 34.50943
# Shear Modulus (GPa) = 17.45039 25.63148 21.54094
#
# Velocity S-wave (km/s) = 2.73065 3.30941 3.03386
# Velocity P-wave (km/s) = 4.95132 5.43328 5.19789
#
# Compressibility (1/GPa) = 0.02931958
#
# Stress axis : x y z
#
# Youngs Moduli (GPa) = 66.89431 111.15170 79.55376
#
# Poissons Ratio (x) = 0.14278 0.17484
# Poissons Ratio (y) = 0.08593 0.00921
# Poissons Ratio (z) = 0.14702 0.01286
#
# Static dielectric constant tensor:
#      x y z
#    x 2.006640 0.000000 0.000000 
#    y 0.000000 1.931270 0.000000 
#    z 0.000000 0.000000 1.908610 
# 
# From -- ./inp_files/11146.got.cif
#   From: 2010.05.17/outbox.cif.g08.bks.cpg/sg46_6_cif.got.tgz:11146.got - 2010.06.03 19:58:25.
