data_PCOD9380694
_publ_section_title
;
Structure prediction by ZEFSAII (Michael W. Deem and Ramdas Pophale) SiO2 
 PCOD9380694
Probable space group: I M A 2
;
_chemical_formula_sum "Si O2"
_cell_formula_units_Z 60
_cell_length_a 26.962625
_cell_length_b 11.969971
_cell_length_c 8.482869
_cell_angle_alpha 90.000000
_cell_angle_beta 90.000000
_cell_angle_gamma 90.000000
_cell_volume 2737.776744
_symmetry_space_group_name_H-M "I M A 2"
_symmetry_group_IT_number 46
_symmetry_cell_setting 'orthorhombic'
loop_
_space_group_symop_operation_xyz
x,y,z
-x,-y,z
1/2-x,y,z
1/2+x,-y,z
1/2+x,1/2+y,1/2+z
1/2-x,1/2-y,1/2+z
-x,1/2+y,1/2+z
x,1/2-y,1/2+z
loop_
_atom_site_type_symbol
_atom_site_label
_atom_site_fract_x
_atom_site_fract_y
_atom_site_fract_z
Si Si1 0.396080 0.866249 0.115900
Si Si2 0.145767 0.193736 0.549413
Si Si3 0.829430 0.952971 0.035602
Si Si4 0.493661 0.371419 0.533110
Si Si5 0.305658 0.987745 0.676935
Si Si6 0.571361 0.775465 0.295891
Si Si7 0.845914 0.324763 0.935232
Si Si8 0.750000 0.415940 0.755457
O O1 0.450557 0.830054 0.064886
O O2 0.386622 0.848576 0.301147
O O3 0.383048 0.993247 0.070427
O O4 0.356714 0.794041 0.014174
O O5 0.166864 0.319184 0.538609
O O6 0.187833 0.105906 0.589170
O O7 0.114585 0.164010 0.394520
O O8 0.103802 0.194633 0.684396
O O9 0.793021 0.007019 0.164723
O O10 0.813863 0.990870 0.860501
O O11 0.500000 0.500000 0.485762
O O12 0.463460 0.298217 0.407900
O O13 0.463135 0.355659 0.694583
O O14 0.250000 0.944236 0.652637
O O15 0.343482 0.907496 0.585803
O O16 0.794024 0.342280 0.844289
#
# Coordination Sequence:
#
# PCOD9380694 Si02
#       8
#     8   8   8   8   8   8   8   4
#     4  11  24  45  71  99 137 185 234 296 363 416
#     4  11  24  43  70 101 145 180 231 293 363 422
#     4  11  24  45  70  99 139 184 236 295 352 427
#     4  11  24  44  74 101 144 183 244 297 368 442
#     4  12  26  43  67 102 142 185 241 281 355 423
#     4  10  23  44  66 106 133 184 232 293 366 431
#     4  11  25  44  69 101 140 186 235 298 345 440
#     4  10  24  42  66 102 136 184 236 280 360 406
#
# _framework density 21.915592
#
# number of rings (size 3 to 8) (size 9 to 14) (size 15 to 20)
#    0.000    1.067    2.667    3.200    6.533    2.133 
#    4.800    1.333    0.000    0.000    0.000    0.000 
#    0.000    0.000    0.000    0.000    0.000    0.000 
#
# Total GULP energy -167183.105164 kJ/mol
# GULP energy per Si atom -5572.770172 kJ/mol
# Density = 2.186571 g / cm^3
# Si number density = 21.915592 Si / 1000 Ang^3
#
#
#
# Elastic Constant Matrix: (Units=GPa)
#
#
# Indices 1 2 3 4 5 6 
#
# 1 93.5275 11.6674 34.4347 0.0000 0.0000 0.0000
# 2 11.6674 83.6813 22.8348 0.0000 0.0000 0.0000
# 3 34.4347 22.8348 72.8197 0.0000 0.0000 0.0000
# 4 0.0000 0.0000 0.0000 28.7738 0.0000 0.0000
# 5 0.0000 0.0000 0.0000 0.0000 38.8459 0.0000
# 6 0.0000 0.0000 0.0000 0.0000 0.0000 30.7851
#
#
#
# Elastic Compliance Matrix: (Units=1/GPa)
#
#
# Indices 1 2 3 4 5 6 
#
# 1 0.012948 -0.000147 -0.006076 0.000000 0.000000 0.000000
# 2 -0.000147 0.013070 -0.004029 0.000000 0.000000 0.000000
# 3 -0.006076 -0.004029 0.017869 0.000000 0.000000 0.000000
# 4 0.000000 0.000000 0.000000 0.034754 0.000000 0.000000
# 5 0.000000 0.000000 0.000000 0.000000 0.025743 0.000000
# 6 0.000000 0.000000 0.000000 0.000000 0.000000 0.032483
#
#
# Mechanical properties :
#
#
# Convention : Reuss Voigt Hill
#
# Bulk Modulus (GPa) = 42.76804 43.10027 42.93415
# Shear Modulus (GPa) = 30.27260 31.75373 31.01316
#
# Velocity S-wave (km/s) = 3.72065 3.81059 3.76589
# Velocity P-wave (km/s) = 6.16563 6.25059 6.20825
#
# Compressibility (1/GPa) = 0.02338195
#
# Stress axis : x y z
#
# Youngs Moduli (GPa) = 77.23431 76.51091 55.96169
#
# Poissons Ratio (x) = 0.01126 0.34005
# Poissons Ratio (y) = 0.01136 0.22547
# Poissons Ratio (z) = 0.46931 0.30826
#
# Static dielectric constant tensor:
#      x y z
#    x 1.785700 0.000000 0.000000 
#    y 0.000000 1.807490 0.000000 
#    z 0.000000 0.000000 1.857780 
# 
# From -- ./inp_files/8208.got.cif
#   From: 2010.05.17/outbox.cif.g08.bks.cpg/sg46_5_cif.got.tgz:8208.got - 2010.06.03 19:58:25.
