data_PCOD9380409
_publ_section_title
;
Structure prediction by ZEFSAII (Michael W. Deem and Ramdas Pophale) SiO2 
 PCOD9380409
Probable space group: I M A 2
;
_chemical_formula_sum "Si O2"
_cell_formula_units_Z 56
_cell_length_a 13.996383
_cell_length_b 9.303947
_cell_length_c 20.243391
_cell_angle_alpha 90.000000
_cell_angle_beta 90.000000
_cell_angle_gamma 90.000000
_cell_volume 2636.126879
_symmetry_space_group_name_H-M "I M A 2"
_symmetry_group_IT_number 46
_symmetry_cell_setting 'orthorhombic'
loop_
_space_group_symop_operation_xyz
x,y,z
-x,-y,z
1/2-x,y,z
1/2+x,-y,z
1/2+x,1/2+y,1/2+z
1/2-x,1/2-y,1/2+z
-x,1/2+y,1/2+z
x,1/2-y,1/2+z
loop_
_atom_site_type_symbol
_atom_site_label
_atom_site_fract_x
_atom_site_fract_y
_atom_site_fract_z
Si Si1 0.978939 0.164018 0.209620
Si Si2 0.136009 0.756240 0.983401
Si Si3 0.560566 0.220977 0.844289
Si Si4 0.635956 0.712964 0.137151
Si Si5 0.142790 0.404346 0.364768
Si Si6 0.137152 0.882975 0.618530
Si Si7 0.860971 0.569075 0.521079
O O1 0.926728 0.181958 0.279943
O O2 0.917944 0.260970 0.159041
O O3 0.084414 0.230830 0.202252
O O4 0.000000 0.000000 0.192091
O O5 0.250000 0.775601 0.969952
O O6 0.085948 0.714606 0.915400
O O7 0.096786 0.908132 0.013037
O O8 0.124575 0.642921 0.040919
O O9 0.449305 0.180088 0.841011
O O10 0.620548 0.071190 0.845772
O O11 0.750000 0.719300 0.140757
O O12 0.608372 0.546334 0.131742
O O13 0.605057 0.813264 0.074378
O O14 0.250000 0.367809 0.342545
O O15 0.139287 0.383084 0.444581
O O16 0.250000 0.867838 0.633393
O O17 0.750000 0.544702 0.540790
#
# Coordination Sequence:
#
# PCOD9380409 Si02
#       7
#     8   8   8   8   8   8   8
#     4  12  27  44  60  90 132 175 224 270 324 390
#     4   9  18  38  65  96 128 163 208 261 320 388
#     4  10  22  38  61  90 126 170 214 257 319 381
#     4  10  22  41  67  97 129 166 214 273 330 391
#     4   9  19  36  62  93 124 161 209 259 314 384
#     4  10  23  42  69  97 126 166 214 270 335 393
#     4   8  15  32  59  91 121 153 197 249 308 372
#
# _framework density 21.243286999999999
#
# number of rings (size 3 to 8) (size 9 to 14) (size 15 to 20)
#    0.000    2.286    0.000    2.571    6.000    3.429 
#    2.571    0.000    0.000    0.000    0.000    0.000 
#    0.000    0.000    0.000    0.000    0.000    0.000 
#
# Total GULP energy -156153.211465 kJ/mol
# GULP energy per Si atom -5576.900409 kJ/mol
# Density = 2.119494 g / cm^3
# Si number density = 21.243287 Si / 1000 Ang^3
#
#
#
# Elastic Constant Matrix: (Units=GPa)
#
#
# Indices 1 2 3 4 5 6 
#
# 1 87.1917 31.8473 32.1871 0.0000 0.0000 0.0000
# 2 31.8473 96.9969 73.2472 0.0000 0.0000 0.0000
# 3 32.1871 73.2472 85.5505 0.0000 0.0000 0.0000
# 4 0.0000 0.0000 0.0000 19.6599 0.0000 0.0000
# 5 0.0000 0.0000 0.0000 0.0000 19.8083 0.0000
# 6 0.0000 0.0000 0.0000 0.0000 0.0000 20.4682
#
#
#
# Elastic Compliance Matrix: (Units=1/GPa)
#
#
# Indices 1 2 3 4 5 6 
#
# 1 0.013415 -0.001678 -0.003610 0.000000 0.000000 0.000000
# 2 -0.001678 0.029378 -0.024522 0.000000 0.000000 0.000000
# 3 -0.003610 -0.024522 0.034043 0.000000 0.000000 0.000000
# 4 0.000000 0.000000 0.000000 0.050865 0.000000 0.000000
# 5 0.000000 0.000000 0.000000 0.000000 0.050484 0.000000
# 6 0.000000 0.000000 0.000000 0.000000 0.000000 0.048856
#
#
# Mechanical properties :
#
#
# Convention : Reuss Voigt Hill
#
# Bulk Modulus (GPa) = 58.08911 60.47805 59.28358
# Shear Modulus (GPa) = 17.09987 20.81780 18.95883
#
# Velocity S-wave (km/s) = 2.84025 3.13384 2.99065
# Velocity P-wave (km/s) = 6.17738 6.45180 6.31608
#
# Compressibility (1/GPa) = 0.01721493
#
# Stress axis : x y z
#
# Youngs Moduli (GPa) = 74.54519 34.03858 29.37489
#
# Poissons Ratio (x) = 0.05713 0.10605
# Poissons Ratio (y) = 0.12511 0.72033
# Poissons Ratio (z) = 0.26912 0.83469
#
# Static dielectric constant tensor:
#      x y z
#    x 1.820140 0.000000 0.000000 
#    y 0.000000 1.768500 0.000000 
#    z 0.000000 0.000000 1.774370 
# 
# From -- ./inp_files/22030.got.cif
#   From: 2010.05.17/outbox.cif.g08.bks.cpg/sg46_12_cif.got.tgz:22030.got - 2010.06.03 19:58:25.
