data_PCOD9380827
_publ_section_title
;
Structure prediction by ZEFSAII (Michael W. Deem and Ramdas Pophale) SiO2 
 PCOD9380827
Probable space group: I M A 2
;
_chemical_formula_sum "Si O2"
_cell_formula_units_Z 48
_cell_length_a 9.021791
_cell_length_b 24.625731
_cell_length_c 13.872323
_cell_angle_alpha 90.000000
_cell_angle_beta 90.000000
_cell_angle_gamma 90.000000
_cell_volume 3081.989007
_symmetry_space_group_name_H-M "I M A 2"
_symmetry_group_IT_number 46
_symmetry_cell_setting 'orthorhombic'
loop_
_space_group_symop_operation_xyz
x,y,z
-x,-y,z
1/2-x,y,z
1/2+x,-y,z
1/2+x,1/2+y,1/2+z
1/2-x,1/2-y,1/2+z
-x,1/2+y,1/2+z
x,1/2-y,1/2+z
loop_
_atom_site_type_symbol
_atom_site_label
_atom_site_fract_x
_atom_site_fract_y
_atom_site_fract_z
Si Si1 0.074104 0.725805 0.109710
Si Si2 0.571984 0.169733 0.410546
Si Si3 0.426394 0.273206 0.313001
Si Si4 0.428218 0.556742 0.593099
Si Si5 0.428061 0.666909 0.488002
Si Si6 0.427927 0.556610 0.818246
O O1 0.250000 0.723645 0.131100
O O2 0.983379 0.715186 0.205750
O O3 0.042451 0.684655 0.021794
O O4 0.041668 0.785620 0.066128
O O5 0.750000 0.175605 0.395727
O O6 0.491805 0.214955 0.346120
O O7 0.528407 0.109334 0.379373
O O8 0.250000 0.272467 0.317406
O O9 0.491542 0.315846 0.390165
O O10 0.500000 0.500000 0.562103
O O11 0.250000 0.552369 0.588599
O O12 0.472517 0.608731 0.530278
O O13 0.468210 0.565737 0.705673
O O14 0.250000 0.667410 0.472353
O O15 0.500000 0.500000 0.849517
O O16 0.250000 0.551601 0.823117
#
# Coordination Sequence:
#
# PCOD9380827 Si02
#       6
#     8   8   8   8   8   8
#     4   9  17  31  50  68  89 122 161 193 224 272
#     4   9  18  33  51  68  91 126 162 190 221 273
#     4  11  21  30  45  71  99 122 149 193 241 277
#     4   9  17  29  47  70  95 122 151 186 227 272
#     4   9  18  33  51  68  90 125 162 190 222 273
#     4   9  17  30  48  71  96 121 151 186 227 273
#
# _framework density 15.574358999999999
#
# number of rings (size 3 to 8) (size 9 to 14) (size 15 to 20)
#    0.000    2.667    0.000    3.500    0.000    6.667 
#    0.000    3.333    0.000    1.000    0.000    2.333 
#    0.000    0.000    0.000    0.000    0.000    0.000 
#
# Total GULP energy -133820.756709 kJ/mol
# GULP energy per Si atom -5575.864863 kJ/mol
# Density = 1.553891 g / cm^3
# Si number density = 15.574359 Si / 1000 Ang^3
#
#
#
# Elastic Constant Matrix: (Units=GPa)
#
#
# Indices 1 2 3 4 5 6 
#
# 1 38.1588 47.3512 49.9943 0.0000 0.0000 0.0000
# 2 47.3512 159.7800 79.1145 0.0000 0.0000 0.0000
# 3 49.9943 79.1145 99.2038 0.0000 0.0000 0.0000
# 4 0.0000 0.0000 0.0000 19.8796 0.0000 0.0000
# 5 0.0000 0.0000 0.0000 0.0000 11.2583 0.0000
# 6 0.0000 0.0000 0.0000 0.0000 0.0000 25.8471
#
#
#
# Elastic Compliance Matrix: (Units=1/GPa)
#
#
# Indices 1 2 3 4 5 6 
#
# 1 0.080742 -0.006247 -0.035708 0.000000 0.000000 0.000000
# 2 -0.006247 0.010826 -0.005485 0.000000 0.000000 0.000000
# 3 -0.035708 -0.005485 0.032450 0.000000 0.000000 0.000000
# 4 0.000000 0.000000 0.000000 0.050303 0.000000 0.000000
# 5 0.000000 0.000000 0.000000 0.000000 0.088824 0.000000
# 6 0.000000 0.000000 0.000000 0.000000 0.000000 0.038689
#
#
# Mechanical properties :
#
#
# Convention : Reuss Voigt Hill
#
# Bulk Modulus (GPa) = 34.32113 72.22918 53.27515
# Shear Modulus (GPa) = 12.30229 19.44252 15.87241
#
# Velocity S-wave (km/s) = 2.81358 3.53706 3.19586
# Velocity P-wave (km/s) = 5.71312 7.94724 6.92093
#
# Compressibility (1/GPa) = 0.02913657
#
# Stress axis : x y z
#
# Youngs Moduli (GPa) = 12.38508 92.36963 30.81648
#
# Poissons Ratio (x) = 0.57707 1.10040
# Poissons Ratio (y) = 0.07737 0.16904
# Poissons Ratio (z) = 0.44225 0.50668
#
# Static dielectric constant tensor:
#      x y z
#    x 1.518570 0.000000 0.000000 
#    y 0.000000 1.506710 0.000000 
#    z 0.000000 0.000000 1.505050 
# 
# From -- ./inp_files/9288.got.cif
#   From: 2010.05.17/outbox.cif.g08.bks.cpg/sg46_5_cif.got.tgz:9288.got - 2010.06.03 19:58:25.
