data_PCOD9380712
_publ_section_title
;
Structure prediction by ZEFSAII (Michael W. Deem and Ramdas Pophale) SiO2 
 PCOD9380712
Probable space group: I M A 2
;
_chemical_formula_sum "Si O2"
_cell_formula_units_Z 40
_cell_length_a 18.787609
_cell_length_b 8.607620
_cell_length_c 11.085871
_cell_angle_alpha 90.000000
_cell_angle_beta 90.000000
_cell_angle_gamma 90.000000
_cell_volume 1792.769355
_symmetry_space_group_name_H-M "I M A 2"
_symmetry_group_IT_number 46
_symmetry_cell_setting 'orthorhombic'
loop_
_space_group_symop_operation_xyz
x,y,z
-x,-y,z
1/2-x,y,z
1/2+x,-y,z
1/2+x,1/2+y,1/2+z
1/2-x,1/2-y,1/2+z
-x,1/2+y,1/2+z
x,1/2-y,1/2+z
loop_
_atom_site_type_symbol
_atom_site_label
_atom_site_fract_x
_atom_site_fract_y
_atom_site_fract_z
Si Si1 0.250000 0.467371 0.675971
Si Si2 0.000000 0.500000 0.460320
Si Si3 0.750000 0.203381 0.957195
Si Si4 0.373195 0.933305 0.795906
Si Si5 0.750000 0.543405 0.956651
Si Si6 0.486446 0.675387 0.097855
Si Si7 0.148463 0.194572 0.631055
O O1 0.250000 0.595162 0.574183
O O2 0.250000 0.500191 0.816880
O O3 0.182039 0.359398 0.654146
O O4 0.929686 0.522919 0.380376
O O5 0.020947 0.663776 0.524484
O O6 0.680062 0.170060 0.875449
O O7 0.750000 0.373843 0.013086
O O8 0.422881 0.845547 0.695419
O O9 0.328645 0.063691 0.726072
O O10 0.680807 0.636529 0.003383
O O11 0.500000 0.500000 0.040067
O O12 0.564895 0.702118 0.149296
#
# Coordination Sequence:
#
# PCOD9380712 Si02
#       7
#     4   4   4   8   4   8   8
#     4  11  26  43  75 107 137 200 243 290 383 441
#     4  12  24  46  78 106 152 196 250 310 372 442
#     4  12  28  43  71 112 149 181 251 296 379 444
#     4  11  25  47  73 104 151 191 240 319 359 443
#     4  11  28  42  72 105 150 189 240 312 364 441
#     4  10  24  47  71 107 146 194 250 297 372 440
#     4  10  23  47  70 100 148 188 250 298 364 433
#
# _framework density 22.31185
#
# number of rings (size 3 to 8) (size 9 to 14) (size 15 to 20)
#    0.000    1.200    3.000    2.400   16.800    1.600 
#    1.800    0.000    0.000    0.000    0.000    0.000 
#    0.000    0.000    0.000    0.000    0.000    0.000 
#
# Total GULP energy -111493.710460 kJ/mol
# GULP energy per Si atom -5574.685523 kJ/mol
# Density = 2.226107 g / cm^3
# Si number density = 22.311850 Si / 1000 Ang^3
#
#
#
# Elastic Constant Matrix: (Units=GPa)
#
#
# Indices 1 2 3 4 5 6 
#
# 1 121.8051 25.9311 34.9819 0.0000 0.0000 0.0000
# 2 25.9311 131.7110 62.7389 0.0000 0.0000 0.0000
# 3 34.9819 62.7389 105.5186 0.0000 0.0000 0.0000
# 4 0.0000 0.0000 0.0000 38.7005 0.0000 0.0000
# 5 0.0000 0.0000 0.0000 0.0000 -15.4710 0.0000
# 6 0.0000 0.0000 0.0000 0.0000 0.0000 -16.5694
#
#
#
# Elastic Compliance Matrix: (Units=1/GPa)
#
#
# Indices 1 2 3 4 5 6 
#
# 1 0.009097 -0.000494 -0.002722 0.000000 0.000000 0.000000
# 2 -0.000494 0.010619 -0.006150 0.000000 0.000000 0.000000
# 3 -0.002722 -0.006150 0.014036 0.000000 0.000000 0.000000
# 4 0.000000 0.000000 0.000000 0.025839 0.000000 0.000000
# 5 0.000000 0.000000 0.000000 0.000000 -0.064637 0.000000
# 6 0.000000 0.000000 0.000000 0.000000 0.000000 -0.060352
#
#
# Mechanical properties :
#
#
# Convention : Reuss Voigt Hill
#
# Bulk Modulus (GPa) = 66.58036 67.37094 66.97565
# Shear Modulus (GPa) = -120.02358 17.02419 -51.49970
#
# Velocity S-wave (km/s) = -7.34237 2.76526 -4.80956
# Velocity P-wave (km/s) = 6.47881 6.36052 0.87142
#
# Compressibility (1/GPa) = 0.01501945
#
# Stress axis : x y z
#
# Youngs Moduli (GPa) = 109.92888 94.16894 71.24543
#
# Poissons Ratio (x) = 0.04656 0.19392
# Poissons Ratio (y) = 0.05436 0.43816
# Poissons Ratio (z) = 0.29920 0.57914
#
# Static dielectric constant tensor:
#      x y z
#    x 1.979070 0.000000 0.000000 
#    y 0.000000 1.869190 0.000000 
#    z 0.000000 0.000000 1.885910 
# 
# From -- ./inp_files/12319.got.cif
#   From: 2010.05.17/outbox.cif.g08.bks.cpg/sg46_7_cif.got.tgz:12319.got - 2010.06.03 19:58:25.
