data_PCOD9380097
_publ_section_title
;
Structure prediction by ZEFSAII (Michael W. Deem and Ramdas Pophale) SiO2 
 PCOD9380097
Probable space group: I M A 2
;
_chemical_formula_sum "Si O2"
_cell_formula_units_Z 40
_cell_length_a 8.638689
_cell_length_b 13.832358
_cell_length_c 18.895074
_cell_angle_alpha 90.000000
_cell_angle_beta 90.000000
_cell_angle_gamma 90.000000
_cell_volume 2257.837371
_symmetry_space_group_name_H-M "I M A 2"
_symmetry_group_IT_number 46
_symmetry_cell_setting 'orthorhombic'
loop_
_space_group_symop_operation_xyz
x,y,z
-x,-y,z
1/2-x,y,z
1/2+x,-y,z
1/2+x,1/2+y,1/2+z
1/2-x,1/2-y,1/2+z
-x,1/2+y,1/2+z
x,1/2-y,1/2+z
loop_
_atom_site_type_symbol
_atom_site_label
_atom_site_fract_x
_atom_site_fract_y
_atom_site_fract_z
Si Si1 0.064860 0.391307 0.618300
Si Si2 0.064713 0.395098 0.330478
Si Si3 0.064580 0.895528 0.404885
Si Si4 0.563260 0.195656 0.973516
Si Si5 0.563424 0.294118 0.759311
O O1 0.250000 0.393695 0.617814
O O2 0.000000 0.500000 0.620722
O O3 0.002775 0.340800 0.547305
O O4 0.004412 0.334688 0.687001
O O5 0.250000 0.395020 0.330476
O O6 0.000000 0.500000 0.311012
O O7 0.002595 0.367532 0.408710
O O8 0.000428 0.311386 0.279316
O O9 0.250000 0.900446 0.405694
O O10 0.019108 0.806716 0.455765
O O11 0.017845 0.863215 0.325426
O O12 0.000000 0.000000 0.423376
O O13 0.750000 0.188597 0.972994
O O14 0.750000 0.291135 0.756304
#
# Coordination Sequence:
#
# PCOD9380097 Si02
#       5
#     8   8   8   8   8
#     4  12  24  38  57  83 112 146 183 227 281 335
#     4  11  21  36  58  84 112 146 185 229 277 330
#     4   9  19  34  56  81 108 141 179 221 269 320
#     4  10  21  38  56  80 112 147 186 231 277 328
#     4  10  21  38  57  82 113 146 184 228 274 329
#
# _framework density 17.716069999999998
#
# number of rings (size 3 to 8) (size 9 to 14) (size 15 to 20)
#    0.000    1.600    0.000    7.200    0.000    6.400 
#    0.000    1.000    0.000    2.400    0.000    0.000 
#    0.000    0.000    0.000    0.000    0.000    0.000 
#
# Total GULP energy -111767.025921 kJ/mol
# GULP energy per Si atom -5588.351296 kJ/mol
# Density = 1.767575 g / cm^3
# Si number density = 17.716070 Si / 1000 Ang^3
#
#
#
# Elastic Constant Matrix: (Units=GPa)
#
#
# Indices 1 2 3 4 5 6 
#
# 1 123.6377 57.4030 59.7582 0.0000 0.0000 0.0000
# 2 57.4030 156.8495 86.4527 0.0000 0.0000 0.0000
# 3 59.7582 86.4527 149.7773 0.0000 0.0000 0.0000
# 4 0.0000 0.0000 0.0000 12.0681 0.0000 0.0000
# 5 0.0000 0.0000 0.0000 0.0000 31.1485 0.0000
# 6 0.0000 0.0000 0.0000 0.0000 0.0000 36.1844
#
#
#
# Elastic Compliance Matrix: (Units=1/GPa)
#
#
# Indices 1 2 3 4 5 6 
#
# 1 0.010539 -0.002258 -0.002902 0.000000 0.000000 0.000000
# 2 -0.002258 0.009834 -0.004775 0.000000 0.000000 0.000000
# 3 -0.002902 -0.004775 0.010591 0.000000 0.000000 0.000000
# 4 0.000000 0.000000 0.000000 0.082863 0.000000 0.000000
# 5 0.000000 0.000000 0.000000 0.000000 0.032104 0.000000
# 6 0.000000 0.000000 0.000000 0.000000 0.000000 0.027636
#
#
# Mechanical properties :
#
#
# Convention : Reuss Voigt Hill
#
# Bulk Modulus (GPa) = 90.13915 93.05470 91.59693
# Shear Modulus (GPa) = 25.36339 30.99025 28.17682
#
# Velocity S-wave (km/s) = 3.78783 4.18697 3.99239
# Velocity P-wave (km/s) = 8.37380 8.71859 8.54794
#
# Compressibility (1/GPa) = 0.01109396
#
# Stress axis : x y z
#
# Youngs Moduli (GPa) = 94.88765 101.68871 94.42209
#
# Poissons Ratio (x) = 0.22957 0.27398
# Poissons Ratio (y) = 0.21422 0.45091
# Poissons Ratio (z) = 0.27533 0.48561
#
# Static dielectric constant tensor:
#      x y z
#    x 1.592390 0.000000 0.000000 
#    y 0.000000 1.596050 0.000000 
#    z 0.000000 0.000000 1.575990 
# 
# From -- ./inp_files/17962.got.cif
#   From: 2010.05.17/outbox.cif.g08.bks.cpg/sg46_9_cif.got.tgz:17962.got - 2010.06.03 19:58:25.
