data_PCOD9380555
_publ_section_title
;
Structure prediction by ZEFSAII (Michael W. Deem and Ramdas Pophale) SiO2 
 PCOD9380555
Probable space group: I M A 2
;
_chemical_formula_sum "Si O2"
_cell_formula_units_Z 64
_cell_length_a 8.718751
_cell_length_b 29.465433
_cell_length_c 13.238839
_cell_angle_alpha 90.000000
_cell_angle_beta 90.000000
_cell_angle_gamma 90.000000
_cell_volume 3401.081217
_symmetry_space_group_name_H-M "I M A 2"
_symmetry_group_IT_number 46
_symmetry_cell_setting 'orthorhombic'
loop_
_space_group_symop_operation_xyz
x,y,z
-x,-y,z
1/2-x,y,z
1/2+x,-y,z
1/2+x,1/2+y,1/2+z
1/2-x,1/2-y,1/2+z
-x,1/2+y,1/2+z
x,1/2-y,1/2+z
loop_
_atom_site_type_symbol
_atom_site_label
_atom_site_fract_x
_atom_site_fract_y
_atom_site_fract_z
Si Si1 0.936481 0.643480 0.953540
Si Si2 0.932842 0.619585 0.729785
Si Si3 0.565463 0.449064 0.338953
Si Si4 0.424685 0.784722 0.747772
Si Si5 0.066558 0.949402 0.067291
Si Si6 0.434833 0.120577 0.676358
Si Si7 0.570798 0.747822 0.940318
Si Si8 0.422361 0.800260 0.107575
O O1 0.750000 0.644651 0.949755
O O2 0.987687 0.622064 0.846689
O O3 0.987583 0.696362 0.959139
O O4 0.978551 0.617847 0.057147
O O5 0.750000 0.614233 0.730748
O O6 0.003906 0.581336 0.657738
O O7 0.978267 0.666706 0.676260
O O8 0.500000 0.500000 0.330949
O O9 0.750000 0.449736 0.331126
O O10 0.525536 0.432355 0.453374
O O11 0.496287 0.418444 0.250124
O O12 0.250000 0.789664 0.787808
O O13 0.492981 0.832476 0.715300
O O14 0.536198 0.760066 0.825789
O O15 0.416545 0.749560 0.656228
O O16 0.250000 0.951106 0.072540
O O17 0.000000 0.000000 0.075990
O O18 0.250000 0.122399 0.681955
O O19 0.750000 0.747730 0.965133
O O20 0.492904 0.789030 0.000090
O O21 0.250000 0.819021 0.101315
#
# Coordination Sequence:
#
# PCOD9380555 Si02
#       8
#     8   8   8   8   8   8   8   8
#     4   9  20  37  58  84 117 156 201 250 289 342
#     4  11  22  39  62  88 118 157 203 245 295 353
#     4  10  22  42  66  92 121 151 188 240 299 357
#     4  11  23  37  54  82 119 157 199 247 297 349
#     4  10  22  42  66  92 121 151 188 240 299 357
#     4  11  22  39  62  88 118 157 203 245 295 353
#     4  11  21  37  57  78 111 158 205 250 295 343
#     4  11  23  37  54  82 119 157 199 247 297 349
#
# _framework density 18.817547000000001
#
# number of rings (size 3 to 8) (size 9 to 14) (size 15 to 20)
#    0.000    1.500    2.500    2.625    1.750    2.500 
#    0.000    3.125    0.000    0.000    0.000    0.000 
#    0.000    0.000    0.000    0.000    0.000    0.000 
#
# Total GULP energy -178560.583695 kJ/mol
# GULP energy per Si atom -5580.018240 kJ/mol
# Density = 1.877472 g / cm^3
# Si number density = 18.817547 Si / 1000 Ang^3
#
#
#
# Elastic Constant Matrix: (Units=GPa)
#
#
# Indices 1 2 3 4 5 6 
#
# 1 38.3872 22.5505 18.9860 -0.0001 0.0000 0.0000
# 2 22.5505 82.7303 59.3768 -0.0001 0.0000 0.0000
# 3 18.9860 59.3768 116.0961 -0.0004 0.0000 0.0000
# 4 -0.0001 -0.0001 -0.0004 34.4797 0.0000 0.0000
# 5 0.0000 0.0000 0.0000 0.0000 20.1447 -0.0001
# 6 0.0000 0.0000 0.0000 0.0000 -0.0001 33.5321
#
#
#
# Elastic Compliance Matrix: (Units=1/GPa)
#
#
# Indices 1 2 3 4 5 6 
#
# 1 0.031120 -0.007631 -0.001186 0.000000 0.000000 0.000000
# 2 -0.007631 0.020969 -0.009477 0.000000 0.000000 0.000000
# 3 -0.001186 -0.009477 0.013654 0.000000 0.000000 0.000000
# 4 0.000000 0.000000 0.000000 0.029003 0.000000 0.000000
# 5 0.000000 0.000000 0.000000 0.000000 0.049641 0.000000
# 6 0.000000 0.000000 0.000000 0.000000 0.000000 0.029822
#
#
# Mechanical properties :
#
#
# Convention : Reuss Voigt Hill
#
# Bulk Modulus (GPa) = 34.29915 48.78223 41.54069
# Shear Modulus (GPa) = 22.67414 26.71800 24.69607
#
# Velocity S-wave (km/s) = 3.47500 3.77217 3.62663
# Velocity P-wave (km/s) = 5.86239 6.70466 6.29762
#
# Compressibility (1/GPa) = 0.02915525
#
# Stress axis : x y z
#
# Youngs Moduli (GPa) = 32.13358 47.68938 73.23717
#
# Poissons Ratio (x) = 0.36393 0.08688
# Poissons Ratio (y) = 0.24522 0.69403
# Poissons Ratio (z) = 0.03812 0.45193
#
# Static dielectric constant tensor:
#      x y z
#    x 1.664960 0.000000 0.000000 
#    y 0.000000 1.622350 0.000000 
#    z 0.000000 0.000000 1.666920 
# 
# From -- ./inp_files/9805.got.cif
#   From: 2010.05.17/outbox.cif.g08.bks.cpg/sg46_5_cif.got.tgz:9805.got - 2010.06.03 19:58:25.
