data_PCOD9380129
_publ_section_title
;
Structure prediction by ZEFSAII (Michael W. Deem and Ramdas Pophale) SiO2 
 PCOD9380129
Probable space group: I M A 2
;
_chemical_formula_sum "Si O2"
_cell_formula_units_Z 64
_cell_length_a 11.371954
_cell_length_b 16.921178
_cell_length_c 14.773968
_cell_angle_alpha 90.000000
_cell_angle_beta 90.000000
_cell_angle_gamma 90.000000
_cell_volume 2842.908240
_symmetry_space_group_name_H-M "I M A 2"
_symmetry_group_IT_number 46
_symmetry_cell_setting 'orthorhombic'
loop_
_space_group_symop_operation_xyz
x,y,z
-x,-y,z
1/2-x,y,z
1/2+x,-y,z
1/2+x,1/2+y,1/2+z
1/2-x,1/2-y,1/2+z
-x,1/2+y,1/2+z
x,1/2-y,1/2+z
loop_
_atom_site_type_symbol
_atom_site_label
_atom_site_fract_x
_atom_site_fract_y
_atom_site_fract_z
Si Si1 0.123415 0.463449 0.608330
Si Si2 0.620318 0.786382 0.184321
Si Si3 0.118912 0.396735 0.410534
Si Si4 0.881221 0.780867 0.489167
Si Si5 0.622665 0.046713 0.629564
Si Si6 0.942925 0.084778 0.429676
Si Si7 0.624751 0.203890 0.287773
Si Si8 0.622311 0.377739 0.318206
O O1 0.250000 0.503211 0.630046
O O2 0.128717 0.375850 0.648768
O O3 0.118253 0.450788 0.500056
O O4 0.000000 0.500000 0.638621
O O5 0.750000 0.767586 0.226324
O O6 0.604206 0.731127 0.096700
O O7 0.500487 0.786327 0.239600
O O8 0.250000 0.403746 0.367772
O O9 0.108105 0.306046 0.445625
O O10 0.000971 0.411297 0.353707
O O11 0.750000 0.808408 0.472241
O O12 0.962214 0.847608 0.449760
O O13 0.750000 0.004005 0.642442
O O14 0.621556 0.075653 0.526011
O O15 0.620106 0.111742 0.709248
O O16 0.500000 0.000000 0.639599
O O17 0.876060 0.124313 0.346457
O O18 0.000000 0.000000 0.407590
O O19 0.750000 0.205057 0.234828
O O20 0.627447 0.285578 0.344442
O O21 0.750000 0.412411 0.348131
#
# Coordination Sequence:
#
# PCOD9380129 Si02
#       8
#     8   8   8   8   8   8   8   8
#     4   9  19  35  56  84 119 154 193 237 286 349
#     4   9  20  39  62  87 114 154 203 251 291 343
#     4   9  18  35  59  87 116 151 196 243 291 347
#     4   9  18  37  63  88 117 153 203 252 297 352
#     4  10  23  42  62  87 120 161 203 248 296 356
#     4  11  23  39  62  88 120 159 200 246 303 363
#     4  11  23  39  58  87 122 154 194 246 299 358
#     4  10  21  38  60  88 120 152 196 245 297 352
#
# _framework density 22.512159
#
# number of rings (size 3 to 8) (size 9 to 14) (size 15 to 20)
#    0.000    2.250    1.250    2.625    0.000    6.000 
#    0.000    6.250    0.000    0.000    0.000    0.000 
#    0.000    0.000    0.000    0.000    0.000    0.000 
#
# Total GULP energy -178337.772269 kJ/mol
# GULP energy per Si atom -5573.055383 kJ/mol
# Density = 2.246092 g / cm^3
# Si number density = 22.512159 Si / 1000 Ang^3
#
#
#
# Elastic Constant Matrix: (Units=GPa)
#
#
# Indices 1 2 3 4 5 6 
#
# 1 248.0730 34.1133 48.6018 0.0000 0.0000 0.0000
# 2 34.1133 84.1961 2.9332 0.0000 0.0000 0.0000
# 3 48.6018 2.9332 30.9537 0.0000 0.0000 0.0000
# 4 0.0000 0.0000 0.0000 19.8511 0.0000 0.0000
# 5 0.0000 0.0000 0.0000 0.0000 7.2390 0.0000
# 6 0.0000 0.0000 0.0000 0.0000 0.0000 -15.6748
#
#
#
# Elastic Compliance Matrix: (Units=1/GPa)
#
#
# Indices 1 2 3 4 5 6 
#
# 1 0.006196 -0.002179 -0.009523 0.000000 0.000000 0.000000
# 2 -0.002179 0.012682 0.002219 0.000000 0.000000 0.000000
# 3 -0.009523 0.002219 0.047048 0.000000 0.000000 0.000000
# 4 0.000000 0.000000 0.000000 0.050375 0.000000 0.000000
# 5 0.000000 0.000000 0.000000 0.000000 0.138142 0.000000
# 6 0.000000 0.000000 0.000000 0.000000 0.000000 -0.063797
#
#
# Mechanical properties :
#
#
# Convention : Reuss Voigt Hill
#
# Bulk Modulus (GPa) = 21.29366 59.39107 40.34237
# Shear Modulus (GPa) = 22.19602 20.78801 21.49202
#
# Velocity S-wave (km/s) = 3.14340 3.04207 3.09315
# Velocity P-wave (km/s) = 4.75961 6.22719 5.54219
#
# Compressibility (1/GPa) = 0.04696233
#
# Stress axis : x y z
#
# Youngs Moduli (GPa) = 161.38537 78.84885 21.25485
#
# Poissons Ratio (x) = 0.17180 0.20240
# Poissons Ratio (y) = 0.35163 -0.04717
# Poissons Ratio (z) = 1.53683 -0.17498
#
# Static dielectric constant tensor:
#      x y z
#    x 1.871210 0.000000 0.000000 
#    y 0.000000 1.826740 0.000000 
#    z 0.000000 0.000000 1.863780 
# 
# From -- ./inp_files/15358.got.cif
#   From: 2010.05.17/outbox.cif.g08.bks.cpg/sg46_8_cif.got.tgz:15358.got - 2010.06.03 19:58:25.
