data_PCOD9380772
_publ_section_title
;
Structure prediction by ZEFSAII (Michael W. Deem and Ramdas Pophale) SiO2 
 PCOD9380772
Probable space group: I M A 2
;
_chemical_formula_sum "Si O2"
_cell_formula_units_Z 40
_cell_length_a 10.040187
_cell_length_b 10.569307
_cell_length_c 18.415301
_cell_angle_alpha 90.000000
_cell_angle_beta 90.000000
_cell_angle_gamma 90.000000
_cell_volume 1954.191574
_symmetry_space_group_name_H-M "I M A 2"
_symmetry_group_IT_number 46
_symmetry_cell_setting 'orthorhombic'
loop_
_space_group_symop_operation_xyz
x,y,z
-x,-y,z
1/2-x,y,z
1/2+x,-y,z
1/2+x,1/2+y,1/2+z
1/2-x,1/2-y,1/2+z
-x,1/2+y,1/2+z
x,1/2-y,1/2+z
loop_
_atom_site_type_symbol
_atom_site_label
_atom_site_fract_x
_atom_site_fract_y
_atom_site_fract_z
Si Si1 0.250000 0.828572 0.701200
Si Si2 0.500000 0.500000 0.804943
Si Si3 0.750000 0.780095 0.927103
Si Si4 0.541182 0.722408 0.702369
Si Si5 0.750000 0.594635 0.270587
Si Si6 0.479850 0.349325 0.539085
Si Si7 0.750000 0.480850 0.897404
Si Si8 0.250000 0.689639 0.036515
O O1 0.383842 0.748346 0.709292
O O2 0.250000 0.871835 0.616771
O O3 0.250000 0.946263 0.755326
O O4 0.569107 0.603259 0.753603
O O5 0.616121 0.442824 0.854848
O O6 0.750000 0.864747 0.854523
O O7 0.750000 0.632794 0.905240
O O8 0.878103 0.809842 0.976441
O O9 0.622985 0.841190 0.731736
O O10 0.572255 0.691148 0.618888
O O11 0.500000 0.500000 0.538695
O O12 0.619836 0.277327 0.529421
O O13 0.750000 0.416280 0.975448
#
# Coordination Sequence:
#
# PCOD9380772 Si02
#       8
#     4   4   4   8   4   8   4   4
#     4  10  25  44  68  99 128 175 220 268 330 385
#     4  12  22  44  70  96 126 168 220 276 322 386
#     4  12  26  43  65  97 132 178 214 266 338 388
#     4  11  23  44  71  96 126 170 224 271 327 384
#     4  12  25  45  63  99 136 170 219 268 328 399
#     4  11  24  45  68  96 130 173 222 271 325 390
#     4  12  25  43  65  97 138 165 220 270 326 390
#     4  10  25  43  69  98 132 174 221 270 328 386
#
# _framework density 20.468821999999999
#
# number of rings (size 3 to 8) (size 9 to 14) (size 15 to 20)
#    0.000    0.800    3.000    3.600    2.800    1.600 
#    3.600    0.000    0.000    0.000    0.000    0.000 
#    0.000    0.000    0.000    0.000    0.000    0.000 
#
# Total GULP energy -111924.054609 kJ/mol
# GULP energy per Si atom -5596.202730 kJ/mol
# Density = 2.042223 g / cm^3
# Si number density = 20.468822 Si / 1000 Ang^3
#
#
#
# Elastic Constant Matrix: (Units=GPa)
#
#
# Indices 1 2 3 4 5 6 
#
# 1 97.3637 -13.2393 41.6799 0.0000 0.0000 0.0000
# 2 -13.2393 66.7900 40.2698 0.0000 0.0000 0.0000
# 3 41.6799 40.2698 151.6873 0.0000 0.0000 0.0000
# 4 0.0000 0.0000 0.0000 42.2595 0.0000 0.0000
# 5 0.0000 0.0000 0.0000 0.0000 34.2778 0.0000
# 6 0.0000 0.0000 0.0000 0.0000 0.0000 13.2123
#
#
#
# Elastic Compliance Matrix: (Units=1/GPa)
#
#
# Indices 1 2 3 4 5 6 
#
# 1 0.013266 0.005747 -0.005171 0.000000 0.000000 0.000000
# 2 0.005747 0.020316 -0.006973 0.000000 0.000000 0.000000
# 3 -0.005171 -0.006973 0.009864 0.000000 0.000000 0.000000
# 4 0.000000 0.000000 0.000000 0.023663 0.000000 0.000000
# 5 0.000000 0.000000 0.000000 0.000000 0.029173 0.000000
# 6 0.000000 0.000000 0.000000 0.000000 0.000000 0.075687
#
#
# Mechanical properties :
#
#
# Convention : Reuss Voigt Hill
#
# Bulk Modulus (GPa) = 32.62275 50.36242 41.49259
# Shear Modulus (GPa) = 25.64372 34.42530 30.03451
#
# Velocity S-wave (km/s) = 3.54336 4.10547 3.83473
# Velocity P-wave (km/s) = 5.71952 6.86521 6.31839
#
# Compressibility (1/GPa) = 0.03065346
#
# Stress axis : x y z
#
# Youngs Moduli (GPa) = 75.38139 49.22348 101.37446
#
# Poissons Ratio (x) = -0.28290 0.52420
# Poissons Ratio (y) = -0.43324 0.70684
# Poissons Ratio (z) = 0.38979 0.34321
#
# Static dielectric constant tensor:
#      x y z
#    x 1.727110 0.000000 0.000000 
#    y 0.000000 1.684080 0.000000 
#    z 0.000000 0.000000 1.707010 
# 
# From -- ./inp_files/18017.got.cif
#   From: 2010.05.17/outbox.cif.g08.bks.cpg/sg46_10_cif.got.tgz:18017.got - 2010.06.03 19:58:25.
