data_PCOD9380296
_publ_section_title
;
Structure prediction by ZEFSAII (Michael W. Deem and Ramdas Pophale) SiO2 
 PCOD9380296
Probable space group: I M A 2
;
_chemical_formula_sum "Si O2"
_cell_formula_units_Z 48
_cell_length_a 10.162308
_cell_length_b 8.857154
_cell_length_c 29.062779
_cell_angle_alpha 90.000000
_cell_angle_beta 90.000000
_cell_angle_gamma 90.000000
_cell_volume 2615.915365
_symmetry_space_group_name_H-M "I M A 2"
_symmetry_group_IT_number 46
_symmetry_cell_setting 'orthorhombic'
loop_
_space_group_symop_operation_xyz
x,y,z
-x,-y,z
1/2-x,y,z
1/2+x,-y,z
1/2+x,1/2+y,1/2+z
1/2-x,1/2-y,1/2+z
-x,1/2+y,1/2+z
x,1/2-y,1/2+z
loop_
_atom_site_type_symbol
_atom_site_label
_atom_site_fract_x
_atom_site_fract_y
_atom_site_fract_z
Si Si1 0.504305 0.682553 0.825520
Si Si2 0.407270 0.149190 0.526221
Si Si3 0.250000 0.177031 0.774384
Si Si4 0.250000 0.816463 0.775730
Si Si5 0.250000 0.683650 0.164851
Si Si6 0.093644 0.353233 0.922523
Si Si7 0.004467 0.179759 0.115289
Si Si8 0.250000 0.176818 0.666388
O O1 0.500000 0.500000 0.825106
O O2 0.624207 0.745250 0.796254
O O3 0.374855 0.746725 0.801683
O O4 0.534244 0.731684 0.878331
O O5 0.250000 0.117869 0.535225
O O6 0.413730 0.212535 0.473996
O O7 0.466560 0.261579 0.563846
O O8 0.500000 0.000000 0.528815
O O9 0.250000 0.202207 0.720359
O O10 0.250000 0.997131 0.781852
O O11 0.250000 0.786121 0.720293
O O12 0.375172 0.752760 0.139048
O O13 0.250000 0.502921 0.158419
O O14 0.250000 0.386714 0.913644
O O15 0.000000 0.500000 0.925370
O O16 0.123984 0.246324 0.144507
O O17 0.000000 0.000000 0.116450
#
# Coordination Sequence:
#
# PCOD9380296 Si02
#       8
#     8   8   4   4   4   8   8   4
#     4  11  22  38  63  93 122 159 205 253 306 359
#     4  10  21  40  66  93 123 164 210 250 300 371
#     4  11  23  41  62  87 124 159 206 253 306 367
#     4  11  25  41  60  91 124 165 202 255 304 365
#     4  11  25  43  64  85 122 165 214 245 296 375
#     4   9  19  36  62  93 124 160 208 257 296 359
#     4  12  25  40  61  94 126 156 196 261 319 360
#     4  11  23  43  64  85 116 167 212 247 296 373
#
# _framework density 18.349216999999999
#
# number of rings (size 3 to 8) (size 9 to 14) (size 15 to 20)
#    0.000    1.333    1.667    4.000    4.667    6.667 
#    0.000    1.667    0.000    0.000    0.000    0.000 
#    0.000    0.000    0.000    0.000    0.000    0.000 
#
# Total GULP energy -133918.962822 kJ/mol
# GULP energy per Si atom -5579.956784 kJ/mol
# Density = 1.830745 g / cm^3
# Si number density = 18.349217 Si / 1000 Ang^3
#
#
#
# Elastic Constant Matrix: (Units=GPa)
#
#
# Indices 1 2 3 4 5 6 
#
# 1 191.2431 60.5692 98.6118 0.0000 0.0000 0.0000
# 2 60.5692 93.8315 94.6425 0.0000 0.0000 0.0000
# 3 98.6118 94.6425 183.6377 0.0000 0.0000 0.0000
# 4 0.0000 0.0000 0.0000 30.6208 0.0000 0.0000
# 5 0.0000 0.0000 0.0000 0.0000 39.0074 0.0000
# 6 0.0000 0.0000 0.0000 0.0000 0.0000 35.2584
#
#
#
# Elastic Compliance Matrix: (Units=1/GPa)
#
#
# Indices 1 2 3 4 5 6 
#
# 1 0.007343 -0.001589 -0.003124 0.000000 0.000000 0.000000
# 2 -0.001589 0.022539 -0.010763 0.000000 0.000000 0.000000
# 3 -0.003124 -0.010763 0.012670 0.000000 0.000000 0.000000
# 4 0.000000 0.000000 0.000000 0.032658 0.000000 0.000000
# 5 0.000000 0.000000 0.000000 0.000000 0.025636 0.000000
# 6 0.000000 0.000000 0.000000 0.000000 0.000000 0.028362
#
#
# Mechanical properties :
#
#
# Convention : Reuss Voigt Hill
#
# Bulk Modulus (GPa) = 86.20499 108.48434 97.34466
# Shear Modulus (GPa) = 30.48287 35.30324 32.89305
#
# Velocity S-wave (km/s) = 4.08028 4.39106 4.23852
# Velocity P-wave (km/s) = 8.32349 9.21732 8.78178
#
# Compressibility (1/GPa) = 0.01160026
#
# Stress axis : x y z
#
# Youngs Moduli (GPa) = 136.18085 44.36810 78.92509
#
# Poissons Ratio (x) = 0.07048 0.24660
# Poissons Ratio (y) = 0.21634 0.84946
# Poissons Ratio (z) = 0.42550 0.47753
#
# Static dielectric constant tensor:
#      x y z
#    x 1.598870 0.000000 0.000000 
#    y 0.000000 1.604090 0.000000 
#    z 0.000000 0.000000 1.661590 
# 
# From -- ./inp_files/25070.got.cif
#   From: 2010.05.17/outbox.cif.g08.bks.cpg/sg46_13_cif.got.tgz:25070.got - 2010.06.03 19:58:25.
