data_PCOD9380423
_publ_section_title
;
Structure prediction by ZEFSAII (Michael W. Deem and Ramdas Pophale) SiO2 
 PCOD9380423
Probable space group: I M A 2
;
_chemical_formula_sum "Si O2"
_cell_formula_units_Z 44
_cell_length_a 22.502320
_cell_length_b 11.065304
_cell_length_c 7.981284
_cell_angle_alpha 90.000000
_cell_angle_beta 90.000000
_cell_angle_gamma 90.000000
_cell_volume 1987.299901
_symmetry_space_group_name_H-M "I M A 2"
_symmetry_group_IT_number 46
_symmetry_cell_setting 'orthorhombic'
loop_
_space_group_symop_operation_xyz
x,y,z
-x,-y,z
1/2-x,y,z
1/2+x,-y,z
1/2+x,1/2+y,1/2+z
1/2-x,1/2-y,1/2+z
-x,1/2+y,1/2+z
x,1/2-y,1/2+z
loop_
_atom_site_type_symbol
_atom_site_label
_atom_site_fract_x
_atom_site_fract_y
_atom_site_fract_z
Si Si1 0.553071 0.320037 0.434450
Si Si2 0.750000 0.518421 0.246813
Si Si3 0.250000 0.199547 0.337379
Si Si4 0.646797 0.922501 0.526916
Si Si5 0.979975 0.879026 0.616370
Si Si6 0.750000 0.050023 0.126670
Si Si7 0.623333 0.112824 0.248975
O O1 0.502754 0.237289 0.519028
O O2 0.520301 0.383961 0.282322
O O3 0.601273 0.229748 0.351160
O O4 0.583548 0.396598 0.581255
O O5 0.750000 0.663982 0.275859
O O6 0.809126 0.494832 0.138268
O O7 0.750000 0.458099 0.426725
O O8 0.309426 0.177020 0.447068
O O9 0.250000 0.087952 0.203690
O O10 0.590927 0.876187 0.632793
O O11 0.620791 0.999341 0.373378
O O12 0.000000 0.000000 0.520053
O O13 0.691508 0.116423 0.191983
#
# Coordination Sequence:
#
# PCOD9380423 Si02
#       7
#     8   4   4   8   8   4   8
#     4  10  24  44  66  96 132 166 228 270 333 396
#     4  11  23  39  64  98 128 170 221 277 317 401
#     4   9  21  43  61  93 133 172 218 282 315 392
#     4  10  22  41  65  91 134 168 216 267 340 380
#     4  11  23  44  65  98 130 178 216 275 332 400
#     4  10  22  38  65  93 125 176 215 261 348 371
#     4  10  22  44  64  92 127 168 215 277 317 403
#
# _framework density 22.140594
#
# number of rings (size 3 to 8) (size 9 to 14) (size 15 to 20)
#    0.000    1.818    1.818    1.636    5.091    0.727 
#    6.545    0.000    0.000    0.000    0.000    0.000 
#    0.000    0.000    0.000    0.000    0.000    0.000 
#
# Total GULP energy -122912.839651 kJ/mol
# GULP energy per Si atom -5586.947257 kJ/mol
# Density = 2.209020 g / cm^3
# Si number density = 22.140594 Si / 1000 Ang^3
#
#
#
# Elastic Constant Matrix: (Units=GPa)
#
#
# Indices 1 2 3 4 5 6 
#
# 1 164.4039 22.3473 45.0010 0.0000 0.0000 0.0000
# 2 22.3473 44.6004 2.3103 0.0000 0.0000 0.0000
# 3 45.0010 2.3103 89.6114 0.0000 0.0000 0.0000
# 4 0.0000 0.0000 0.0000 7.7342 0.0000 0.0000
# 5 0.0000 0.0000 0.0000 0.0000 12.2519 0.0000
# 6 0.0000 0.0000 0.0000 0.0000 0.0000 17.1314
#
#
#
# Elastic Compliance Matrix: (Units=1/GPa)
#
#
# Indices 1 2 3 4 5 6 
#
# 1 0.007591 -0.003611 -0.003719 0.000000 0.000000 0.000000
# 2 -0.003611 0.024169 0.001190 0.000000 0.000000 0.000000
# 3 -0.003719 0.001190 0.012996 0.000000 0.000000 0.000000
# 4 0.000000 0.000000 0.000000 0.129296 0.000000 0.000000
# 5 0.000000 0.000000 0.000000 0.000000 0.081620 0.000000
# 6 0.000000 0.000000 0.000000 0.000000 0.000000 0.058372
#
#
# Mechanical properties :
#
#
# Convention : Reuss Voigt Hill
#
# Bulk Modulus (GPa) = 30.79113 48.65920 39.72517
# Shear Modulus (GPa) = 14.83017 22.68730 18.75873
#
# Velocity S-wave (km/s) = 2.59089 3.20455 2.91392
# Velocity P-wave (km/s) = 4.78410 5.97640 5.41317
#
# Compressibility (1/GPa) = 0.03247688
#
# Stress axis : x y z
#
# Youngs Moduli (GPa) = 131.72710 41.37523 76.94504
#
# Poissons Ratio (x) = 0.14941 0.28617
# Poissons Ratio (y) = 0.47568 -0.09159
# Poissons Ratio (z) = 0.48992 -0.04925
#
# Static dielectric constant tensor:
#      x y z
#    x 1.810710 0.000000 0.000000 
#    y 0.000000 1.883050 0.000000 
#    z 0.000000 0.000000 1.842570 
# 
# From -- ./inp_files/7812.got.cif
#   From: 2010.05.17/outbox.cif.g08.bks.cpg/sg46_4_cif.got.tgz:7812.got - 2010.06.03 19:58:25.
