data_PCOD9380174
_publ_section_title
;
Structure prediction by ZEFSAII (Michael W. Deem and Ramdas Pophale) SiO2 
 PCOD9380174
Probable space group: I M A 2
;
_chemical_formula_sum "Si O2"
_cell_formula_units_Z 64
_cell_length_a 16.683978
_cell_length_b 9.588670
_cell_length_c 18.629651
_cell_angle_alpha 90.000000
_cell_angle_beta 90.000000
_cell_angle_gamma 90.000000
_cell_volume 2980.318646
_symmetry_space_group_name_H-M "I M A 2"
_symmetry_group_IT_number 46
_symmetry_cell_setting 'orthorhombic'
loop_
_space_group_symop_operation_xyz
x,y,z
-x,-y,z
1/2-x,y,z
1/2+x,-y,z
1/2+x,1/2+y,1/2+z
1/2-x,1/2-y,1/2+z
-x,1/2+y,1/2+z
x,1/2-y,1/2+z
loop_
_atom_site_type_symbol
_atom_site_label
_atom_site_fract_x
_atom_site_fract_y
_atom_site_fract_z
Si Si1 0.404328 0.993108 0.863120
Si Si2 0.626214 0.274451 0.244516
Si Si3 0.156883 0.741681 0.941456
Si Si4 0.114142 0.870146 0.591904
Si Si5 0.960290 0.863384 0.210129
Si Si6 0.339851 0.238688 0.433006
Si Si7 0.872171 0.022534 0.336601
Si Si8 0.923272 0.687891 0.082410
O O1 0.367949 0.908981 0.795402
O O2 0.376886 0.895507 0.929433
O O3 0.500000 0.000000 0.856853
O O4 0.370318 0.145384 0.877401
O O5 0.650726 0.308058 0.164208
O O6 0.531312 0.237369 0.236809
O O7 0.663501 0.136126 0.280170
O O8 0.250000 0.732016 0.916416
O O9 0.099127 0.638934 0.894643
O O10 0.154768 0.690470 0.021952
O O11 0.019708 0.830558 0.584758
O O12 0.116230 0.037093 0.594190
O O13 0.906488 0.787307 0.150807
O O14 0.921300 0.926187 0.281839
O O15 0.000000 0.000000 0.173526
O O16 0.250000 0.273639 0.456629
O O17 0.395365 0.235905 0.503673
O O18 0.336613 0.090969 0.391226
#
# Coordination Sequence:
#
# PCOD9380174 Si02
#       8
#     8   8   8   8   8   8   8   8
#     4  11  24  40  67  96 128 161 210 266 322 371
#     4   9  21  38  63  96 126 163 212 266 317 375
#     4  11  23  44  66  91 129 173 215 257 310 384
#     4  10  21  38  65  97 124 165 216 269 318 376
#     4   9  19  37  62  95 130 161 210 273 325 374
#     4  12  25  42  62  93 134 171 209 259 319 381
#     4  10  21  39  63  89 126 172 211 249 311 378
#     4  10  22  37  63  94 132 164 214 268 326 374
#
# _framework density 21.474215000000001
#
# number of rings (size 3 to 8) (size 9 to 14) (size 15 to 20)
#    0.000    1.750    1.250    2.250    5.250    7.500 
#    0.000    5.000    0.000    0.000    0.000    0.000 
#    0.000    0.000    0.000    0.000    0.000    0.000 
#
# Total GULP energy -178364.553305 kJ/mol
# GULP energy per Si atom -5573.892291 kJ/mol
# Density = 2.142534 g / cm^3
# Si number density = 21.474215 Si / 1000 Ang^3
#
#
#
# Elastic Constant Matrix: (Units=GPa)
#
#
# Indices 1 2 3 4 5 6 
#
# 1 47.0749 13.5058 29.6310 0.0000 0.0000 0.0000
# 2 13.5058 106.4724 43.8407 0.0000 0.0000 0.0000
# 3 29.6310 43.8407 138.2720 0.0000 0.0000 0.0000
# 4 0.0000 0.0000 0.0000 34.9272 0.0000 0.0000
# 5 0.0000 0.0000 0.0000 0.0000 -31.8834 0.0000
# 6 0.0000 0.0000 0.0000 0.0000 0.0000 -2.9323
#
#
#
# Elastic Compliance Matrix: (Units=1/GPa)
#
#
# Indices 1 2 3 4 5 6 
#
# 1 0.024665 -0.001095 -0.004938 0.000000 0.000000 0.000000
# 2 -0.001095 0.010851 -0.003206 0.000000 0.000000 0.000000
# 3 -0.004938 -0.003206 0.009307 0.000000 0.000000 0.000000
# 4 0.000000 0.000000 0.000000 0.028631 0.000000 0.000000
# 5 0.000000 0.000000 0.000000 0.000000 -0.031364 0.000000
# 6 0.000000 0.000000 0.000000 0.000000 0.000000 -0.341035
#
#
# Mechanical properties :
#
#
# Convention : Reuss Voigt Hill
#
# Bulk Modulus (GPa) = 37.95881 51.75271 44.85576
# Shear Modulus (GPa) = -18.40370 13.67844 -2.36263
#
# Velocity S-wave (km/s) = -2.93066 2.52657 -1.05005
# Velocity P-wave (km/s) = 2.50263 5.71521 4.41173
#
# Compressibility (1/GPa) = 0.02634434
#
# Stress axis : x y z
#
# Youngs Moduli (GPa) = 40.54262 92.15718 107.44838
#
# Poissons Ratio (x) = 0.10095 0.53062
# Poissons Ratio (y) = 0.04441 0.34445
# Poissons Ratio (z) = 0.20021 0.29543
#
# Static dielectric constant tensor:
#      x y z
#    x 1.823840 0.000000 0.000000 
#    y 0.000000 1.765740 0.000000 
#    z 0.000000 0.000000 1.785070 
# 
# From -- ./inp_files/20273.got.cif
#   From: 2010.05.17/outbox.cif.g08.bks.cpg/sg46_11_cif.got.tgz:20273.got - 2010.06.03 19:58:25.
