data_PCOD9380899
_publ_section_title
;
Structure prediction by ZEFSAII (Michael W. Deem and Ramdas Pophale) SiO2 
 PCOD9380899
Probable space group: I M A 2
;
_chemical_formula_sum "Si O2"
_cell_formula_units_Z 44
_cell_length_a 17.193474
_cell_length_b 13.260690
_cell_length_c 9.612416
_cell_angle_alpha 90.000000
_cell_angle_beta 90.000000
_cell_angle_gamma 90.000000
_cell_volume 2191.605171
_symmetry_space_group_name_H-M "I M A 2"
_symmetry_group_IT_number 46
_symmetry_cell_setting 'orthorhombic'
loop_
_space_group_symop_operation_xyz
x,y,z
-x,-y,z
1/2-x,y,z
1/2+x,-y,z
1/2+x,1/2+y,1/2+z
1/2-x,1/2-y,1/2+z
-x,1/2+y,1/2+z
x,1/2-y,1/2+z
loop_
_atom_site_type_symbol
_atom_site_label
_atom_site_fract_x
_atom_site_fract_y
_atom_site_fract_z
Si Si1 0.838656 0.582725 0.941630
Si Si2 0.997668 0.686487 0.939635
Si Si3 0.378336 0.900689 0.633422
Si Si4 0.615422 0.086154 0.225967
Si Si5 0.057936 0.587698 0.420126
Si Si6 0.750000 0.242058 0.146204
O O1 0.750000 0.618997 0.944342
O O2 0.906476 0.664998 0.938426
O O3 0.853216 0.509418 0.810081
O O4 0.855177 0.508188 0.071575
O O5 0.042222 0.631935 0.811139
O O6 0.016929 0.804231 0.936020
O O7 0.038343 0.634524 0.073996
O O8 0.377674 0.900661 0.800136
O O9 0.317535 0.817520 0.582440
O O10 0.681736 0.169972 0.212327
O O11 0.591481 0.058805 0.069717
O O12 0.000000 0.500000 0.372764
#
# Coordination Sequence:
#
# PCOD9380899 Si02
#       6
#     8   8   8   8   8   4
#     4  11  23  42  64  89 123 167 216 251 297 376
#     4  11  22  41  63  89 121 171 208 246 306 380
#     4  11  23  38  64  94 126 156 200 258 317 368
#     4  11  23  38  64  94 126 156 200 258 317 368
#     4  12  23  39  63  91 122 161 200 253 310 372
#     4  12  20  38  64  98 128 146 200 262 324 346
#
# _framework density 20.076608
#
# number of rings (size 3 to 8) (size 9 to 14) (size 15 to 20)
#    0.000    0.727    5.455    4.364    0.000    3.636 
#    0.000    0.000    4.000    6.545    0.000    0.000 
#    0.000    0.000    0.000    0.000    0.000    0.000 
#
# Total GULP energy -122477.455640 kJ/mol
# GULP energy per Si atom -5567.157075 kJ/mol
# Density = 2.003091 g / cm^3
# Si number density = 20.076608 Si / 1000 Ang^3
#
#
#
# Elastic Constant Matrix: (Units=GPa)
#
#
# Indices 1 2 3 4 5 6 
#
# 1 138.9763 12.8167 -1.7096 0.0000 0.0000 0.0000
# 2 12.8167 21.3915 3.0351 0.0000 0.0000 0.0000
# 3 -1.7096 3.0351 63.6433 0.0000 0.0000 0.0000
# 4 0.0000 0.0000 0.0000 11.1102 0.0000 0.0000
# 5 0.0000 0.0000 0.0000 0.0000 -8.6025 0.0000
# 6 0.0000 0.0000 0.0000 0.0000 0.0000 34.9784
#
#
#
# Elastic Compliance Matrix: (Units=1/GPa)
#
#
# Indices 1 2 3 4 5 6 
#
# 1 0.007628 -0.004631 0.000426 0.000000 0.000000 0.000000
# 2 -0.004631 0.049877 -0.002503 0.000000 0.000000 0.000000
# 3 0.000426 -0.002503 0.015843 0.000000 0.000000 0.000000
# 4 0.000000 0.000000 0.000000 0.090007 0.000000 0.000000
# 5 0.000000 0.000000 0.000000 0.000000 -0.116245 0.000000
# 6 0.000000 0.000000 0.000000 0.000000 0.000000 0.028589
#
#
# Mechanical properties :
#
#
# Convention : Reuss Voigt Hill
#
# Bulk Modulus (GPa) = 16.68545 28.03285 22.35915
# Shear Modulus (GPa) = 45.83243 21.48847 33.66045
#
# Velocity S-wave (km/s) = 4.78313 3.27513 4.09907
# Velocity P-wave (km/s) = 6.23164 5.31933 5.79347
#
# Compressibility (1/GPa) = 0.05993245
#
# Stress axis : x y z
#
# Youngs Moduli (GPa) = 131.10026 20.04930 63.11789
#
# Poissons Ratio (x) = 0.09284 -0.02687
# Poissons Ratio (y) = 0.60707 0.15799
# Poissons Ratio (z) = -0.05581 0.05018
#
# Static dielectric constant tensor:
#      x y z
#    x 1.720370 0.000000 0.000000 
#    y 0.000000 1.700650 0.000000 
#    z 0.000000 0.000000 1.747050 
# 
# From -- ./inp_files/6525.got.cif
#   From: 2010.05.17/outbox.cif.g08.bks.cpg/sg46_4_cif.got.tgz:6525.got - 2010.06.03 19:58:25.
