data_PCOD9380083
_publ_section_title
;
Structure prediction by ZEFSAII (Michael W. Deem and Ramdas Pophale) SiO2 
 PCOD9380083
Probable space group: I M A 2
;
_chemical_formula_sum "Si O2"
_cell_formula_units_Z 48
_cell_length_a 22.671960
_cell_length_b 10.748739
_cell_length_c 8.237489
_cell_angle_alpha 90.000000
_cell_angle_beta 90.000000
_cell_angle_gamma 90.000000
_cell_volume 2007.434723
_symmetry_space_group_name_H-M "I M A 2"
_symmetry_group_IT_number 46
_symmetry_cell_setting 'orthorhombic'
loop_
_space_group_symop_operation_xyz
x,y,z
-x,-y,z
1/2-x,y,z
1/2+x,-y,z
1/2+x,1/2+y,1/2+z
1/2-x,1/2-y,1/2+z
-x,1/2+y,1/2+z
x,1/2-y,1/2+z
loop_
_atom_site_type_symbol
_atom_site_label
_atom_site_fract_x
_atom_site_fract_y
_atom_site_fract_z
Si Si1 0.250000 0.308204 0.321770
Si Si2 0.133656 0.431407 0.422924
Si Si3 0.250000 0.051832 0.470511
Si Si4 0.951210 0.895109 0.621443
Si Si5 0.377520 0.570894 0.966942
Si Si6 0.515715 0.872514 0.077687
Si Si7 0.908190 0.327447 0.327670
O O1 0.193529 0.359026 0.417699
O O2 0.250000 0.159095 0.332826
O O3 0.250000 0.373319 0.143784
O O4 0.098581 0.397068 0.257748
O O5 0.137909 0.581106 0.423262
O O6 0.085629 0.386340 0.549611
O O7 0.190685 0.969105 0.459455
O O8 0.986111 0.767165 0.636376
O O9 0.915384 0.941965 0.462730
O O10 0.000000 0.000000 0.640015
O O11 0.393788 0.633611 0.142105
O O12 0.396975 0.680654 0.846101
O O13 0.468944 0.867307 0.925107
O O14 0.500000 0.000000 0.167096
#
# Coordination Sequence:
#
# PCOD9380083 Si02
#       7
#     4   8   4   8   8   8   8
#     4  12  24  47  69  91 133 180 239 278 346 420
#     4  10  22  39  66  89 128 183 215 275 346 401
#     4  12  26  47  69  97 133 186 229 292 346 414
#     4  11  19  37  65  90 134 177 221 279 341 407
#     4  11  23  43  68  99 136 181 227 281 353 412
#     4  10  21  37  61  99 131 174 226 278 342 407
#     4  10  21  41  68  97 135 176 224 279 351 418
#
# _framework density 23.911114000000001
#
# number of rings (size 3 to 8) (size 9 to 14) (size 15 to 20)
#    0.000    1.333    5.000    3.500    0.000    1.333 
#    3.000    4.167    0.000    0.000    0.000    0.000 
#    0.000    0.000    0.000    0.000    0.000    0.000 
#
# Total GULP energy -133843.837045 kJ/mol
# GULP energy per Si atom -5576.826544 kJ/mol
# Density = 2.385669 g / cm^3
# Si number density = 23.911114 Si / 1000 Ang^3
#
#
#
# Elastic Constant Matrix: (Units=GPa)
#
#
# Indices 1 2 3 4 5 6 
#
# 1 173.3049 43.8875 5.4866 0.0000 0.0000 0.0000
# 2 43.8875 162.6154 8.4336 0.0000 0.0000 0.0000
# 3 5.4866 8.4336 33.7041 0.0000 0.0000 0.0000
# 4 0.0000 0.0000 0.0000 30.2350 0.0000 0.0000
# 5 0.0000 0.0000 0.0000 0.0000 16.3932 0.0000
# 6 0.0000 0.0000 0.0000 0.0000 0.0000 38.4691
#
#
#
# Elastic Compliance Matrix: (Units=1/GPa)
#
#
# Indices 1 2 3 4 5 6 
#
# 1 0.006205 -0.001644 -0.000599 0.000000 0.000000 0.000000
# 2 -0.001644 0.006666 -0.001400 0.000000 0.000000 0.000000
# 3 -0.000599 -0.001400 0.030118 0.000000 0.000000 0.000000
# 4 0.000000 0.000000 0.000000 0.033074 0.000000 0.000000
# 5 0.000000 0.000000 0.000000 0.000000 0.061001 0.000000
# 6 0.000000 0.000000 0.000000 0.000000 0.000000 0.025995
#
#
# Mechanical properties :
#
#
# Convention : Reuss Voigt Hill
#
# Bulk Modulus (GPa) = 28.00871 53.91552 40.96211
# Shear Modulus (GPa) = 27.43548 37.80726 32.62137
#
# Velocity S-wave (km/s) = 3.39100 3.98069 3.69762
# Velocity P-wave (km/s) = 5.20297 6.61250 5.94962
#
# Compressibility (1/GPa) = 0.03570318
#
# Stress axis : x y z
#
# Youngs Moduli (GPa) = 161.15048 150.02149 33.20286
#
# Poissons Ratio (x) = 0.24659 0.01988
# Poissons Ratio (y) = 0.26488 0.04650
# Poissons Ratio (z) = 0.09651 0.21008
#
# Static dielectric constant tensor:
#      x y z
#    x 1.932030 0.000000 0.000000 
#    y 0.000000 2.043550 0.000000 
#    z 0.000000 0.000000 2.074570 
# 
# From -- ./inp_files/12741.got.cif
#   From: 2010.05.17/outbox.cif.g08.bks.cpg/sg46_7_cif.got.tgz:12741.got - 2010.06.03 19:58:25.
