data_PCOD9380266
_publ_section_title
;
Structure prediction by ZEFSAII (Michael W. Deem and Ramdas Pophale) SiO2 
 PCOD9380266
Probable space group: I M A 2
;
_chemical_formula_sum "Si O2"
_cell_formula_units_Z 40
_cell_length_a 20.088242
_cell_length_b 11.224675
_cell_length_c 8.973162
_cell_angle_alpha 90.000000
_cell_angle_beta 90.000000
_cell_angle_gamma 90.000000
_cell_volume 2023.304351
_symmetry_space_group_name_H-M "I M A 2"
_symmetry_group_IT_number 46
_symmetry_cell_setting 'orthorhombic'
loop_
_space_group_symop_operation_xyz
x,y,z
-x,-y,z
1/2-x,y,z
1/2+x,-y,z
1/2+x,1/2+y,1/2+z
1/2-x,1/2-y,1/2+z
-x,1/2+y,1/2+z
x,1/2-y,1/2+z
loop_
_atom_site_type_symbol
_atom_site_label
_atom_site_fract_x
_atom_site_fract_y
_atom_site_fract_z
Si Si1 0.943655 0.595284 0.302930
Si Si2 0.326857 0.585491 0.263909
Si Si3 0.066450 0.953181 0.291601
Si Si4 0.172370 0.818299 0.096006
Si Si5 0.538020 0.826098 0.472490
O O1 0.123761 0.475513 0.271188
O O2 0.936960 0.697754 0.424748
O O3 0.000000 0.500000 0.342628
O O4 0.965274 0.656822 0.147881
O O5 0.250000 0.549080 0.245449
O O6 0.343894 0.682227 0.137884
O O7 0.332952 0.653803 0.421936
O O8 0.123873 0.904213 0.188847
O O9 0.034077 0.851844 0.397660
O O10 0.000000 0.000000 0.204497
O O11 0.081468 0.066717 0.397769
O O12 0.250000 0.836353 0.139973
#
# Coordination Sequence:
#
# PCOD9380266 Si02
#       5
#     8   8   8   8   8
#     4  12  23  41  65  89 126 165 204 262 307 375
#     4  10  25  41  63  93 126 162 213 258 314 370
#     4   8  19  39  61  85 132 149 213 250 305 362
#     4  10  21  40  63  93 124 165 208 258 310 369
#     4   9  23  38  60  90 124 156 212 245 313 363
#
# _framework density 19.769641
#
# number of rings (size 3 to 8) (size 9 to 14) (size 15 to 20)
#    1.200    0.800    2.000    1.200    5.600    5.600 
#    0.000    2.000    0.000    0.000    0.000    0.000 
#    0.000    0.000    0.000    0.000    0.000    0.000 
#
# Total GULP energy -111642.921188 kJ/mol
# GULP energy per Si atom -5582.146059 kJ/mol
# Density = 1.972464 g / cm^3
# Si number density = 19.769641 Si / 1000 Ang^3
#
#
#
# Elastic Constant Matrix: (Units=GPa)
#
#
# Indices 1 2 3 4 5 6 
#
# 1 85.4023 37.3650 15.9790 0.0000 0.0000 0.0000
# 2 37.3650 89.6830 12.8129 0.0000 0.0000 0.0000
# 3 15.9790 12.8129 57.8528 0.0000 0.0000 0.0000
# 4 0.0000 0.0000 0.0000 27.3128 0.0000 0.0000
# 5 0.0000 0.0000 0.0000 0.0000 25.1994 0.0000
# 6 0.0000 0.0000 0.0000 0.0000 0.0000 25.5588
#
#
#
# Elastic Compliance Matrix: (Units=1/GPa)
#
#
# Indices 1 2 3 4 5 6 
#
# 1 0.014746 -0.005744 -0.002801 0.000000 0.000000 0.000000
# 2 -0.005744 0.013752 -0.001459 0.000000 0.000000 0.000000
# 3 -0.002801 -0.001459 0.018382 0.000000 0.000000 0.000000
# 4 0.000000 0.000000 0.000000 0.036613 0.000000 0.000000
# 5 0.000000 0.000000 0.000000 0.000000 0.039683 0.000000
# 6 0.000000 0.000000 0.000000 0.000000 0.000000 0.039125
#
#
# Mechanical properties :
#
#
# Convention : Reuss Voigt Hill
#
# Bulk Modulus (GPa) = 37.21262 40.58354 38.89808
# Shear Modulus (GPa) = 26.14145 26.73295 26.43720
#
# Velocity S-wave (km/s) = 3.64029 3.68125 3.66083
# Velocity P-wave (km/s) = 6.04425 6.21623 6.13084
#
# Compressibility (1/GPa) = 0.02687261
#
# Stress axis : x y z
#
# Youngs Moduli (GPa) = 67.81373 72.71741 54.40087
#
# Poissons Ratio (x) = 0.41766 0.15237
# Poissons Ratio (y) = 0.38950 0.07939
# Poissons Ratio (z) = 0.18994 0.10612
#
# Static dielectric constant tensor:
#      x y z
#    x 1.696350 0.000000 0.000000 
#    y 0.000000 1.692550 0.000000 
#    z 0.000000 0.000000 1.710250 
# 
# From -- ./inp_files/7260.got.cif
#   From: 2010.05.17/outbox.cif.g08.bks.cpg/sg46_4_cif.got.tgz:7260.got - 2010.06.03 19:58:25.
