data_PCOD9380979
_publ_section_title
;
Structure prediction by ZEFSAII (Michael W. Deem and Ramdas Pophale) SiO2 
 PCOD9380979
Probable space group: I M A 2
;
_chemical_formula_sum "Si O2"
_cell_formula_units_Z 48
_cell_length_a 25.148832
_cell_length_b 5.065476
_cell_length_c 15.129060
_cell_angle_alpha 90.000000
_cell_angle_beta 90.000000
_cell_angle_gamma 90.000000
_cell_volume 1927.303131
_symmetry_space_group_name_H-M "I M A 2"
_symmetry_group_IT_number 46
_symmetry_cell_setting 'orthorhombic'
loop_
_space_group_symop_operation_xyz
x,y,z
-x,-y,z
1/2-x,y,z
1/2+x,-y,z
1/2+x,1/2+y,1/2+z
1/2-x,1/2-y,1/2+z
-x,1/2+y,1/2+z
x,1/2-y,1/2+z
loop_
_atom_site_type_symbol
_atom_site_label
_atom_site_fract_x
_atom_site_fract_y
_atom_site_fract_z
Si Si1 0.250000 0.037995 0.386171
Si Si2 0.347464 0.287198 0.488423
Si Si3 0.597166 0.287755 0.925842
Si Si4 0.142464 0.388585 0.176637
Si Si5 0.438747 0.013347 0.260013
Si Si6 0.953297 0.291742 0.093425
Si Si7 0.250000 0.968487 0.765501
O O1 0.299443 0.126473 0.445204
O O2 0.250000 0.752276 0.843885
O O3 0.250000 0.235705 0.303509
O O4 0.357353 0.578962 0.451033
O O5 0.340552 0.299965 0.594281
O O6 0.394866 0.095337 0.453757
O O7 0.587610 0.292845 0.822003
O O8 0.549539 0.208965 0.991802
O O9 0.101672 0.574873 0.124840
O O10 0.194458 0.539672 0.212013
O O11 0.106661 0.239099 0.250764
O O12 0.449565 0.955317 0.157685
O O13 0.500000 0.000000 0.296642
O O14 0.000000 0.500000 0.111988
#
# Coordination Sequence:
#
# PCOD9380979 Si02
#       7
#     4   8   8   8   8   8   4
#     4  12  27  46  73 110 151 198 265 328 393 474
#     4  11  25  48  73 106 152 209 260 328 399 485
#     4  11  26  44  75 109 154 206 259 328 409 484
#     4  11  26  48  74 109 153 209 269 332 410 490
#     4  12  25  45  75 114 159 211 272 339 415 497
#     4  11  24  46  72 109 157 204 267 335 413 498
#     4  12  29  46  77 112 151 202 265 330 395 486
#
# _framework density 24.905265
#
# number of rings (size 3 to 8) (size 9 to 14) (size 15 to 20)
#    0.000    0.667    3.333    3.000    9.333    0.000 
#    0.000    5.000    0.000    0.000    0.000    0.000 
#    0.000    0.000    0.000    0.000    0.000    0.000 
#
# Total GULP energy -133842.800798 kJ/mol
# GULP energy per Si atom -5576.783367 kJ/mol
# Density = 2.484858 g / cm^3
# Si number density = 24.905265 Si / 1000 Ang^3
#
#
#
# Elastic Constant Matrix: (Units=GPa)
#
#
# Indices 1 2 3 4 5 6 
#
# 1 148.9769 38.8975 27.8015 0.0000 0.0000 0.0000
# 2 38.8975 103.8593 26.6607 0.0000 0.0000 0.0000
# 3 27.8015 26.6607 101.9403 0.0000 0.0000 0.0000
# 4 0.0000 0.0000 0.0000 37.7282 0.0000 0.0000
# 5 0.0000 0.0000 0.0000 0.0000 26.2522 0.0000
# 6 0.0000 0.0000 0.0000 0.0000 0.0000 37.6601
#
#
#
# Elastic Compliance Matrix: (Units=1/GPa)
#
#
# Indices 1 2 3 4 5 6 
#
# 1 0.007629 -0.002490 -0.001429 0.000000 0.000000 0.000000
# 2 -0.002490 0.011134 -0.002233 0.000000 0.000000 0.000000
# 3 -0.001429 -0.002233 0.010783 0.000000 0.000000 0.000000
# 4 0.000000 0.000000 0.000000 0.026505 0.000000 0.000000
# 5 0.000000 0.000000 0.000000 0.000000 0.038092 0.000000
# 6 0.000000 0.000000 0.000000 0.000000 0.000000 0.026553
#
#
# Mechanical properties :
#
#
# Convention : Reuss Voigt Hill
#
# Bulk Modulus (GPa) = 57.99818 60.16621 59.08219
# Shear Modulus (GPa) = 36.03592 37.75589 36.89591
#
# Velocity S-wave (km/s) = 3.80797 3.89778 3.85314
# Velocity P-wave (km/s) = 6.53240 6.66839 6.60074
#
# Compressibility (1/GPa) = 0.01724192
#
# Stress axis : x y z
#
# Youngs Moduli (GPa) = 131.07101 89.81265 92.73487
#
# Poissons Ratio (x) = 0.22367 0.13255
# Poissons Ratio (y) = 0.32643 0.20706
# Poissons Ratio (z) = 0.18735 0.20053
#
# Static dielectric constant tensor:
#      x y z
#    x 2.173240 0.000000 0.000000 
#    y 0.000000 2.027350 0.000000 
#    z 0.000000 0.000000 2.025530 
# 
# From -- ./inp_files/17573.got.cif
#   From: 2010.05.17/outbox.cif.g08.bks.cpg/sg46_9_cif.got.tgz:17573.got - 2010.06.03 19:58:25.
