data_PCOD9380124
_publ_section_title
;
Structure prediction by ZEFSAII (Michael W. Deem and Ramdas Pophale) SiO2 
 PCOD9380124
Probable space group: I M A 2
;
_chemical_formula_sum "Si O2"
_cell_formula_units_Z 48
_cell_length_a 14.187844
_cell_length_b 4.986245
_cell_length_c 29.661759
_cell_angle_alpha 90.000000
_cell_angle_beta 90.000000
_cell_angle_gamma 90.000000
_cell_volume 2098.393442
_symmetry_space_group_name_H-M "I M A 2"
_symmetry_group_IT_number 46
_symmetry_cell_setting 'orthorhombic'
loop_
_space_group_symop_operation_xyz
x,y,z
-x,-y,z
1/2-x,y,z
1/2+x,-y,z
1/2+x,1/2+y,1/2+z
1/2-x,1/2-y,1/2+z
-x,1/2+y,1/2+z
x,1/2-y,1/2+z
loop_
_atom_site_type_symbol
_atom_site_label
_atom_site_fract_x
_atom_site_fract_y
_atom_site_fract_z
Si Si1 0.886625 0.480156 0.449730
Si Si2 0.250000 0.298978 0.133707
Si Si3 0.386959 0.997240 0.291149
Si Si4 0.614870 0.987134 0.846663
Si Si5 0.612476 0.509179 0.007271
Si Si6 0.250000 0.724535 0.576015
Si Si7 0.429819 0.237937 0.197197
O O1 0.854360 0.500436 0.398408
O O2 0.863575 0.184794 0.465967
O O3 0.000000 0.500000 0.448646
O O4 0.858983 0.697598 0.488292
O O5 0.250000 0.612593 0.122020
O O6 0.347455 0.266226 0.160811
O O7 0.250000 0.088172 0.090871
O O8 0.353577 0.205480 0.327776
O O9 0.375092 0.124681 0.241740
O O10 0.500000 0.000000 0.293702
O O11 0.356610 0.708539 0.309356
O O12 0.500000 0.000000 0.847774
O O13 0.500000 0.500000 0.015229
O O14 0.662707 0.356574 0.048505
O O15 0.500000 0.500000 0.205121
O O16 0.500000 0.000000 0.183220
#
# Coordination Sequence:
#
# PCOD9380124 Si02
#       7
#     8   4   8   8   8   4   8
#     4   9  17  31  54  86 121 160 201 244 298 359
#     4  12  28  46  68  97 124 161 216 276 342 406
#     4   9  16  28  51  85 120 159 202 244 298 361
#     4   9  15  25  48  84 121 156 203 247 285 353
#     4  10  21  38  60  86 119 158 201 250 311 378
#     4  12  26  44  66  91 120 159 208 270 338 396
#     4  11  23  43  68  95 130 171 215 268 334 401
#
# _framework density 22.874641
#
# number of rings (size 3 to 8) (size 9 to 14) (size 15 to 20)
#    0.000    2.000    0.000    5.500    0.000    6.000 
#    0.000    0.000    0.000    6.000    0.000    0.000 
#    0.000    1.333    0.000    0.000    0.000    0.000 
#
# Total GULP energy -133734.494297 kJ/mol
# GULP energy per Si atom -5572.270596 kJ/mol
# Density = 2.282258 g / cm^3
# Si number density = 22.874641 Si / 1000 Ang^3
#
#
#
# Elastic Constant Matrix: (Units=GPa)
#
#
# Indices 1 2 3 4 5 6 
#
# 1 121.0403 -5.7874 17.6658 0.0000 0.0000 0.0000
# 2 -5.7874 88.0024 -4.2411 0.0000 0.0000 0.0000
# 3 17.6658 -4.2411 71.3845 0.0000 0.0000 0.0000
# 4 0.0000 0.0000 0.0000 41.3346 0.0000 0.0000
# 5 0.0000 0.0000 0.0000 0.0000 -28.5748 0.0000
# 6 0.0000 0.0000 0.0000 0.0000 0.0000 -10.4503
#
#
#
# Elastic Compliance Matrix: (Units=1/GPa)
#
#
# Indices 1 2 3 4 5 6 
#
# 1 0.008590 0.000464 -0.002098 0.000000 0.000000 0.000000
# 2 0.000464 0.011421 0.000564 0.000000 0.000000 0.000000
# 3 -0.002098 0.000564 0.014561 0.000000 0.000000 0.000000
# 4 0.000000 0.000000 0.000000 0.024193 0.000000 0.000000
# 5 0.000000 0.000000 0.000000 0.000000 -0.034996 0.000000
# 6 0.000000 0.000000 0.000000 0.000000 0.000000 -0.095691
#
#
# Mechanical properties :
#
#
# Convention : Reuss Voigt Hill
#
# Bulk Modulus (GPa) = 30.83460 32.85577 31.84519
# Shear Modulus (GPa) = -84.78950 18.64789 -33.07080
#
# Velocity S-wave (km/s) = -6.09487 2.85831 -3.80641
# Velocity P-wave (km/s) = 6.00174 5.02870 2.31658
#
# Compressibility (1/GPa) = 0.03243110
#
# Stress axis : x y z
#
# Youngs Moduli (GPa) = 116.41269 87.55807 68.67465
#
# Poissons Ratio (x) = -0.04061 0.14410
# Poissons Ratio (y) = -0.05399 -0.03872
# Poissons Ratio (z) = 0.24427 -0.04936
#
# Static dielectric constant tensor:
#      x y z
#    x 1.919510 0.000000 0.000000 
#    y 0.000000 1.815810 0.000000 
#    z 0.000000 0.000000 1.876060 
# 
# From -- ./inp_files/24620.got.cif
#   From: 2010.05.17/outbox.cif.g08.bks.cpg/sg46_13_cif.got.tgz:24620.got - 2010.06.03 19:58:25.
