data_PCOD9380343
_publ_section_title
;
Structure prediction by ZEFSAII (Michael W. Deem and Ramdas Pophale) SiO2 
 PCOD9380343
Probable space group: I M A 2
;
_chemical_formula_sum "Si O2"
_cell_formula_units_Z 52
_cell_length_a 22.557168
_cell_length_b 13.099910
_cell_length_c 8.332389
_cell_angle_alpha 90.000000
_cell_angle_beta 90.000000
_cell_angle_gamma 90.000000
_cell_volume 2462.194875
_symmetry_space_group_name_H-M "I M A 2"
_symmetry_group_IT_number 46
_symmetry_cell_setting 'orthorhombic'
loop_
_space_group_symop_operation_xyz
x,y,z
-x,-y,z
1/2-x,y,z
1/2+x,-y,z
1/2+x,1/2+y,1/2+z
1/2-x,1/2-y,1/2+z
-x,1/2+y,1/2+z
x,1/2-y,1/2+z
loop_
_atom_site_type_symbol
_atom_site_label
_atom_site_fract_x
_atom_site_fract_y
_atom_site_fract_z
Si Si1 0.363704 0.540317 0.112850
Si Si2 0.344272 0.171038 0.224388
Si Si3 0.043602 0.084560 0.397055
Si Si4 0.501661 0.878874 0.956280
Si Si5 0.750000 0.545938 0.937599
Si Si6 0.637989 0.620511 0.375015
Si Si7 0.546510 0.296074 0.123168
O O1 0.358096 0.489293 0.290072
O O2 0.388799 0.655326 0.096130
O O3 0.415452 0.472971 0.028341
O O4 0.302487 0.521599 0.024246
O O5 0.410998 0.136359 0.274176
O O6 0.301207 0.116022 0.348006
O O7 0.340897 0.293114 0.248857
O O8 0.329235 0.135979 0.044249
O O9 0.001175 0.159279 0.496419
O O10 0.000000 0.000000 0.324440
O O11 0.570603 0.854152 0.924872
O O12 0.469769 0.839489 0.795828
O O13 0.500000 0.000000 0.964878
O O14 0.466220 0.823255 0.100234
#
# Coordination Sequence:
#
# PCOD9380343 Si02
#       7
#     8   8   8   8   4   8   8
#     4  10  21  42  66  91 135 186 232 286 345 415
#     4  11  23  36  59  91 134 180 237 283 352 403
#     4   9  17  34  56  88 129 175 215 272 337 410
#     4  12  23  41  66 106 148 178 228 282 358 436
#     4  10  24  44  64  98 136 188 248 294 344 416
#     4  12  22  38  62  95 140 180 230 291 353 428
#     4  11  21  40  65 100 141 181 224 283 354 425
#
# _framework density 21.119368000000001
#
# number of rings (size 3 to 8) (size 9 to 14) (size 15 to 20)
#    0.000    1.231    4.615    3.231    0.000    3.692 
#    5.538    0.769    0.000    0.923    0.000    0.000 
#    0.000    0.000    0.000    0.000    0.000    0.000 
#
# Total GULP energy -144741.185340 kJ/mol
# GULP energy per Si atom -5566.968667 kJ/mol
# Density = 2.107130 g / cm^3
# Si number density = 21.119368 Si / 1000 Ang^3
#
#
#
# Elastic Constant Matrix: (Units=GPa)
#
#
# Indices 1 2 3 4 5 6 
#
# 1 123.8768 38.9781 12.9629 0.0000 0.0000 0.0000
# 2 38.9781 127.4658 39.3571 0.0000 0.0000 0.0000
# 3 12.9629 39.3571 73.8372 0.0000 0.0000 0.0000
# 4 0.0000 0.0000 0.0000 14.7814 0.0000 0.0000
# 5 0.0000 0.0000 0.0000 0.0000 15.0099 0.0000
# 6 0.0000 0.0000 0.0000 0.0000 0.0000 13.6503
#
#
#
# Elastic Compliance Matrix: (Units=1/GPa)
#
#
# Indices 1 2 3 4 5 6 
#
# 1 0.008933 -0.002690 -0.000134 0.000000 0.000000 0.000000
# 2 -0.002690 0.010201 -0.004965 0.000000 0.000000 0.000000
# 3 -0.000134 -0.004965 0.016213 0.000000 0.000000 0.000000
# 4 0.000000 0.000000 0.000000 0.067653 0.000000 0.000000
# 5 0.000000 0.000000 0.000000 0.000000 0.066623 0.000000
# 6 0.000000 0.000000 0.000000 0.000000 0.000000 0.073258
#
#
# Mechanical properties :
#
#
# Convention : Reuss Voigt Hill
#
# Bulk Modulus (GPa) = 50.58636 56.41958 53.50297
# Shear Modulus (GPa) = 18.86442 24.28045 21.57243
#
# Velocity S-wave (km/s) = 2.99193 3.39437 3.19948
# Velocity P-wave (km/s) = 5.99501 6.49114 6.24800
#
# Compressibility (1/GPa) = 0.01976818
#
# Stress axis : x y z
#
# Youngs Moduli (GPa) = 111.94366 98.03039 61.67742
#
# Poissons Ratio (x) = 0.26372 0.00829
# Poissons Ratio (y) = 0.30115 0.30623
# Poissons Ratio (z) = 0.01504 0.48673
#
# Static dielectric constant tensor:
#      x y z
#    x 1.755800 0.000000 0.000000 
#    y 0.000000 1.845200 0.000000 
#    z 0.000000 0.000000 1.828350 
# 
# From -- ./inp_files/7375.got.cif
#   From: 2010.05.17/outbox.cif.g08.bks.cpg/sg46_4_cif.got.tgz:7375.got - 2010.06.03 19:58:25.
