data_PCOD9380509
_publ_section_title
;
Structure prediction by ZEFSAII (Michael W. Deem and Ramdas Pophale) SiO2 
 PCOD9380509
Probable space group: I M A 2
;
_chemical_formula_sum "Si O2"
_cell_formula_units_Z 48
_cell_length_a 15.855943
_cell_length_b 14.114833
_cell_length_c 10.110455
_cell_angle_alpha 90.000000
_cell_angle_beta 90.000000
_cell_angle_gamma 90.000000
_cell_volume 2262.760144
_symmetry_space_group_name_H-M "I M A 2"
_symmetry_group_IT_number 46
_symmetry_cell_setting 'orthorhombic'
loop_
_space_group_symop_operation_xyz
x,y,z
-x,-y,z
1/2-x,y,z
1/2+x,-y,z
1/2+x,1/2+y,1/2+z
1/2-x,1/2-y,1/2+z
-x,1/2+y,1/2+z
x,1/2-y,1/2+z
loop_
_atom_site_type_symbol
_atom_site_label
_atom_site_fract_x
_atom_site_fract_y
_atom_site_fract_z
Si Si1 0.250000 0.173316 0.173160
Si Si2 0.500000 0.000000 0.046354
Si Si3 0.750000 0.890168 0.665158
Si Si4 0.922614 0.605068 0.766111
Si Si5 0.934850 0.923251 0.569278
Si Si6 0.893975 0.141683 0.921509
Si Si7 0.750000 0.517538 0.442828
Si Si8 0.946826 0.256678 0.162867
O O1 0.250000 0.280404 0.120734
O O2 0.335425 0.161152 0.255815
O O3 0.250000 0.087789 0.067674
O O4 0.517418 0.089585 0.954304
O O5 0.426599 0.026623 0.150415
O O6 0.839245 0.932231 0.618009
O O7 0.750000 0.909373 0.821083
O O8 0.930176 0.565534 0.911833
O O9 0.002078 0.671977 0.733570
O O10 0.979796 0.823860 0.603426
O O11 0.000000 0.000000 0.625838
O O12 0.896214 0.189724 0.778561
O O13 0.827872 0.056093 0.931832
O O14 0.889741 0.216858 0.042596
#
# Coordination Sequence:
#
# PCOD9380509 Si02
#       8
#     4   4   4   8   8   8   4   8
#     4  12  25  42  71 102 140 175 229 304 361 423
#     4  10  22  40  68  98 140 186 232 284 362 460
#     4  12  29  42  69 110 141 184 239 299 365 434
#     4  11  22  42  66 101 136 179 233 284 367 430
#     4  12  25  44  70 104 146 183 237 303 360 427
#     4  11  25  45  72 102 142 194 250 291 369 441
#     4  12  28  48  68 102 145 195 240 303 364 443
#     4  11  24  43  73 103 138 197 236 297 359 433
#
# _framework density 21.21303
#
# number of rings (size 3 to 8) (size 9 to 14) (size 15 to 20)
#    0.000    0.667    5.833    1.500    5.833    0.667 
#    0.000    0.833    0.000    0.000    0.000    0.000 
#    0.000    0.000    0.000    0.000    0.000    0.000 
#
# Total GULP energy -133976.609026 kJ/mol
# GULP energy per Si atom -5582.358709 kJ/mol
# Density = 2.116475 g / cm^3
# Si number density = 21.213030 Si / 1000 Ang^3
#
#
#
# Elastic Constant Matrix: (Units=GPa)
#
#
# Indices 1 2 3 4 5 6 
#
# 1 92.3495 30.9562 18.0221 0.0000 0.0000 0.0000
# 2 30.9562 83.0565 29.1615 0.0000 0.0000 0.0000
# 3 18.0221 29.1615 100.7917 0.0000 0.0000 0.0000
# 4 0.0000 0.0000 0.0000 37.2148 0.0000 0.0000
# 5 0.0000 0.0000 0.0000 0.0000 15.8427 0.0000
# 6 0.0000 0.0000 0.0000 0.0000 0.0000 38.0956
#
#
#
# Elastic Compliance Matrix: (Units=1/GPa)
#
#
# Indices 1 2 3 4 5 6 
#
# 1 0.012462 -0.004299 -0.000984 0.000000 0.000000 0.000000
# 2 -0.004299 0.014884 -0.003538 0.000000 0.000000 0.000000
# 3 -0.000984 -0.003538 0.011121 0.000000 0.000000 0.000000
# 4 0.000000 0.000000 0.000000 0.026871 0.000000 0.000000
# 5 0.000000 0.000000 0.000000 0.000000 0.063120 0.000000
# 6 0.000000 0.000000 0.000000 0.000000 0.000000 0.026250
#
#
# Mechanical properties :
#
#
# Convention : Reuss Voigt Hill
#
# Bulk Modulus (GPa) = 48.01970 48.05303 48.03636
# Shear Modulus (GPa) = 27.88747 31.43449 29.66098
#
# Velocity S-wave (km/s) = 3.62973 3.85365 3.74337
# Velocity P-wave (km/s) = 6.34449 6.51941 6.43254
#
# Compressibility (1/GPa) = 0.02082479
#
# Stress axis : x y z
#
# Youngs Moduli (GPa) = 80.24670 67.18457 89.91981
#
# Poissons Ratio (x) = 0.28882 0.08852
# Poissons Ratio (y) = 0.34498 0.31811
# Poissons Ratio (z) = 0.07900 0.23768
#
# Static dielectric constant tensor:
#      x y z
#    x 1.835850 0.000000 0.000000 
#    y 0.000000 1.861490 0.000000 
#    z 0.000000 0.000000 1.747000 
# 
# From -- ./inp_files/6656.got.cif
#   From: 2010.05.17/outbox.cif.g08.bks.cpg/sg46_4_cif.got.tgz:6656.got - 2010.06.03 19:58:25.
