data_PCOD9380510
_publ_section_title
;
Structure prediction by ZEFSAII (Michael W. Deem and Ramdas Pophale) SiO2 
 PCOD9380510
Probable space group: I M A 2
;
_chemical_formula_sum "Si O2"
_cell_formula_units_Z 48
_cell_length_a 25.559998
_cell_length_b 6.472979
_cell_length_c 13.130557
_cell_angle_alpha 90.000000
_cell_angle_beta 90.000000
_cell_angle_gamma 90.000000
_cell_volume 2172.441862
_symmetry_space_group_name_H-M "I M A 2"
_symmetry_group_IT_number 46
_symmetry_cell_setting 'orthorhombic'
loop_
_space_group_symop_operation_xyz
x,y,z
-x,-y,z
1/2-x,y,z
1/2+x,-y,z
1/2+x,1/2+y,1/2+z
1/2-x,1/2-y,1/2+z
-x,1/2+y,1/2+z
x,1/2-y,1/2+z
loop_
_atom_site_type_symbol
_atom_site_label
_atom_site_fract_x
_atom_site_fract_y
_atom_site_fract_z
Si Si1 0.421321 0.471378 0.031020
Si Si2 0.163729 0.003689 0.683817
Si Si3 0.250000 0.166555 0.156658
Si Si4 0.136194 0.372457 0.397218
Si Si5 0.543350 0.161025 0.902008
Si Si6 0.750000 0.204437 0.280009
Si Si7 0.000000 0.500000 0.200483
Si Si8 0.250000 0.982679 0.956266
O O1 0.374786 0.575387 0.097175
O O2 0.459175 0.394405 0.122635
O O3 0.392781 0.308753 0.957375
O O4 0.453772 0.625077 0.959622
O O5 0.201580 0.182106 0.642074
O O6 0.134251 0.125625 0.774781
O O7 0.199408 0.822998 0.732746
O O8 0.250000 0.039258 0.261333
O O9 0.250000 0.980623 0.076727
O O10 0.100912 0.571092 0.420662
O O11 0.196940 0.400552 0.424148
O O12 0.500000 0.000000 0.944577
O O13 0.528634 0.154996 0.781076
O O14 0.750000 0.265611 0.398627
#
# Coordination Sequence:
#
# PCOD9380510 Si02
#       8
#     8   8   4   8   8   4   4   4
#     4  12  23  43  76  95 135 190 221 295 378 404
#     4  10  22  42  65  99 139 180 240 296 346 433
#     4  11  21  43  65  98 139 191 241 286 364 424
#     4  11  23  45  67 104 143 181 240 301 352 441
#     4  10  24  46  66 104 141 173 246 293 351 445
#     4   9  23  39  59  94 142 184 224 293 348 415
#     4  10  24  48  68 100 140 166 240 302 338 456
#     4  10  22  40  68  98 145 181 239 301 344 443
#
# _framework density 22.094950999999998
#
# number of rings (size 3 to 8) (size 9 to 14) (size 15 to 20)
#    0.500    1.000    3.333    1.500    2.333    2.667 
#    3.000    2.500    0.000    0.000    0.000    0.000 
#    0.000    0.000    0.000    0.000    0.000    0.000 
#
# Total GULP energy -133744.895159 kJ/mol
# GULP energy per Si atom -5572.703965 kJ/mol
# Density = 2.204466 g / cm^3
# Si number density = 22.094951 Si / 1000 Ang^3
#
#
#
# Elastic Constant Matrix: (Units=GPa)
#
#
# Indices 1 2 3 4 5 6 
#
# 1 134.9688 50.7338 55.5814 0.0000 0.0000 0.0000
# 2 50.7338 43.2866 36.8024 0.0000 0.0000 0.0000
# 3 55.5814 36.8024 111.7764 0.0000 0.0000 0.0000
# 4 0.0000 0.0000 0.0000 28.6093 0.0000 0.0000
# 5 0.0000 0.0000 0.0000 0.0000 30.4815 0.0000
# 6 0.0000 0.0000 0.0000 0.0000 0.0000 13.5802
#
#
#
# Elastic Compliance Matrix: (Units=1/GPa)
#
#
# Indices 1 2 3 4 5 6 
#
# 1 0.013590 -0.014142 -0.002102 0.000000 0.000000 0.000000
# 2 -0.014142 0.046798 -0.008376 0.000000 0.000000 0.000000
# 3 -0.002102 -0.008376 0.012749 0.000000 0.000000 0.000000
# 4 0.000000 0.000000 0.000000 0.034954 0.000000 0.000000
# 5 0.000000 0.000000 0.000000 0.000000 0.032807 0.000000
# 6 0.000000 0.000000 0.000000 0.000000 0.000000 0.073637
#
#
# Mechanical properties :
#
#
# Convention : Reuss Voigt Hill
#
# Bulk Modulus (GPa) = 41.84358 64.02969 52.93663
# Shear Modulus (GPa) = 18.39993 24.32849 21.36421
#
# Velocity S-wave (km/s) = 2.88890 3.32186 3.11292
# Velocity P-wave (km/s) = 5.48697 6.61478 6.07709
#
# Compressibility (1/GPa) = 0.02389853
#
# Stress axis : x y z
#
# Youngs Moduli (GPa) = 73.58143 21.36844 78.43487
#
# Poissons Ratio (x) = 0.30218 0.16485
# Poissons Ratio (y) = 1.04056 0.65699
# Poissons Ratio (z) = 0.15465 0.17899
#
# Static dielectric constant tensor:
#      x y z
#    x 1.926890 0.000000 0.000000 
#    y 0.000000 1.790260 0.000000 
#    z 0.000000 0.000000 1.855540 
# 
# From -- ./inp_files/17595.got.cif
#   From: 2010.05.17/outbox.cif.g08.bks.cpg/sg46_9_cif.got.tgz:17595.got - 2010.06.03 19:58:25.
