data_PCOD9380816
_publ_section_title
;
Structure prediction by ZEFSAII (Michael W. Deem and Ramdas Pophale) SiO2 
 PCOD9380816
Probable space group: I M A 2
;
_chemical_formula_sum "Si O2"
_cell_formula_units_Z 40
_cell_length_a 17.554911
_cell_length_b 13.610861
_cell_length_c 7.644821
_cell_angle_alpha 90.000000
_cell_angle_beta 90.000000
_cell_angle_gamma 90.000000
_cell_volume 1826.634062
_symmetry_space_group_name_H-M "I M A 2"
_symmetry_group_IT_number 46
_symmetry_cell_setting 'orthorhombic'
loop_
_space_group_symop_operation_xyz
x,y,z
-x,-y,z
1/2-x,y,z
1/2+x,-y,z
1/2+x,1/2+y,1/2+z
1/2-x,1/2-y,1/2+z
-x,1/2+y,1/2+z
x,1/2-y,1/2+z
loop_
_atom_site_type_symbol
_atom_site_label
_atom_site_fract_x
_atom_site_fract_y
_atom_site_fract_z
Si Si1 0.047614 0.603087 0.211910
Si Si2 0.663420 0.866564 0.916619
Si Si3 0.420975 0.947457 0.078269
Si Si4 0.898538 0.661951 0.043470
Si Si5 0.158283 0.537755 0.918823
O O1 0.064707 0.625504 0.414418
O O2 0.000000 0.500000 0.220636
O O3 0.985086 0.667108 0.112000
O O4 0.121301 0.586263 0.091916
O O5 0.750000 0.859852 0.972302
O O6 0.653943 0.866477 0.708556
O O7 0.628374 0.964933 0.993486
O O8 0.622313 0.767966 0.975337
O O9 0.376204 0.909445 0.247019
O O10 0.500000 0.000000 0.131426
O O11 0.878343 0.572970 0.912002
O O12 0.250000 0.534882 0.919863
#
# Coordination Sequence:
#
# PCOD9380816 Si02
#       5
#     8   8   8   8   8
#     4   9  19  39  57  78 118 167 211 247 290 372
#     4  12  22  34  57  90 129 160 195 249 313 370
#     4  11  20  37  59  82 120 165 210 246 294 373
#     4  11  22  38  53  87 133 169 199 247 319 383
#     4  11  21  34  57  87 118 155 206 259 308 362
#
# _framework density 21.898199999999999
#
# number of rings (size 3 to 8) (size 9 to 14) (size 15 to 20)
#    0.000    1.200    6.000    5.400    0.000    0.800 
#    0.000    0.000    0.000    0.000    0.000    7.000 
#    0.000    0.000    0.000    0.000    0.000    0.000 
#
# Total GULP energy -111766.193386 kJ/mol
# GULP energy per Si atom -5588.309669 kJ/mol
# Density = 2.184836 g / cm^3
# Si number density = 21.898200 Si / 1000 Ang^3
#
#
#
# Elastic Constant Matrix: (Units=GPa)
#
#
# Indices 1 2 3 4 5 6 
#
# 1 149.4203 25.1251 63.0840 0.0000 0.0000 0.0000
# 2 25.1251 15.8001 -7.5926 0.0000 0.0000 0.0000
# 3 63.0840 -7.5926 103.8128 0.0000 0.0000 0.0000
# 4 0.0000 0.0000 0.0000 15.7424 0.0000 0.0000
# 5 0.0000 0.0000 0.0000 0.0000 17.3799 0.0000
# 6 0.0000 0.0000 0.0000 0.0000 0.0000 17.2427
#
#
#
# Elastic Compliance Matrix: (Units=1/GPa)
#
#
# Indices 1 2 3 4 5 6 
#
# 1 0.018842 -0.036757 -0.014138 0.000000 0.000000 0.000000
# 2 -0.036757 0.137300 0.032378 0.000000 0.000000 0.000000
# 3 -0.014138 0.032378 0.020592 0.000000 0.000000 0.000000
# 4 0.000000 0.000000 0.000000 0.063523 0.000000 0.000000
# 5 0.000000 0.000000 0.000000 0.000000 0.057538 0.000000
# 6 0.000000 0.000000 0.000000 0.000000 0.000000 0.057996
#
#
# Mechanical properties :
#
#
# Convention : Reuss Voigt Hill
#
# Bulk Modulus (GPa) = 7.15821 47.80736 27.48279
# Shear Modulus (GPa) = 11.37939 22.63411 17.00675
#
# Velocity S-wave (km/s) = 2.28206 3.21846 2.78983
# Velocity P-wave (km/s) = 3.19682 5.97414 4.79114
#
# Compressibility (1/GPa) = 0.13969971
#
# Stress axis : x y z
#
# Youngs Moduli (GPa) = 53.07242 7.28334 48.56243
#
# Poissons Ratio (x) = 0.26771 0.68658
# Poissons Ratio (y) = 1.95076 -1.57234
# Poissons Ratio (z) = 0.75034 -0.23582
#
# Static dielectric constant tensor:
#      x y z
#    x 1.799310 0.000000 0.000000 
#    y 0.000000 1.801550 0.000000 
#    z 0.000000 0.000000 1.879220 
# 
# From -- ./inp_files/5423.got.cif
#   From: 2010.05.17/outbox.cif.g08.bks.cpg/sg46_3_cif.got.tgz:5423.got - 2010.06.03 19:58:25.
