data_PCOD9380309
_publ_section_title
;
Structure prediction by ZEFSAII (Michael W. Deem and Ramdas Pophale) SiO2 
 PCOD9380309
Probable space group: I M A 2
;
_chemical_formula_sum "Si O2"
_cell_formula_units_Z 32
_cell_length_a 7.724260
_cell_length_b 35.053263
_cell_length_c 5.235827
_cell_angle_alpha 90.000000
_cell_angle_beta 90.000000
_cell_angle_gamma 90.000000
_cell_volume 1417.655227
_symmetry_space_group_name_H-M "I M A 2"
_symmetry_group_IT_number 46
_symmetry_cell_setting 'orthorhombic'
loop_
_space_group_symop_operation_xyz
x,y,z
-x,-y,z
1/2-x,y,z
1/2+x,-y,z
1/2+x,1/2+y,1/2+z
1/2-x,1/2-y,1/2+z
-x,1/2+y,1/2+z
x,1/2-y,1/2+z
loop_
_atom_site_type_symbol
_atom_site_label
_atom_site_fract_x
_atom_site_fract_y
_atom_site_fract_z
Si Si1 0.458273 0.455748 0.469270
Si Si2 0.250000 0.724065 0.197810
Si Si3 0.750000 0.723781 0.654261
Si Si4 0.040989 0.087113 0.469682
Si Si5 0.443521 0.826116 0.361639
O O1 0.500000 0.500000 0.434724
O O2 0.250000 0.452489 0.472605
O O3 0.523803 0.430073 0.235624
O O4 0.522857 0.438994 0.736701
O O5 0.250000 0.754741 0.964235
O O6 0.087066 0.697366 0.126054
O O7 0.750000 0.745402 0.385335
O O8 0.583711 0.696715 0.699772
O O9 0.250000 0.085066 0.474393
O O10 0.994401 0.130863 0.421343
O O11 0.250000 0.826666 0.243851
#
# Coordination Sequence:
#
# PCOD9380309 Si02
#       5
#     8   4   4   8   8
#     4  10  22  38  63  89 124 162 206 255 309 374
#     4  10  22  40  60  88 123 156 207 260 302 362
#     4  12  26  44  68  94 129 172 213 268 326 374
#     4  10  21  41  59  89 125 164 205 256 313 374
#     4  10  24  43  66  97 127 172 214 265 316 383
#
# _framework density 22.572483999999999
#
# number of rings (size 3 to 8) (size 9 to 14) (size 15 to 20)
#    0.750    1.000    1.250    2.250    0.000    6.000 
#    0.000    0.000    0.000    0.000    0.000    0.000 
#    0.000    0.000    0.000    0.000    0.000    0.000 
#
# Total GULP energy -89479.280642 kJ/mol
# GULP energy per Si atom -5592.455040 kJ/mol
# Density = 2.252111 g / cm^3
# Si number density = 22.572484 Si / 1000 Ang^3
#
#
#
# Elastic Constant Matrix: (Units=GPa)
#
#
# Indices 1 2 3 4 5 6 
#
# 1 80.7930 -1.8034 10.9016 -0.0208 -0.0074 -0.0031
# 2 -1.8034 103.9120 8.5809 -0.0251 0.0097 0.0033
# 3 10.9016 8.5809 81.0643 0.0005 -0.0046 0.0010
# 4 -0.0208 -0.0251 0.0005 13.6578 -0.0117 0.0026
# 5 -0.0074 0.0097 -0.0046 -0.0117 7.8814 0.0073
# 6 -0.0031 0.0033 0.0010 0.0026 0.0073 45.6528
#
#
#
# Elastic Compliance Matrix: (Units=1/GPa)
#
#
# Indices 1 2 3 4 5 6 
#
# 1 0.012620 0.000362 -0.001735 0.000020 0.000010 0.000001
# 2 0.000362 0.009719 -0.001077 0.000018 -0.000012 -0.000001
# 3 -0.001735 -0.001077 0.012683 -0.000005 0.000007 0.000000
# 4 0.000020 0.000018 -0.000005 0.073219 0.000109 -0.000004
# 5 0.000010 -0.000012 0.000007 0.000109 0.126882 -0.000020
# 6 0.000001 -0.000001 0.000000 -0.000004 -0.000020 0.021904
#
#
# Mechanical properties :
#
#
# Convention : Reuss Voigt Hill
#
# Bulk Modulus (GPa) = 33.20000 33.45861 33.32931
# Shear Modulus (GPa) = 18.38453 29.97774 24.18114
#
# Velocity S-wave (km/s) = 2.85698 3.64822 3.27657
# Velocity P-wave (km/s) = 5.06194 5.70972 5.39556
#
# Compressibility (1/GPa) = 0.03012048
#
# Stress axis : x y z
#
# Youngs Moduli (GPa) = 79.24200 102.89339 78.84363
#
# Poissons Ratio (x) = -0.03728 0.13683
# Poissons Ratio (y) = -0.02871 0.08495
# Poissons Ratio (z) = 0.13752 0.11087
#
# Static dielectric constant tensor:
#      x y z
#    x 1.877280 0.000000 -0.000010 
#    y 0.000000 1.782000 -0.000010 
#    z -0.000010 -0.000010 1.841970 
# 
# From -- ./inp_files/457.got.cif
#   From: 2010.05.17/outbox.cif.g08.bks.cpg/sg46_1_cif.got.tgz:457.got - 2010.06.03 19:58:25.
