data_PCOD9380303
_publ_section_title
;
Structure prediction by ZEFSAII (Michael W. Deem and Ramdas Pophale) SiO2 
 PCOD9380303
Probable space group: I M A 2
;
_chemical_formula_sum "Si O2"
_cell_formula_units_Z 48
_cell_length_a 18.921263
_cell_length_b 8.845828
_cell_length_c 13.178947
_cell_angle_alpha 90.000000
_cell_angle_beta 90.000000
_cell_angle_gamma 90.000000
_cell_volume 2205.816212
_symmetry_space_group_name_H-M "I M A 2"
_symmetry_group_IT_number 46
_symmetry_cell_setting 'orthorhombic'
loop_
_space_group_symop_operation_xyz
x,y,z
-x,-y,z
1/2-x,y,z
1/2+x,-y,z
1/2+x,1/2+y,1/2+z
1/2-x,1/2-y,1/2+z
-x,1/2+y,1/2+z
x,1/2-y,1/2+z
loop_
_atom_site_type_symbol
_atom_site_label
_atom_site_fract_x
_atom_site_fract_y
_atom_site_fract_z
Si Si1 0.666570 0.144184 0.821090
Si Si2 0.329624 0.522279 0.766291
Si Si3 0.478371 0.168422 0.011675
Si Si4 0.541976 0.360669 0.172047
Si Si5 0.331176 0.030691 0.035503
Si Si6 0.960362 0.653666 0.816692
O O1 0.750000 0.128992 0.795054
O O2 0.650334 0.324254 0.825380
O O3 0.614311 0.095478 0.729394
O O4 0.656710 0.064186 0.930740
O O5 0.250000 0.483932 0.793272
O O6 0.331643 0.553265 0.644980
O O7 0.379895 0.385153 0.794753
O O8 0.536628 0.223239 0.092513
O O9 0.500000 0.000000 0.976394
O O10 0.396874 0.145886 0.046493
O O11 0.475445 0.299655 0.930159
O O12 0.500000 0.500000 0.125024
O O13 0.489952 0.296433 0.257863
O O14 0.250000 0.091440 0.026872
O O15 0.000000 0.500000 0.785379
#
# Coordination Sequence:
#
# PCOD9380303 Si02
#       6
#     8   8   8   8   8   8
#     4  10  21  40  68 100 137 183 230 279 345 426
#     4  10  21  40  67  99 139 181 225 281 345 413
#     4  12  25  42  67  95 134 183 224 286 346 413
#     4  12  24  43  65 100 138 177 232 286 346 413
#     4  10  21  41  67  97 133 182 231 276 348 416
#     4  12  23  41  64  97 131 176 227 281 343 406
#
# _framework density 21.760653000000001
#
# number of rings (size 3 to 8) (size 9 to 14) (size 15 to 20)
#    0.000    1.000    3.333    4.500    0.000    0.667 
#    3.000    1.667    0.000    0.000    0.000    0.000 
#    0.000    0.000    0.000    0.000    0.000    0.000 
#
# Total GULP energy -133820.335259 kJ/mol
# GULP energy per Si atom -5575.847302 kJ/mol
# Density = 2.171112 g / cm^3
# Si number density = 21.760653 Si / 1000 Ang^3
#
#
#
# Elastic Constant Matrix: (Units=GPa)
#
#
# Indices 1 2 3 4 5 6 
#
# 1 110.4649 15.4308 11.3325 0.0000 0.0000 0.0000
# 2 15.4308 46.5164 13.3950 0.0000 0.0000 0.0000
# 3 11.3325 13.3950 81.9807 0.0000 0.0000 0.0000
# 4 0.0000 0.0000 0.0000 26.9825 0.0000 0.0000
# 5 0.0000 0.0000 0.0000 0.0000 30.8064 0.0000
# 6 0.0000 0.0000 0.0000 0.0000 0.0000 24.8178
#
#
#
# Elastic Compliance Matrix: (Units=1/GPa)
#
#
# Indices 1 2 3 4 5 6 
#
# 1 0.009548 -0.002925 -0.000842 0.000000 0.000000 0.000000
# 2 -0.002925 0.023455 -0.003428 0.000000 0.000000 0.000000
# 3 -0.000842 -0.003428 0.012874 0.000000 0.000000 0.000000
# 4 0.000000 0.000000 0.000000 0.037061 0.000000 0.000000
# 5 0.000000 0.000000 0.000000 0.000000 0.032461 0.000000
# 6 0.000000 0.000000 0.000000 0.000000 0.000000 0.040294
#
#
# Mechanical properties :
#
#
# Convention : Reuss Voigt Hill
#
# Bulk Modulus (GPa) = 31.75840 35.47541 33.61690
# Shear Modulus (GPa) = 27.68883 29.77492 28.73188
#
# Velocity S-wave (km/s) = 3.57098 3.70306 3.63762
# Velocity P-wave (km/s) = 5.62393 5.88400 5.75543
#
# Compressibility (1/GPa) = 0.03148774
#
# Stress axis : x y z
#
# Youngs Moduli (GPa) = 104.73858 42.63447 77.67297
#
# Poissons Ratio (x) = 0.12470 0.06539
# Poissons Ratio (y) = 0.30634 0.26627
# Poissons Ratio (z) = 0.08818 0.14615
#
# Static dielectric constant tensor:
#      x y z
#    x 1.837150 0.000000 0.000000 
#    y 0.000000 1.763160 0.000000 
#    z 0.000000 0.000000 1.854630 
# 
# From -- ./inp_files/16976.got.cif
#   From: 2010.05.17/outbox.cif.g08.bks.cpg/sg46_9_cif.got.tgz:16976.got - 2010.06.03 19:58:25.
