data_PCOD9380398
_publ_section_title
;
Structure prediction by ZEFSAII (Michael W. Deem and Ramdas Pophale) SiO2 
 PCOD9380398
Probable space group: I M A 2
;
_chemical_formula_sum "Si O2"
_cell_formula_units_Z 64
_cell_length_a 7.529764
_cell_length_b 25.164482
_cell_length_c 13.989293
_cell_angle_alpha 90.000000
_cell_angle_beta 90.000000
_cell_angle_gamma 90.000000
_cell_volume 2650.727759
_symmetry_space_group_name_H-M "I M A 2"
_symmetry_group_IT_number 46
_symmetry_cell_setting 'orthorhombic'
loop_
_space_group_symop_operation_xyz
x,y,z
-x,-y,z
1/2-x,y,z
1/2+x,-y,z
1/2+x,1/2+y,1/2+z
1/2-x,1/2-y,1/2+z
-x,1/2+y,1/2+z
x,1/2-y,1/2+z
loop_
_atom_site_type_symbol
_atom_site_label
_atom_site_fract_x
_atom_site_fract_y
_atom_site_fract_z
Si Si1 0.966615 0.836285 0.274030
Si Si2 0.547349 0.441262 0.475800
Si Si3 0.964521 0.281371 0.071234
Si Si4 0.457534 0.399620 0.071341
Si Si5 0.534145 0.892672 0.786805
Si Si6 0.456407 0.276871 0.297764
Si Si7 0.037205 0.058172 0.379669
Si Si8 0.042109 0.667648 0.549940
O O1 0.750000 0.834749 0.275033
O O2 0.031787 0.781144 0.322556
O O3 0.027991 0.891026 0.320952
O O4 0.026833 0.834981 0.164517
O O5 0.500000 0.500000 0.508990
O O6 0.750000 0.435639 0.503688
O O7 0.524775 0.436486 0.361850
O O8 0.456759 0.387225 0.513601
O O9 0.750000 0.281824 0.072548
O O10 0.028721 0.226460 0.022730
O O11 0.028296 0.338504 0.035082
O O12 0.030863 0.279070 0.181343
O O13 0.250000 0.412516 0.081410
O O14 0.531703 0.401837 0.178729
O O15 0.534027 0.436135 0.988020
O O16 0.750000 0.890758 0.784843
O O17 0.468342 0.834680 0.824348
O O18 0.250000 0.277166 0.324081
O O19 0.250000 0.063642 0.383858
O O20 0.000000 0.000000 0.339441
O O21 0.250000 0.669586 0.524069
#
# Coordination Sequence:
#
# PCOD9380398 Si02
#       8
#     8   8   8   8   8   8   8   8
#     4   9  18  34  57  82 107 138 175 214 257 308
#     4  11  24  40  55  74 103 139 181 224 263 308
#     4   9  16  29  52  81 108 134 169 210 257 315
#     4   9  19  36  56  79 109 141 172 212 261 312
#     4   9  18  34  56  81 107 135 169 213 264 314
#     4   8  15  30  52  79 109 137 168 207 256 315
#     4  10  22  38  54  76 106 140 181 222 259 305
#     4   9  20  37  55  78 109 140 170 212 265 315
#
# _framework density 24.144313
#
# number of rings (size 3 to 8) (size 9 to 14) (size 15 to 20)
#    0.000    2.750    0.000    1.500    0.000    6.500 
#    0.000    5.000    0.000    0.000    0.000    0.000 
#    0.000    0.000    0.000    0.000    0.000    0.000 
#
# Total GULP energy -178612.886540 kJ/mol
# GULP energy per Si atom -5581.652704 kJ/mol
# Density = 2.408936 g / cm^3
# Si number density = 24.144313 Si / 1000 Ang^3
#
#
#
# Elastic Constant Matrix: (Units=GPa)
#
#
# Indices 1 2 3 4 5 6 
#
# 1 72.2018 -12.1554 -7.3438 0.0000 0.0000 0.0000
# 2 -12.1554 123.3544 18.1980 0.0000 0.0000 0.0000
# 3 -7.3438 18.1980 40.2348 -0.0001 0.0000 0.0000
# 4 0.0000 0.0000 -0.0001 27.5598 0.0000 0.0000
# 5 0.0000 0.0000 0.0000 0.0000 20.6187 0.0000
# 6 0.0000 0.0000 0.0000 0.0000 0.0000 15.4362
#
#
#
# Elastic Compliance Matrix: (Units=1/GPa)
#
#
# Indices 1 2 3 4 5 6 
#
# 1 0.014248 0.001093 0.002106 0.000000 0.000000 0.000000
# 2 0.001093 0.008770 -0.003767 0.000000 0.000000 0.000000
# 3 0.002106 -0.003767 0.026942 0.000000 0.000000 0.000000
# 4 0.000000 0.000000 0.000000 0.036285 0.000000 0.000000
# 5 0.000000 0.000000 0.000000 0.000000 0.048500 0.000000
# 6 0.000000 0.000000 0.000000 0.000000 0.000000 0.064783
#
#
# Mechanical properties :
#
#
# Convention : Reuss Voigt Hill
#
# Bulk Modulus (GPa) = 20.48107 25.90986 23.19546
# Shear Modulus (GPa) = 23.04795 28.52907 25.78851
#
# Velocity S-wave (km/s) = 3.09300 3.44118 3.27172
# Velocity P-wave (km/s) = 4.61050 5.15204 4.88877
#
# Compressibility (1/GPa) = 0.04882558
#
# Stress axis : x y z
#
# Youngs Moduli (GPa) = 70.18358 114.02221 37.11618
#
# Poissons Ratio (x) = -0.12466 -0.07817
# Poissons Ratio (y) = -0.07673 0.13982
# Poissons Ratio (z) = -0.14782 0.42954
#
# Static dielectric constant tensor:
#      x y z
#    x 1.879520 0.000000 0.000000 
#    y 0.000000 1.976680 0.000000 
#    z 0.000000 0.000000 1.947260 
# 
# From -- ./inp_files/14539.got.cif
#   From: 2010.05.17/outbox.cif.g08.bks.cpg/sg46_8_cif.got.tgz:14539.got - 2010.06.03 19:58:25.
