data_PCOD9380764
_publ_section_title
;
Structure prediction by ZEFSAII (Michael W. Deem and Ramdas Pophale) SiO2 
 PCOD9380764
Probable space group: I M A 2
;
_chemical_formula_sum "Si O2"
_cell_formula_units_Z 36
_cell_length_a 18.325362
_cell_length_b 8.517201
_cell_length_c 10.514272
_cell_angle_alpha 90.000000
_cell_angle_beta 90.000000
_cell_angle_gamma 90.000000
_cell_volume 1641.075896
_symmetry_space_group_name_H-M "I M A 2"
_symmetry_group_IT_number 46
_symmetry_cell_setting 'orthorhombic'
loop_
_space_group_symop_operation_xyz
x,y,z
-x,-y,z
1/2-x,y,z
1/2+x,-y,z
1/2+x,1/2+y,1/2+z
1/2-x,1/2-y,1/2+z
-x,1/2+y,1/2+z
x,1/2-y,1/2+z
loop_
_atom_site_type_symbol
_atom_site_label
_atom_site_fract_x
_atom_site_fract_y
_atom_site_fract_z
Si Si1 0.250000 0.627049 0.594031
Si Si2 0.250000 0.030219 0.824721
Si Si3 0.987639 0.685913 0.787262
Si Si4 0.375508 0.858151 0.672994
Si Si5 0.902482 0.822656 0.547707
Si Si6 0.750000 0.799753 0.141378
O O1 0.250000 0.524820 0.467414
O O2 0.322475 0.730941 0.606882
O O3 0.250000 0.480132 0.688693
O O4 0.321420 0.953779 0.762996
O O5 0.250000 0.204698 0.773581
O O6 0.904747 0.011594 0.573092
O O7 0.000000 0.500000 0.782372
O O8 0.063097 0.777460 0.759601
O O9 0.944806 0.720342 0.918449
O O10 0.440417 0.258894 0.667643
O O11 0.820211 0.758366 0.560603
#
# Coordination Sequence:
#
# PCOD9380764 Si02
#       6
#     4   4   8   8   8   4
#     4  11  23  45  80 102 141 193 236 308 360 443
#     4   9  23  41  74 102 139 191 225 311 355 423
#     4  12  26  44  72 106 145 195 241 299 368 432
#     4  10  24  47  67 108 145 184 249 291 368 438
#     4  11  27  47  74 105 148 195 238 313 361 437
#     4  10  24  48  68 108 138 184 249 287 369 430
#
# _framework density 21.936827999999998
#
# number of rings (size 3 to 8) (size 9 to 14) (size 15 to 20)
#    0.000    1.333    0.000    4.000   12.444    1.778 
#    0.000    0.000    0.000    0.000    0.000    0.000 
#    0.000    0.000    0.000    0.000    0.000    0.000 
#
# Total GULP energy -100622.654885 kJ/mol
# GULP energy per Si atom -5590.147494 kJ/mol
# Density = 2.188690 g / cm^3
# Si number density = 21.936828 Si / 1000 Ang^3
#
#
#
# Elastic Constant Matrix: (Units=GPa)
#
#
# Indices 1 2 3 4 5 6 
#
# 1 140.8955 29.5336 68.4198 0.0000 0.0000 0.0000
# 2 29.5336 97.6594 49.3078 0.0000 0.0000 0.0000
# 3 68.4198 49.3078 148.6380 0.0000 0.0000 0.0000
# 4 0.0000 0.0000 0.0000 15.9502 0.0000 0.0000
# 5 0.0000 0.0000 0.0000 0.0000 154.6501 0.0000
# 6 0.0000 0.0000 0.0000 0.0000 0.0000 35.4506
#
#
#
# Elastic Compliance Matrix: (Units=1/GPa)
#
#
# Indices 1 2 3 4 5 6 
#
# 1 0.009189 -0.000773 -0.003973 0.000000 0.000000 0.000000
# 2 -0.000773 0.012365 -0.003746 0.000000 0.000000 0.000000
# 3 -0.003973 -0.003746 0.009799 0.000000 0.000000 0.000000
# 4 0.000000 0.000000 0.000000 0.062695 0.000000 0.000000
# 5 0.000000 0.000000 0.000000 0.000000 0.006466 0.000000
# 6 0.000000 0.000000 0.000000 0.000000 0.000000 0.028208
#
#
# Mechanical properties :
#
#
# Convention : Reuss Voigt Hill
#
# Bulk Modulus (GPa) = 69.59574 75.74614 72.67094
# Shear Modulus (GPa) = 33.22328 57.20562 45.21445
#
# Velocity S-wave (km/s) = 3.89588 5.11215 4.54488
# Velocity P-wave (km/s) = 7.21329 8.33364 7.79362
#
# Compressibility (1/GPa) = 0.01436870
#
# Stress axis : x y z
#
# Youngs Moduli (GPa) = 108.82616 80.87527 102.04629
#
# Poissons Ratio (x) = 0.06249 0.40548
# Poissons Ratio (y) = 0.08409 0.38227
# Poissons Ratio (z) = 0.43242 0.30297
#
# Static dielectric constant tensor:
#      x y z
#    x 1.698780 0.000000 0.000000 
#    y 0.000000 1.864920 0.000000 
#    z 0.000000 0.000000 1.846340 
# 
# From -- ./inp_files/7175.got.cif
#   From: 2010.05.17/outbox.cif.g08.bks.cpg/sg46_4_cif.got.tgz:7175.got - 2010.06.03 19:58:25.
