data_PCOD9380248
_publ_section_title
;
Structure prediction by ZEFSAII (Michael W. Deem and Ramdas Pophale) SiO2 
 PCOD9380248
Probable space group: I M A 2
;
_chemical_formula_sum "Si O2"
_cell_formula_units_Z 64
_cell_length_a 30.104409
_cell_length_b 10.735575
_cell_length_c 9.297685
_cell_angle_alpha 90.000000
_cell_angle_beta 90.000000
_cell_angle_gamma 90.000000
_cell_volume 3004.901528
_symmetry_space_group_name_H-M "I M A 2"
_symmetry_group_IT_number 46
_symmetry_cell_setting 'orthorhombic'
loop_
_space_group_symop_operation_xyz
x,y,z
-x,-y,z
1/2-x,y,z
1/2+x,-y,z
1/2+x,1/2+y,1/2+z
1/2-x,1/2-y,1/2+z
-x,1/2+y,1/2+z
x,1/2-y,1/2+z
loop_
_atom_site_type_symbol
_atom_site_label
_atom_site_fract_x
_atom_site_fract_y
_atom_site_fract_z
Si Si1 0.404709 0.727044 0.696340
Si Si2 0.122221 0.590299 0.979752
Si Si3 0.114159 0.383257 0.384617
Si Si4 0.300895 0.356134 0.542743
Si Si5 0.085585 0.344004 0.082486
Si Si6 0.300628 0.407688 0.880188
Si Si7 0.004051 0.854524 0.731437
Si Si8 0.542689 0.060435 0.010257
O O1 0.392677 0.687020 0.856134
O O2 0.371505 0.823397 0.620650
O O3 0.451966 0.793851 0.670807
O O4 0.417511 0.601852 0.612627
O O5 0.164948 0.512771 0.928844
O O6 0.086355 0.480063 0.008933
O O7 0.159947 0.426757 0.457339
O O8 0.119398 0.358053 0.216130
O O9 0.100075 0.258441 0.468695
O O10 0.071683 0.473680 0.402291
O O11 0.250000 0.398297 0.514814
O O12 0.308709 0.367963 0.713829
O O13 0.303517 0.215090 0.480528
O O14 0.040354 0.300686 0.161679
O O15 0.250000 0.453572 0.888785
O O16 0.015984 0.847537 0.901678
O O17 0.000000 0.000000 0.697819
O O18 0.500000 0.000000 0.089350
#
# Coordination Sequence:
#
# PCOD9380248 Si02
#       8
#     8   8   8   8   8   8   8   8
#     4  12  25  44  67  94 133 182 242 279 340 411
#     4  12  26  46  68  98 131 185 228 288 343 412
#     4  12  23  40  66  97 137 176 219 279 346 420
#     4  10  21  39  68 105 141 173 214 278 353 422
#     4  12  26  41  66  96 137 171 230 282 345 410
#     4  10  22  44  70 104 142 174 222 284 353 421
#     4  11  21  43  60  90 128 179 223 288 324 390
#     4  11  22  42  62  92 134 177 225 276 335 396
#
# _framework density 21.298535000000001
#
# number of rings (size 3 to 8) (size 9 to 14) (size 15 to 20)
#    0.000    0.750    6.250    2.250    1.750    0.000 
#    2.250    0.625    0.000    0.750    0.000    0.000 
#    0.000    0.000    0.000    0.000    0.000    0.000 
#
# Total GULP energy -178423.067841 kJ/mol
# GULP energy per Si atom -5575.720870 kJ/mol
# Density = 2.125006 g / cm^3
# Si number density = 21.298535 Si / 1000 Ang^3
#
#
#
# Elastic Constant Matrix: (Units=GPa)
#
#
# Indices 1 2 3 4 5 6 
#
# 1 129.8345 25.7238 30.9049 0.0000 0.0000 0.0000
# 2 25.7238 17.2343 27.2075 0.0000 0.0000 0.0000
# 3 30.9049 27.2075 101.0875 0.0000 0.0000 0.0000
# 4 0.0000 0.0000 0.0000 36.3385 0.0000 0.0000
# 5 0.0000 0.0000 0.0000 0.0000 30.0017 0.0000
# 6 0.0000 0.0000 0.0000 0.0000 0.0000 31.9141
#
#
#
# Elastic Compliance Matrix: (Units=1/GPa)
#
#
# Indices 1 2 3 4 5 6 
#
# 1 0.011133 -0.019552 0.001859 0.000000 0.000000 0.000000
# 2 -0.019552 0.135228 -0.030419 0.000000 0.000000 0.000000
# 3 0.001859 -0.030419 0.017511 0.000000 0.000000 0.000000
# 4 0.000000 0.000000 0.000000 0.027519 0.000000 0.000000
# 5 0.000000 0.000000 0.000000 0.000000 0.033331 0.000000
# 6 0.000000 0.000000 0.000000 0.000000 0.000000 0.031334
#
#
# Mechanical properties :
#
#
# Convention : Reuss Voigt Hill
#
# Bulk Modulus (GPa) = 14.78221 46.20318 30.49269
# Shear Modulus (GPa) = 13.33933 30.60555 21.97244
#
# Velocity S-wave (km/s) = 2.50532 3.79486 3.21540
# Velocity P-wave (km/s) = 3.91464 6.39856 5.30405
#
# Compressibility (1/GPa) = 0.06764888
#
# Stress axis : x y z
#
# Youngs Moduli (GPa) = 89.81937 7.39490 57.10564
#
# Poissons Ratio (x) = 0.14458 -0.10613
# Poissons Ratio (y) = 1.75612 1.73709
# Poissons Ratio (z) = -0.16693 0.22495
#
# Static dielectric constant tensor:
#      x y z
#    x 1.818750 0.000000 0.000000 
#    y 0.000000 1.883110 0.000000 
#    z 0.000000 0.000000 1.799510 
# 
# From -- ./inp_files/8505.got.cif
#   From: 2010.05.17/outbox.cif.g08.bks.cpg/sg46_5_cif.got.tgz:8505.got - 2010.06.03 19:58:25.
