data_PCOD9380511
_publ_section_title
;
Structure prediction by ZEFSAII (Michael W. Deem and Ramdas Pophale) SiO2 
 PCOD9380511
Probable space group: I M A 2
;
_chemical_formula_sum "Si O2"
_cell_formula_units_Z 48
_cell_length_a 17.384356
_cell_length_b 9.631599
_cell_length_c 11.576344
_cell_angle_alpha 90.000000
_cell_angle_beta 90.000000
_cell_angle_gamma 90.000000
_cell_volume 1938.333152
_symmetry_space_group_name_H-M "I M A 2"
_symmetry_group_IT_number 46
_symmetry_cell_setting 'orthorhombic'
loop_
_space_group_symop_operation_xyz
x,y,z
-x,-y,z
1/2-x,y,z
1/2+x,-y,z
1/2+x,1/2+y,1/2+z
1/2-x,1/2-y,1/2+z
-x,1/2+y,1/2+z
x,1/2-y,1/2+z
loop_
_atom_site_type_symbol
_atom_site_label
_atom_site_fract_x
_atom_site_fract_y
_atom_site_fract_z
Si Si1 0.094860 0.218734 0.932050
Si Si2 0.339366 0.308604 0.183897
Si Si3 0.429319 0.678498 0.977923
Si Si4 0.424567 0.581535 0.227505
Si Si5 0.841901 0.375201 0.784924
Si Si6 0.839693 0.449991 0.530429
O O1 0.130497 0.255245 0.806416
O O2 0.005925 0.257451 0.924893
O O3 0.126836 0.274168 0.056405
O O4 0.111339 0.055123 0.954903
O O5 0.250000 0.276537 0.176981
O O6 0.357680 0.470278 0.205113
O O7 0.388112 0.567451 0.895185
O O8 0.454194 0.625906 0.101641
O O9 0.364667 0.794290 0.002865
O O10 0.500000 0.500000 0.276927
O O11 0.383072 0.723360 0.271074
O O12 0.750000 0.362947 0.801397
O O13 0.854165 0.461422 0.667715
O O14 0.750000 0.472887 0.507476
#
# Coordination Sequence:
#
# PCOD9380511 Si02
#       6
#     8   8   8   8   8   8
#     4  12  26  46  70 101 141 180 233 279 342 412
#     4  12  26  45  71 100 139 185 228 280 340 409
#     4  11  23  41  68  98 135 179 226 283 341 404
#     4  11  22  43  64  97 133 176 227 277 338 405
#     4  10  22  40  68  99 132 172 228 288 341 398
#     4  10  22  42  67  99 134 176 227 282 344 404
#
# _framework density 24.763545000000001
#
# number of rings (size 3 to 8) (size 9 to 14) (size 15 to 20)
#    0.000    1.000    1.667    5.000    2.333    3.333 
#    0.000    1.667    0.000    0.000    0.000    0.000 
#    0.000    0.000    0.000    0.000    0.000    0.000 
#
# Total GULP energy -134107.077797 kJ/mol
# GULP energy per Si atom -5587.794908 kJ/mol
# Density = 2.470718 g / cm^3
# Si number density = 24.763545 Si / 1000 Ang^3
#
#
#
# Elastic Constant Matrix: (Units=GPa)
#
#
# Indices 1 2 3 4 5 6 
#
# 1 137.7862 -0.4939 60.6761 0.0000 0.0000 0.0000
# 2 -0.4939 51.2596 9.1869 0.0000 0.0000 0.0000
# 3 60.6761 9.1869 119.2805 0.0000 0.0000 0.0000
# 4 0.0000 0.0000 0.0000 32.7526 0.0000 0.0000
# 5 0.0000 0.0000 0.0000 0.0000 44.7795 0.0000
# 6 0.0000 0.0000 0.0000 0.0000 0.0000 22.6960
#
#
#
# Elastic Compliance Matrix: (Units=1/GPa)
#
#
# Indices 1 2 3 4 5 6 
#
# 1 0.009399 0.000961 -0.004855 0.000000 0.000000 0.000000
# 2 0.000961 0.019880 -0.002020 0.000000 0.000000 0.000000
# 3 -0.004855 -0.002020 0.011009 0.000000 0.000000 0.000000
# 4 0.000000 0.000000 0.000000 0.030532 0.000000 0.000000
# 5 0.000000 0.000000 0.000000 0.000000 0.022332 0.000000
# 6 0.000000 0.000000 0.000000 0.000000 0.000000 0.044061
#
#
# Mechanical properties :
#
#
# Convention : Reuss Voigt Hill
#
# Bulk Modulus (GPa) = 35.13798 49.67385 42.40591
# Shear Modulus (GPa) = 31.54038 35.97611 33.75824
#
# Velocity S-wave (km/s) = 3.57271 3.81568 3.69619
# Velocity P-wave (km/s) = 5.58921 6.28612 5.94788
#
# Compressibility (1/GPa) = 0.02845924
#
# Stress axis : x y z
#
# Youngs Moduli (GPa) = 106.39309 50.30236 90.83544
#
# Poissons Ratio (x) = -0.04833 0.44102
# Poissons Ratio (y) = -0.10221 0.18347
# Poissons Ratio (z) = 0.51656 0.10160
#
# Static dielectric constant tensor:
#      x y z
#    x 1.851970 0.000000 0.000000 
#    y 0.000000 2.060220 0.000000 
#    z 0.000000 0.000000 2.108730 
# 
# From -- ./inp_files/11794.got.cif
#   From: 2010.05.17/outbox.cif.g08.bks.cpg/sg46_6_cif.got.tgz:11794.got - 2010.06.03 19:58:25.
