data_PCOD9380992
_publ_section_title
;
Structure prediction by ZEFSAII (Michael W. Deem and Ramdas Pophale) SiO2 
 PCOD9380992
Probable space group: I M A 2
;
_chemical_formula_sum "Si O2"
_cell_formula_units_Z 40
_cell_length_a 11.054415
_cell_length_b 16.781303
_cell_length_c 9.143484
_cell_angle_alpha 90.000000
_cell_angle_beta 90.000000
_cell_angle_gamma 90.000000
_cell_volume 1696.184745
_symmetry_space_group_name_H-M "I M A 2"
_symmetry_group_IT_number 46
_symmetry_cell_setting 'orthorhombic'
loop_
_space_group_symop_operation_xyz
x,y,z
-x,-y,z
1/2-x,y,z
1/2+x,-y,z
1/2+x,1/2+y,1/2+z
1/2-x,1/2-y,1/2+z
-x,1/2+y,1/2+z
x,1/2-y,1/2+z
loop_
_atom_site_type_symbol
_atom_site_label
_atom_site_fract_x
_atom_site_fract_y
_atom_site_fract_z
Si Si1 0.612453 0.797058 0.793750
Si Si2 0.477649 0.590978 0.482814
Si Si3 0.986746 0.371171 0.815037
Si Si4 0.250000 0.833855 0.826687
Si Si5 0.750000 0.338080 0.979004
Si Si6 0.110743 0.058588 0.569714
O O1 0.750000 0.768549 0.790923
O O2 0.587206 0.851453 0.935690
O O3 0.525623 0.721104 0.797648
O O4 0.594554 0.858177 0.658874
O O5 0.500000 0.500000 0.447774
O O6 0.455592 0.598844 0.654646
O O7 0.366482 0.621241 0.387195
O O8 0.870740 0.379098 0.919730
O O9 0.091266 0.419159 0.899390
O O10 0.250000 0.828691 0.652410
O O11 0.250000 0.747686 0.901227
O O12 0.250000 0.031303 0.598368
O O13 0.000000 0.000000 0.611232
#
# Coordination Sequence:
#
# PCOD9380992 Si02
#       6
#     8   8   8   4   4   8
#     4  11  25  46  73 105 144 203 258 316 385 459
#     4  12  27  47  73 108 155 199 252 313 392 463
#     4  12  25  47  75 112 146 203 257 325 382 464
#     4  12  26  50  76 114 150 199 260 320 401 468
#     4  12  26  46  84 112 152 197 264 332 391 466
#     4  11  26  49  74 109 154 205 260 321 393 469
#
# _framework density 23.582336999999999
#
# number of rings (size 3 to 8) (size 9 to 14) (size 15 to 20)
#    0.000    0.400    2.000    6.000    2.800    3.200 
#    7.200    1.000    0.000    0.000    0.000    0.000 
#    0.000    0.000    0.000    0.000    0.000    0.000 
#
# Total GULP energy -112140.989863 kJ/mol
# GULP energy per Si atom -5607.049493 kJ/mol
# Density = 2.352866 g / cm^3
# Si number density = 23.582337 Si / 1000 Ang^3
#
#
#
# Elastic Constant Matrix: (Units=GPa)
#
#
# Indices 1 2 3 4 5 6 
#
# 1 142.1495 36.4143 34.6537 0.0000 0.0000 0.0000
# 2 36.4143 90.7937 9.0534 0.0000 0.0000 0.0000
# 3 34.6537 9.0534 185.3603 -0.0001 0.0000 0.0000
# 4 0.0000 0.0000 -0.0001 52.4811 0.0000 0.0000
# 5 0.0000 0.0000 0.0000 0.0000 23.4638 0.0000
# 6 0.0000 0.0000 0.0000 0.0000 0.0000 40.6994
#
#
#
# Elastic Compliance Matrix: (Units=1/GPa)
#
#
# Indices 1 2 3 4 5 6 
#
# 1 0.008175 -0.003142 -0.001375 0.000000 0.000000 0.000000
# 2 -0.003142 0.012275 -0.000012 0.000000 0.000000 0.000000
# 3 -0.001375 -0.000012 0.005653 0.000000 0.000000 0.000000
# 4 0.000000 0.000000 0.000000 0.019054 0.000000 0.000000
# 5 0.000000 0.000000 0.000000 0.000000 0.042619 0.000000
# 6 0.000000 0.000000 0.000000 0.000000 0.000000 0.024570
#
#
# Mechanical properties :
#
#
# Convention : Reuss Voigt Hill
#
# Bulk Modulus (GPa) = 58.66747 64.28293 61.47520
# Shear Modulus (GPa) = 39.34367 45.87431 42.60899
#
# Velocity S-wave (km/s) = 4.08898 4.41532 4.25528
# Velocity P-wave (km/s) = 6.87202 7.30147 7.09000
#
# Compressibility (1/GPa) = 0.01704522
#
# Stress axis : x y z
#
# Youngs Moduli (GPa) = 122.32742 81.46534 176.91186
#
# Poissons Ratio (x) = 0.25593 0.24323
# Poissons Ratio (y) = 0.38430 0.00216
# Poissons Ratio (z) = 0.16818 0.00100
#
# Static dielectric constant tensor:
#      x y z
#    x 1.917770 0.000000 0.000000 
#    y 0.000000 1.872520 0.000000 
#    z 0.000000 0.000000 1.875790 
# 
# From -- ./inp_files/4477.got.cif
#   From: 2010.05.17/outbox.cif.g08.bks.cpg/sg46_3_cif.got.tgz:4477.got - 2010.06.03 19:58:25.
