data_PCOD9380001
_publ_section_title
;
Structure prediction by ZEFSAII (Michael W. Deem and Ramdas Pophale) SiO2 
 PCOD9380001
Probable space group: I M A 2
;
_chemical_formula_sum "Si O2"
_cell_formula_units_Z 64
_cell_length_a 8.445286
_cell_length_b 25.745464
_cell_length_c 15.417435
_cell_angle_alpha 90.000000
_cell_angle_beta 90.000000
_cell_angle_gamma 90.000000
_cell_volume 3352.179077
_symmetry_space_group_name_H-M "I M A 2"
_symmetry_group_IT_number 46
_symmetry_cell_setting 'orthorhombic'
loop_
_space_group_symop_operation_xyz
x,y,z
-x,-y,z
1/2-x,y,z
1/2+x,-y,z
1/2+x,1/2+y,1/2+z
1/2-x,1/2-y,1/2+z
-x,1/2+y,1/2+z
x,1/2-y,1/2+z
loop_
_atom_site_type_symbol
_atom_site_label
_atom_site_fract_x
_atom_site_fract_y
_atom_site_fract_z
Si Si1 0.058764 0.650067 0.042400
Si Si2 0.560804 0.443312 0.920930
Si Si3 0.440884 0.635388 0.412986
Si Si4 0.939301 0.835304 0.735456
Si Si5 0.440865 0.219514 0.213598
Si Si6 0.940429 0.058837 0.066848
Si Si7 0.941467 0.234258 0.019254
Si Si8 0.560050 0.606183 0.747414
O O1 0.250000 0.649801 0.041888
O O2 0.003113 0.647643 0.141830
O O3 0.001587 0.602050 0.985036
O O4 0.006691 0.706262 0.004936
O O5 0.500000 0.500000 0.945465
O O6 0.750000 0.443539 0.923471
O O7 0.506848 0.428812 0.824172
O O8 0.250000 0.635332 0.410234
O O9 0.503993 0.630627 0.315957
O O10 0.490470 0.591774 0.482202
O O11 0.495194 0.691128 0.451179
O O12 0.750000 0.835147 0.732166
O O13 0.995885 0.775300 0.749231
O O14 0.250000 0.219573 0.215187
O O15 0.494886 0.166212 0.258115
O O16 0.497105 0.218203 0.114017
O O17 0.750000 0.059582 0.070919
O O18 0.005163 0.085648 0.153960
O O19 0.000000 0.000000 0.062215
O O20 0.750000 0.233338 0.021105
O O21 0.750000 0.604745 0.750601
#
# Coordination Sequence:
#
# PCOD9380001 Si02
#       8
#     8   8   8   8   8   8   8   8
#     4   9  20  39  61  84 112 148 192 239 289 342
#     4  11  24  41  61  85 113 149 195 242 288 340
#     4  10  21  36  57  85 117 152 192 236 284 340
#     4  10  21  36  57  86 120 154 189 233 288 344
#     4   9  19  34  52  82 119 153 186 224 278 338
#     4  11  23  40  60  84 115 153 196 239 285 338
#     4   9  17  33  56  83 112 146 186 230 280 335
#     4  11  22  37  58  85 119 156 191 232 283 341
#
# _framework density 19.09206
#
# number of rings (size 3 to 8) (size 9 to 14) (size 15 to 20)
#    0.000    2.000    1.250    1.875    1.750    3.500 
#    0.000    0.625    0.000    0.000    0.000    0.000 
#    0.000    0.000    0.000    0.000    0.000    0.000 
#
# Total GULP energy -178681.635608 kJ/mol
# GULP energy per Si atom -5583.801113 kJ/mol
# Density = 1.904861 g / cm^3
# Si number density = 19.092060 Si / 1000 Ang^3
#
#
#
# Elastic Constant Matrix: (Units=GPa)
#
#
# Indices 1 2 3 4 5 6 
#
# 1 19.3781 21.0799 6.1097 0.0000 0.0000 0.0000
# 2 21.0799 118.2391 48.3340 0.0000 0.0000 0.0000
# 3 6.1097 48.3340 75.2706 0.0000 0.0000 0.0000
# 4 0.0000 0.0000 0.0000 30.2535 0.0000 0.0000
# 5 0.0000 0.0000 0.0000 0.0000 6.5233 0.0000
# 6 0.0000 0.0000 0.0000 0.0000 0.0000 19.6377
#
#
#
# Elastic Compliance Matrix: (Units=1/GPa)
#
#
# Indices 1 2 3 4 5 6 
#
# 1 0.064489 -0.012688 0.002913 0.000000 0.000000 0.000000
# 2 -0.012688 0.013964 -0.007937 0.000000 0.000000 0.000000
# 3 0.002913 -0.007937 0.018146 0.000000 0.000000 0.000000
# 4 0.000000 0.000000 0.000000 0.033054 0.000000 0.000000
# 5 0.000000 0.000000 0.000000 0.000000 0.153297 0.000000
# 6 0.000000 0.000000 0.000000 0.000000 0.000000 0.050922
#
#
# Mechanical properties :
#
#
# Convention : Reuss Voigt Hill
#
# Bulk Modulus (GPa) = 16.34678 40.43722 28.39200
# Shear Modulus (GPa) = 12.83082 20.44051 16.63567
#
# Velocity S-wave (km/s) = 2.59521 3.27560 2.95505
# Velocity P-wave (km/s) = 4.19056 5.96088 5.15233
#
# Compressibility (1/GPa) = 0.06117414
#
# Stress axis : x y z
#
# Youngs Moduli (GPa) = 15.50663 71.61326 55.11005
#
# Poissons Ratio (x) = 0.90862 -0.16052
# Poissons Ratio (y) = 0.19675 0.43740
# Poissons Ratio (z) = -0.04517 0.56838
#
# Static dielectric constant tensor:
#      x y z
#    x 1.645050 0.000000 0.000000 
#    y 0.000000 1.678070 0.000000 
#    z 0.000000 0.000000 1.636550 
# 
# From -- ./inp_files/14458.got.cif
#   From: 2010.05.17/outbox.cif.g08.bks.cpg/sg46_8_cif.got.tgz:14458.got - 2010.06.03 19:58:25.
