data_PCOD9380817
_publ_section_title
;
Structure prediction by ZEFSAII (Michael W. Deem and Ramdas Pophale) SiO2 
 PCOD9380817
Probable space group: I M A 2
;
_chemical_formula_sum "Si O2"
_cell_formula_units_Z 48
_cell_length_a 14.547958
_cell_length_b 17.520759
_cell_length_c 9.862818
_cell_angle_alpha 90.000000
_cell_angle_beta 90.000000
_cell_angle_gamma 90.000000
_cell_volume 2513.946167
_symmetry_space_group_name_H-M "I M A 2"
_symmetry_group_IT_number 46
_symmetry_cell_setting 'orthorhombic'
loop_
_space_group_symop_operation_xyz
x,y,z
-x,-y,z
1/2-x,y,z
1/2+x,-y,z
1/2+x,1/2+y,1/2+z
1/2-x,1/2-y,1/2+z
-x,1/2+y,1/2+z
x,1/2-y,1/2+z
loop_
_atom_site_type_symbol
_atom_site_label
_atom_site_fract_x
_atom_site_fract_y
_atom_site_fract_z
Si Si1 0.041655 0.418888 0.000000
Si Si2 0.750000 0.106598 0.345263
Si Si3 0.451467 0.703711 0.198890
Si Si4 0.750000 0.310578 0.115959
Si Si5 0.750000 0.955530 0.538632
Si Si6 0.953581 0.375371 0.724929
Si Si7 0.943327 0.426810 0.421309
Si Si8 0.750000 0.458787 0.308722
O O1 0.000000 0.500000 0.052811
O O2 0.995488 0.348710 0.081363
O O3 0.151604 0.416979 0.011903
O O4 0.010122 0.414192 0.844970
O O5 0.750000 0.174152 0.456456
O O6 0.654625 0.113137 0.263940
O O7 0.750000 0.030220 0.439355
O O8 0.346735 0.724329 0.156068
O O9 0.488906 0.787683 0.224248
O O10 0.455584 0.648939 0.329937
O O11 0.750000 0.387968 0.203942
O O12 0.750000 0.973414 0.700078
O O13 0.967186 0.408675 0.575770
O O14 0.838497 0.451860 0.401071
O O15 0.000000 0.500000 0.372294
#
# Coordination Sequence:
#
# PCOD9380817 Si02
#       8
#     8   4   8   4   4   8   8   4
#     4  12  22  42  68  91 122 171 230 268 310 397
#     4  11  20  37  63  92 130 155 205 259 324 392
#     4  11  22  40  63  89 129 169 210 259 321 397
#     4   9  17  34  61  90 118 162 203 241 306 394
#     4  11  22  39  70  95 112 173 238 270 301 381
#     4  12  24  38  60  98 132 164 199 274 341 383
#     4  11  23  38  58  90 125 162 202 252 323 379
#     4   9  19  38  58  89 118 156 208 256 301 373
#
# _framework density 19.093489000000002
#
# number of rings (size 3 to 8) (size 9 to 14) (size 15 to 20)
#    0.000    1.000    3.333    6.000    0.000    0.000 
#    0.000    0.833    0.000    2.000    0.000    0.000 
#    0.000    0.000    0.000    0.000    0.000    0.000 
#
# Total GULP energy -133954.451413 kJ/mol
# GULP energy per Si atom -5581.435476 kJ/mol
# Density = 1.905003 g / cm^3
# Si number density = 19.093489 Si / 1000 Ang^3
#
#
#
# Elastic Constant Matrix: (Units=GPa)
#
#
# Indices 1 2 3 4 5 6 
#
# 1 103.4344 29.5069 24.8647 0.0000 0.0000 0.0000
# 2 29.5069 97.2548 29.0675 0.0000 0.0000 0.0000
# 3 24.8647 29.0675 119.5280 0.0000 0.0000 0.0000
# 4 0.0000 0.0000 0.0000 -243.0257 0.0000 0.0000
# 5 0.0000 0.0000 0.0000 0.0000 31.2002 0.0000
# 6 0.0000 0.0000 0.0000 0.0000 0.0000 6.3038
#
#
#
# Elastic Compliance Matrix: (Units=1/GPa)
#
#
# Indices 1 2 3 4 5 6 
#
# 1 0.010851 -0.002823 -0.001571 0.000000 0.000000 0.000000
# 2 -0.002823 0.011822 -0.002288 0.000000 0.000000 0.000000
# 3 -0.001571 -0.002288 0.009249 0.000000 0.000000 0.000000
# 4 0.000000 0.000000 0.000000 -0.004115 0.000000 0.000000
# 5 0.000000 0.000000 0.000000 0.000000 0.032051 0.000000
# 6 0.000000 0.000000 0.000000 0.000000 0.000000 0.158635
#
#
# Mechanical properties :
#
#
# Convention : Reuss Voigt Hill
#
# Bulk Modulus (GPa) = 53.87928 54.12171 54.00050
# Shear Modulus (GPa) = 21.00463 -25.31913 -2.15725
#
# Velocity S-wave (km/s) = 3.32036 -3.64546 -1.06409
# Velocity P-wave (km/s) = 6.55589 3.26925 5.18014
#
# Compressibility (1/GPa) = 0.01856001
#
# Stress axis : x y z
#
# Youngs Moduli (GPa) = 92.15921 84.58485 108.11527
#
# Poissons Ratio (x) = 0.23875 0.16983
# Poissons Ratio (y) = 0.26013 0.24735
# Poissons Ratio (z) = 0.14476 0.19352
#
# Static dielectric constant tensor:
#      x y z
#    x 1.715090 0.000000 0.000000 
#    y 0.000000 1.899910 0.000000 
#    z 0.000000 0.000000 1.666330 
# 
# From -- ./inp_files/5745.got.cif
#   From: 2010.05.17/outbox.cif.g08.bks.cpg/sg46_3_cif.got.tgz:5745.got - 2010.06.03 19:58:25.
