data_PCOD9380014
_publ_section_title
;
Structure prediction by ZEFSAII (Michael W. Deem and Ramdas Pophale) SiO2 
 PCOD9380014
Probable space group: I M A 2
;
_chemical_formula_sum "Si O2"
_cell_formula_units_Z 32
_cell_length_a 14.722574
_cell_length_b 9.824286
_cell_length_c 7.913640
_cell_angle_alpha 90.000000
_cell_angle_beta 90.000000
_cell_angle_gamma 90.000000
_cell_volume 1144.619216
_symmetry_space_group_name_H-M "I M A 2"
_symmetry_group_IT_number 46
_symmetry_cell_setting 'orthorhombic'
loop_
_space_group_symop_operation_xyz
x,y,z
-x,-y,z
1/2-x,y,z
1/2+x,-y,z
1/2+x,1/2+y,1/2+z
1/2-x,1/2-y,1/2+z
-x,1/2+y,1/2+z
x,1/2-y,1/2+z
loop_
_atom_site_type_symbol
_atom_site_label
_atom_site_fract_x
_atom_site_fract_y
_atom_site_fract_z
Si Si1 0.465453 0.852829 0.967360
Si Si2 0.355885 0.936469 0.265112
Si Si3 0.643823 0.452737 0.144797
Si Si4 0.353699 0.252596 0.306573
O O1 0.590973 0.111443 0.800362
O O2 0.500000 0.000000 0.023050
O O3 0.398522 0.837628 0.125924
O O4 0.641148 0.900061 0.232242
O O5 0.250000 0.903269 0.272679
O O6 0.393370 0.920508 0.456699
O O7 0.750000 0.417368 0.149689
O O8 0.640656 0.616351 0.182618
O O9 0.250000 0.262323 0.382099
O O10 0.444698 0.269557 0.419140
#
# Coordination Sequence:
#
# PCOD9380014 Si02
#       4
#     8   8   8   8
#     4  10  21  36  58  91 132 170 206 271 338 400
#     4  10  21  38  64  95 125 165 218 269 332 402
#     4   9  19  35  57  89 126 159 206 271 329 393
#     4   9  20  37  61  94 130 167 212 273 333 390
#
# _framework density 27.956900000000001
#
# number of rings (size 3 to 8) (size 9 to 14) (size 15 to 20)
#    0.000    2.500    0.000    0.750    7.000    4.000 
#    0.000    2.500    0.000    7.500    0.000    0.000 
#    0.000    0.000    0.000    0.000    0.000    0.000 
#
# Total GULP energy -89550.648859 kJ/mol
# GULP energy per Si atom -5596.915554 kJ/mol
# Density = 2.789327 g / cm^3
# Si number density = 27.956900 Si / 1000 Ang^3
#
#
#
# Elastic Constant Matrix: (Units=GPa)
#
#
# Indices 1 2 3 4 5 6 
#
# 1 223.7225 45.2556 100.8250 0.0000 0.0000 0.0000
# 2 45.2556 108.0366 53.2656 0.0000 0.0000 0.0000
# 3 100.8250 53.2656 172.8043 0.0000 0.0000 0.0000
# 4 0.0000 0.0000 0.0000 54.3119 0.0000 0.0000
# 5 0.0000 0.0000 0.0000 0.0000 84.5503 0.0000
# 6 0.0000 0.0000 0.0000 0.0000 0.0000 49.4529
#
#
#
# Elastic Compliance Matrix: (Units=1/GPa)
#
#
# Indices 1 2 3 4 5 6 
#
# 1 0.006146 -0.000951 -0.003293 0.000000 0.000000 0.000000
# 2 -0.000951 0.011062 -0.002855 0.000000 0.000000 0.000000
# 3 -0.003293 -0.002855 0.008588 0.000000 0.000000 0.000000
# 4 0.000000 0.000000 0.000000 0.018412 0.000000 0.000000
# 5 0.000000 0.000000 0.000000 0.000000 0.011827 0.000000
# 6 0.000000 0.000000 0.000000 0.000000 0.000000 0.020221
#
#
# Mechanical properties :
#
#
# Convention : Reuss Voigt Hill
#
# Bulk Modulus (GPa) = 86.21650 100.36177 93.28914
# Shear Modulus (GPa) = 53.01030 58.01082 55.51056
#
# Velocity S-wave (km/s) = 4.35920 4.56017 4.46081
# Velocity P-wave (km/s) = 7.49952 7.98145 7.74424
#
# Compressibility (1/GPa) = 0.01159871
#
# Stress axis : x y z
#
# Youngs Moduli (GPa) = 162.70098 90.39896 116.43873
#
# Poissons Ratio (x) = 0.08598 0.38343
# Poissons Ratio (y) = 0.15474 0.33242
# Poissons Ratio (z) = 0.53577 0.25808
#
# Static dielectric constant tensor:
#      x y z
#    x 2.169760 0.000000 0.000000 
#    y 0.000000 2.342960 0.000000 
#    z 0.000000 0.000000 2.238930 
# 
# From -- ./inp_files/1126.got.cif
#   From: 2010.05.17/outbox.cif.g08.bks.cpg/sg46_1_cif.got.tgz:1126.got - 2010.06.03 19:58:25.
