data_PCOD9380234
_publ_section_title
;
Structure prediction by ZEFSAII (Michael W. Deem and Ramdas Pophale) SiO2 
 PCOD9380234
Probable space group: I M A 2
;
_chemical_formula_sum "Si O2"
_cell_formula_units_Z 64
_cell_length_a 7.873738
_cell_length_b 29.297225
_cell_length_c 13.339990
_cell_angle_alpha 90.000000
_cell_angle_beta 90.000000
_cell_angle_gamma 90.000000
_cell_volume 3077.251201
_symmetry_space_group_name_H-M "I M A 2"
_symmetry_group_IT_number 46
_symmetry_cell_setting 'orthorhombic'
loop_
_space_group_symop_operation_xyz
x,y,z
-x,-y,z
1/2-x,y,z
1/2+x,-y,z
1/2+x,1/2+y,1/2+z
1/2-x,1/2-y,1/2+z
-x,1/2+y,1/2+z
x,1/2-y,1/2+z
loop_
_atom_site_type_symbol
_atom_site_label
_atom_site_fract_x
_atom_site_fract_y
_atom_site_fract_z
Si Si1 0.447835 0.623299 0.970360
Si Si2 0.044056 0.380916 0.406503
Si Si3 0.453332 0.446952 0.806957
Si Si4 0.441335 0.804083 0.317576
Si Si5 0.950528 0.855197 0.690855
Si Si6 0.545095 0.553421 0.583408
Si Si7 0.943386 0.723435 0.434836
Si Si8 0.952769 0.247634 0.645658
O O1 0.250000 0.634977 0.985300
O O2 0.467287 0.578991 0.901300
O O3 0.525592 0.662488 0.897681
O O4 0.519484 0.622055 0.082352
O O5 0.250000 0.386052 0.405688
O O6 0.985372 0.382110 0.289913
O O7 0.980360 0.416779 0.489516
O O8 0.006280 0.329217 0.440854
O O9 0.500000 0.500000 0.811757
O O10 0.250000 0.441392 0.812575
O O11 0.511652 0.430861 0.695407
O O12 0.250000 0.821364 0.300251
O O13 0.437034 0.754154 0.367025
O O14 0.519902 0.790107 0.212306
O O15 0.750000 0.850554 0.704047
O O16 0.020649 0.803553 0.686323
O O17 0.500000 0.500000 0.572318
O O18 0.750000 0.556575 0.584778
O O19 0.750000 0.725490 0.395375
O O20 0.953767 0.747488 0.541357
O O21 0.750000 0.253737 0.632428
#
# Coordination Sequence:
#
# PCOD9380234 Si02
#       8
#     8   8   8   8   8   8   8   8
#     4  11  23  39  58  84 118 154 195 240 289 342
#     4   9  20  37  57  84 116 148 188 238 285 336
#     4  10  21  39  65  91 117 148 185 232 290 348
#     4  10  22  37  53  76 114 156 192 238 287 337
#     4  11  21  37  58  81 112 155 199 238 285 338
#     4   9  19  39  63  88 117 146 180 231 288 344
#     4  11  21  34  55  81 110 149 196 239 283 338
#     4  11  22  36  51  75 113 154 192 238 292 339
#
# _framework density 20.797784
#
# number of rings (size 3 to 8) (size 9 to 14) (size 15 to 20)
#    0.000    1.750    2.500    1.875    1.750    1.500 
#    0.000    3.125    0.000    1.500    0.000    0.000 
#    0.000    0.000    0.000    0.000    0.000    0.000 
#
# Total GULP energy -178442.532142 kJ/mol
# GULP energy per Si atom -5576.329129 kJ/mol
# Density = 2.075045 g / cm^3
# Si number density = 20.797784 Si / 1000 Ang^3
#
#
#
# Elastic Constant Matrix: (Units=GPa)
#
#
# Indices 1 2 3 4 5 6 
#
# 1 41.2891 -7.0840 -3.8039 0.0000 0.0000 0.0000
# 2 -7.0840 58.1651 35.2753 0.0000 0.0000 0.0000
# 3 -3.8039 35.2753 121.2099 0.0001 0.0000 -0.0001
# 4 0.0000 0.0000 0.0001 39.8312 0.0000 0.0000
# 5 0.0000 0.0000 0.0000 0.0000 -10.2249 0.0000
# 6 0.0000 0.0000 -0.0001 0.0000 0.0000 14.9000
#
#
#
# Elastic Compliance Matrix: (Units=1/GPa)
#
#
# Indices 1 2 3 4 5 6 
#
# 1 0.024738 0.003087 -0.000122 0.000000 0.000000 0.000000
# 2 0.003087 0.021262 -0.006091 0.000000 0.000000 0.000000
# 3 -0.000122 -0.006091 0.010019 0.000000 0.000000 0.000000
# 4 0.000000 0.000000 0.000000 0.025106 0.000000 0.000000
# 5 0.000000 0.000000 0.000000 0.000000 -0.097801 0.000000
# 6 0.000000 0.000000 0.000000 0.000000 0.000000 0.067114
#
#
# Mechanical properties :
#
#
# Convention : Reuss Voigt Hill
#
# Bulk Modulus (GPa) = 20.09372 29.93765 25.01569
# Shear Modulus (GPa) = 68.23175 21.98640 45.10908
#
# Velocity S-wave (km/s) = 5.73397 3.25491 4.66224
# Velocity P-wave (km/s) = 7.31576 5.34339 6.40594
#
# Compressibility (1/GPa) = 0.04976679
#
# Stress axis : x y z
#
# Youngs Moduli (GPa) = 40.42394 47.03129 99.81055
#
# Poissons Ratio (x) = -0.14518 0.01218
# Poissons Ratio (y) = -0.12478 0.60795
# Poissons Ratio (z) = 0.00493 0.28647
#
# Static dielectric constant tensor:
#      x y z
#    x 1.796010 0.000000 0.000000 
#    y 0.000000 1.724030 0.000000 
#    z 0.000000 0.000000 1.807890 
# 
# From -- ./inp_files/9788.got.cif
#   From: 2010.05.17/outbox.cif.g08.bks.cpg/sg46_5_cif.got.tgz:9788.got - 2010.06.03 19:58:25.
