data_PCOD9380789
_publ_section_title
;
Structure prediction by ZEFSAII (Michael W. Deem and Ramdas Pophale) SiO2 
 PCOD9380789
Probable space group: I M A 2
;
_chemical_formula_sum "Si O2"
_cell_formula_units_Z 36
_cell_length_a 20.071540
_cell_length_b 9.523162
_cell_length_c 8.125191
_cell_angle_alpha 90.000000
_cell_angle_beta 90.000000
_cell_angle_gamma 90.000000
_cell_volume 1553.085791
_symmetry_space_group_name_H-M "I M A 2"
_symmetry_group_IT_number 46
_symmetry_cell_setting 'orthorhombic'
loop_
_space_group_symop_operation_xyz
x,y,z
-x,-y,z
1/2-x,y,z
1/2+x,-y,z
1/2+x,1/2+y,1/2+z
1/2-x,1/2-y,1/2+z
-x,1/2+y,1/2+z
x,1/2-y,1/2+z
loop_
_atom_site_type_symbol
_atom_site_label
_atom_site_fract_x
_atom_site_fract_y
_atom_site_fract_z
Si Si1 0.919046 0.324786 0.828890
Si Si2 0.250000 0.449829 0.358025
Si Si3 0.881476 0.039082 0.673481
Si Si4 0.565109 0.721670 0.325472
Si Si5 0.128100 0.074125 0.117583
O O1 0.894487 0.166490 0.799990
O O2 0.892795 0.422905 0.682512
O O3 0.998673 0.312706 0.825662
O O4 0.891844 0.392994 0.995722
O O5 0.309112 0.479851 0.219798
O O6 0.307706 0.430963 0.503192
O O7 0.932121 0.910188 0.701417
O O8 0.626985 0.822760 0.276322
O O9 0.573522 0.647741 0.501001
#
# Coordination Sequence:
#
# PCOD9380789 Si02
#       5
#     8   4   8   8   8
#     4  12  25  44  73 108 144 194 244 300 369 423
#     4  10  26  48  70 106 142 188 242 282 362 430
#     4  11  25  45  73 103 148 194 241 304 353 437
#     4  11  24  45  70 106 144 186 242 299 365 423
#     4  11  25  45  74 104 145 189 236 302 354 435
#
# _framework density 23.179659999999998
#
# number of rings (size 3 to 8) (size 9 to 14) (size 15 to 20)
#    0.000    0.889    0.000    6.667    0.000   13.333 
#    0.000    4.444    0.000    0.000    0.000    0.000 
#    0.000    0.000    0.000    0.000    0.000    0.000 
#
# Total GULP energy -100203.261558 kJ/mol
# GULP energy per Si atom -5566.847864 kJ/mol
# Density = 2.312690 g / cm^3
# Si number density = 23.179660 Si / 1000 Ang^3
#
#
#
# Elastic Constant Matrix: (Units=GPa)
#
#
# Indices 1 2 3 4 5 6 
#
# 1 138.9189 25.6879 50.5724 0.0000 0.0000 0.0000
# 2 25.6879 111.9164 12.0695 0.0000 0.0000 0.0000
# 3 50.5724 12.0695 97.0547 0.0000 0.0000 0.0000
# 4 0.0000 0.0000 0.0000 54.0558 0.0000 0.0000
# 5 0.0000 0.0000 0.0000 0.0000 72.7097 0.0000
# 6 0.0000 0.0000 0.0000 0.0000 0.0000 -18.2100
#
#
#
# Elastic Compliance Matrix: (Units=1/GPa)
#
#
# Indices 1 2 3 4 5 6 
#
# 1 0.009161 -0.001609 -0.004573 0.000000 0.000000 0.000000
# 2 -0.001609 0.009339 -0.000323 0.000000 0.000000 0.000000
# 3 -0.004573 -0.000323 0.012727 0.000000 0.000000 0.000000
# 4 0.000000 0.000000 0.000000 0.018499 0.000000 0.000000
# 5 0.000000 0.000000 0.000000 0.000000 0.013753 0.000000
# 6 0.000000 0.000000 0.000000 0.000000 0.000000 -0.054915
#
#
# Mechanical properties :
#
#
# Convention : Reuss Voigt Hill
#
# Bulk Modulus (GPa) = 54.89728 58.28328 56.59028
# Shear Modulus (GPa) = 180.84443 39.01512 109.92977
#
# Velocity S-wave (km/s) = 8.84240 4.10709 6.89406
# Velocity P-wave (km/s) = 11.31306 6.90577 9.37217
#
# Compressibility (1/GPa) = 0.01821584
#
# Stress axis : x y z
#
# Youngs Moduli (GPa) = 109.15896 107.07245 78.57530
#
# Poissons Ratio (x) = 0.17233 0.35935
# Poissons Ratio (y) = 0.17569 0.02536
# Poissons Ratio (z) = 0.49922 0.03456
#
# Static dielectric constant tensor:
#      x y z
#    x 1.821340 0.000000 0.000000 
#    y 0.000000 1.899780 0.000000 
#    z 0.000000 0.000000 1.976000 
# 
# From -- ./inp_files/7157.got.cif
#   From: 2010.05.17/outbox.cif.g08.bks.cpg/sg46_4_cif.got.tgz:7157.got - 2010.06.03 19:58:25.
