data_PCOD9380078
_publ_section_title
;
Structure prediction by ZEFSAII (Michael W. Deem and Ramdas Pophale) SiO2 
 PCOD9380078
Probable space group: I M A 2
;
_chemical_formula_sum "Si O2"
_cell_formula_units_Z 48
_cell_length_a 10.266665
_cell_length_b 8.481935
_cell_length_c 29.039745
_cell_angle_alpha 90.000000
_cell_angle_beta 90.000000
_cell_angle_gamma 90.000000
_cell_volume 2528.815412
_symmetry_space_group_name_H-M "I M A 2"
_symmetry_group_IT_number 46
_symmetry_cell_setting 'orthorhombic'
loop_
_space_group_symop_operation_xyz
x,y,z
-x,-y,z
1/2-x,y,z
1/2+x,-y,z
1/2+x,1/2+y,1/2+z
1/2-x,1/2-y,1/2+z
-x,1/2+y,1/2+z
x,1/2-y,1/2+z
loop_
_atom_site_type_symbol
_atom_site_label
_atom_site_fract_x
_atom_site_fract_y
_atom_site_fract_z
Si Si1 0.504814 0.187395 0.303530
Si Si2 0.003175 0.807094 0.585359
Si Si3 0.250000 0.302427 0.141996
Si Si4 0.402897 0.854479 0.896302
Si Si5 0.750000 0.189064 0.747968
Si Si6 0.250000 0.309114 0.250536
Si Si7 0.250000 0.686952 0.142991
Si Si8 0.403319 0.647812 0.988388
O O1 0.536110 0.259511 0.353470
O O2 0.623657 0.243333 0.272178
O O3 0.375140 0.249933 0.278682
O O4 0.500000 0.000000 0.307002
O O5 0.874533 0.753300 0.611829
O O6 0.123577 0.758004 0.616426
O O7 0.035119 0.763777 0.532749
O O8 0.000000 0.000000 0.584398
O O9 0.250000 0.256872 0.196293
O O10 0.250000 0.494815 0.142819
O O11 0.250000 0.896048 0.886303
O O12 0.402689 0.750971 0.942515
O O13 0.500000 0.000000 0.903199
O O14 0.750000 0.238285 0.695163
O O15 0.750000 0.999291 0.750579
O O16 0.500000 0.500000 0.980786
O O17 0.250000 0.604551 0.998813
#
# Coordination Sequence:
#
# PCOD9380078 Si02
#       8
#     8   8   4   8   4   4   4   8
#     4  12  25  42  63  92 126 166 206 262 319 376
#     4   9  16  29  51  86 122 157 197 252 308 353
#     4   9  18  31  52  89 122 155 206 259 300 359
#     4  11  25  45  66  91 121 160 209 260 316 380
#     4  11  21  39  62  93 124 165 214 259 310 369
#     4  11  23  39  66  93 128 167 214 263 312 367
#     4   9  16  29  54  83 118 155 200 253 302 353
#     4  10  21  37  61  94 129 161 202 255 314 371
#
# _framework density 18.98122
#
# number of rings (size 3 to 8) (size 9 to 14) (size 15 to 20)
#    0.000    1.667    1.667    3.500    4.667    3.333 
#    0.000    0.000    0.000    6.000    0.000    0.000 
#    0.000    0.000    0.000    0.000    0.000    0.000 
#
# Total GULP energy -133937.981693 kJ/mol
# GULP energy per Si atom -5580.749237 kJ/mol
# Density = 1.893802 g / cm^3
# Si number density = 18.981220 Si / 1000 Ang^3
#
#
#
# Elastic Constant Matrix: (Units=GPa)
#
#
# Indices 1 2 3 4 5 6 
#
# 1 206.3273 46.2913 96.0030 0.0000 0.0000 0.0000
# 2 46.2913 51.6277 32.3714 0.0000 0.0000 0.0000
# 3 96.0030 32.3714 179.5903 0.0000 0.0000 0.0000
# 4 0.0000 0.0000 0.0000 19.5440 0.0000 0.0000
# 5 0.0000 0.0000 0.0000 0.0000 41.6819 0.0000
# 6 0.0000 0.0000 0.0000 0.0000 0.0000 25.8556
#
#
#
# Elastic Compliance Matrix: (Units=1/GPa)
#
#
# Indices 1 2 3 4 5 6 
#
# 1 0.007317 -0.004632 -0.003077 0.000000 0.000000 0.000000
# 2 -0.004632 0.024770 -0.001989 0.000000 0.000000 0.000000
# 3 -0.003077 -0.001989 0.007571 0.000000 0.000000 0.000000
# 4 0.000000 0.000000 0.000000 0.051167 0.000000 0.000000
# 5 0.000000 0.000000 0.000000 0.000000 0.023991 0.000000
# 6 0.000000 0.000000 0.000000 0.000000 0.000000 0.038676
#
#
# Mechanical properties :
#
#
# Convention : Reuss Voigt Hill
#
# Bulk Modulus (GPa) = 49.34932 87.43075 68.39003
# Shear Modulus (GPa) = 27.83314 34.94161 31.38738
#
# Velocity S-wave (km/s) = 3.83345 4.29517 4.07086
# Velocity P-wave (km/s) = 6.75642 8.41188 7.62919
#
# Compressibility (1/GPa) = 0.02026370
#
# Stress axis : x y z
#
# Youngs Moduli (GPa) = 136.65880 40.37215 132.07550
#
# Poissons Ratio (x) = 0.18700 0.40637
# Poissons Ratio (y) = 0.63300 0.26265
# Poissons Ratio (z) = 0.42047 0.08029
#
# Static dielectric constant tensor:
#      x y z
#    x 1.375670 0.000000 0.000000 
#    y 0.000000 1.651890 0.000000 
#    z 0.000000 0.000000 1.653350 
# 
# From -- ./inp_files/25078.got.cif
#   From: 2010.05.17/outbox.cif.g08.bks.cpg/sg46_13_cif.got.tgz:25078.got - 2010.06.03 19:58:25.
