data_PCOD9380287
_publ_section_title
;
Structure prediction by ZEFSAII (Michael W. Deem and Ramdas Pophale) SiO2 
 PCOD9380287
Probable space group: I M A 2
;
_chemical_formula_sum "Si O2"
_cell_formula_units_Z 60
_cell_length_a 24.814631
_cell_length_b 11.399054
_cell_length_c 10.187612
_cell_angle_alpha 90.000000
_cell_angle_beta 90.000000
_cell_angle_gamma 90.000000
_cell_volume 2881.701741
_symmetry_space_group_name_H-M "I M A 2"
_symmetry_group_IT_number 46
_symmetry_cell_setting 'orthorhombic'
loop_
_space_group_symop_operation_xyz
x,y,z
-x,-y,z
1/2-x,y,z
1/2+x,-y,z
1/2+x,1/2+y,1/2+z
1/2-x,1/2-y,1/2+z
-x,1/2+y,1/2+z
x,1/2-y,1/2+z
loop_
_atom_site_type_symbol
_atom_site_label
_atom_site_fract_x
_atom_site_fract_y
_atom_site_fract_z
Si Si1 0.186678 0.984269 0.977960
Si Si2 0.097966 0.837739 0.832954
Si Si3 0.390761 0.070281 0.514004
Si Si4 0.859124 0.599394 0.732088
Si Si5 0.000000 0.500000 0.394253
Si Si6 0.436885 0.828209 0.565989
Si Si7 0.688617 0.645818 0.237908
Si Si8 0.045932 0.296009 0.577045
O O1 0.250000 0.955743 0.986622
O O2 0.150870 0.890023 0.900660
O O3 0.181004 0.100057 0.886052
O O4 0.161658 0.013062 0.119239
O O5 0.050606 0.937340 0.824757
O O6 0.105060 0.799130 0.682829
O O7 0.076260 0.738539 0.931062
O O8 0.360716 0.047645 0.377326
O O9 0.351284 0.079890 0.638605
O O10 0.417716 0.198470 0.505827
O O11 0.432862 0.965955 0.536633
O O12 0.822934 0.716322 0.730740
O O13 0.918713 0.645270 0.691026
O O14 0.973051 0.600563 0.482772
O O15 0.493227 0.776238 0.618498
O O16 0.750000 0.621118 0.199912
#
# Coordination Sequence:
#
# PCOD9380287 Si02
#       8
#     8   8   8   8   4   8   8   8
#     4  11  23  44  69  93 132 179 226 280 342 411
#     4  11  25  44  67  96 129 180 223 280 336 404
#     4  11  24  40  64  99 135 174 223 275 327 406
#     4  11  23  37  66  98 137 165 220 271 339 400
#     4  10  22  40  66  94 138 172 212 266 336 406
#     4  11  26  43  67  92 138 171 229 272 338 394
#     4  10  21  40  65  94 130 173 216 273 334 395
#     4  10  23  40  62 100 134 181 210 271 331 405
#
# _framework density 20.821028999999999
#
# number of rings (size 3 to 8) (size 9 to 14) (size 15 to 20)
#    0.000    1.333    2.667    2.400    7.467    2.133 
#    0.000    1.333    0.000    0.000    0.000    0.000 
#    0.000    0.000    0.000    0.000    0.000    0.000 
#
# Total GULP energy -167628.946563 kJ/mol
# GULP energy per Si atom -5587.631552 kJ/mol
# Density = 2.077364 g / cm^3
# Si number density = 20.821029 Si / 1000 Ang^3
#
#
#
# Elastic Constant Matrix: (Units=GPa)
#
#
# Indices 1 2 3 4 5 6 
#
# 1 69.4823 25.7141 14.6054 0.0000 0.0000 0.0000
# 2 25.7141 54.6206 11.8349 0.0000 0.0000 0.0000
# 3 14.6054 11.8349 108.6814 0.0000 0.0000 0.0000
# 4 0.0000 0.0000 0.0000 21.9662 0.0000 0.0000
# 5 0.0000 0.0000 0.0000 0.0000 17.7689 0.0000
# 6 0.0000 0.0000 0.0000 0.0000 0.0000 25.5381
#
#
#
# Elastic Compliance Matrix: (Units=1/GPa)
#
#
# Indices 1 2 3 4 5 6 
#
# 1 0.017665 -0.007991 -0.001504 0.000000 0.000000 0.000000
# 2 -0.007991 0.022365 -0.001362 0.000000 0.000000 0.000000
# 3 -0.001504 -0.001362 0.009552 0.000000 0.000000 0.000000
# 4 0.000000 0.000000 0.000000 0.045524 0.000000 0.000000
# 5 0.000000 0.000000 0.000000 0.000000 0.056278 0.000000
# 6 0.000000 0.000000 0.000000 0.000000 0.000000 0.039157
#
#
# Mechanical properties :
#
#
# Convention : Reuss Voigt Hill
#
# Bulk Modulus (GPa) = 35.88114 37.45476 36.66795
# Shear Modulus (GPa) = 22.56889 25.09663 23.83276
#
# Velocity S-wave (km/s) = 3.29591 3.47558 3.38694
# Velocity P-wave (km/s) = 5.63512 5.84245 5.73972
#
# Compressibility (1/GPa) = 0.02786979
#
# Stress axis : x y z
#
# Youngs Moduli (GPa) = 56.60765 44.71282 104.69473
#
# Poissons Ratio (x) = 0.35728 0.15745
# Poissons Ratio (y) = 0.45233 0.14255
# Poissons Ratio (z) = 0.08513 0.06088
#
# Static dielectric constant tensor:
#      x y z
#    x 1.758100 0.000000 0.000000 
#    y 0.000000 1.734930 0.000000 
#    z 0.000000 0.000000 1.757720 
# 
# From -- ./inp_files/8213.got.cif
#   From: 2010.05.17/outbox.cif.g08.bks.cpg/sg46_5_cif.got.tgz:8213.got - 2010.06.03 19:58:25.
