data_PCOD9380853
_publ_section_title
;
Structure prediction by ZEFSAII (Michael W. Deem and Ramdas Pophale) SiO2 
 PCOD9380853
Probable space group: I M A 2
;
_chemical_formula_sum "Si O2"
_cell_formula_units_Z 48
_cell_length_a 26.498022
_cell_length_b 17.531667
_cell_length_c 5.292833
_cell_angle_alpha 90.000000
_cell_angle_beta 90.000000
_cell_angle_gamma 90.000000
_cell_volume 2458.809377
_symmetry_space_group_name_H-M "I M A 2"
_symmetry_group_IT_number 46
_symmetry_cell_setting 'orthorhombic'
loop_
_space_group_symop_operation_xyz
x,y,z
-x,-y,z
1/2-x,y,z
1/2+x,-y,z
1/2+x,1/2+y,1/2+z
1/2-x,1/2-y,1/2+z
-x,1/2+y,1/2+z
x,1/2-y,1/2+z
loop_
_atom_site_type_symbol
_atom_site_label
_atom_site_fract_x
_atom_site_fract_y
_atom_site_fract_z
Si Si1 0.330249 0.590445 0.933850
Si Si2 0.507068 0.698496 0.353788
Si Si3 0.415765 0.065465 0.895666
Si Si4 0.308249 0.008527 0.935940
Si Si5 0.062130 0.913633 0.604791
Si Si6 0.500000 0.500000 0.759405
Si Si7 0.750000 0.212748 0.553946
O O1 0.318848 0.548100 0.671417
O O2 0.297781 0.665485 0.962109
O O3 0.314412 0.536402 0.170321
O O4 0.388230 0.614171 0.966916
O O5 0.505343 0.745380 0.613186
O O6 0.557271 0.645521 0.343026
O O7 0.459408 0.640339 0.323188
O O8 0.355818 0.067010 0.947628
O O9 0.423879 0.000189 0.684482
O O10 0.450666 0.026449 0.109459
O O11 0.250000 0.036118 0.953921
O O12 0.015802 0.926634 0.419359
O O13 0.750000 0.216710 0.858069
#
# Coordination Sequence:
#
# PCOD9380853 Si02
#       7
#     8   8   8   8   8   4   4
#     4  11  23  38  60  90 118 154 219 266 311 358
#     4  12  26  40  60  92 137 168 204 256 328 406
#     4  11  23  38  66  94 124 167 217 268 324 378
#     4  11  21  39  65  92 116 151 208 288 314 361
#     4  11  23  38  65  91 124 170 215 269 307 389
#     4  12  16  38  66  94 122 158 216 266 326 362
#     4  12  24  40  58  78 126 176 202 246 312 382
#
# _framework density 19.521642
#
# number of rings (size 3 to 8) (size 9 to 14) (size 15 to 20)
#    0.000    0.667    6.667    2.000    0.000    1.333 
#    0.000    0.000    0.000    1.000    0.000    0.000 
#    0.000    0.000    0.000    0.000    0.000    0.000 
#
# Total GULP energy -133864.887891 kJ/mol
# GULP energy per Si atom -5577.703662 kJ/mol
# Density = 1.947721 g / cm^3
# Si number density = 19.521642 Si / 1000 Ang^3
#
#
#
# Elastic Constant Matrix: (Units=GPa)
#
#
# Indices 1 2 3 4 5 6 
#
# 1 151.0747 24.6272 4.6462 0.0000 0.0000 0.0000
# 2 24.6272 57.4304 15.9985 0.0000 0.0000 0.0000
# 3 4.6462 15.9985 86.3854 0.0000 0.0000 0.0000
# 4 0.0000 0.0000 0.0000 33.9793 0.0000 0.0000
# 5 0.0000 0.0000 0.0000 0.0000 14.2303 0.0000
# 6 0.0000 0.0000 0.0000 0.0000 0.0000 12.2398
#
#
#
# Elastic Compliance Matrix: (Units=1/GPa)
#
#
# Indices 1 2 3 4 5 6 
#
# 1 0.007120 -0.003107 0.000192 0.000000 0.000000 0.000000
# 2 -0.003107 0.019715 -0.003484 0.000000 0.000000 0.000000
# 3 0.000192 -0.003484 0.012211 0.000000 0.000000 0.000000
# 4 0.000000 0.000000 0.000000 0.029430 0.000000 0.000000
# 5 0.000000 0.000000 0.000000 0.000000 0.070272 0.000000
# 6 0.000000 0.000000 0.000000 0.000000 0.000000 0.081701
#
#
# Mechanical properties :
#
#
# Convention : Reuss Voigt Hill
#
# Bulk Modulus (GPa) = 38.09660 42.82603 40.46132
# Shear Modulus (GPa) = 20.66156 28.73113 24.69635
#
# Velocity S-wave (km/s) = 3.25682 3.84051 3.56065
# Velocity P-wave (km/s) = 5.80517 6.45379 6.13805
#
# Compressibility (1/GPa) = 0.02624906
#
# Stress axis : x y z
#
# Youngs Moduli (GPa) = 140.45424 50.72238 81.89381
#
# Poissons Ratio (x) = 0.15758 -0.01576
# Poissons Ratio (y) = 0.43635 0.28533
# Poissons Ratio (z) = -0.02703 0.17672
#
# Static dielectric constant tensor:
#      x y z
#    x 1.744080 0.000000 0.000000 
#    y 0.000000 1.710270 0.000000 
#    z 0.000000 0.000000 1.772000 
# 
# From -- ./inp_files/2541.got.cif
#   From: 2010.05.17/outbox.cif.g08.bks.cpg/sg46_2_cif.got.tgz:2541.got - 2010.06.03 19:58:25.
