data_PCOD9380147
_publ_section_title
;
Structure prediction by ZEFSAII (Michael W. Deem and Ramdas Pophale) SiO2 
 PCOD9380147
Probable space group: I M A 2
;
_chemical_formula_sum "Si O2"
_cell_formula_units_Z 32
_cell_length_a 13.996230
_cell_length_b 4.947118
_cell_length_c 20.432186
_cell_angle_alpha 90.000000
_cell_angle_beta 90.000000
_cell_angle_gamma 90.000000
_cell_volume 1414.745019
_symmetry_space_group_name_H-M "I M A 2"
_symmetry_group_IT_number 46
_symmetry_cell_setting 'orthorhombic'
loop_
_space_group_symop_operation_xyz
x,y,z
-x,-y,z
1/2-x,y,z
1/2+x,-y,z
1/2+x,1/2+y,1/2+z
1/2-x,1/2-y,1/2+z
-x,1/2+y,1/2+z
x,1/2-y,1/2+z
loop_
_atom_site_type_symbol
_atom_site_label
_atom_site_fract_x
_atom_site_fract_y
_atom_site_fract_z
Si Si1 0.385589 0.990906 0.328010
Si Si2 0.750000 0.213494 0.053038
Si Si3 0.750000 0.787907 0.639721
Si Si4 0.929584 0.253022 0.962325
Si Si5 0.385687 0.009012 0.749558
O O1 0.371231 0.868913 0.399578
O O2 0.353825 0.786826 0.271573
O O3 0.500000 0.000000 0.324676
O O4 0.356881 0.291026 0.308990
O O5 0.750000 0.523726 0.075930
O O6 0.750000 0.018369 0.115951
O O7 0.848343 0.166800 0.013477
O O8 0.660649 0.873162 0.684570
O O9 0.000000 0.500000 0.983815
O O10 0.000000 0.000000 0.945786
O O11 0.500000 0.000000 0.742979
#
# Coordination Sequence:
#
# PCOD9380147 Si02
#       5
#     8   4   4   8   8
#     4   9  18  37  64  94 120 150 201 257 324 388
#     4  12  28  44  62  94 128 174 230 256 298 384
#     4  12  26  42  60  90 130 172 222 258 296 378
#     4  11  23  43  69  95 129 166 207 270 327 374
#     4  10  21  38  62  90 123 159 199 259 320 370
#
# _framework density 22.618915000000001
#
# number of rings (size 3 to 8) (size 9 to 14) (size 15 to 20)
#    0.000    1.500    0.000    6.750    0.000    5.000 
#    0.000    0.000    0.000    1.500    0.000    0.000 
#    0.000    0.000    0.000    0.000    0.000    0.000 
#
# Total GULP energy -89381.218575 kJ/mol
# GULP energy per Si atom -5586.326161 kJ/mol
# Density = 2.256743 g / cm^3
# Si number density = 22.618915 Si / 1000 Ang^3
#
#
#
# Elastic Constant Matrix: (Units=GPa)
#
#
# Indices 1 2 3 4 5 6 
#
# 1 143.9524 12.7545 34.4595 0.0000 0.0000 0.0000
# 2 12.7545 92.0216 6.6656 0.0000 0.0000 0.0000
# 3 34.4595 6.6656 81.3015 0.0000 0.0000 0.0000
# 4 0.0000 0.0000 0.0000 49.0456 0.0000 0.0000
# 5 0.0000 0.0000 0.0000 0.0000 67.6537 0.0000
# 6 0.0000 0.0000 0.0000 0.0000 0.0000 12.1385
#
#
#
# Elastic Compliance Matrix: (Units=1/GPa)
#
#
# Indices 1 2 3 4 5 6 
#
# 1 0.007796 -0.000846 -0.003235 0.000000 0.000000 0.000000
# 2 -0.000846 0.011024 -0.000545 0.000000 0.000000 0.000000
# 3 -0.003235 -0.000545 0.013716 0.000000 0.000000 0.000000
# 4 0.000000 0.000000 0.000000 0.020389 0.000000 0.000000
# 5 0.000000 0.000000 0.000000 0.000000 0.014781 0.000000
# 6 0.000000 0.000000 0.000000 0.000000 0.000000 0.082382
#
#
# Mechanical properties :
#
#
# Convention : Reuss Voigt Hill
#
# Bulk Modulus (GPa) = 42.94991 47.22608 45.08799
# Shear Modulus (GPa) = 29.92186 43.32731 36.62458
#
# Velocity S-wave (km/s) = 3.64107 4.38143 4.02830
# Velocity P-wave (km/s) = 6.05857 6.82058 6.45083
#
# Compressibility (1/GPa) = 0.02328293
#
# Stress axis : x y z
#
# Youngs Moduli (GPa) = 128.26907 90.71293 72.90895
#
# Poissons Ratio (x) = 0.07676 0.23586
# Poissons Ratio (y) = 0.10855 0.03974
# Poissons Ratio (z) = 0.41495 0.04945
#
# Static dielectric constant tensor:
#      x y z
#    x 1.814540 0.000000 0.000000 
#    y 0.000000 1.808540 0.000000 
#    z 0.000000 0.000000 1.841950 
# 
# From -- ./inp_files/19114.got.cif
#   From: 2010.05.17/outbox.cif.g08.bks.cpg/sg46_10_cif.got.tgz:19114.got - 2010.06.03 19:58:25.
