data_PCOD9380805
_publ_section_title
;
Structure prediction by ZEFSAII (Michael W. Deem and Ramdas Pophale) SiO2 
 PCOD9380805
Probable space group: I M A 2
;
_chemical_formula_sum "Si O2"
_cell_formula_units_Z 48
_cell_length_a 16.721469
_cell_length_b 9.751629
_cell_length_c 13.990130
_cell_angle_alpha 90.000000
_cell_angle_beta 90.000000
_cell_angle_gamma 90.000000
_cell_volume 2281.252451
_symmetry_space_group_name_H-M "I M A 2"
_symmetry_group_IT_number 46
_symmetry_cell_setting 'orthorhombic'
loop_
_space_group_symop_operation_xyz
x,y,z
-x,-y,z
1/2-x,y,z
1/2+x,-y,z
1/2+x,1/2+y,1/2+z
1/2-x,1/2-y,1/2+z
-x,1/2+y,1/2+z
x,1/2-y,1/2+z
loop_
_atom_site_type_symbol
_atom_site_label
_atom_site_fract_x
_atom_site_fract_y
_atom_site_fract_z
Si Si1 0.606072 0.774594 0.100780
Si Si2 0.154963 0.217311 0.897310
Si Si3 0.405527 0.970895 0.411502
Si Si4 0.081131 0.693613 0.101505
Si Si5 0.405308 0.539451 0.700831
Si Si6 0.658516 0.537918 0.217536
O O1 0.514533 0.720121 0.102893
O O2 0.657112 0.642107 0.127700
O O3 0.630956 0.892680 0.175148
O O4 0.620154 0.837003 0.996733
O O5 0.250000 0.206602 0.896711
O O6 0.133005 0.378316 0.903215
O O7 0.126348 0.128844 0.806383
O O8 0.389004 0.874805 0.502576
O O9 0.388610 0.907589 0.307409
O O10 0.500000 0.000000 0.418504
O O11 0.115794 0.842877 0.125969
O O12 0.105010 0.589366 0.185758
O O13 0.500000 0.500000 0.695422
O O14 0.750000 0.495169 0.236128
#
# Coordination Sequence:
#
# PCOD9380805 Si02
#       6
#     8   8   8   8   8   8
#     4  11  20  40  62  92 123 167 213 258 315 383
#     4  11  23  38  63  94 126 168 214 261 317 387
#     4  11  19  38  60  87 124 164 210 258 314 375
#     4  11  22  38  64  95 123 164 213 267 319 376
#     4   9  22  37  60  91 127 159 206 263 318 375
#     4  11  23  39  61  92 126 164 213 264 319 383
#
# _framework density 21.041073999999998
#
# number of rings (size 3 to 8) (size 9 to 14) (size 15 to 20)
#    0.000    1.333    5.000    1.000    0.000    1.333 
#    0.000    5.833    0.000    0.000    0.000    0.000 
#    0.000    0.000    0.000    0.000    0.000    0.000 
#
# Total GULP energy -133829.872254 kJ/mol
# GULP energy per Si atom -5576.244677 kJ/mol
# Density = 2.099318 g / cm^3
# Si number density = 21.041074 Si / 1000 Ang^3
#
#
#
# Elastic Constant Matrix: (Units=GPa)
#
#
# Indices 1 2 3 4 5 6 
#
# 1 43.5338 22.5221 14.0221 0.0000 0.0000 0.0000
# 2 22.5221 119.4079 58.8451 0.0000 0.0000 0.0000
# 3 14.0221 58.8451 139.6167 0.0000 0.0000 0.0000
# 4 0.0000 0.0000 0.0000 56.2696 0.0000 0.0000
# 5 0.0000 0.0000 0.0000 0.0000 17.0219 0.0000
# 6 0.0000 0.0000 0.0000 0.0000 0.0000 -4.2016
#
#
#
# Elastic Compliance Matrix: (Units=1/GPa)
#
#
# Indices 1 2 3 4 5 6 
#
# 1 0.025505 -0.004478 -0.000674 0.000000 0.000000 0.000000
# 2 -0.004478 0.011357 -0.004337 0.000000 0.000000 0.000000
# 3 -0.000674 -0.004337 0.009058 0.000000 0.000000 0.000000
# 4 0.000000 0.000000 0.000000 0.017772 0.000000 0.000000
# 5 0.000000 0.000000 0.000000 0.000000 0.058748 0.000000
# 6 0.000000 0.000000 0.000000 0.000000 0.000000 -0.238007
#
#
# Mechanical properties :
#
#
# Convention : Reuss Voigt Hill
#
# Bulk Modulus (GPa) = 37.11821 54.81522 45.96671
# Shear Modulus (GPa) = -57.07116 27.62925 -14.72096
#
# Velocity S-wave (km/s) = -5.21369 3.62762 -2.64792
# Velocity P-wave (km/s) = 4.30863 6.60713 3.54189
#
# Compressibility (1/GPa) = 0.02694096
#
# Stress axis : x y z
#
# Youngs Moduli (GPa) = 39.20850 88.05510 110.39989
#
# Poissons Ratio (x) = 0.39435 0.07440
# Poissons Ratio (y) = 0.17559 0.47877
# Poissons Ratio (z) = 0.02642 0.38187
#
# Static dielectric constant tensor:
#      x y z
#    x 1.772010 0.000000 0.000000 
#    y 0.000000 1.729370 0.000000 
#    z 0.000000 0.000000 1.848600 
# 
# From -- ./inp_files/16538.got.cif
#   From: 2010.05.17/outbox.cif.g08.bks.cpg/sg46_9_cif.got.tgz:16538.got - 2010.06.03 19:58:25.
