data_PCOD9380545
_publ_section_title
;
Structure prediction by ZEFSAII (Michael W. Deem and Ramdas Pophale) SiO2 
 PCOD9380545
Probable space group: I M A 2
;
_chemical_formula_sum "Si O2"
_cell_formula_units_Z 40
_cell_length_a 16.409179
_cell_length_b 4.749203
_cell_length_c 18.865433
_cell_angle_alpha 90.000000
_cell_angle_beta 90.000000
_cell_angle_gamma 90.000000
_cell_volume 1470.193044
_symmetry_space_group_name_H-M "I M A 2"
_symmetry_group_IT_number 46
_symmetry_cell_setting 'orthorhombic'
loop_
_space_group_symop_operation_xyz
x,y,z
-x,-y,z
1/2-x,y,z
1/2+x,-y,z
1/2+x,1/2+y,1/2+z
1/2-x,1/2-y,1/2+z
-x,1/2+y,1/2+z
x,1/2-y,1/2+z
loop_
_atom_site_type_symbol
_atom_site_label
_atom_site_fract_x
_atom_site_fract_y
_atom_site_fract_z
Si Si1 0.914558 0.629913 0.134880
Si Si2 0.750000 0.821143 0.862012
Si Si3 0.923554 0.304490 0.751728
Si Si4 0.750000 0.338076 0.768432
Si Si5 0.589428 0.117848 0.911523
Si Si6 0.841984 0.339369 0.558431
O O1 0.919571 0.504603 0.216037
O O2 0.897819 0.931400 0.099489
O O3 0.000000 0.500000 0.106186
O O4 0.842377 0.438962 0.105069
O O5 0.750000 0.494243 0.844317
O O6 0.750000 0.010041 0.789462
O O7 0.664028 0.900218 0.897230
O O8 0.834291 0.429506 0.733611
O O9 0.923352 0.276798 0.836619
O O10 0.000000 0.500000 0.728527
O O11 0.500000 0.000000 0.926867
O O12 0.620403 0.256702 0.983411
O O13 0.750000 0.445451 0.548967
#
# Coordination Sequence:
#
# PCOD9380545 Si02
#       6
#     8   4   8   4   8   8
#     4  12  27  51  77 111 158 212 270 335 407 493
#     4  10  22  42  62 106 148 194 243 318 380 478
#     4  11  25  47  79 122 158 210 266 339 415 498
#     4  10  24  40  68 104 156 192 245 312 398 464
#     4  11  23  45  76 111 152 203 257 331 405 480
#     4  12  28  50  76 114 157 214 276 331 407 491
#
# _framework density 27.207308999999999
#
# number of rings (size 3 to 8) (size 9 to 14) (size 15 to 20)
#    0.000    0.800    1.000    5.400    2.800   10.400 
#    0.000    0.000    0.000    0.000    0.000    0.000 
#    0.000    0.000    0.000    0.000    0.000    0.000 
#
# Total GULP energy -111749.987465 kJ/mol
# GULP energy per Si atom -5587.499373 kJ/mol
# Density = 2.714538 g / cm^3
# Si number density = 27.207309 Si / 1000 Ang^3
#
#
#
# Elastic Constant Matrix: (Units=GPa)
#
#
# Indices 1 2 3 4 5 6 
#
# 1 213.1056 14.8596 11.7850 0.0000 0.0000 0.0000
# 2 14.8596 109.5086 8.3959 0.0000 0.0000 0.0000
# 3 11.7850 8.3959 150.2413 0.0000 0.0000 0.0000
# 4 0.0000 0.0000 0.0000 27.7664 0.0000 0.0000
# 5 0.0000 0.0000 0.0000 0.0000 33.1173 0.0000
# 6 0.0000 0.0000 0.0000 0.0000 0.0000 42.2058
#
#
#
# Elastic Compliance Matrix: (Units=1/GPa)
#
#
# Indices 1 2 3 4 5 6 
#
# 1 0.004754 -0.000619 -0.000338 0.000000 0.000000 0.000000
# 2 -0.000619 0.009252 -0.000468 0.000000 0.000000 0.000000
# 3 -0.000338 -0.000468 0.006709 0.000000 0.000000 0.000000
# 4 0.000000 0.000000 0.000000 0.036015 0.000000 0.000000
# 5 0.000000 0.000000 0.000000 0.000000 0.030196 0.000000
# 6 0.000000 0.000000 0.000000 0.000000 0.000000 0.023693
#
#
# Mechanical properties :
#
#
# Convention : Reuss Voigt Hill
#
# Bulk Modulus (GPa) = 55.98237 60.32627 58.15432
# Shear Modulus (GPa) = 41.86737 49.80559 45.83648
#
# Velocity S-wave (km/s) = 3.92705 4.28319 4.10898
# Velocity P-wave (km/s) = 6.41741 6.83241 6.62816
#
# Compressibility (1/GPa) = 0.01786277
#
# Stress axis : x y z
#
# Youngs Moduli (GPa) = 210.33174 108.08894 149.06072
#
# Poissons Ratio (x) = 0.06693 0.05043
# Poissons Ratio (y) = 0.13024 0.06983
# Poissons Ratio (z) = 0.07116 0.05063
#
# Static dielectric constant tensor:
#      x y z
#    x 2.202260 0.000000 0.000000 
#    y 0.000000 2.149570 0.000000 
#    z 0.000000 0.000000 2.161100 
# 
# From -- ./inp_files/19808.got.cif
#   From: 2010.05.17/outbox.cif.g08.bks.cpg/sg46_10_cif.got.tgz:19808.got - 2010.06.03 19:58:25.
