data_PCOD9380295
_publ_section_title
;
Structure prediction by ZEFSAII (Michael W. Deem and Ramdas Pophale) SiO2 
 PCOD9380295
Probable space group: I M A 2
;
_chemical_formula_sum "Si O2"
_cell_formula_units_Z 64
_cell_length_a 16.646170
_cell_length_b 11.988037
_cell_length_c 14.764059
_cell_angle_alpha 90.000000
_cell_angle_beta 90.000000
_cell_angle_gamma 90.000000
_cell_volume 2946.240345
_symmetry_space_group_name_H-M "I M A 2"
_symmetry_group_IT_number 46
_symmetry_cell_setting 'orthorhombic'
loop_
_space_group_symop_operation_xyz
x,y,z
-x,-y,z
1/2-x,y,z
1/2+x,-y,z
1/2+x,1/2+y,1/2+z
1/2-x,1/2-y,1/2+z
-x,1/2+y,1/2+z
x,1/2-y,1/2+z
loop_
_atom_site_type_symbol
_atom_site_label
_atom_site_fract_x
_atom_site_fract_y
_atom_site_fract_z
Si Si1 0.997192 0.618332 0.774370
Si Si2 0.343854 0.776214 0.274235
Si Si3 0.376539 0.723917 0.067841
Si Si4 0.338262 0.145818 0.385053
Si Si5 0.836524 0.533539 0.082457
Si Si6 0.552715 0.777122 0.619092
Si Si7 0.656720 0.869186 0.986286
Si Si8 0.842603 0.099107 0.912417
O O1 0.921363 0.609586 0.840269
O O2 0.975444 0.721752 0.711455
O O3 0.000000 0.500000 0.722882
O O4 0.086910 0.641749 0.811360
O O5 0.250000 0.799607 0.297878
O O6 0.352036 0.775258 0.165475
O O7 0.367421 0.656690 0.318292
O O8 0.345860 0.597804 0.070980
O O9 0.472553 0.714263 0.059792
O O10 0.347243 0.803263 0.987582
O O11 0.250000 0.123948 0.340671
O O12 0.335749 0.086510 0.482411
O O13 0.344150 0.277836 0.406102
O O14 0.750000 0.556812 0.126399
O O15 0.905633 0.603513 0.131459
O O16 0.611196 0.690103 0.568860
O O17 0.750000 0.884738 0.013852
O O18 0.619895 0.986122 0.952401
O O19 0.750000 0.068164 0.897365
#
# Coordination Sequence:
#
# PCOD9380295 Si02
#       8
#     8   8   8   8   8   8   8   8
#     4  11  26  41  59  93 128 167 213 261 326 388
#     4  10  24  44  62  93 129 163 215 269 315 384
#     4  11  23  40  65  94 129 167 211 267 326 383
#     4   9  21  40  62  92 126 164 210 261 317 382
#     4  10  21  40  66  92 121 165 214 259 321 387
#     4  10  23  39  60  90 126 163 210 263 320 384
#     4   9  20  40  63  90 124 165 216 263 315 387
#     4  10  22  39  64  93 122 169 216 257 325 388
#
# _framework density 21.722598000000001
#
# number of rings (size 3 to 8) (size 9 to 14) (size 15 to 20)
#    0.000    2.000    0.000    2.625    8.750    2.500 
#    0.000    2.500    0.000    0.000    0.000    0.000 
#    0.000    0.000    0.000    0.000    0.000    0.000 
#
# Total GULP energy -178458.427599 kJ/mol
# GULP energy per Si atom -5576.825862 kJ/mol
# Density = 2.167316 g / cm^3
# Si number density = 21.722598 Si / 1000 Ang^3
#
#
#
# Elastic Constant Matrix: (Units=GPa)
#
#
# Indices 1 2 3 4 5 6 
#
# 1 128.0364 27.0587 4.5931 0.0000 0.0000 0.0000
# 2 27.0587 87.6797 -6.0515 0.0000 0.0000 0.0000
# 3 4.5931 -6.0515 28.1403 0.0000 0.0000 0.0000
# 4 0.0000 0.0000 0.0000 20.0409 0.0000 0.0000
# 5 0.0000 0.0000 0.0000 0.0000 24.4468 0.0000
# 6 0.0000 0.0000 0.0000 0.0000 0.0000 31.3057
#
#
#
# Elastic Compliance Matrix: (Units=1/GPa)
#
#
# Indices 1 2 3 4 5 6 
#
# 1 0.008462 -0.002747 -0.001972 0.000000 0.000000 0.000000
# 2 -0.002747 0.012469 0.003130 0.000000 0.000000 0.000000
# 3 -0.001972 0.003130 0.036531 0.000000 0.000000 0.000000
# 4 0.000000 0.000000 0.000000 0.049898 0.000000 0.000000
# 5 0.000000 0.000000 0.000000 0.000000 0.040905 0.000000
# 6 0.000000 0.000000 0.000000 0.000000 0.000000 0.031943
#
#
# Mechanical properties :
#
#
# Convention : Reuss Voigt Hill
#
# Bulk Modulus (GPa) = 18.42202 32.78409 25.60306
# Shear Modulus (GPa) = 24.81620 29.70910 27.26265
#
# Velocity S-wave (km/s) = 3.38363 3.70220 3.54649
# Velocity P-wave (km/s) = 4.87486 5.77927 5.34622
#
# Compressibility (1/GPa) = 0.05428286
#
# Stress axis : x y z
#
# Youngs Moduli (GPa) = 118.18031 80.19860 27.37391
#
# Poissons Ratio (x) = 0.22034 0.05398
# Poissons Ratio (y) = 0.32469 -0.08568
# Poissons Ratio (z) = 0.23304 -0.25101
#
# Static dielectric constant tensor:
#      x y z
#    x 1.896580 0.000000 0.000000 
#    y 0.000000 1.811120 0.000000 
#    z 0.000000 0.000000 1.780010 
# 
# From -- ./inp_files/19623.got.cif
#   From: 2010.05.17/outbox.cif.g08.bks.cpg/sg46_10_cif.got.tgz:19623.got - 2010.06.03 19:58:25.
