data_PCOD9380168
_publ_section_title
;
Structure prediction by ZEFSAII (Michael W. Deem and Ramdas Pophale) SiO2 
 PCOD9380168
Probable space group: I M A 2
;
_chemical_formula_sum "Si O2"
_cell_formula_units_Z 56
_cell_length_a 20.387039
_cell_length_b 19.378015
_cell_length_c 5.556221
_cell_angle_alpha 90.000000
_cell_angle_beta 90.000000
_cell_angle_gamma 90.000000
_cell_volume 2195.042599
_symmetry_space_group_name_H-M "I M A 2"
_symmetry_group_IT_number 46
_symmetry_cell_setting 'orthorhombic'
loop_
_space_group_symop_operation_xyz
x,y,z
-x,-y,z
1/2-x,y,z
1/2+x,-y,z
1/2+x,1/2+y,1/2+z
1/2-x,1/2-y,1/2+z
-x,1/2+y,1/2+z
x,1/2-y,1/2+z
loop_
_atom_site_type_symbol
_atom_site_label
_atom_site_fract_x
_atom_site_fract_y
_atom_site_fract_z
Si Si1 0.179064 0.508682 0.088120
Si Si2 0.250000 0.294240 0.272215
Si Si3 0.108802 0.210476 0.858620
Si Si4 0.632215 0.358809 0.838064
Si Si5 0.085891 0.962128 0.956032
Si Si6 0.482431 0.651450 0.136921
Si Si7 0.250000 0.714418 0.588178
Si Si8 0.554844 0.555075 0.831977
O O1 0.250000 0.478800 0.051432
O O2 0.157888 0.519075 0.362773
O O3 0.175112 0.587014 0.989313
O O4 0.122806 0.464624 0.958185
O O5 0.250000 0.261811 0.998604
O O6 0.321587 0.330718 0.312499
O O7 0.113623 0.236360 0.132963
O O8 0.033637 0.184280 0.822161
O O9 0.588361 0.409866 0.677495
O O10 0.582041 0.315581 0.007449
O O11 0.682100 0.321807 0.660819
O O12 0.050141 0.916376 0.757373
O O13 0.060151 0.035791 0.051095
O O14 0.531317 0.628058 0.923383
O O15 0.250000 0.727381 0.302208
O O16 0.500000 0.500000 0.912812
#
# Coordination Sequence:
#
# PCOD9380168 Si02
#       8
#     8   4   8   8   8   8   4   8
#     4  10  21  38  64  89 125 167 219 264 327 412
#     4   8  16  38  66  89 118 162 209 252 322 402
#     4  10  23  42  68  97 128 173 221 274 331 397
#     4  10  23  40  63  90 120 175 224 265 341 403
#     4  10  22  37  66  89 128 171 222 267 334 417
#     4  11  24  40  66  97 131 172 221 283 335 405
#     4  12  30  46  66  95 138 178 233 302 342 394
#     4  11  21  38  60  95 126 167 212 266 330 402
#
# _framework density 25.512035000000001
#
# number of rings (size 3 to 8) (size 9 to 14) (size 15 to 20)
#    0.000    1.714    5.000    0.000    9.000    1.714 
#    1.286    0.000    0.000    0.000    0.000    0.000 
#    0.000    0.000    0.000    0.000    0.000    0.000 
#
# Total GULP energy -155995.292333 kJ/mol
# GULP energy per Si atom -5571.260440 kJ/mol
# Density = 2.545397 g / cm^3
# Si number density = 25.512035 Si / 1000 Ang^3
#
#
#
# Elastic Constant Matrix: (Units=GPa)
#
#
# Indices 1 2 3 4 5 6 
#
# 1 163.6755 10.6684 7.2310 0.0000 0.0000 0.0000
# 2 10.6684 11.4440 6.8430 0.0000 0.0000 0.0000
# 3 7.2310 6.8430 80.8713 0.0000 0.0000 0.0000
# 4 0.0000 0.0000 0.0000 35.0775 0.0000 0.0000
# 5 0.0000 0.0000 0.0000 0.0000 -12.9994 0.0000
# 6 0.0000 0.0000 0.0000 0.0000 0.0000 36.7970
#
#
#
# Elastic Compliance Matrix: (Units=1/GPa)
#
#
# Indices 1 2 3 4 5 6 
#
# 1 0.006505 -0.006021 -0.000072 0.000000 0.000000 0.000000
# 2 -0.006021 0.097612 -0.007721 0.000000 0.000000 0.000000
# 3 -0.000072 -0.007721 0.013025 0.000000 0.000000 0.000000
# 4 0.000000 0.000000 0.000000 0.028508 0.000000 0.000000
# 5 0.000000 0.000000 0.000000 0.000000 -0.076926 0.000000
# 6 0.000000 0.000000 0.000000 0.000000 0.000000 0.027176
#
#
# Mechanical properties :
#
#
# Convention : Reuss Voigt Hill
#
# Bulk Modulus (GPa) = 11.17154 33.94173 22.55663
# Shear Modulus (GPa) = 32.60155 27.19158 29.89656
#
# Velocity S-wave (km/s) = 3.57864 3.26825 3.42696
# Velocity P-wave (km/s) = 4.63292 5.25119 4.95172
#
# Compressibility (1/GPa) = 0.08951317
#
# Stress axis : x y z
#
# Youngs Moduli (GPa) = 153.72076 10.24466 76.77478
#
# Poissons Ratio (x) = 0.06169 0.00554
# Poissons Ratio (y) = 0.92559 0.59279
# Poissons Ratio (z) = 0.01109 0.07910
#
# Static dielectric constant tensor:
#      x y z
#    x 2.148630 0.000000 0.000000 
#    y 0.000000 2.054280 0.000000 
#    z 0.000000 0.000000 2.059480 
# 
# From -- ./inp_files/2149.got.cif
#   From: 2010.05.17/outbox.cif.g08.bks.cpg/sg46_2_cif.got.tgz:2149.got - 2010.06.03 19:58:25.
