data_PCOD9380137
_publ_section_title
;
Structure prediction by ZEFSAII (Michael W. Deem and Ramdas Pophale) SiO2 
 PCOD9380137
Probable space group: I M A 2
;
_chemical_formula_sum "Si O2"
_cell_formula_units_Z 60
_cell_length_a 16.314027
_cell_length_b 11.907638
_cell_length_c 15.168408
_cell_angle_alpha 90.000000
_cell_angle_beta 90.000000
_cell_angle_gamma 90.000000
_cell_volume 2946.638113
_symmetry_space_group_name_H-M "I M A 2"
_symmetry_group_IT_number 46
_symmetry_cell_setting 'orthorhombic'
loop_
_space_group_symop_operation_xyz
x,y,z
-x,-y,z
1/2-x,y,z
1/2+x,-y,z
1/2+x,1/2+y,1/2+z
1/2-x,1/2-y,1/2+z
-x,1/2+y,1/2+z
x,1/2-y,1/2+z
loop_
_atom_site_type_symbol
_atom_site_label
_atom_site_fract_x
_atom_site_fract_y
_atom_site_fract_z
Si Si1 0.342453 0.151001 0.922360
Si Si2 0.506897 0.269908 0.879225
Si Si3 0.845390 0.960882 0.113781
Si Si4 0.657358 0.435705 0.078204
Si Si5 0.000000 0.000000 0.476435
Si Si6 0.956952 0.725097 0.688401
Si Si7 0.089734 0.801892 0.043917
Si Si8 0.843885 0.932501 0.740237
O O1 0.250000 0.195800 0.912644
O O2 0.412960 0.237904 0.900158
O O3 0.354908 0.058152 0.845119
O O4 0.350037 0.103522 0.019949
O O5 0.515361 0.272154 0.774245
O O6 0.517167 0.393365 0.916565
O O7 0.562785 0.190127 0.941314
O O8 0.750000 0.963795 0.141630
O O9 0.902365 0.888435 0.179603
O O10 0.877071 0.085265 0.089102
O O11 0.750000 0.473476 0.055279
O O12 0.583347 0.505013 0.033697
O O13 0.648508 0.305178 0.054104
O O14 0.644558 0.456694 0.182572
O O15 0.899688 0.833125 0.702371
O O16 0.009245 0.732324 0.599601
O O17 0.750000 0.896632 0.726644
#
# Coordination Sequence:
#
# PCOD9380137 Si02
#       8
#     8   8   8   8   4   8   8   8
#     4   9  19  35  58  89 117 151 199 258 317 365
#     4  10  22  38  60  88 123 160 203 261 311 383
#     4  11  23  39  62  88 124 164 207 261 317 383
#     4  10  21  38  61  87 124 167 207 257 311 374
#     4  10  22  38  58  88 120 164 212 248 316 382
#     4  11  22  37  64  91 120 159 205 264 318 373
#     4  11  23  40  58  89 123 168 208 249 315 388
#     4   9  18  35  59  90 120 153 203 258 311 369
#
# _framework density 20.362186999999999
#
# number of rings (size 3 to 8) (size 9 to 14) (size 15 to 20)
#    0.000    1.867    1.333    2.800    1.867    2.133 
#    0.000    2.667    0.000    1.600    0.000    0.000 
#    0.000    0.000    0.000    0.000    0.000    0.000 
#
# Total GULP energy -167268.586482 kJ/mol
# GULP energy per Si atom -5575.619549 kJ/mol
# Density = 2.031584 g / cm^3
# Si number density = 20.362187 Si / 1000 Ang^3
#
#
#
# Elastic Constant Matrix: (Units=GPa)
#
#
# Indices 1 2 3 4 5 6 
#
# 1 64.4686 10.5259 25.2090 0.0000 0.0000 0.0000
# 2 10.5259 42.5333 8.3393 0.0000 0.0000 0.0000
# 3 25.2090 8.3393 87.4884 0.0000 0.0000 0.0000
# 4 0.0000 0.0000 0.0000 22.9641 0.0000 0.0000
# 5 0.0000 0.0000 0.0000 0.0000 19.7666 0.0000
# 6 0.0000 0.0000 0.0000 0.0000 0.0000 22.5856
#
#
#
# Elastic Compliance Matrix: (Units=1/GPa)
#
#
# Indices 1 2 3 4 5 6 
#
# 1 0.017978 -0.003499 -0.004847 0.000000 0.000000 0.000000
# 2 -0.003499 0.024640 -0.001340 0.000000 0.000000 0.000000
# 3 -0.004847 -0.001340 0.012954 0.000000 0.000000 0.000000
# 4 0.000000 0.000000 0.000000 0.043546 0.000000 0.000000
# 5 0.000000 0.000000 0.000000 0.000000 0.050591 0.000000
# 6 0.000000 0.000000 0.000000 0.000000 0.000000 0.044276
#
#
# Mechanical properties :
#
#
# Convention : Reuss Voigt Hill
#
# Bulk Modulus (GPa) = 27.62429 31.40431 29.51430
# Shear Modulus (GPa) = 22.18051 23.09099 22.63575
#
# Velocity S-wave (km/s) = 3.30403 3.37116 3.33777
# Velocity P-wave (km/s) = 5.30579 5.53257 5.42037
#
# Compressibility (1/GPa) = 0.03620003
#
# Stress axis : x y z
#
# Youngs Moduli (GPa) = 55.62401 40.58497 77.19392
#
# Poissons Ratio (x) = 0.14200 0.37413
# Poissons Ratio (y) = 0.19462 0.10348
# Poissons Ratio (z) = 0.26959 0.05440
#
# Static dielectric constant tensor:
#      x y z
#    x 1.745680 0.000000 0.000000 
#    y 0.000000 1.728100 0.000000 
#    z 0.000000 0.000000 1.771630 
# 
# From -- ./inp_files/16721.got.cif
#   From: 2010.05.17/outbox.cif.g08.bks.cpg/sg46_9_cif.got.tgz:16721.got - 2010.06.03 19:58:25.
