data_PCOD9380999
_publ_section_title
;
Structure prediction by ZEFSAII (Michael W. Deem and Ramdas Pophale) SiO2 
 PCOD9380999
Probable space group: I M A 2
;
_chemical_formula_sum "Si O2"
_cell_formula_units_Z 28
_cell_length_a 19.346590
_cell_length_b 12.292491
_cell_length_c 5.012680
_cell_angle_alpha 90.000000
_cell_angle_beta 90.000000
_cell_angle_gamma 90.000000
_cell_volume 1192.104447
_symmetry_space_group_name_H-M "I M A 2"
_symmetry_group_IT_number 46
_symmetry_cell_setting 'orthorhombic'
loop_
_space_group_symop_operation_xyz
x,y,z
-x,-y,z
1/2-x,y,z
1/2+x,-y,z
1/2+x,1/2+y,1/2+z
1/2-x,1/2-y,1/2+z
-x,1/2+y,1/2+z
x,1/2-y,1/2+z
loop_
_atom_site_type_symbol
_atom_site_label
_atom_site_fract_x
_atom_site_fract_y
_atom_site_fract_z
Si Si1 0.250000 0.326533 0.715910
Si Si2 0.638581 0.013059 0.216535
Si Si3 0.750000 0.326082 0.951401
Si Si4 0.000000 0.000000 0.566588
Si Si5 0.927554 0.329644 0.345618
O O1 0.250000 0.230207 0.502407
O O2 0.183220 0.404476 0.683995
O O3 0.685418 0.097904 0.382509
O O4 0.566980 0.998280 0.376171
O O5 0.622554 0.071415 0.934144
O O6 0.750000 0.225381 0.743625
O O7 0.996056 0.104498 0.759832
O O8 0.921324 0.252889 0.601369
#
# Coordination Sequence:
#
# PCOD9380999 Si02
#       5
#     4   8   4   4   8
#     4  11  30  53  82 110 156 217 264 318 393 472
#     4  11  27  51  79 114 161 198 272 320 392 472
#     4  11  26  45  78 112 148 201 258 328 389 454
#     4  12  28  48  76 124 160 206 254 338 388 486
#     4  12  26  46  74 111 156 203 252 317 392 453
#
# _framework density 23.487874000000001
#
# number of rings (size 3 to 8) (size 9 to 14) (size 15 to 20)
#    0.000    0.571    2.857    2.571    8.000    4.571 
#    0.000    0.000    0.000    0.000    0.000    0.000 
#    0.000    0.000    0.000    0.000    0.000    0.000 
#
# Total GULP energy -78321.749520 kJ/mol
# GULP energy per Si atom -5594.410680 kJ/mol
# Density = 2.343441 g / cm^3
# Si number density = 23.487874 Si / 1000 Ang^3
#
#
#
# Elastic Constant Matrix: (Units=GPa)
#
#
# Indices 1 2 3 4 5 6 
#
# 1 163.5529 58.4010 43.4528 0.0000 0.0000 0.0000
# 2 58.4010 103.8993 17.0259 0.0000 0.0000 0.0000
# 3 43.4528 17.0259 142.7416 0.0000 0.0000 0.0000
# 4 0.0000 0.0000 0.0000 52.1384 0.0000 0.0000
# 5 0.0000 0.0000 0.0000 0.0000 13.8081 0.0000
# 6 0.0000 0.0000 0.0000 0.0000 0.0000 59.8634
#
#
#
# Elastic Compliance Matrix: (Units=1/GPa)
#
#
# Indices 1 2 3 4 5 6 
#
# 1 0.008162 -0.004264 -0.001976 0.000000 0.000000 0.000000
# 2 -0.004264 0.012044 -0.000139 0.000000 0.000000 0.000000
# 3 -0.001976 -0.000139 0.007624 0.000000 0.000000 0.000000
# 4 0.000000 0.000000 0.000000 0.019180 0.000000 0.000000
# 5 0.000000 0.000000 0.000000 0.000000 0.072421 0.000000
# 6 0.000000 0.000000 0.000000 0.000000 0.000000 0.016705
#
#
# Mechanical properties :
#
#
# Convention : Reuss Voigt Hill
#
# Bulk Modulus (GPa) = 66.34523 71.99481 69.17002
# Shear Modulus (GPa) = 32.48515 44.58293 38.53404
#
# Velocity S-wave (km/s) = 3.72299 4.36147 4.05482
# Velocity P-wave (km/s) = 6.84023 7.48877 7.17184
#
# Compressibility (1/GPa) = 0.01507267
#
# Stress axis : x y z
#
# Youngs Moduli (GPa) = 122.52305 83.02825 131.16958
#
# Poissons Ratio (x) = 0.35402 0.25919
# Poissons Ratio (y) = 0.52242 0.01818
# Poissons Ratio (z) = 0.24210 0.01151
#
# Static dielectric constant tensor:
#      x y z
#    x 2.005310 0.000000 0.000000 
#    y 0.000000 1.875930 0.000000 
#    z 0.000000 0.000000 1.910520 
# 
# From -- ./inp_files/1918.got.cif
#   From: 2010.05.17/outbox.cif.g08.bks.cpg/sg46_1_cif.got.tgz:1918.got - 2010.06.03 19:58:25.
