data_PCOD9380044
_publ_section_title
;
Structure prediction by ZEFSAII (Michael W. Deem and Ramdas Pophale) SiO2 
 PCOD9380044
Probable space group: I M A 2
;
_chemical_formula_sum "Si O2"
_cell_formula_units_Z 40
_cell_length_a 16.983115
_cell_length_b 18.889939
_cell_length_c 4.853039
_cell_angle_alpha 90.000000
_cell_angle_beta 90.000000
_cell_angle_gamma 90.000000
_cell_volume 1556.903473
_symmetry_space_group_name_H-M "I M A 2"
_symmetry_group_IT_number 46
_symmetry_cell_setting 'orthorhombic'
loop_
_space_group_symop_operation_xyz
x,y,z
-x,-y,z
1/2-x,y,z
1/2+x,-y,z
1/2+x,1/2+y,1/2+z
1/2-x,1/2-y,1/2+z
-x,1/2+y,1/2+z
x,1/2-y,1/2+z
loop_
_atom_site_type_symbol
_atom_site_label
_atom_site_fract_x
_atom_site_fract_y
_atom_site_fract_z
Si Si1 0.367018 0.078248 0.219630
Si Si2 0.635785 0.709151 0.066415
Si Si3 0.445390 0.705676 0.035023
Si Si4 0.539299 0.075534 0.173267
Si Si5 0.836887 0.018820 0.739376
O O1 0.335578 0.140332 0.409258
O O2 0.358503 0.010899 0.436505
O O3 0.452595 0.107220 0.109949
O O4 0.330776 0.048890 0.941992
O O5 0.659559 0.775192 0.875067
O O6 0.540366 0.704709 0.059143
O O7 0.418623 0.769824 0.835106
O O8 0.424177 0.631080 0.889809
O O9 0.500000 0.000000 0.266860
O O10 0.594276 0.060575 0.909199
O O11 0.750000 0.053220 0.729496
#
# Coordination Sequence:
#
# PCOD9380044 Si02
#       5
#     8   8   8   8   8
#     4  10  21  37  58  86 119 155 201 252 302 362
#     4   9  16  29  52  80 110 149 196 243 292 352
#     4   9  18  31  50  80 116 147 183 241 303 350
#     4   9  21  36  60  89 115 152 205 250 290 355
#     4  11  23  39  59  85 121 159 197 254 318 365
#
# _framework density 25.692025000000001
#
# number of rings (size 3 to 8) (size 9 to 14) (size 15 to 20)
#    0.000    2.400    0.000    1.800    0.000   20.000 
#    0.000    0.000    0.000   13.200    0.000    0.000 
#    0.000    0.000    0.000    0.000    0.000    0.000 
#
# Total GULP energy -111433.019585 kJ/mol
# GULP energy per Si atom -5571.650979 kJ/mol
# Density = 2.563355 g / cm^3
# Si number density = 25.692025 Si / 1000 Ang^3
#
#
#
# Elastic Constant Matrix: (Units=GPa)
#
#
# Indices 1 2 3 4 5 6 
#
# 1 113.4986 -10.0456 15.7887 0.0000 0.0000 0.0000
# 2 -10.0456 112.7639 17.6885 0.0000 0.0000 0.0000
# 3 15.7887 17.6885 138.7447 0.0000 0.0000 0.0000
# 4 0.0000 0.0000 0.0000 50.0498 0.0000 0.0000
# 5 0.0000 0.0000 0.0000 0.0000 104.5354 0.0000
# 6 0.0000 0.0000 0.0000 0.0000 0.0000 -87.8821
#
#
#
# Elastic Compliance Matrix: (Units=1/GPa)
#
#
# Indices 1 2 3 4 5 6 
#
# 1 0.009059 0.000989 -0.001157 0.000000 0.000000 0.000000
# 2 0.000989 0.009157 -0.001280 0.000000 0.000000 0.000000
# 3 -0.001157 -0.001280 0.007502 0.000000 0.000000 0.000000
# 4 0.000000 0.000000 0.000000 0.019980 0.000000 0.000000
# 5 0.000000 0.000000 0.000000 0.000000 0.009566 0.000000
# 6 0.000000 0.000000 0.000000 0.000000 0.000000 -0.011379
#
#
# Mechanical properties :
#
#
# Convention : Reuss Voigt Hill
#
# Bulk Modulus (GPa) = 43.81790 45.76336 44.79063
# Shear Modulus (GPa) = 91.92943 36.11234 64.02089
#
# Velocity S-wave (km/s) = 5.98824 3.75318 4.99727
# Velocity P-wave (km/s) = 8.05631 6.05250 7.12520
#
# Compressibility (1/GPa) = 0.02282172
#
# Stress axis : x y z
#
# Youngs Moduli (GPa) = 110.38612 109.20709 133.29227
#
# Poissons Ratio (x) = -0.10795 0.15421
# Poissons Ratio (y) = -0.10912 0.17060
# Poissons Ratio (z) = 0.12771 0.13977
#
# Static dielectric constant tensor:
#      x y z
#    x 2.159240 0.000000 0.000000 
#    y 0.000000 2.261550 0.000000 
#    z 0.000000 0.000000 1.968290 
# 
# From -- ./inp_files/1644.got.cif
#   From: 2010.05.17/outbox.cif.g08.bks.cpg/sg46_1_cif.got.tgz:1644.got - 2010.06.03 19:58:25.
