data_PCOD9380683
_publ_section_title
;
Structure prediction by ZEFSAII (Michael W. Deem and Ramdas Pophale) SiO2 
 PCOD9380683
Probable space group: I M A 2
;
_chemical_formula_sum "Si O2"
_cell_formula_units_Z 64
_cell_length_a 17.258925
_cell_length_b 19.654633
_cell_length_c 8.079813
_cell_angle_alpha 90.000000
_cell_angle_beta 90.000000
_cell_angle_gamma 90.000000
_cell_volume 2740.816688
_symmetry_space_group_name_H-M "I M A 2"
_symmetry_group_IT_number 46
_symmetry_cell_setting 'orthorhombic'
loop_
_space_group_symop_operation_xyz
x,y,z
-x,-y,z
1/2-x,y,z
1/2+x,-y,z
1/2+x,1/2+y,1/2+z
1/2-x,1/2-y,1/2+z
-x,1/2+y,1/2+z
x,1/2-y,1/2+z
loop_
_atom_site_type_symbol
_atom_site_label
_atom_site_fract_x
_atom_site_fract_y
_atom_site_fract_z
Si Si1 0.492703 0.572367 0.962180
Si Si2 0.164819 0.592980 0.849976
Si Si3 0.096978 0.274464 0.089879
Si Si4 0.163216 0.760301 0.206156
Si Si5 0.052512 0.698377 0.438259
Si Si6 0.940528 0.599863 0.316465
Si Si7 0.123480 0.353888 0.789534
Si Si8 0.837884 0.981301 0.080577
O O1 0.500000 0.500000 0.876858
O O2 0.402397 0.583618 0.981616
O O3 0.535263 0.625246 0.841225
O O4 0.534728 0.569543 0.139160
O O5 0.250000 0.568680 0.899391
O O6 0.167527 0.673473 0.822353
O O7 0.143772 0.550684 0.682275
O O8 0.090296 0.326091 0.246824
O O9 0.130020 0.203090 0.150491
O O10 0.147618 0.315888 0.957384
O O11 0.014401 0.250002 0.006938
O O12 0.250000 0.730834 0.193044
O O13 0.090196 0.715355 0.261401
O O14 0.131353 0.794269 0.040127
O O15 0.012810 0.624993 0.426918
O O16 0.889800 0.550007 0.431138
O O17 0.159988 0.422682 0.723214
O O18 0.750000 0.988585 0.018427
#
# Coordination Sequence:
#
# PCOD9380683 Si02
#       8
#     8   8   8   8   8   8   8   8
#     4  11  23  42  65 103 128 170 231 272 327 406
#     4  10  23  43  67  95 136 181 223 278 339 401
#     4  11  19  36  64  95 124 166 217 268 337 384
#     4  11  24  38  58  92 129 172 220 268 332 403
#     4  12  20  38  64  90 130 172 213 273 331 393
#     4  11  24  39  67  98 130 169 224 279 332 401
#     4  11  20  38  65  95 130 166 221 273 327 405
#     4  11  24  45  69  98 135 180 223 282 351 405
#
# _framework density 23.350704
#
# number of rings (size 3 to 8) (size 9 to 14) (size 15 to 20)
#    0.000    1.000    5.000    2.625    0.000    1.000 
#    0.000    6.250    0.000    0.000    0.000    0.000 
#    0.000    0.000    0.000    0.000    0.000    0.000 
#
# Total GULP energy -178310.160844 kJ/mol
# GULP energy per Si atom -5572.192526 kJ/mol
# Density = 2.329756 g / cm^3
# Si number density = 23.350704 Si / 1000 Ang^3
#
#
#
# Elastic Constant Matrix: (Units=GPa)
#
#
# Indices 1 2 3 4 5 6 
#
# 1 84.5211 4.2782 27.8559 0.0000 0.0000 0.0000
# 2 4.2782 74.1882 -8.0621 0.0000 0.0000 0.0000
# 3 27.8559 -8.0621 67.2687 0.0000 0.0000 0.0000
# 4 0.0000 0.0000 0.0000 28.4082 0.0000 0.0000
# 5 0.0000 0.0000 0.0000 0.0000 26.1189 0.0000
# 6 0.0000 0.0000 0.0000 0.0000 0.0000 18.0801
#
#
#
# Elastic Compliance Matrix: (Units=1/GPa)
#
#
# Indices 1 2 3 4 5 6 
#
# 1 0.013852 -0.001441 -0.005909 0.000000 0.000000 0.000000
# 2 -0.001441 0.013807 0.002251 0.000000 0.000000 0.000000
# 3 -0.005909 0.002251 0.017582 0.000000 0.000000 0.000000
# 4 0.000000 0.000000 0.000000 0.035201 0.000000 0.000000
# 5 0.000000 0.000000 0.000000 0.000000 0.038286 0.000000
# 6 0.000000 0.000000 0.000000 0.000000 0.000000 0.055309
#
#
# Mechanical properties :
#
#
# Convention : Reuss Voigt Hill
#
# Bulk Modulus (GPa) = 28.53492 30.45799 29.49645
# Shear Modulus (GPa) = 25.52119 27.98184 26.75152
#
# Velocity S-wave (km/s) = 3.30957 3.46545 3.38840
# Velocity P-wave (km/s) = 5.18180 5.39300 5.28845
#
# Compressibility (1/GPa) = 0.03504479
#
# Stress axis : x y z
#
# Youngs Moduli (GPa) = 72.19371 72.42711 56.87529
#
# Poissons Ratio (x) = 0.10436 0.33605
# Poissons Ratio (y) = 0.10402 -0.12805
# Poissons Ratio (z) = 0.42657 -0.16306
#
# Static dielectric constant tensor:
#      x y z
#    x 1.934880 0.000000 0.000000 
#    y 0.000000 1.894520 0.000000 
#    z 0.000000 0.000000 2.051860 
# 
# From -- ./inp_files/6968.got.cif
#   From: 2010.05.17/outbox.cif.g08.bks.cpg/sg46_4_cif.got.tgz:6968.got - 2010.06.03 19:58:25.
