data_PCOD9380211
_publ_section_title
;
Structure prediction by ZEFSAII (Michael W. Deem and Ramdas Pophale) SiO2 
 PCOD9380211
Probable space group: I M A 2
;
_chemical_formula_sum "Si O2"
_cell_formula_units_Z 64
_cell_length_a 8.478338
_cell_length_b 24.436110
_cell_length_c 15.960341
_cell_angle_alpha 90.000000
_cell_angle_beta 90.000000
_cell_angle_gamma 90.000000
_cell_volume 3306.625143
_symmetry_space_group_name_H-M "I M A 2"
_symmetry_group_IT_number 46
_symmetry_cell_setting 'orthorhombic'
loop_
_space_group_symop_operation_xyz
x,y,z
-x,-y,z
1/2-x,y,z
1/2+x,-y,z
1/2+x,1/2+y,1/2+z
1/2-x,1/2-y,1/2+z
-x,1/2+y,1/2+z
x,1/2-y,1/2+z
loop_
_atom_site_type_symbol
_atom_site_label
_atom_site_fract_x
_atom_site_fract_y
_atom_site_fract_z
Si Si1 0.058069 0.133934 0.891180
Si Si2 0.941002 0.635073 0.577337
Si Si3 0.938894 0.746066 0.832503
Si Si4 0.938489 0.561634 0.733742
Si Si5 0.061752 0.630087 0.890599
Si Si6 0.559585 0.130896 0.578166
Si Si7 0.061028 0.438399 0.234331
Si Si8 0.060605 0.750492 0.142664
O O1 0.250000 0.133333 0.889090
O O2 0.010336 0.196613 0.873628
O O3 0.002807 0.095395 0.815720
O O4 0.009110 0.116745 0.984420
O O5 0.750000 0.636515 0.579424
O O6 0.995657 0.595842 0.652562
O O7 0.002124 0.696131 0.594054
O O8 0.750000 0.741045 0.839523
O O9 0.017071 0.693050 0.873274
O O10 0.985883 0.748064 0.735026
O O11 0.750000 0.560697 0.730714
O O12 0.000000 0.500000 0.732843
O O13 0.989649 0.593174 0.817569
O O14 0.250000 0.624532 0.887029
O O15 0.007545 0.615366 0.984484
O O16 0.750000 0.128142 0.580538
O O17 0.493442 0.092563 0.650707
O O18 0.514758 0.193738 0.598145
O O19 0.250000 0.438691 0.236238
O O20 0.000000 0.500000 0.235963
O O21 0.250000 0.752025 0.150039
#
# Coordination Sequence:
#
# PCOD9380211 Si02
#       8
#     8   8   8   8   8   8   8   8
#     4   9  20  38  61  89 120 156 197 241 291 351
#     4  10  21  39  62  88 120 156 197 242 292 354
#     4  11  20  35  60  90 122 159 198 235 291 355
#     4  11  24  41  62  86 116 156 203 248 297 352
#     4  11  23  40  62  89 123 156 195 247 300 355
#     4  10  23  41  61  89 122 158 197 243 299 356
#     4  11  23  41  63  87 118 157 203 250 298 350
#     4  11  21  35  59  90 124 157 194 239 294 353
#
# _framework density 19.355081999999999
#
# number of rings (size 3 to 8) (size 9 to 14) (size 15 to 20)
#    0.000    1.500    2.500    2.625    0.000    3.000 
#    0.000    1.875    0.000    0.000    0.000    0.000 
#    0.000    0.000    0.000    0.000    0.000    0.000 
#
# Total GULP energy -178856.446544 kJ/mol
# GULP energy per Si atom -5589.263955 kJ/mol
# Density = 1.931103 g / cm^3
# Si number density = 19.355082 Si / 1000 Ang^3
#
#
#
# Elastic Constant Matrix: (Units=GPa)
#
#
# Indices 1 2 3 4 5 6 
#
# 1 20.8813 19.5842 21.0426 0.0000 0.0000 0.0000
# 2 19.5842 155.5978 86.6133 0.0001 0.0000 0.0000
# 3 21.0426 86.6133 186.4546 0.0002 0.0000 0.0000
# 4 0.0000 0.0001 0.0002 -1.5959 0.0000 0.0000
# 5 0.0000 0.0000 0.0000 0.0000 18.3273 0.0000
# 6 0.0000 0.0000 0.0000 0.0000 0.0000 16.9197
#
#
#
# Elastic Compliance Matrix: (Units=1/GPa)
#
#
# Indices 1 2 3 4 5 6 
#
# 1 0.056585 -0.004811 -0.004151 0.000000 0.000000 0.000000
# 2 -0.004811 0.009077 -0.003674 0.000000 0.000000 0.000000
# 3 -0.004151 -0.003674 0.007538 0.000001 0.000000 0.000000
# 4 0.000000 0.000000 0.000001 -0.626622 0.000000 0.000000
# 5 0.000000 0.000000 0.000000 0.000000 0.054563 0.000000
# 6 0.000000 0.000000 0.000000 0.000000 0.000000 0.059103
#
#
# Mechanical properties :
#
#
# Convention : Reuss Voigt Hill
#
# Bulk Modulus (GPa) = 20.86431 68.60154 44.73293
# Shear Modulus (GPa) = -12.54685 22.44314 4.94814
#
# Velocity S-wave (km/s) = -2.54883 3.40891 1.60064
# Velocity P-wave (km/s) = 1.46326 7.14247 5.15538
#
# Compressibility (1/GPa) = 0.04792872
#
# Stress axis : x y z
#
# Youngs Moduli (GPa) = 17.67244 110.16421 132.65729
#
# Poissons Ratio (x) = 0.53005 0.55066
# Poissons Ratio (y) = 0.08503 0.48734
# Poissons Ratio (z) = 0.07336 0.40471
#
# Static dielectric constant tensor:
#      x y z
#    x 1.664690 0.000000 0.000000 
#    y 0.000000 1.640890 0.000000 
#    z 0.000000 0.000000 1.681270 
# 
# From -- ./inp_files/14536.got.cif
#   From: 2010.05.17/outbox.cif.g08.bks.cpg/sg46_8_cif.got.tgz:14536.got - 2010.06.03 19:58:25.
