data_PCOD9380444
_publ_section_title
;
Structure prediction by ZEFSAII (Michael W. Deem and Ramdas Pophale) SiO2 
 PCOD9380444
Probable space group: I M A 2
;
_chemical_formula_sum "Si O2"
_cell_formula_units_Z 44
_cell_length_a 9.673295
_cell_length_b 17.128373
_cell_length_c 13.608455
_cell_angle_alpha 90.000000
_cell_angle_beta 90.000000
_cell_angle_gamma 90.000000
_cell_volume 2254.755037
_symmetry_space_group_name_H-M "I M A 2"
_symmetry_group_IT_number 46
_symmetry_cell_setting 'orthorhombic'
loop_
_space_group_symop_operation_xyz
x,y,z
-x,-y,z
1/2-x,y,z
1/2+x,-y,z
1/2+x,1/2+y,1/2+z
1/2-x,1/2-y,1/2+z
-x,1/2+y,1/2+z
x,1/2-y,1/2+z
loop_
_atom_site_type_symbol
_atom_site_label
_atom_site_fract_x
_atom_site_fract_y
_atom_site_fract_z
Si Si1 0.084504 0.215963 0.292220
Si Si2 0.085488 0.731118 0.975880
Si Si3 0.000000 0.000000 0.786841
Si Si4 0.091728 0.844639 0.690606
Si Si5 0.903428 0.614657 0.455963
Si Si6 0.595092 0.932958 0.174426
O O1 0.250000 0.220862 0.302001
O O2 0.052030 0.152286 0.209380
O O3 0.004945 0.190955 0.390632
O O4 0.017056 0.296491 0.255997
O O5 0.250000 0.734575 0.955501
O O6 0.019584 0.818660 0.971693
O O7 0.068476 0.684837 0.078762
O O8 0.919543 0.943837 0.864228
O O9 0.074573 0.936219 0.716983
O O10 0.250000 0.822644 0.716241
O O11 0.750000 0.652109 0.450813
O O12 0.904959 0.566403 0.556839
O O13 0.750000 0.945765 0.209814
O O14 0.500000 0.000000 0.214834
#
# Coordination Sequence:
#
# PCOD9380444 Si02
#       6
#     8   8   4   8   8   8
#     4  11  23  41  66  94 127 170 220 272 331 400
#     4  11  24  42  65  91 128 172 219 269 323 399
#     4  12  24  40  68 100 136 174 222 282 342 394
#     4  11  25  43  65  98 134 174 222 274 339 400
#     4  11  22  38  63  96 129 162 209 265 327 393
#     4  10  22  39  61  94 128 162 209 268 328 389
#
# _framework density 19.514315
#
# number of rings (size 3 to 8) (size 9 to 14) (size 15 to 20)
#    0.000    1.091    4.545    1.636    0.000    4.364 
#    1.636    0.000    0.000    0.000    0.000    0.000 
#    0.000    0.000    0.000    0.000    0.000    0.000 
#
# Total GULP energy -122606.994434 kJ/mol
# GULP energy per Si atom -5573.045202 kJ/mol
# Density = 1.946990 g / cm^3
# Si number density = 19.514315 Si / 1000 Ang^3
#
#
#
# Elastic Constant Matrix: (Units=GPa)
#
#
# Indices 1 2 3 4 5 6 
#
# 1 112.0279 50.6093 55.1858 0.0000 0.0000 0.0000
# 2 50.6093 113.4220 39.4039 0.0000 0.0000 0.0000
# 3 55.1858 39.4039 106.3414 0.0000 0.0000 0.0000
# 4 0.0000 0.0000 0.0000 37.3753 0.0000 0.0000
# 5 0.0000 0.0000 0.0000 0.0000 21.1331 0.0000
# 6 0.0000 0.0000 0.0000 0.0000 0.0000 32.1525
#
#
#
# Elastic Compliance Matrix: (Units=1/GPa)
#
#
# Indices 1 2 3 4 5 6 
#
# 1 0.013480 -0.004114 -0.005471 0.000000 0.000000 0.000000
# 2 -0.004114 0.011375 -0.002080 0.000000 0.000000 0.000000
# 3 -0.005471 -0.002080 0.013013 0.000000 0.000000 0.000000
# 4 0.000000 0.000000 0.000000 0.026756 0.000000 0.000000
# 5 0.000000 0.000000 0.000000 0.000000 0.047319 0.000000
# 6 0.000000 0.000000 0.000000 0.000000 0.000000 0.031102
#
#
# Mechanical properties :
#
#
# Convention : Reuss Voigt Hill
#
# Bulk Modulus (GPa) = 68.78294 69.13215 68.95755
# Shear Modulus (GPa) = 29.20200 30.57165 29.88683
#
# Velocity S-wave (km/s) = 3.87258 3.96236 3.91773
# Velocity P-wave (km/s) = 7.43773 7.51246 7.47519
#
# Compressibility (1/GPa) = 0.01453849
#
# Stress axis : x y z
#
# Youngs Moduli (GPa) = 74.18411 87.91252 76.84330
#
# Poissons Ratio (x) = 0.36169 0.42041
# Poissons Ratio (y) = 0.30520 0.15982
# Poissons Ratio (z) = 0.40586 0.18285
#
# Static dielectric constant tensor:
#      x y z
#    x 1.694820 0.000000 0.000000 
#    y 0.000000 1.711090 0.000000 
#    z 0.000000 0.000000 1.725420 
# 
# From -- ./inp_files/13840.got.cif
#   From: 2010.05.17/outbox.cif.g08.bks.cpg/sg46_7_cif.got.tgz:13840.got - 2010.06.03 19:58:25.
