data_PCOD9380074
_publ_section_title
;
Structure prediction by ZEFSAII (Michael W. Deem and Ramdas Pophale) SiO2 
 PCOD9380074
Probable space group: I M A 2
;
_chemical_formula_sum "Si O2"
_cell_formula_units_Z 64
_cell_length_a 23.439602
_cell_length_b 9.634920
_cell_length_c 13.731305
_cell_angle_alpha 90.000000
_cell_angle_beta 90.000000
_cell_angle_gamma 90.000000
_cell_volume 3101.059935
_symmetry_space_group_name_H-M "I M A 2"
_symmetry_group_IT_number 46
_symmetry_cell_setting 'orthorhombic'
loop_
_space_group_symop_operation_xyz
x,y,z
-x,-y,z
1/2-x,y,z
1/2+x,-y,z
1/2+x,1/2+y,1/2+z
1/2-x,1/2-y,1/2+z
-x,1/2+y,1/2+z
x,1/2-y,1/2+z
loop_
_atom_site_type_symbol
_atom_site_label
_atom_site_fract_x
_atom_site_fract_y
_atom_site_fract_z
Si Si1 0.186131 0.248153 0.125000
Si Si2 0.442560 0.412187 0.447000
Si Si3 0.589672 0.552228 0.673341
Si Si4 0.186514 0.738920 0.959873
Si Si5 0.814521 0.938698 0.935289
Si Si6 0.683076 0.429315 0.156861
Si Si7 0.891638 0.271298 0.779237
Si Si8 0.987881 0.650719 0.850887
O O1 0.250000 0.230124 0.162196
O O2 0.142883 0.154012 0.182962
O O3 0.171947 0.409782 0.134082
O O4 0.185071 0.183176 0.016079
O O5 0.500000 0.500000 0.419793
O O6 0.432471 0.440162 0.562321
O O7 0.380224 0.435600 0.395163
O O8 0.455928 0.252345 0.423838
O O9 0.608102 0.397713 0.702723
O O10 0.545428 0.608413 0.752779
O O11 0.250000 0.704822 0.924451
O O12 0.143116 0.695930 0.876773
O O13 0.185505 0.904702 0.978198
O O14 0.176174 0.656927 0.058162
O O15 0.750000 0.926805 0.886965
O O16 0.750000 0.414285 0.187209
O O17 0.640026 0.360082 0.232758
O O18 0.956502 0.266022 0.814866
O O19 0.000000 0.500000 0.897762
#
# Coordination Sequence:
#
# PCOD9380074 Si02
#       8
#     8   8   8   8   8   8   8   8
#     4   9  19  36  59  87 120 159 200 248 310 374
#     4  11  21  39  66  91 120 164 211 258 317 380
#     4  10  23  42  61  85 122 164 205 252 315 379
#     4  10  21  37  61  92 122 160 209 257 309 371
#     4   9  19  37  60  87 121 161 204 250 308 373
#     4  10  21  38  60  91 128 162 207 263 314 375
#     4  11  22  39  63  88 121 161 207 259 311 371
#     4  10  24  42  59  87 121 157 208 263 314 377
#
# _framework density 20.638104999999999
#
# number of rings (size 3 to 8) (size 9 to 14) (size 15 to 20)
#    0.000    2.000    0.000    3.750    0.000    9.000 
#    0.000    2.500    0.000    0.750    0.000    0.000 
#    0.000    0.000    0.000    0.000    0.000    0.000 
#
# Total GULP energy -178359.782650 kJ/mol
# GULP energy per Si atom -5573.743208 kJ/mol
# Density = 2.059113 g / cm^3
# Si number density = 20.638105 Si / 1000 Ang^3
#
#
#
# Elastic Constant Matrix: (Units=GPa)
#
#
# Indices 1 2 3 4 5 6 
#
# 1 133.0197 65.8016 34.0636 0.0000 0.0000 0.0000
# 2 65.8016 116.5130 60.0293 0.0000 0.0000 0.0000
# 3 34.0636 60.0293 67.6410 0.0000 0.0000 0.0000
# 4 0.0000 0.0000 0.0000 25.6837 0.0000 0.0000
# 5 0.0000 0.0000 0.0000 0.0000 13.4594 0.0000
# 6 0.0000 0.0000 0.0000 0.0000 0.0000 9.6823
#
#
#
# Elastic Compliance Matrix: (Units=1/GPa)
#
#
# Indices 1 2 3 4 5 6 
#
# 1 0.010432 -0.005868 -0.000046 0.000000 0.000000 0.000000
# 2 -0.005868 0.019114 -0.014008 0.000000 0.000000 0.000000
# 3 -0.000046 -0.014008 0.027238 0.000000 0.000000 0.000000
# 4 0.000000 0.000000 0.000000 0.038935 0.000000 0.000000
# 5 0.000000 0.000000 0.000000 0.000000 0.074298 0.000000
# 6 0.000000 0.000000 0.000000 0.000000 0.000000 0.103281
#
#
# Mechanical properties :
#
#
# Convention : Reuss Voigt Hill
#
# Bulk Modulus (GPa) = 59.02813 70.77362 64.90088
# Shear Modulus (GPa) = 15.68435 20.25036 17.96736
#
# Velocity S-wave (km/s) = 2.75975 3.13583 2.95378
# Velocity P-wave (km/s) = 6.23045 6.89045 6.56875
#
# Compressibility (1/GPa) = 0.01694107
#
# Stress axis : x y z
#
# Youngs Moduli (GPa) = 95.85707 52.31837 36.71277
#
# Poissons Ratio (x) = 0.30700 0.00169
# Poissons Ratio (y) = 0.56249 0.51426
# Poissons Ratio (z) = 0.00440 0.73286
#
# Static dielectric constant tensor:
#      x y z
#    x 1.768550 0.000000 0.000000 
#    y 0.000000 1.719700 0.000000 
#    z 0.000000 0.000000 1.732250 
# 
# From -- ./inp_files/17445.got.cif
#   From: 2010.05.17/outbox.cif.g08.bks.cpg/sg46_9_cif.got.tgz:17445.got - 2010.06.03 19:58:25.
