data_PCOD9380862
_publ_section_title
;
Structure prediction by ZEFSAII (Michael W. Deem and Ramdas Pophale) SiO2 
 PCOD9380862
Probable space group: I M A 2
;
_chemical_formula_sum "Si O2"
_cell_formula_units_Z 48
_cell_length_a 9.835148
_cell_length_b 8.582569
_cell_length_c 28.408935
_cell_angle_alpha 90.000000
_cell_angle_beta 90.000000
_cell_angle_gamma 90.000000
_cell_volume 2398.021963
_symmetry_space_group_name_H-M "I M A 2"
_symmetry_group_IT_number 46
_symmetry_cell_setting 'orthorhombic'
loop_
_space_group_symop_operation_xyz
x,y,z
-x,-y,z
1/2-x,y,z
1/2+x,-y,z
1/2+x,1/2+y,1/2+z
1/2-x,1/2-y,1/2+z
-x,1/2+y,1/2+z
x,1/2-y,1/2+z
loop_
_atom_site_type_symbol
_atom_site_label
_atom_site_fract_x
_atom_site_fract_y
_atom_site_fract_z
Si Si1 0.480168 0.811518 0.846060
Si Si2 0.411794 0.153030 0.528123
Si Si3 0.250000 0.201671 0.797998
Si Si4 0.250000 0.825174 0.776256
Si Si5 0.250000 0.657750 0.166694
Si Si6 0.913744 0.161314 0.950964
Si Si7 0.015262 0.184055 0.124020
Si Si8 0.250000 0.213219 0.689762
O O1 0.623779 0.749874 0.829562
O O2 0.379248 0.766272 0.804514
O O3 0.427232 0.772531 0.897853
O O4 0.500000 0.000000 0.846308
O O5 0.250000 0.128390 0.517067
O O6 0.500209 0.233924 0.486971
O O7 0.422401 0.254543 0.575343
O O8 0.500000 0.000000 0.538695
O O9 0.250000 0.256134 0.744512
O O10 0.250000 0.013040 0.787187
O O11 0.250000 0.786848 0.721312
O O12 0.379173 0.722488 0.138243
O O13 0.250000 0.470756 0.174974
O O14 0.750000 0.143538 0.961528
O O15 0.000000 0.000000 0.951443
O O16 0.118095 0.216793 0.166009
O O17 0.000000 0.000000 0.119379
#
# Coordination Sequence:
#
# PCOD9380862 Si02
#       8
#     8   8   4   4   4   8   8   4
#     4   9  17  30  54  90 130 165 214 270 326 380
#     4  12  27  47  71  95 128 169 223 280 342 414
#     4   9  18  29  58  87 128 165 216 277 322 381
#     4   9  16  33  52  93 124 165 216 271 324 371
#     4  11  23  37  70  95 132 179 220 279 324 393
#     4  11  23  39  66 100 138 174 218 274 336 399
#     4  12  26  43  66  96 134 172 220 273 338 403
#     4  11  21  43  62  99 132 173 230 273 332 387
#
# _framework density 20.016497999999999
#
# number of rings (size 3 to 8) (size 9 to 14) (size 15 to 20)
#    0.000    1.333    1.667    4.500    7.000    2.667 
#    0.000    0.000    0.000    6.000    0.000    0.000 
#    0.000    0.000    0.000    0.000    0.000    0.000 
#
# Total GULP energy -133855.879125 kJ/mol
# GULP energy per Si atom -5577.328297 kJ/mol
# Density = 1.997094 g / cm^3
# Si number density = 20.016498 Si / 1000 Ang^3
#
#
#
# Elastic Constant Matrix: (Units=GPa)
#
#
# Indices 1 2 3 4 5 6 
#
# 1 184.5019 20.5620 42.6639 0.0000 0.0000 0.0000
# 2 20.5620 65.0637 19.0298 0.0000 0.0000 0.0000
# 3 42.6639 19.0298 97.8503 0.0000 0.0000 0.0000
# 4 0.0000 0.0000 0.0000 24.1188 0.0000 0.0000
# 5 0.0000 0.0000 0.0000 0.0000 40.2215 0.0000
# 6 0.0000 0.0000 0.0000 0.0000 0.0000 -2.7554
#
#
#
# Elastic Compliance Matrix: (Units=1/GPa)
#
#
# Indices 1 2 3 4 5 6 
#
# 1 0.006118 -0.001223 -0.002430 0.000000 0.000000 0.000000
# 2 -0.001223 0.016541 -0.002684 0.000000 0.000000 0.000000
# 3 -0.002430 -0.002684 0.011801 0.000000 0.000000 0.000000
# 4 0.000000 0.000000 0.000000 0.041461 0.000000 0.000000
# 5 0.000000 0.000000 0.000000 0.000000 0.024862 0.000000
# 6 0.000000 0.000000 0.000000 0.000000 0.000000 -0.362922
#
#
# Mechanical properties :
#
#
# Convention : Reuss Voigt Hill
#
# Bulk Modulus (GPa) = 45.89786 56.88080 51.38933
# Shear Modulus (GPa) = -20.64381 29.99432 4.67526
#
# Velocity S-wave (km/s) = -3.21493 3.87522 1.52996
# Velocity P-wave (km/s) = 3.03294 6.96432 5.37124
#
# Compressibility (1/GPa) = 0.02178751
#
# Stress axis : x y z
#
# Youngs Moduli (GPa) = 163.44847 60.45605 84.73845
#
# Poissons Ratio (x) = 0.07393 0.20589
# Poissons Ratio (y) = 0.19987 0.22741
# Poissons Ratio (z) = 0.39714 0.16224
#
# Static dielectric constant tensor:
#      x y z
#    x 1.686170 0.000000 0.000000 
#    y 0.000000 1.746860 0.000000 
#    z 0.000000 0.000000 1.684380 
# 
# From -- ./inp_files/25069.got.cif
#   From: 2010.05.17/outbox.cif.g08.bks.cpg/sg46_13_cif.got.tgz:25069.got - 2010.06.03 19:58:25.
