data_PCOD9380071
_publ_section_title
;
Structure prediction by ZEFSAII (Michael W. Deem and Ramdas Pophale) SiO2 
 PCOD9380071
Probable space group: I M A 2
;
_chemical_formula_sum "Si O2"
_cell_formula_units_Z 64
_cell_length_a 14.695346
_cell_length_b 9.020195
_cell_length_c 22.864962
_cell_angle_alpha 90.000000
_cell_angle_beta 90.000000
_cell_angle_gamma 90.000000
_cell_volume 3030.862443
_symmetry_space_group_name_H-M "I M A 2"
_symmetry_group_IT_number 46
_symmetry_cell_setting 'orthorhombic'
loop_
_space_group_symop_operation_xyz
x,y,z
-x,-y,z
1/2-x,y,z
1/2+x,-y,z
1/2+x,1/2+y,1/2+z
1/2-x,1/2-y,1/2+z
-x,1/2+y,1/2+z
x,1/2-y,1/2+z
loop_
_atom_site_type_symbol
_atom_site_label
_atom_site_fract_x
_atom_site_fract_y
_atom_site_fract_z
Si Si1 0.486166 0.350750 0.053380
Si Si2 0.644421 0.139358 0.012417
Si Si3 0.854142 0.137676 0.340216
Si Si4 0.646099 0.578982 0.948478
Si Si5 0.146150 0.420024 0.405339
Si Si6 0.517310 0.649561 0.299536
Si Si7 0.650649 0.619569 0.605862
Si Si8 0.902508 0.573716 0.735304
O O1 0.500000 0.500000 0.090744
O O2 0.573636 0.269434 0.025350
O O3 0.429828 0.228798 0.088566
O O4 0.578489 0.586701 0.002165
O O5 0.750000 0.187413 0.005546
O O6 0.640265 0.028447 0.067555
O O7 0.620458 0.037725 0.955936
O O8 0.750000 0.191734 0.348294
O O9 0.879422 0.036958 0.396893
O O10 0.929477 0.262115 0.325407
O O11 0.856269 0.026951 0.284782
O O12 0.750000 0.543297 0.965134
O O13 0.645754 0.749971 0.927301
O O14 0.250000 0.454324 0.388215
O O15 0.078606 0.413941 0.351801
O O16 0.500000 0.500000 0.262966
O O17 0.575595 0.768243 0.263773
O O18 0.750000 0.683469 0.589440
O O19 0.647974 0.585648 0.674250
O O20 0.000000 0.500000 0.722458
#
# Coordination Sequence:
#
# PCOD9380071 Si02
#       8
#     8   8   8   8   8   8   8   8
#     4  12  26  38  64  91 130 167 204 252 309 371
#     4  10  23  42  64  93 124 162 208 256 308 367
#     4  10  22  41  63  92 126 163 208 257 306 368
#     4  10  21  37  61  92 124 158 204 253 306 365
#     4  10  21  37  61  91 124 158 204 256 306 364
#     4  11  25  38  63  92 130 166 206 251 310 372
#     4  11  23  42  67  91 118 159 210 260 312 369
#     4  10  21  39  65  92 119 159 209 255 311 368
#
# _framework density 21.116102000000001
#
# number of rings (size 3 to 8) (size 9 to 14) (size 15 to 20)
#    0.000    1.500    2.500    1.875    3.500    2.500 
#    0.000    2.500    0.000    0.000    0.000    0.000 
#    0.000    0.000    0.000    0.000    0.000    0.000 
#
# Total GULP energy -178848.663144 kJ/mol
# GULP energy per Si atom -5589.020723 kJ/mol
# Density = 2.106804 g / cm^3
# Si number density = 21.116102 Si / 1000 Ang^3
#
#
#
# Elastic Constant Matrix: (Units=GPa)
#
#
# Indices 1 2 3 4 5 6 
#
# 1 79.6400 38.1602 28.0722 0.0000 0.0000 0.0000
# 2 38.1602 132.4702 31.9780 0.0000 0.0000 0.0000
# 3 28.0722 31.9780 94.4547 0.0000 0.0000 0.0000
# 4 0.0000 0.0000 0.0000 -4.8706 0.0000 0.0000
# 5 0.0000 0.0000 0.0000 0.0000 27.8434 0.0000
# 6 0.0000 0.0000 0.0000 0.0000 0.0000 8.5301
#
#
#
# Elastic Compliance Matrix: (Units=1/GPa)
#
#
# Indices 1 2 3 4 5 6 
#
# 1 0.015493 -0.003650 -0.003369 0.000000 0.000000 0.000000
# 2 -0.003650 0.009080 -0.001990 0.000000 0.000000 0.000000
# 3 -0.003369 -0.001990 0.012262 0.000000 0.000000 0.000000
# 4 0.000000 0.000000 0.000000 -0.205314 0.000000 0.000000
# 5 0.000000 0.000000 0.000000 0.000000 0.035915 0.000000
# 6 0.000000 0.000000 0.000000 0.000000 0.000000 0.117232
#
#
# Mechanical properties :
#
#
# Convention : Reuss Voigt Hill
#
# Bulk Modulus (GPa) = 53.13797 55.88730 54.51264
# Shear Modulus (GPa) = 558.21548 20.19088 289.20318
#
# Velocity S-wave (km/s) = 16.27665 3.09558 11.71563
# Velocity P-wave (km/s) = 19.45401 6.26905 14.45267
#
# Compressibility (1/GPa) = 0.01881894
#
# Stress axis : x y z
#
# Youngs Moduli (GPa) = 64.54621 110.12618 81.55347
#
# Poissons Ratio (x) = 0.40193 0.27474
# Poissons Ratio (y) = 0.23557 0.16225
# Poissons Ratio (z) = 0.21745 0.21910
#
# Static dielectric constant tensor:
#      x y z
#    x 1.799830 0.000000 0.000000 
#    y 0.000000 1.867220 0.000000 
#    z 0.000000 0.000000 1.738620 
# 
# From -- ./inp_files/23698.got.cif
#   From: 2010.05.17/outbox.cif.g08.bks.cpg/sg46_12_cif.got.tgz:23698.got - 2010.06.03 19:58:25.
