data_PCOD9380280
_publ_section_title
;
Structure prediction by ZEFSAII (Michael W. Deem and Ramdas Pophale) SiO2 
 PCOD9380280
Probable space group: I M A 2
;
_chemical_formula_sum "Si O2"
_cell_formula_units_Z 56
_cell_length_a 19.691041
_cell_length_b 14.525613
_cell_length_c 7.107914
_cell_angle_alpha 90.000000
_cell_angle_beta 90.000000
_cell_angle_gamma 90.000000
_cell_volume 2033.037129
_symmetry_space_group_name_H-M "I M A 2"
_symmetry_group_IT_number 46
_symmetry_cell_setting 'orthorhombic'
loop_
_space_group_symop_operation_xyz
x,y,z
-x,-y,z
1/2-x,y,z
1/2+x,-y,z
1/2+x,1/2+y,1/2+z
1/2-x,1/2-y,1/2+z
-x,1/2+y,1/2+z
x,1/2-y,1/2+z
loop_
_atom_site_type_symbol
_atom_site_label
_atom_site_fract_x
_atom_site_fract_y
_atom_site_fract_z
Si Si1 0.972532 0.633873 0.737060
Si Si2 0.496218 0.348938 0.174396
Si Si3 0.823877 0.216363 0.936278
Si Si4 0.383311 0.886645 0.280054
Si Si5 0.147926 0.127153 0.769115
Si Si6 0.140799 0.564080 0.177121
Si Si7 0.824970 0.664165 0.831215
O O1 0.994607 0.737947 0.679021
O O2 0.890416 0.630170 0.708931
O O3 0.044361 0.581344 0.695272
O O4 0.976319 0.624557 0.963270
O O5 0.433105 0.374337 0.305018
O O6 0.562471 0.407732 0.219905
O O7 0.750000 0.260468 0.946835
O O8 0.883863 0.290201 0.902730
O O9 0.823063 0.154504 0.750224
O O10 0.837868 0.146860 0.107522
O O11 0.356021 0.949880 0.449846
O O12 0.173524 0.223881 0.845071
O O13 0.165014 0.137437 0.547486
O O14 0.167889 0.021700 0.797085
O O15 0.750000 0.635681 0.761721
#
# Coordination Sequence:
#
# PCOD9380280 Si02
#       7
#     8   8   8   8   8   8   8
#     4   9  17  32  60  93 120 168 216 253 315 396
#     4   9  17  33  62  94 127 163 208 264 321 385
#     4  12  24  38  61  94 133 177 221 260 323 400
#     4  11  21  40  64  95 135 178 219 263 322 396
#     4  10  22  41  65  94 125 166 216 275 337 390
#     4  11  23  40  67  95 132 173 218 273 323 391
#     4  10  21  40  65  90 124 166 215 274 340 393
#
# _framework density 27.544996999999999
#
# number of rings (size 3 to 8) (size 9 to 14) (size 15 to 20)
#    0.000    1.714    2.857    2.143    0.000    1.714 
#    2.571    0.000    0.000    1.714    0.000    0.000 
#    0.000    0.000    0.000    0.000    0.000    0.000 
#
# Total GULP energy -156253.696576 kJ/mol
# GULP energy per Si atom -5580.489163 kJ/mol
# Density = 2.748230 g / cm^3
# Si number density = 27.544997 Si / 1000 Ang^3
#
#
#
# Elastic Constant Matrix: (Units=GPa)
#
#
# Indices 1 2 3 4 5 6 
#
# 1 190.7709 -4.1547 22.1815 0.0000 0.0000 0.0000
# 2 -4.1547 89.6982 3.3493 0.0000 0.0000 0.0000
# 3 22.1815 3.3493 71.9058 0.0000 0.0000 0.0000
# 4 0.0000 0.0000 0.0000 33.8690 0.0000 0.0000
# 5 0.0000 0.0000 0.0000 0.0000 25.0351 0.0000
# 6 0.0000 0.0000 0.0000 0.0000 0.0000 -57.7310
#
#
#
# Elastic Compliance Matrix: (Units=1/GPa)
#
#
# Indices 1 2 3 4 5 6 
#
# 1 0.005446 0.000316 -0.001695 0.000000 0.000000 0.000000
# 2 0.000316 0.011186 -0.000618 0.000000 0.000000 0.000000
# 3 -0.001695 -0.000618 0.014459 0.000000 0.000000 0.000000
# 4 0.000000 0.000000 0.000000 0.029526 0.000000 0.000000
# 5 0.000000 0.000000 0.000000 0.000000 0.039944 0.000000
# 6 0.000000 0.000000 0.000000 0.000000 0.000000 -0.017322
#
#
# Mechanical properties :
#
#
# Convention : Reuss Voigt Hill
#
# Bulk Modulus (GPa) = 36.90623 43.90301 40.40462
# Shear Modulus (GPa) = 51.93983 22.30121 37.12052
#
# Velocity S-wave (km/s) = 4.34710 2.84848 3.67499
# Velocity P-wave (km/s) = 6.21482 5.17607 5.71908
#
# Compressibility (1/GPa) = 0.02709570
#
# Stress axis : x y z
#
# Youngs Moduli (GPa) = 183.62781 89.39588 69.16280
#
# Poissons Ratio (x) = -0.02821 0.11720
# Poissons Ratio (y) = -0.05794 0.04277
# Poissons Ratio (z) = 0.31118 0.05528
#
# Static dielectric constant tensor:
#      x y z
#    x 2.247740 0.000000 0.000000 
#    y 0.000000 2.181570 0.000000 
#    z 0.000000 0.000000 2.204250 
# 
# From -- ./inp_files/7397.got.cif
#   From: 2010.05.17/outbox.cif.g08.bks.cpg/sg46_4_cif.got.tgz:7397.got - 2010.06.03 19:58:25.
