data_PCOD9380116
_publ_section_title
;
Structure prediction by ZEFSAII (Michael W. Deem and Ramdas Pophale) SiO2 
 PCOD9380116
Probable space group: I M A 2
;
_chemical_formula_sum "Si O2"
_cell_formula_units_Z 64
_cell_length_a 8.276927
_cell_length_b 31.949644
_cell_length_c 12.277431
_cell_angle_alpha 90.000000
_cell_angle_beta 90.000000
_cell_angle_gamma 90.000000
_cell_volume 3246.703658
_symmetry_space_group_name_H-M "I M A 2"
_symmetry_group_IT_number 46
_symmetry_cell_setting 'orthorhombic'
loop_
_space_group_symop_operation_xyz
x,y,z
-x,-y,z
1/2-x,y,z
1/2+x,-y,z
1/2+x,1/2+y,1/2+z
1/2-x,1/2-y,1/2+z
-x,1/2+y,1/2+z
x,1/2-y,1/2+z
loop_
_atom_site_type_symbol
_atom_site_label
_atom_site_fract_x
_atom_site_fract_y
_atom_site_fract_z
Si Si1 0.444701 0.797713 0.531210
Si Si2 0.942200 0.455203 0.564834
Si Si3 0.055180 0.796139 0.074564
Si Si4 0.054741 0.874926 0.678480
Si Si5 0.056701 0.454922 0.040925
Si Si6 0.555104 0.569653 0.801196
Si Si7 0.443631 0.333092 0.801931
Si Si8 0.052177 0.625764 0.429409
O O1 0.250000 0.796749 0.539774
O O2 0.505254 0.750761 0.552631
O O3 0.503107 0.833180 0.615718
O O4 0.491009 0.812070 0.410818
O O5 0.750000 0.454364 0.559886
O O6 0.003107 0.414997 0.497130
O O7 0.000000 0.500000 0.521725
O O8 0.992985 0.450883 0.690789
O O9 0.250000 0.795255 0.067279
O O10 0.007332 0.810623 0.194607
O O11 0.998890 0.831733 0.989779
O O12 0.250000 0.873956 0.678979
O O13 0.000322 0.875845 0.803875
O O14 0.002561 0.916030 0.612520
O O15 0.250000 0.453815 0.039268
O O16 0.000000 0.500000 0.082675
O O17 0.997570 0.449429 0.915748
O O18 0.750000 0.567410 0.799690
O O19 0.505766 0.618323 0.799646
O O20 0.250000 0.331921 0.803205
O O21 0.250000 0.625602 0.430665
#
# Coordination Sequence:
#
# PCOD9380116 Si02
#       8
#     8   8   8   8   8   8   8   8
#     4  10  22  37  63  92 119 156 200 247 292 346
#     4  11  22  37  59  86 116 153 193 242 294 350
#     4  10  21  39  63  91 120 155 202 248 290 345
#     4  10  21  39  60  86 117 154 197 243 293 347
#     4  11  23  40  60  86 117 153 193 242 294 350
#     4  10  21  38  59  86 120 154 191 238 290 347
#     4  11  22  38  61  89 126 159 192 242 296 353
#     4   9  20  38  59  84 117 153 195 244 290 340
#
# _framework density 19.712302000000001
#
# number of rings (size 3 to 8) (size 9 to 14) (size 15 to 20)
#    0.000    1.750    2.500    1.500    1.750    3.500 
#    0.000    3.125    0.000    0.000    0.000    0.000 
#    0.000    0.000    0.000    0.000    0.000    0.000 
#
# Total GULP energy -178786.541525 kJ/mol
# GULP energy per Si atom -5587.079423 kJ/mol
# Density = 1.966744 g / cm^3
# Si number density = 19.712302 Si / 1000 Ang^3
#
#
#
# Elastic Constant Matrix: (Units=GPa)
#
#
# Indices 1 2 3 4 5 6 
#
# 1 8.5236 20.4516 10.9089 0.0000 0.0000 0.0000
# 2 20.4516 205.8787 93.3401 0.0002 0.0000 0.0000
# 3 10.9089 93.3401 159.2487 0.0002 0.0002 0.0000
# 4 0.0000 0.0002 0.0002 50.8545 -0.0001 0.0000
# 5 0.0000 0.0000 0.0002 -0.0001 -0.7658 0.0000
# 6 0.0000 0.0000 0.0000 0.0000 0.0000 22.4766
#
#
#
# Elastic Compliance Matrix: (Units=1/GPa)
#
#
# Indices 1 2 3 4 5 6 
#
# 1 0.154582 -0.014375 -0.002164 0.000000 0.000005 0.000000
# 2 -0.014375 0.007952 -0.003676 0.000000 -0.000001 0.000000
# 3 -0.002164 -0.003676 0.008582 0.000000 0.000002 0.000000
# 4 0.000000 0.000000 0.000000 0.019664 -0.000002 0.000000
# 5 0.000005 -0.000001 0.000002 -0.000002 -1.305847 -0.000002
# 6 0.000000 0.000000 0.000000 0.000000 -0.000002 0.044491
#
#
# Mechanical properties :
#
#
# Convention : Reuss Voigt Hill
#
# Bulk Modulus (GPa) = 7.65190 69.22803 38.43996
# Shear Modulus (GPa) = -5.06799 31.10975 13.02088
#
# Velocity S-wave (km/s) = -1.60517 3.97695 2.57290
# Velocity P-wave (km/s) = 0.67439 7.50224 5.32628
#
# Compressibility (1/GPa) = 0.13068658
#
# Stress axis : x y z
#
# Youngs Moduli (GPa) = 6.46907 125.75690 116.51808
#
# Poissons Ratio (x) = 1.80774 0.25211
# Poissons Ratio (y) = 0.09299 0.42833
# Poissons Ratio (z) = 0.01400 0.46229
#
# Static dielectric constant tensor:
#      x y z
#    x 1.684010 0.000000 0.000000 
#    y 0.000000 1.692450 0.000000 
#    z 0.000000 0.000000 1.658280 
# 
# From -- ./inp_files/9807.got.cif
#   From: 2010.05.17/outbox.cif.g08.bks.cpg/sg46_5_cif.got.tgz:9807.got - 2010.06.03 19:58:25.
