data_PCOD9380422
_publ_section_title
;
Structure prediction by ZEFSAII (Michael W. Deem and Ramdas Pophale) SiO2 
 PCOD9380422
Probable space group: I M A 2
;
_chemical_formula_sum "Si O2"
_cell_formula_units_Z 56
_cell_length_a 17.598314
_cell_length_b 11.568046
_cell_length_c 12.405619
_cell_angle_alpha 90.000000
_cell_angle_beta 90.000000
_cell_angle_gamma 90.000000
_cell_volume 2525.512418
_symmetry_space_group_name_H-M "I M A 2"
_symmetry_group_IT_number 46
_symmetry_cell_setting 'orthorhombic'
loop_
_space_group_symop_operation_xyz
x,y,z
-x,-y,z
1/2-x,y,z
1/2+x,-y,z
1/2+x,1/2+y,1/2+z
1/2-x,1/2-y,1/2+z
-x,1/2+y,1/2+z
x,1/2-y,1/2+z
loop_
_atom_site_type_symbol
_atom_site_label
_atom_site_fract_x
_atom_site_fract_y
_atom_site_fract_z
Si Si1 0.836440 0.332041 0.441280
Si Si2 0.662580 0.415974 0.049681
Si Si3 0.554351 0.390252 0.248308
Si Si4 0.337224 0.221857 0.789506
Si Si5 0.430870 0.421073 0.899981
Si Si6 0.437670 0.271075 0.108139
Si Si7 0.337386 0.084034 0.007969
O O1 0.750000 0.335068 0.394968
O O2 0.843566 0.216241 0.509323
O O3 0.899698 0.343384 0.349668
O O4 0.843896 0.447024 0.513058
O O5 0.750000 0.442487 0.072182
O O6 0.611883 0.428484 0.155284
O O7 0.631048 0.494859 0.953513
O O8 0.500000 0.500000 0.274186
O O9 0.504550 0.289085 0.193212
O O10 0.250000 0.256888 0.787475
O O11 0.365021 0.179402 0.673613
O O12 0.389039 0.331644 0.821687
O O13 0.345260 0.126596 0.883585
O O14 0.500000 0.500000 0.858272
O O15 0.458873 0.344349 0.002411
O O16 0.404799 0.148665 0.069905
O O17 0.250000 0.116600 0.040231
#
# Coordination Sequence:
#
# PCOD9380422 Si02
#       7
#     8   8   8   8   8   8   8
#     4  10  24  44  66  91 125 170 213 258 311 377
#     4  11  23  42  66  90 127 173 215 258 308 382
#     4  12  23  41  64  98 125 163 213 264 319 374
#     4  10  22  38  64  96 126 167 212 263 322 375
#     4  11  22  42  64  93 131 164 209 265 320 375
#     4  11  21  38  64  93 127 161 202 265 322 369
#     4   9  20  39  61  91 126 162 210 260 313 370
#
# _framework density 22.173718000000001
#
# number of rings (size 3 to 8) (size 9 to 14) (size 15 to 20)
#    0.000    1.429    2.857    2.143    2.000    2.857 
#    2.571    0.000    0.000    0.000    0.000    0.000 
#    0.000    0.000    0.000    0.000    0.000    0.000 
#
# Total GULP energy -156551.066974 kJ/mol
# GULP energy per Si atom -5591.109535 kJ/mol
# Density = 2.212325 g / cm^3
# Si number density = 22.173718 Si / 1000 Ang^3
#
#
#
# Elastic Constant Matrix: (Units=GPa)
#
#
# Indices 1 2 3 4 5 6 
#
# 1 115.8798 22.9956 14.3048 0.0000 0.0000 0.0000
# 2 22.9956 77.8800 -7.6541 0.0000 0.0000 0.0000
# 3 14.3048 -7.6541 33.7189 0.0000 0.0000 0.0000
# 4 0.0000 0.0000 0.0000 7.4851 0.0000 0.0000
# 5 0.0000 0.0000 0.0000 0.0000 24.0085 0.0000
# 6 0.0000 0.0000 0.0000 0.0000 0.0000 39.5388
#
#
#
# Elastic Compliance Matrix: (Units=1/GPa)
#
#
# Indices 1 2 3 4 5 6 
#
# 1 0.009924 -0.003420 -0.004987 0.000000 0.000000 0.000000
# 2 -0.003420 0.014312 0.004700 0.000000 0.000000 0.000000
# 3 -0.004987 0.004700 0.032839 0.000000 0.000000 0.000000
# 4 0.000000 0.000000 0.000000 0.133598 0.000000 0.000000
# 5 0.000000 0.000000 0.000000 0.000000 0.041652 0.000000
# 6 0.000000 0.000000 0.000000 0.000000 0.000000 0.025292
#
#
# Mechanical properties :
#
#
# Convention : Reuss Voigt Hill
#
# Bulk Modulus (GPa) = 20.13637 31.86348 25.99992
# Shear Modulus (GPa) = 17.75664 27.39532 22.57598
#
# Velocity S-wave (km/s) = 2.83291 3.51876 3.19429
# Velocity P-wave (km/s) = 4.44987 5.55968 5.03544
#
# Compressibility (1/GPa) = 0.04966138
#
# Stress axis : x y z
#
# Youngs Moduli (GPa) = 100.76649 69.87095 30.45131
#
# Poissons Ratio (x) = 0.23898 0.15185
# Poissons Ratio (y) = 0.34465 -0.14312
# Poissons Ratio (z) = 0.50247 -0.32838
#
# Static dielectric constant tensor:
#      x y z
#    x 1.847170 0.000000 0.000000 
#    y 0.000000 1.822560 0.000000 
#    z 0.000000 0.000000 1.812000 
# 
# From -- ./inp_files/15926.got.cif
#   From: 2010.05.17/outbox.cif.g08.bks.cpg/sg46_8_cif.got.tgz:15926.got - 2010.06.03 19:58:25.
