data_PCOD9380863
_publ_section_title
;
Structure prediction by ZEFSAII (Michael W. Deem and Ramdas Pophale) SiO2 
 PCOD9380863
Probable space group: I M A 2
;
_chemical_formula_sum "Si O2"
_cell_formula_units_Z 48
_cell_length_a 17.294646
_cell_length_b 12.277849
_cell_length_c 11.460041
_cell_angle_alpha 90.000000
_cell_angle_beta 90.000000
_cell_angle_gamma 90.000000
_cell_volume 2433.437163
_symmetry_space_group_name_H-M "I M A 2"
_symmetry_group_IT_number 46
_symmetry_cell_setting 'orthorhombic'
loop_
_space_group_symop_operation_xyz
x,y,z
-x,-y,z
1/2-x,y,z
1/2+x,-y,z
1/2+x,1/2+y,1/2+z
1/2-x,1/2-y,1/2+z
-x,1/2+y,1/2+z
x,1/2-y,1/2+z
loop_
_atom_site_type_symbol
_atom_site_label
_atom_site_fract_x
_atom_site_fract_y
_atom_site_fract_z
Si Si1 0.839591 0.842912 0.439690
Si Si2 0.840650 0.446927 0.336408
Si Si3 0.421251 0.370471 0.496370
Si Si4 0.427498 0.752777 0.405171
Si Si5 0.530224 0.886511 0.257082
Si Si6 0.412173 0.542292 0.078802
O O1 0.750000 0.845767 0.409776
O O2 0.862085 0.730874 0.503674
O O3 0.895583 0.846214 0.327973
O O4 0.863517 0.947172 0.515850
O O5 0.750000 0.473096 0.332673
O O6 0.885344 0.536229 0.415149
O O7 0.855984 0.327153 0.389233
O O8 0.876488 0.442935 0.206865
O O9 0.500714 0.322099 0.445171
O O10 0.443462 0.405835 0.626041
O O11 0.459493 0.804892 0.283961
O O12 0.413745 0.848967 0.498753
O O13 0.500000 0.000000 0.308535
O O14 0.500000 0.500000 0.091089
#
# Coordination Sequence:
#
# PCOD9380863 Si02
#       6
#     8   8   8   8   8   8
#     4  11  24  40  65  98 133 174 218 278 340 391
#     4  12  28  43  65 103 143 178 217 276 344 400
#     4  11  24  42  67  97 133 175 228 270 328 398
#     4  11  22  44  70  98 125 175 232 278 325 394
#     4  11  21  43  67  98 126 172 228 276 328 395
#     4  12  22  47  72  96 130 174 232 277 329 402
#
# _framework density 19.725186999999998
#
# number of rings (size 3 to 8) (size 9 to 14) (size 15 to 20)
#    0.000    0.667    5.000    4.500    4.667    2.667 
#    0.000    0.000    0.000    0.000    0.000    0.000 
#    0.000    0.000    0.000    0.000    0.000    0.000 
#
# Total GULP energy -134103.363355 kJ/mol
# GULP energy per Si atom -5587.640140 kJ/mol
# Density = 1.968029 g / cm^3
# Si number density = 19.725187 Si / 1000 Ang^3
#
#
#
# Elastic Constant Matrix: (Units=GPa)
#
#
# Indices 1 2 3 4 5 6 
#
# 1 78.3357 42.7606 30.4963 0.0000 0.0000 0.0000
# 2 42.7606 124.8276 51.7314 0.0000 0.0000 0.0000
# 3 30.4963 51.7314 120.9345 0.0000 0.0000 0.0000
# 4 0.0000 0.0000 0.0000 33.6642 0.0000 0.0000
# 5 0.0000 0.0000 0.0000 0.0000 21.5149 0.0000
# 6 0.0000 0.0000 0.0000 0.0000 0.0000 13.8171
#
#
#
# Elastic Compliance Matrix: (Units=1/GPa)
#
#
# Indices 1 2 3 4 5 6 
#
# 1 0.016117 -0.004663 -0.002069 0.000000 0.000000 0.000000
# 2 -0.004663 0.011087 -0.003566 0.000000 0.000000 0.000000
# 3 -0.002069 -0.003566 0.010316 0.000000 0.000000 0.000000
# 4 0.000000 0.000000 0.000000 0.029705 0.000000 0.000000
# 5 0.000000 0.000000 0.000000 0.000000 0.046479 0.000000
# 6 0.000000 0.000000 0.000000 0.000000 0.000000 0.072374
#
#
# Mechanical properties :
#
#
# Convention : Reuss Voigt Hill
#
# Bulk Modulus (GPa) = 59.09705 63.78603 61.44154
# Shear Modulus (GPa) = 23.54972 27.07321 25.31147
#
# Velocity S-wave (km/s) = 3.45902 3.70877 3.58607
# Velocity P-wave (km/s) = 6.78073 7.12373 6.95435
#
# Compressibility (1/GPa) = 0.01692132
#
# Stress axis : x y z
#
# Youngs Moduli (GPa) = 62.04738 90.19972 96.93319
#
# Poissons Ratio (x) = 0.42063 0.20059
# Poissons Ratio (y) = 0.28934 0.34571
# Poissons Ratio (z) = 0.12840 0.32169
#
# Static dielectric constant tensor:
#      x y z
#    x 1.662730 0.000000 0.000000 
#    y 0.000000 1.690590 0.000000 
#    z 0.000000 0.000000 1.695700 
# 
# From -- ./inp_files/11795.got.cif
#   From: 2010.05.17/outbox.cif.g08.bks.cpg/sg46_6_cif.got.tgz:11795.got - 2010.06.03 19:58:25.
