data_PCOD9380670
_publ_section_title
;
Structure prediction by ZEFSAII (Michael W. Deem and Ramdas Pophale) SiO2 
 PCOD9380670
Probable space group: I M A 2
;
_chemical_formula_sum "Si O2"
_cell_formula_units_Z 48
_cell_length_a 25.661204
_cell_length_b 7.472632
_cell_length_c 10.263431
_cell_angle_alpha 90.000000
_cell_angle_beta 90.000000
_cell_angle_gamma 90.000000
_cell_volume 1968.082010
_symmetry_space_group_name_H-M "I M A 2"
_symmetry_group_IT_number 46
_symmetry_cell_setting 'orthorhombic'
loop_
_space_group_symop_operation_xyz
x,y,z
-x,-y,z
1/2-x,y,z
1/2+x,-y,z
1/2+x,1/2+y,1/2+z
1/2-x,1/2-y,1/2+z
-x,1/2+y,1/2+z
x,1/2-y,1/2+z
loop_
_atom_site_type_symbol
_atom_site_label
_atom_site_fract_x
_atom_site_fract_y
_atom_site_fract_z
Si Si1 0.474417 0.197966 0.877670
Si Si2 0.809661 0.142605 0.901649
Si Si3 0.629863 0.230073 0.150006
Si Si4 0.369300 0.328733 0.749656
Si Si5 0.517181 0.202676 0.125758
Si Si6 0.690523 0.728286 0.997827
O O1 0.418288 0.224074 0.811469
O O2 0.513341 0.290948 0.779301
O O3 0.500000 0.000000 0.867210
O O4 0.476791 0.284044 0.020897
O O5 0.750000 0.190373 0.868509
O O6 0.847277 0.178371 0.779068
O O7 0.810702 0.934496 0.945853
O O8 0.829542 0.241885 0.031701
O O9 0.573450 0.282563 0.094652
O O10 0.618375 0.021033 0.186306
O O11 0.332067 0.371615 0.872254
O O12 0.341839 0.220992 0.631901
O O13 0.500000 0.000000 0.102503
O O14 0.750000 0.678647 0.025236
#
# Coordination Sequence:
#
# PCOD9380670 Si02
#       6
#     8   8   8   8   8   8
#     4  11  25  42  68  94 132 173 219 274 330 395
#     4  10  23  42  67  98 133 174 223 276 334 399
#     4  11  23  42  68  95 133 175 218 275 333 395
#     4  11  23  42  68  96 133 174 221 273 338 393
#     4  11  23  43  64  96 132 167 219 274 329 393
#     4  10  23  42  67  97 134 173 221 278 338 399
#
# _framework density 24.389227999999999
#
# number of rings (size 3 to 8) (size 9 to 14) (size 15 to 20)
#    0.000    1.333    1.667    3.000    9.333    4.000 
#    6.000    0.000    0.000    0.000    0.000    0.000 
#    0.000    0.000    0.000    0.000    0.000    0.000 
#
# Total GULP energy -133901.402780 kJ/mol
# GULP energy per Si atom -5579.225116 kJ/mol
# Density = 2.433372 g / cm^3
# Si number density = 24.389228 Si / 1000 Ang^3
#
#
#
# Elastic Constant Matrix: (Units=GPa)
#
#
# Indices 1 2 3 4 5 6 
#
# 1 143.3294 9.9049 43.2277 0.0000 0.0000 0.0000
# 2 9.9049 33.3180 8.6118 0.0000 0.0000 0.0000
# 3 43.2277 8.6118 138.8221 0.0000 0.0000 0.0000
# 4 0.0000 0.0000 0.0000 26.2220 0.0000 0.0000
# 5 0.0000 0.0000 0.0000 0.0000 73.3123 0.0000
# 6 0.0000 0.0000 0.0000 0.0000 0.0000 24.9190
#
#
#
# Elastic Compliance Matrix: (Units=1/GPa)
#
#
# Indices 1 2 3 4 5 6 
#
# 1 0.007796 -0.001718 -0.002321 0.000000 0.000000 0.000000
# 2 -0.001718 0.030881 -0.001381 0.000000 0.000000 0.000000
# 3 -0.002321 -0.001381 0.008012 0.000000 0.000000 0.000000
# 4 0.000000 0.000000 0.000000 0.038136 0.000000 0.000000
# 5 0.000000 0.000000 0.000000 0.000000 0.013640 0.000000
# 6 0.000000 0.000000 0.000000 0.000000 0.000000 0.040130
#
#
# Mechanical properties :
#
#
# Convention : Reuss Voigt Hill
#
# Bulk Modulus (GPa) = 27.89399 48.77313 38.33356
# Shear Modulus (GPa) = 30.98203 41.80566 36.39385
#
# Velocity S-wave (km/s) = 3.56802 4.14466 3.86710
# Velocity P-wave (km/s) = 5.33256 6.55329 5.97418
#
# Compressibility (1/GPa) = 0.03585001
#
# Stress axis : x y z
#
# Youngs Moduli (GPa) = 128.27724 32.38201 124.81531
#
# Poissons Ratio (x) = 0.05562 0.28969
# Poissons Ratio (y) = 0.22033 0.17235
# Poissons Ratio (z) = 0.29772 0.04472
#
# Static dielectric constant tensor:
#      x y z
#    x 1.872790 0.000000 0.000000 
#    y 0.000000 1.977850 0.000000 
#    z 0.000000 0.000000 1.976030 
# 
# From -- ./inp_files/8403.got.cif
#   From: 2010.05.17/outbox.cif.g08.bks.cpg/sg46_5_cif.got.tgz:8403.got - 2010.06.03 19:58:25.
