data_PCOD9380213
_publ_section_title
;
Structure prediction by ZEFSAII (Michael W. Deem and Ramdas Pophale) SiO2 
 PCOD9380213
Probable space group: I M A 2
;
_chemical_formula_sum "Si O2"
_cell_formula_units_Z 28
_cell_length_a 9.984628
_cell_length_b 17.780791
_cell_length_c 7.767534
_cell_angle_alpha 90.000000
_cell_angle_beta 90.000000
_cell_angle_gamma 90.000000
_cell_volume 1379.005915
_symmetry_space_group_name_H-M "I M A 2"
_symmetry_group_IT_number 46
_symmetry_cell_setting 'orthorhombic'
loop_
_space_group_symop_operation_xyz
x,y,z
-x,-y,z
1/2-x,y,z
1/2+x,-y,z
1/2+x,1/2+y,1/2+z
1/2-x,1/2-y,1/2+z
-x,1/2+y,1/2+z
x,1/2-y,1/2+z
loop_
_atom_site_type_symbol
_atom_site_label
_atom_site_fract_x
_atom_site_fract_y
_atom_site_fract_z
Si Si1 0.407036 0.814093 0.959400
Si Si2 0.000000 0.500000 0.040174
Si Si3 0.600431 0.558355 0.372381
Si Si4 0.905153 0.147012 0.360903
O O1 0.250000 0.822372 0.901336
O O2 0.513665 0.865610 0.860093
O O3 0.444422 0.726595 0.945153
O O4 0.414399 0.840281 0.156768
O O5 0.021488 0.573425 0.926820
O O6 0.111129 0.478138 0.182696
O O7 0.500000 0.500000 0.469035
O O8 0.750000 0.566884 0.445103
O O9 0.750000 0.135601 0.406189
#
# Coordination Sequence:
#
# PCOD9380213 Si02
#       4
#     8   4   8   8
#     4  10  21  39  66  90 120 160 205 249 297 358
#     4  10  22  36  60  92 126 156 200 248 296 360
#     4  10  22  39  62  88 121 158 199 247 301 357
#     4  10  21  39  62  92 122 161 203 247 300 360
#
# _framework density 20.304480999999999
#
# number of rings (size 3 to 8) (size 9 to 14) (size 15 to 20)
#    0.857    1.143    0.000    3.429    2.000    2.286 
#    0.000    8.571    0.000    0.000    0.000    0.000 
#    0.000    0.000    0.000    0.000    0.000    0.000 
#
# Total GULP energy -77967.920420 kJ/mol
# GULP energy per Si atom -5569.137173 kJ/mol
# Density = 2.025827 g / cm^3
# Si number density = 20.304481 Si / 1000 Ang^3
#
#
#
# Elastic Constant Matrix: (Units=GPa)
#
#
# Indices 1 2 3 4 5 6 
#
# 1 120.8895 71.4953 14.2985 0.0000 0.0000 0.0000
# 2 71.4953 141.7152 25.6991 -0.0001 0.0001 0.0000
# 3 14.2985 25.6991 35.5732 -0.0005 0.0002 0.0001
# 4 0.0000 -0.0001 -0.0005 39.5526 0.0001 0.0000
# 5 0.0000 0.0001 0.0002 0.0001 16.1393 0.0000
# 6 0.0000 0.0000 0.0001 0.0000 0.0000 -1.3172
#
#
#
# Elastic Compliance Matrix: (Units=1/GPa)
#
#
# Indices 1 2 3 4 5 6 
#
# 1 0.011798 -0.005860 -0.000509 0.000000 0.000000 0.000000
# 2 -0.005860 0.011031 -0.005614 0.000000 0.000000 0.000000
# 3 -0.000509 -0.005614 0.032371 0.000000 0.000000 0.000002
# 4 0.000000 0.000000 0.000000 0.025283 0.000000 0.000001
# 5 0.000000 0.000000 0.000000 0.000000 0.061960 0.000000
# 6 0.000000 0.000000 0.000002 0.000001 0.000000 -0.759202
#
#
# Mechanical properties :
#
#
# Convention : Reuss Voigt Hill
#
# Bulk Modulus (GPa) = 32.01524 57.90707 44.96115
# Shear Modulus (GPa) = -8.58540 23.32063 7.36762
#
# Velocity S-wave (km/s) = -2.05852 3.39270 1.90695
# Velocity P-wave (km/s) = 3.18619 6.62785 5.20001
#
# Compressibility (1/GPa) = 0.03123513
#
# Stress axis : x y z
#
# Youngs Moduli (GPa) = 84.76270 90.65724 30.89189
#
# Poissons Ratio (x) = 0.53122 0.01572
# Poissons Ratio (y) = 0.49668 0.17341
# Poissons Ratio (z) = 0.04313 0.50891
#
# Static dielectric constant tensor:
#      x y z
#    x 1.767240 0.000000 0.000000 
#    y 0.000000 1.755740 0.000000 
#    z 0.000000 0.000000 1.756340 
# 
# From -- ./inp_files/3215.got.cif
#   From: 2010.05.17/outbox.cif.g08.bks.cpg/sg46_2_cif.got.tgz:3215.got - 2010.06.03 19:58:25.
