data_PCOD9380613
_publ_section_title
;
Structure prediction by ZEFSAII (Michael W. Deem and Ramdas Pophale) SiO2 
 PCOD9380613
Probable space group: I M A 2
;
_chemical_formula_sum "Si O2"
_cell_formula_units_Z 40
_cell_length_a 20.983366
_cell_length_b 5.062881
_cell_length_c 14.613427
_cell_angle_alpha 90.000000
_cell_angle_beta 90.000000
_cell_angle_gamma 90.000000
_cell_volume 1552.476196
_symmetry_space_group_name_H-M "I M A 2"
_symmetry_group_IT_number 46
_symmetry_cell_setting 'orthorhombic'
loop_
_space_group_symop_operation_xyz
x,y,z
-x,-y,z
1/2-x,y,z
1/2+x,-y,z
1/2+x,1/2+y,1/2+z
1/2-x,1/2-y,1/2+z
-x,1/2+y,1/2+z
x,1/2-y,1/2+z
loop_
_atom_site_type_symbol
_atom_site_label
_atom_site_fract_x
_atom_site_fract_y
_atom_site_fract_z
Si Si1 0.941429 0.190848 0.539320
Si Si2 0.179486 0.895188 0.256905
Si Si3 0.133137 0.302113 0.592346
Si Si4 0.317095 0.216868 0.903158
Si Si5 0.067367 0.892488 0.835383
O O1 0.925109 0.485753 0.576571
O O2 0.946149 0.229111 0.428876
O O3 0.884591 0.999914 0.571587
O O4 0.000000 0.000000 0.566896
O O5 0.250000 0.794688 0.229086
O O6 0.164823 0.138627 0.189080
O O7 0.184244 0.987910 0.363009
O O8 0.112441 0.741826 0.260215
O O9 0.180729 0.353577 0.508825
O O10 0.250000 0.104697 0.865948
O O11 0.385172 0.120098 0.868560
O O12 0.000000 0.000000 0.800540
#
# Coordination Sequence:
#
# PCOD9380613 Si02
#       5
#     8   8   8   8   8
#     4  11  23  46  70 105 146 195 246 312 381 454
#     4  11  25  45  70 108 152 196 258 322 380 467
#     4  11  24  44  72 105 145 197 253 309 383 452
#     4  10  22  45  70 101 142 196 251 310 382 451
#     4  11  24  43  74 106 150 201 253 318 391 464
#
# _framework density 25.76529
#
# number of rings (size 3 to 8) (size 9 to 14) (size 15 to 20)
#    0.000    1.200    2.000    4.200    2.800    0.800 
#    3.600    2.000    0.000    0.000    0.000    0.000 
#    0.000    0.000    0.000    0.000    0.000    0.000 
#
# Total GULP energy -111445.279854 kJ/mol
# GULP energy per Si atom -5572.263993 kJ/mol
# Density = 2.570665 g / cm^3
# Si number density = 25.765290 Si / 1000 Ang^3
#
#
#
# Elastic Constant Matrix: (Units=GPa)
#
#
# Indices 1 2 3 4 5 6 
#
# 1 199.6648 27.1911 26.8574 0.0000 0.0000 0.0000
# 2 27.1911 93.8375 16.1965 0.0000 0.0000 0.0000
# 3 26.8574 16.1965 102.1035 0.0000 0.0000 0.0000
# 4 0.0000 0.0000 0.0000 44.3453 0.0000 0.0000
# 5 0.0000 0.0000 0.0000 0.0000 22.5043 0.0000
# 6 0.0000 0.0000 0.0000 0.0000 0.0000 256.6812
#
#
#
# Elastic Compliance Matrix: (Units=1/GPa)
#
#
# Indices 1 2 3 4 5 6 
#
# 1 0.005352 -0.001345 -0.001195 0.000000 0.000000 0.000000
# 2 -0.001345 0.011295 -0.001438 0.000000 0.000000 0.000000
# 3 -0.001195 -0.001438 0.010336 0.000000 0.000000 0.000000
# 4 0.000000 0.000000 0.000000 0.022550 0.000000 0.000000
# 5 0.000000 0.000000 0.000000 0.000000 0.044436 0.000000
# 6 0.000000 0.000000 0.000000 0.000000 0.000000 0.003896
#
#
# Mechanical properties :
#
#
# Convention : Reuss Voigt Hill
#
# Bulk Modulus (GPa) = 52.55218 59.56619 56.05919
# Shear Modulus (GPa) = 44.57816 86.39687 65.48751
#
# Velocity S-wave (km/s) = 4.16404 5.79699 5.04699
# Velocity P-wave (km/s) = 6.59998 8.24474 7.46778
#
# Compressibility (1/GPa) = 0.01902870
#
# Stress axis : x y z
#
# Youngs Moduli (GPa) = 186.83892 88.53819 96.74657
#
# Poissons Ratio (x) = 0.11906 0.11557
# Poissons Ratio (y) = 0.25125 0.13911
# Poissons Ratio (z) = 0.22319 0.12731
#
# Static dielectric constant tensor:
#      x y z
#    x 2.002210 0.000000 0.000000 
#    y 0.000000 2.116330 0.000000 
#    z 0.000000 0.000000 2.024060 
# 
# From -- ./inp_files/17254.got.cif
#   From: 2010.05.17/outbox.cif.g08.bks.cpg/sg46_9_cif.got.tgz:17254.got - 2010.06.03 19:58:25.
