data_PCOD9380066
_publ_section_title
;
Structure prediction by ZEFSAII (Michael W. Deem and Ramdas Pophale) SiO2 
 PCOD9380066
Probable space group: I M A 2
;
_chemical_formula_sum "Si O2"
_cell_formula_units_Z 64
_cell_length_a 8.767960
_cell_length_b 15.799405
_cell_length_c 24.222892
_cell_angle_alpha 90.000000
_cell_angle_beta 90.000000
_cell_angle_gamma 90.000000
_cell_volume 3355.562131
_symmetry_space_group_name_H-M "I M A 2"
_symmetry_group_IT_number 46
_symmetry_cell_setting 'orthorhombic'
loop_
_space_group_symop_operation_xyz
x,y,z
-x,-y,z
1/2-x,y,z
1/2+x,-y,z
1/2+x,1/2+y,1/2+z
1/2-x,1/2-y,1/2+z
-x,1/2+y,1/2+z
x,1/2-y,1/2+z
loop_
_atom_site_type_symbol
_atom_site_label
_atom_site_fract_x
_atom_site_fract_y
_atom_site_fract_z
Si Si1 0.932969 0.664852 0.126170
Si Si2 0.432083 0.091051 0.745040
Si Si3 0.567223 0.251360 0.443661
Si Si4 0.933457 0.410287 0.745924
Si Si5 0.568262 0.589173 0.508947
Si Si6 0.932223 0.590930 0.007005
Si Si7 0.066397 0.754889 0.814122
Si Si8 0.932440 0.147687 0.123295
O O1 0.750000 0.681176 0.126993
O O2 0.974671 0.616175 0.182132
O O3 0.967216 0.612014 0.071153
O O4 0.019302 0.754043 0.123778
O O5 0.250000 0.087540 0.748246
O O6 0.493494 0.164677 0.784395
O O7 0.500000 0.000000 0.759176
O O8 0.750000 0.253854 0.450166
O O9 0.495713 0.332351 0.473971
O O10 0.503088 0.166504 0.471388
O O11 0.530069 0.252516 0.378785
O O12 0.750000 0.414106 0.748167
O O13 0.983447 0.331184 0.783347
O O14 0.976951 0.391456 0.682357
O O15 0.000000 0.500000 0.763766
O O16 0.500000 0.500000 0.489357
O O17 0.750000 0.587590 0.506276
O O18 0.514682 0.603960 0.571944
O O19 0.750000 0.590529 0.000506
O O20 0.000000 0.500000 0.992135
O O21 0.250000 0.760634 0.808356
O O22 0.750000 0.140354 0.116659
#
# Coordination Sequence:
#
# PCOD9380066 Si02
#       8
#     8   8   8   8   8   8   8   8
#     4  10  21  37  60  92 126 162 201 248 303 364
#     4  11  23  39  63  93 125 163 205 249 305 366
#     4  11  24  43  66  90 120 161 210 260 312 365
#     4  10  22  39  61  91 123 160 199 245 300 357
#     4  12  25  42  64  92 127 161 204 252 307 371
#     4  11  23  40  63  92 127 164 204 252 305 364
#     4  10  23  44  64  87 121 160 207 259 307 361
#     4  11  21  36  63  93 125 163 201 245 305 366
#
# _framework density 19.072808999999999
#
# number of rings (size 3 to 8) (size 9 to 14) (size 15 to 20)
#    0.000    1.250    2.500    3.375    0.000    5.500 
#    0.000    1.250    0.000    0.000    0.000    0.000 
#    0.000    0.000    0.000    0.000    0.000    0.000 
#
# Total GULP energy -178982.189822 kJ/mol
# GULP energy per Si atom -5593.193432 kJ/mol
# Density = 1.902940 g / cm^3
# Si number density = 19.072809 Si / 1000 Ang^3
#
#
#
# Elastic Constant Matrix: (Units=GPa)
#
#
# Indices 1 2 3 4 5 6 
#
# 1 62.4589 65.9711 65.6051 0.0000 0.0000 0.0000
# 2 65.9711 205.3594 90.8540 0.0000 0.0000 0.0000
# 3 65.6051 90.8540 142.0460 0.0000 0.0000 0.0000
# 4 0.0000 0.0000 0.0000 -4.5051 0.0000 0.0000
# 5 0.0000 0.0000 0.0000 0.0000 -10.8494 0.0000
# 6 0.0000 0.0000 0.0000 0.0000 0.0000 39.0550
#
#
#
# Elastic Compliance Matrix: (Units=1/GPa)
#
#
# Indices 1 2 3 4 5 6 
#
# 1 0.035406 -0.005773 -0.012660 0.000000 0.000000 0.000000
# 2 -0.005773 0.007733 -0.002279 0.000000 0.000000 0.000000
# 3 -0.012660 -0.002279 0.014345 0.000000 0.000000 0.000000
# 4 0.000000 0.000000 0.000000 -0.221969 0.000000 0.000000
# 5 0.000000 0.000000 0.000000 0.000000 -0.092171 0.000000
# 6 0.000000 0.000000 0.000000 0.000000 0.000000 0.025605
#
#
# Mechanical properties :
#
#
# Convention : Reuss Voigt Hill
#
# Bulk Modulus (GPa) = 62.27246 94.96941 78.62094
# Shear Modulus (GPa) = -27.13354 17.23569 -4.94892
#
# Velocity S-wave (km/s) = -3.77587 3.00939 -1.61257
# Velocity P-wave (km/s) = 3.70286 7.87251 6.15173
#
# Compressibility (1/GPa) = 0.01605846
#
# Stress axis : x y z
#
# Youngs Moduli (GPa) = 28.24381 129.32301 69.71020
#
# Poissons Ratio (x) = 0.74659 0.88253
# Poissons Ratio (y) = 0.16305 0.15890
# Poissons Ratio (z) = 0.35757 0.29479
#
# Static dielectric constant tensor:
#      x y z
#    x 1.640270 0.000000 0.000000 
#    y 0.000000 1.630740 0.000000 
#    z 0.000000 0.000000 1.651490 
# 
# From -- ./inp_files/23141.got.cif
#   From: 2010.05.17/outbox.cif.g08.bks.cpg/sg46_12_cif.got.tgz:23141.got - 2010.06.03 19:58:25.
