data_PCOD9380976
_publ_section_title
;
Structure prediction by ZEFSAII (Michael W. Deem and Ramdas Pophale) SiO2 
 PCOD9380976
Probable space group: I M A 2
;
_chemical_formula_sum "Si O2"
_cell_formula_units_Z 48
_cell_length_a 15.041461
_cell_length_b 5.163224
_cell_length_c 27.241770
_cell_angle_alpha 90.000000
_cell_angle_beta 90.000000
_cell_angle_gamma 90.000000
_cell_volume 2115.662122
_symmetry_space_group_name_H-M "I M A 2"
_symmetry_group_IT_number 46
_symmetry_cell_setting 'orthorhombic'
loop_
_space_group_symop_operation_xyz
x,y,z
-x,-y,z
1/2-x,y,z
1/2+x,-y,z
1/2+x,1/2+y,1/2+z
1/2-x,1/2-y,1/2+z
-x,1/2+y,1/2+z
x,1/2-y,1/2+z
loop_
_atom_site_type_symbol
_atom_site_label
_atom_site_fract_x
_atom_site_fract_y
_atom_site_fract_z
Si Si1 0.750000 0.015942 0.544720
Si Si2 0.500000 0.000000 0.032715
Si Si3 0.440110 0.752617 0.865383
Si Si4 0.899507 0.917040 0.205391
Si Si5 0.351139 0.581743 0.264202
Si Si6 0.910150 0.629010 0.111718
Si Si7 0.098350 0.630719 0.969088
O O1 0.672912 0.995219 0.501159
O O2 0.669197 0.033343 0.586864
O O3 0.543828 0.791530 0.068380
O O4 0.421920 0.893904 0.998491
O O5 0.500000 0.500000 0.855451
O O6 0.391663 0.830818 0.815703
O O7 0.379773 0.682785 0.912402
O O8 0.500000 0.000000 0.880298
O O9 0.897508 0.671686 0.241881
O O10 0.866800 0.811547 0.153036
O O11 0.854460 0.171018 0.227986
O O12 0.000000 0.000000 0.197518
O O13 0.250000 0.502116 0.271494
O O14 0.000000 0.500000 0.134441
O O15 0.000000 0.500000 0.968877
#
# Coordination Sequence:
#
# PCOD9380976 Si02
#       7
#     4   4   8   8   8   8   8
#     4  12  24  44  70 100 150 182 242 300 368 424
#     4  12  20  48  66  96 144 178 238 300 352 426
#     4  11  24  45  76 102 141 199 244 291 375 446
#     4  12  26  49  75 102 144 200 243 293 377 446
#     4  12  27  46  73 114 148 179 246 316 366 445
#     4  12  26  45  70 104 143 193 247 301 363 445
#     4  11  24  45  69 104 144 188 241 302 361 441
#
# _framework density 22.687933999999998
#
# number of rings (size 3 to 8) (size 9 to 14) (size 15 to 20)
#    0.000    0.333    5.000    4.500    3.500    0.667 
#    0.000    0.000    5.500    0.000    0.000    0.000 
#    0.000    0.000    0.000    0.000    0.000    0.000 
#
# Total GULP energy -133626.920880 kJ/mol
# GULP energy per Si atom -5567.788370 kJ/mol
# Density = 2.263630 g / cm^3
# Si number density = 22.687934 Si / 1000 Ang^3
#
#
#
# Elastic Constant Matrix: (Units=GPa)
#
#
# Indices 1 2 3 4 5 6 
#
# 1 96.5224 6.6243 22.5863 0.0000 0.0000 0.0000
# 2 6.6243 88.9753 21.3852 0.0000 0.0000 0.0000
# 3 22.5863 21.3852 118.2404 0.0000 0.0000 0.0000
# 4 0.0000 0.0000 0.0000 37.3640 0.0000 0.0000
# 5 0.0000 0.0000 0.0000 0.0000 -8.2315 0.0000
# 6 0.0000 0.0000 0.0000 0.0000 0.0000 -8.3324
#
#
#
# Elastic Compliance Matrix: (Units=1/GPa)
#
#
# Indices 1 2 3 4 5 6 
#
# 1 0.010854 -0.000324 -0.002015 0.000000 0.000000 0.000000
# 2 -0.000324 0.011760 -0.002065 0.000000 0.000000 0.000000
# 3 -0.002015 -0.002065 0.009216 0.000000 0.000000 0.000000
# 4 0.000000 0.000000 0.000000 0.026764 0.000000 0.000000
# 5 0.000000 0.000000 0.000000 0.000000 -0.121484 0.000000
# 6 0.000000 0.000000 0.000000 0.000000 0.000000 -0.120013
#
#
# Mechanical properties :
#
#
# Convention : Reuss Voigt Hill
#
# Bulk Modulus (GPa) = 43.43673 44.99217 44.21445
# Shear Modulus (GPa) = -30.04393 21.03616 -4.50388
#
# Velocity S-wave (km/s) = -3.64294 3.04829 -1.41048
# Velocity P-wave (km/s) = 1.22156 5.68009 4.10826
#
# Compressibility (1/GPa) = 0.02302199
#
# Stress axis : x y z
#
# Youngs Moduli (GPa) = 92.13225 85.03763 108.51070
#
# Poissons Ratio (x) = 0.02754 0.21862
# Poissons Ratio (y) = 0.02984 0.22407
# Poissons Ratio (z) = 0.18562 0.17560
#
# Static dielectric constant tensor:
#      x y z
#    x 1.968850 0.000000 0.000000 
#    y 0.000000 1.849600 0.000000 
#    z 0.000000 0.000000 1.853500 
# 
# From -- ./inp_files/24624.got.cif
#   From: 2010.05.17/outbox.cif.g08.bks.cpg/sg46_13_cif.got.tgz:24624.got - 2010.06.03 19:58:25.
