data_PCOD9380393
_publ_section_title
;
Structure prediction by ZEFSAII (Michael W. Deem and Ramdas Pophale) SiO2 
 PCOD9380393
Probable space group: I M A 2
;
_chemical_formula_sum "Si O2"
_cell_formula_units_Z 64
_cell_length_a 14.819440
_cell_length_b 17.856034
_cell_length_c 13.109213
_cell_angle_alpha 90.000000
_cell_angle_beta 90.000000
_cell_angle_gamma 90.000000
_cell_volume 3468.913072
_symmetry_space_group_name_H-M "I M A 2"
_symmetry_group_IT_number 46
_symmetry_cell_setting 'orthorhombic'
loop_
_space_group_symop_operation_xyz
x,y,z
-x,-y,z
1/2-x,y,z
1/2+x,-y,z
1/2+x,1/2+y,1/2+z
1/2-x,1/2-y,1/2+z
-x,1/2+y,1/2+z
x,1/2-y,1/2+z
loop_
_atom_site_type_symbol
_atom_site_label
_atom_site_fract_x
_atom_site_fract_y
_atom_site_fract_z
Si Si1 0.525920 0.179692 0.785900
Si Si2 0.647418 0.422055 0.955834
Si Si3 0.902860 0.035949 0.676832
Si Si4 0.147961 0.417836 0.348306
Si Si5 0.150422 0.085608 0.083256
Si Si6 0.359920 0.749906 0.966341
Si Si7 0.596760 0.466643 0.741011
Si Si8 0.973381 0.320541 0.648999
O O1 0.579272 0.118953 0.718381
O O2 0.435340 0.138599 0.827174
O O3 0.595854 0.207837 0.870843
O O4 0.498802 0.251966 0.720805
O O5 0.750000 0.410576 0.925331
O O6 0.610127 0.337566 0.962749
O O7 0.610591 0.470332 0.862140
O O8 0.643257 0.459479 0.066822
O O9 0.860263 0.985220 0.766355
O O10 0.000000 0.000000 0.656956
O O11 0.250000 0.386010 0.337664
O O12 0.138615 0.443102 0.466563
O O13 0.250000 0.123355 0.087060
O O14 0.064600 0.138687 0.108226
O O15 0.153928 0.017877 0.164758
O O16 0.250000 0.754984 0.970288
O O17 0.409078 0.787629 0.061993
O O18 0.500000 0.500000 0.719634
O O19 0.588592 0.380342 0.709306
#
# Coordination Sequence:
#
# PCOD9380393 Si02
#       8
#     8   8   8   8   8   8   8   8
#     4  11  22  40  62  88 121 157 199 247 300 356
#     4  11  21  37  57  83 122 157 194 241 298 358
#     4  10  22  37  60  86 119 160 199 243 297 352
#     4  10  22  40  64  91 120 156 201 249 297 351
#     4  10  22  40  64  91 120 156 201 249 297 351
#     4  11  24  37  57  89 121 155 197 243 300 358
#     4  10  22  37  60  86 119 160 199 243 297 352
#     4  11  22  40  62  88 121 157 199 247 300 356
#
# _framework density 18.449583000000001
#
# number of rings (size 3 to 8) (size 9 to 14) (size 15 to 20)
#    0.000    1.500    3.750    1.125    1.750    4.500 
#    0.000    0.000    0.000    0.000    0.000    0.000 
#    0.000    0.000    0.000    0.000    0.000    0.000 
#
# Total GULP energy -178238.445835 kJ/mol
# GULP energy per Si atom -5569.951432 kJ/mol
# Density = 1.840759 g / cm^3
# Si number density = 18.449583 Si / 1000 Ang^3
#
#
#
# Elastic Constant Matrix: (Units=GPa)
#
#
# Indices 1 2 3 4 5 6 
#
# 1 97.7912 20.7080 35.9931 0.0000 0.0000 0.0000
# 2 20.7080 75.4162 38.2280 0.0000 0.0000 0.0000
# 3 35.9931 38.2280 108.7467 0.0000 0.0000 0.0000
# 4 0.0000 0.0000 0.0000 25.9191 0.0000 0.0000
# 5 0.0000 0.0000 0.0000 0.0000 48.9212 0.0000
# 6 0.0000 0.0000 0.0000 0.0000 0.0000 4.0487
#
#
#
# Elastic Compliance Matrix: (Units=1/GPa)
#
#
# Indices 1 2 3 4 5 6 
#
# 1 0.011788 -0.001532 -0.003363 0.000000 0.000000 0.000000
# 2 -0.001532 0.016334 -0.005235 0.000000 0.000000 0.000000
# 3 -0.003363 -0.005235 0.012149 0.000000 0.000000 0.000000
# 4 0.000000 0.000000 0.000000 0.038582 0.000000 0.000000
# 5 0.000000 0.000000 0.000000 0.000000 0.020441 0.000000
# 6 0.000000 0.000000 0.000000 0.000000 0.000000 0.246995
#
#
# Mechanical properties :
#
#
# Convention : Reuss Voigt Hill
#
# Bulk Modulus (GPa) = 49.97226 52.42359 51.19793
# Shear Modulus (GPa) = 13.39697 28.24612 20.82155
#
# Velocity S-wave (km/s) = 2.69762 3.91703 3.36306
# Velocity P-wave (km/s) = 6.07022 6.99526 6.54909
#
# Compressibility (1/GPa) = 0.02001110
#
# Stress axis : x y z
#
# Youngs Moduli (GPa) = 84.83117 61.22220 82.31137
#
# Poissons Ratio (x) = 0.09380 0.27682
# Poissons Ratio (y) = 0.12997 0.43088
# Poissons Ratio (z) = 0.28529 0.32049
#
# Static dielectric constant tensor:
#      x y z
#    x 1.637500 0.000000 0.000000 
#    y 0.000000 1.669240 0.000000 
#    z 0.000000 0.000000 1.666530 
# 
# From -- ./inp_files/11300.got.cif
#   From: 2010.05.17/outbox.cif.g08.bks.cpg/sg46_6_cif.got.tgz:11300.got - 2010.06.03 19:58:25.
