data_PCOD9380980
_publ_section_title
;
Structure prediction by ZEFSAII (Michael W. Deem and Ramdas Pophale) SiO2 
 PCOD9380980
Probable space group: I M A 2
;
_chemical_formula_sum "Si O2"
_cell_formula_units_Z 40
_cell_length_a 19.682053
_cell_length_b 7.976852
_cell_length_c 10.276772
_cell_angle_alpha 90.000000
_cell_angle_beta 90.000000
_cell_angle_gamma 90.000000
_cell_volume 1613.461670
_symmetry_space_group_name_H-M "I M A 2"
_symmetry_group_IT_number 46
_symmetry_cell_setting 'orthorhombic'
loop_
_space_group_symop_operation_xyz
x,y,z
-x,-y,z
1/2-x,y,z
1/2+x,-y,z
1/2+x,1/2+y,1/2+z
1/2-x,1/2-y,1/2+z
-x,1/2+y,1/2+z
x,1/2-y,1/2+z
loop_
_atom_site_type_symbol
_atom_site_label
_atom_site_fract_x
_atom_site_fract_y
_atom_site_fract_z
Si Si1 0.855810 0.071118 0.422530
Si Si2 0.568973 0.947946 0.820117
Si Si3 0.672599 0.795100 0.023090
Si Si4 0.939086 0.895071 0.222636
Si Si5 0.327468 0.802949 0.686603
O O1 0.849189 0.214577 0.534130
O O2 0.825021 0.152159 0.291408
O O3 0.826764 0.905679 0.495938
O O4 0.923872 0.992502 0.358565
O O5 0.626771 0.867757 0.908634
O O6 0.538842 0.797040 0.734194
O O7 0.500000 0.000000 0.890769
O O8 0.611298 0.083358 0.740694
O O9 0.750000 0.854398 0.023548
O O10 0.632064 0.862913 0.148045
O O11 0.000000 0.000000 0.162020
O O12 0.250000 0.871227 0.687297
#
# Coordination Sequence:
#
# PCOD9380980 Si02
#       5
#     8   8   8   8   8
#     4  11  27  47  75 116 157 207 261 327 400 470
#     4  11  25  46  72 108 151 206 253 317 388 473
#     4  11  24  47  78 114 154 200 259 323 396 468
#     4  11  25  49  77 114 156 209 262 328 393 474
#     4  12  25  47  75 114 159 204 262 325 393 469
#
# _framework density 24.791416999999999
#
# number of rings (size 3 to 8) (size 9 to 14) (size 15 to 20)
#    0.000    0.800    2.000    4.200    2.800    5.600 
#   10.800    0.000    0.000    0.000    0.000    0.000 
#    0.000    0.000    0.000    0.000    0.000    0.000 
#
# Total GULP energy -111387.265936 kJ/mol
# GULP energy per Si atom -5569.363297 kJ/mol
# Density = 2.473499 g / cm^3
# Si number density = 24.791417 Si / 1000 Ang^3
#
#
#
# Elastic Constant Matrix: (Units=GPa)
#
#
# Indices 1 2 3 4 5 6 
#
# 1 204.6580 66.7588 51.4195 0.0000 0.0000 0.0000
# 2 66.7588 91.7736 49.1699 0.0000 0.0000 0.0000
# 3 51.4195 49.1699 138.9580 0.0000 0.0000 0.0000
# 4 0.0000 0.0000 0.0000 13.1045 0.0000 0.0000
# 5 0.0000 0.0000 0.0000 0.0000 69.5273 0.0000
# 6 0.0000 0.0000 0.0000 0.0000 0.0000 25.0185
#
#
#
# Elastic Compliance Matrix: (Units=1/GPa)
#
#
# Indices 1 2 3 4 5 6 
#
# 1 0.006497 -0.004242 -0.000903 0.000000 0.000000 0.000000
# 2 -0.004242 0.016215 -0.004168 0.000000 0.000000 0.000000
# 3 -0.000903 -0.004168 0.009005 0.000000 0.000000 0.000000
# 4 0.000000 0.000000 0.000000 0.076310 0.000000 0.000000
# 5 0.000000 0.000000 0.000000 0.000000 0.014383 0.000000
# 6 0.000000 0.000000 0.000000 0.000000 0.000000 0.039970
#
#
# Mechanical properties :
#
#
# Convention : Reuss Voigt Hill
#
# Bulk Modulus (GPa) = 76.38682 85.56511 80.97596
# Shear Modulus (GPa) = 26.97296 39.39948 33.18622
#
# Velocity S-wave (km/s) = 3.30206 3.99085 3.66268
# Velocity P-wave (km/s) = 6.73920 7.47160 7.11483
#
# Compressibility (1/GPa) = 0.01309126
#
# Stress axis : x y z
#
# Youngs Moduli (GPa) = 153.92025 61.66973 111.04465
#
# Poissons Ratio (x) = 0.26162 0.10027
# Poissons Ratio (y) = 0.65296 0.46283
# Poissons Ratio (z) = 0.13899 0.25704
#
# Static dielectric constant tensor:
#      x y z
#    x 1.669210 0.000000 0.000000 
#    y 0.000000 2.099080 0.000000 
#    z 0.000000 0.000000 2.081390 
# 
# From -- ./inp_files/11609.got.cif
#   From: 2010.05.17/outbox.cif.g08.bks.cpg/sg46_6_cif.got.tgz:11609.got - 2010.06.03 19:58:25.
