data_PCOD9380439
_publ_section_title
;
Structure prediction by ZEFSAII (Michael W. Deem and Ramdas Pophale) SiO2 
 PCOD9380439
Probable space group: I M A 2
;
_chemical_formula_sum "Si O2"
_cell_formula_units_Z 60
_cell_length_a 7.600362
_cell_length_b 21.666499
_cell_length_c 15.322864
_cell_angle_alpha 90.000000
_cell_angle_beta 90.000000
_cell_angle_gamma 90.000000
_cell_volume 2523.265595
_symmetry_space_group_name_H-M "I M A 2"
_symmetry_group_IT_number 46
_symmetry_cell_setting 'orthorhombic'
loop_
_space_group_symop_operation_xyz
x,y,z
-x,-y,z
1/2-x,y,z
1/2+x,-y,z
1/2+x,1/2+y,1/2+z
1/2-x,1/2-y,1/2+z
-x,1/2+y,1/2+z
x,1/2-y,1/2+z
loop_
_atom_site_type_symbol
_atom_site_label
_atom_site_fract_x
_atom_site_fract_y
_atom_site_fract_z
Si Si1 0.039285 0.757349 0.015840
Si Si2 0.450505 0.889979 0.782161
Si Si3 0.500000 0.000000 0.916348
Si Si4 0.046773 0.376465 0.735392
Si Si5 0.460174 0.429196 0.090370
Si Si6 0.954763 0.397278 0.541825
Si Si7 0.465237 0.765377 0.710964
Si Si8 0.540058 0.859797 0.420444
O O1 0.250000 0.760847 0.018629
O O2 0.980983 0.828657 0.015118
O O3 0.982288 0.727294 0.108673
O O4 0.990065 0.712928 0.936747
O O5 0.250000 0.882178 0.812762
O O6 0.518513 0.945056 0.842152
O O7 0.454361 0.911628 0.681997
O O8 0.528108 0.821103 0.772528
O O9 0.556452 0.950486 0.992582
O O10 0.250000 0.395731 0.731128
O O11 0.969351 0.389158 0.831087
O O12 0.960092 0.399807 0.646636
O O13 0.034969 0.301930 0.733482
O O14 0.500000 0.500000 0.073153
O O15 0.250000 0.419670 0.099512
O O16 0.529123 0.391533 0.007685
O O17 0.750000 0.405392 0.513332
O O18 0.250000 0.764121 0.714405
O O19 0.750000 0.869002 0.417340
#
# Coordination Sequence:
#
# PCOD9380439 Si02
#       8
#     8   8   4   8   8   8   8   8
#     4   9  18  35  64  95 125 164 209 261 319 384
#     4  11  23  40  63  94 129 167 210 256 315 385
#     4  12  26  42  68  94 130 172 224 280 334 390
#     4  10  22  41  65  93 127 166 213 268 325 383
#     4  11  23  40  62  89 129 166 203 253 314 389
#     4  10  24  46  65  91 128 171 225 277 327 392
#     4   9  19  37  62  93 129 165 205 258 315 380
#     4  10  22  39  60  94 131 162 203 263 327 389
#
# _framework density 23.778711000000001
#
# number of rings (size 3 to 8) (size 9 to 14) (size 15 to 20)
#    0.000    1.867    2.000    2.000    1.867    5.867 
#    1.200    0.000    0.000    0.000    0.000    0.000 
#    0.000    0.000    0.000    0.000    0.000    0.000 
#
# Total GULP energy -167110.394358 kJ/mol
# GULP energy per Si atom -5570.346479 kJ/mol
# Density = 2.372459 g / cm^3
# Si number density = 23.778711 Si / 1000 Ang^3
#
#
#
# Elastic Constant Matrix: (Units=GPa)
#
#
# Indices 1 2 3 4 5 6 
#
# 1 64.7934 0.0552 11.4653 0.0000 0.0000 0.0000
# 2 0.0552 86.3156 40.4525 0.0000 0.0000 0.0000
# 3 11.4653 40.4525 162.6254 0.0001 0.0000 -0.0001
# 4 0.0000 0.0000 0.0001 44.7765 0.0000 0.0000
# 5 0.0000 0.0000 0.0000 0.0000 -25.9766 0.0000
# 6 0.0000 0.0000 -0.0001 0.0000 0.0000 -34.6543
#
#
#
# Elastic Compliance Matrix: (Units=1/GPa)
#
#
# Indices 1 2 3 4 5 6 
#
# 1 0.015654 0.000574 -0.001246 0.000000 0.000000 0.000000
# 2 0.000574 0.013135 -0.003308 0.000000 0.000000 0.000000
# 3 -0.001246 -0.003308 0.007060 0.000000 0.000000 0.000000
# 4 0.000000 0.000000 0.000000 0.022333 0.000000 0.000000
# 5 0.000000 0.000000 0.000000 0.000000 -0.038496 0.000000
# 6 0.000000 0.000000 0.000000 0.000000 0.000000 -0.028856
#
#
# Mechanical properties :
#
#
# Convention : Reuss Voigt Hill
#
# Bulk Modulus (GPa) = 35.85702 46.40895 41.13299
# Shear Modulus (GPa) = 618.37321 14.27988 316.32655
#
# Velocity S-wave (km/s) = 16.14366 2.45323 11.54635
# Velocity P-wave (km/s) = 19.04213 5.25203 13.96758
#
# Compressibility (1/GPa) = 0.02788854
#
# Stress axis : x y z
#
# Youngs Moduli (GPa) = 63.88254 76.13093 141.64737
#
# Poissons Ratio (x) = -0.04371 0.17655
# Poissons Ratio (y) = -0.03668 0.46855
# Poissons Ratio (z) = 0.07962 0.25183
#
# Static dielectric constant tensor:
#      x y z
#    x 1.930180 0.000000 0.000000 
#    y 0.000000 1.912840 0.000000 
#    z 0.000000 0.000000 1.918570 
# 
# From -- ./inp_files/14393.got.cif
#   From: 2010.05.17/outbox.cif.g08.bks.cpg/sg46_8_cif.got.tgz:14393.got - 2010.06.03 19:58:25.
