data_PCOD9380688
_publ_section_title
;
Structure prediction by ZEFSAII (Michael W. Deem and Ramdas Pophale) SiO2 
 PCOD9380688
Probable space group: I M A 2
;
_chemical_formula_sum "Si O2"
_cell_formula_units_Z 32
_cell_length_a 15.412148
_cell_length_b 5.256461
_cell_length_c 17.817323
_cell_angle_alpha 90.000000
_cell_angle_beta 90.000000
_cell_angle_gamma 90.000000
_cell_volume 1443.441111
_symmetry_space_group_name_H-M "I M A 2"
_symmetry_group_IT_number 46
_symmetry_cell_setting 'orthorhombic'
loop_
_space_group_symop_operation_xyz
x,y,z
-x,-y,z
1/2-x,y,z
1/2+x,-y,z
1/2+x,1/2+y,1/2+z
1/2-x,1/2-y,1/2+z
-x,1/2+y,1/2+z
x,1/2-y,1/2+z
loop_
_atom_site_type_symbol
_atom_site_label
_atom_site_fract_x
_atom_site_fract_y
_atom_site_fract_z
Si Si1 0.500000 0.000000 0.185810
Si Si2 0.920020 0.681290 0.052360
Si Si3 0.000000 0.000000 0.938388
Si Si4 0.422917 0.828594 0.800343
Si Si5 0.250000 0.993600 0.481307
Si Si6 0.750000 0.993794 0.875180
O O1 0.551944 0.809024 0.130508
O O2 0.424797 0.897919 0.242013
O O3 0.000000 0.500000 0.033994
O O4 0.832421 0.531406 0.036177
O O5 0.923752 0.905644 0.990992
O O6 0.035057 0.783151 0.882455
O O7 0.334146 0.966876 0.821488
O O8 0.500000 0.000000 0.765724
O O9 0.250000 0.223726 0.418925
O O10 0.250000 0.730063 0.434733
#
# Coordination Sequence:
#
# PCOD9380688 Si02
#       6
#     4   8   4   8   4   4
#     4  11  26  44  68 101 148 200 228 291 370 436
#     4  11  24  45  69 104 143 191 239 295 359 435
#     4   9  20  38  72  93 138 174 240 283 354 406
#     4  10  23  43  69 103 143 183 240 291 367 419
#     4  12  26  45  75 111 143 182 252 302 360 419
#     4  12  26  43  75 117 137 184 244 312 358 423
#
# _framework density 22.169246000000001
#
# number of rings (size 3 to 8) (size 9 to 14) (size 15 to 20)
#    0.750    0.500    2.500    2.250   12.250    1.000 
#    0.000    5.000    0.000    0.000    0.000    0.000 
#    0.000    0.000    0.000    0.000    0.000    0.000 
#
# Total GULP energy -89101.284618 kJ/mol
# GULP energy per Si atom -5568.830289 kJ/mol
# Density = 2.211879 g / cm^3
# Si number density = 22.169246 Si / 1000 Ang^3
#
#
#
# Elastic Constant Matrix: (Units=GPa)
#
#
# Indices 1 2 3 4 5 6 
#
# 1 148.8964 17.7321 25.1734 0.0000 0.0000 0.0000
# 2 17.7321 81.1257 38.9654 0.0000 0.0000 0.0000
# 3 25.1734 38.9654 135.8499 0.0000 0.0000 0.0000
# 4 0.0000 0.0000 0.0000 28.4706 0.0000 0.0000
# 5 0.0000 0.0000 0.0000 0.0000 3.8727 0.0000
# 6 0.0000 0.0000 0.0000 0.0000 0.0000 26.1919
#
#
#
# Elastic Compliance Matrix: (Units=1/GPa)
#
#
# Indices 1 2 3 4 5 6 
#
# 1 0.007010 -0.001053 -0.000997 0.000000 0.000000 0.000000
# 2 -0.001053 0.014454 -0.003951 0.000000 0.000000 0.000000
# 3 -0.000997 -0.003951 0.008679 0.000000 0.000000 0.000000
# 4 0.000000 0.000000 0.000000 0.035124 0.000000 0.000000
# 5 0.000000 0.000000 0.000000 0.000000 0.258220 0.000000
# 6 0.000000 0.000000 0.000000 0.000000 0.000000 0.038180
#
#
# Mechanical properties :
#
#
# Convention : Reuss Voigt Hill
#
# Bulk Modulus (GPa) = 55.12244 58.84600 56.98422
# Shear Modulus (GPa) = 13.16773 30.64046 21.90409
#
# Velocity S-wave (km/s) = 2.43978 3.72171 3.14672
# Velocity P-wave (km/s) = 5.73193 6.71341 6.24199
#
# Compressibility (1/GPa) = 0.01814143
#
# Stress axis : x y z
#
# Youngs Moduli (GPa) = 142.65209 69.18330 115.22139
#
# Poissons Ratio (x) = 0.07288 0.11486
# Poissons Ratio (y) = 0.15028 0.45520
# Poissons Ratio (z) = 0.14220 0.27332
#
# Static dielectric constant tensor:
#      x y z
#    x 1.849090 0.000000 0.000000 
#    y 0.000000 2.810140 0.000000 
#    z 0.000000 0.000000 1.798280 
# 
# From -- ./inp_files/19167.got.cif
#   From: 2010.05.17/outbox.cif.g08.bks.cpg/sg46_10_cif.got.tgz:19167.got - 2010.06.03 19:58:25.
