data_PCOD9380747
_publ_section_title
;
Structure prediction by ZEFSAII (Michael W. Deem and Ramdas Pophale) SiO2 
 PCOD9380747
Probable space group: I M A 2
;
_chemical_formula_sum "Si O2"
_cell_formula_units_Z 40
_cell_length_a 20.752272
_cell_length_b 7.443342
_cell_length_c 11.790735
_cell_angle_alpha 90.000000
_cell_angle_beta 90.000000
_cell_angle_gamma 90.000000
_cell_volume 1821.270712
_symmetry_space_group_name_H-M "I M A 2"
_symmetry_group_IT_number 46
_symmetry_cell_setting 'orthorhombic'
loop_
_space_group_symop_operation_xyz
x,y,z
-x,-y,z
1/2-x,y,z
1/2+x,-y,z
1/2+x,1/2+y,1/2+z
1/2-x,1/2-y,1/2+z
-x,1/2+y,1/2+z
x,1/2-y,1/2+z
loop_
_atom_site_type_symbol
_atom_site_label
_atom_site_fract_x
_atom_site_fract_y
_atom_site_fract_z
Si Si1 0.571430 0.000667 0.541860
Si Si2 0.380385 0.001430 0.780232
Si Si3 0.180178 0.166972 0.393060
Si Si4 0.822224 0.121524 0.196944
Si Si5 0.429192 0.925789 0.027084
O O1 0.583805 0.212250 0.533044
O O2 0.500000 0.000000 0.492667
O O3 0.575105 0.945355 0.673753
O O4 0.621589 0.875597 0.477050
O O5 0.331781 0.158385 0.816159
O O6 0.345713 0.818393 0.738859
O O7 0.419404 0.973387 0.896057
O O8 0.250000 0.180709 0.451324
O O9 0.180941 0.998368 0.309024
O O10 0.750000 0.135962 0.146857
O O11 0.871815 0.019626 0.112602
O O12 0.500000 0.000000 0.062356
#
# Coordination Sequence:
#
# PCOD9380747 Si02
#       5
#     8   8   8   8   8
#     4  11  25  44  70 103 140 181 235 292 340 421
#     4  11  24  45  69 103 135 183 229 293 344 420
#     4  11  25  44  69 100 137 182 231 283 346 414
#     4  10  24  45  67 100 137 180 230 286 346 410
#     4  11  24  44  70 101 138 184 232 284 352 413
#
# _framework density 21.962689000000001
#
# number of rings (size 3 to 8) (size 9 to 14) (size 15 to 20)
#    0.000    1.200    2.000    2.400    5.600    6.400 
#    0.000    0.000    0.000    0.000    0.000    0.000 
#    0.000    0.000    0.000    0.000    0.000    0.000 
#
# Total GULP energy -111589.584674 kJ/mol
# GULP energy per Si atom -5579.479234 kJ/mol
# Density = 2.191270 g / cm^3
# Si number density = 21.962689 Si / 1000 Ang^3
#
#
#
# Elastic Constant Matrix: (Units=GPa)
#
#
# Indices 1 2 3 4 5 6 
#
# 1 182.5051 30.1045 64.7749 0.0000 0.0000 0.0000
# 2 30.1045 100.4819 19.6088 0.0000 0.0000 0.0000
# 3 64.7749 19.6088 84.3164 0.0000 0.0000 0.0000
# 4 0.0000 0.0000 0.0000 19.9819 0.0000 0.0000
# 5 0.0000 0.0000 0.0000 0.0000 43.1410 0.0000
# 6 0.0000 0.0000 0.0000 0.0000 0.0000 124.2621
#
#
#
# Elastic Compliance Matrix: (Units=1/GPa)
#
#
# Indices 1 2 3 4 5 6 
#
# 1 0.007670 -0.001203 -0.005612 0.000000 0.000000 0.000000
# 2 -0.001203 0.010614 -0.001544 0.000000 0.000000 0.000000
# 3 -0.005612 -0.001544 0.016531 0.000000 0.000000 0.000000
# 4 0.000000 0.000000 0.000000 0.050045 0.000000 0.000000
# 5 0.000000 0.000000 0.000000 0.000000 0.023180 0.000000
# 6 0.000000 0.000000 0.000000 0.000000 0.000000 0.008048
#
#
# Mechanical properties :
#
#
# Convention : Reuss Voigt Hill
#
# Bulk Modulus (GPa) = 55.26283 66.25329 60.75806
# Shear Modulus (GPa) = 36.01329 54.33135 45.17232
#
# Velocity S-wave (km/s) = 4.05377 4.97913 4.54009
# Velocity P-wave (km/s) = 6.86495 7.95534 7.43017
#
# Compressibility (1/GPa) = 0.01809535
#
# Stress axis : x y z
#
# Youngs Moduli (GPa) = 130.38446 94.21755 60.49271
#
# Poissons Ratio (x) = 0.11330 0.33951
# Poissons Ratio (y) = 0.15680 0.09343
# Poissons Ratio (z) = 0.73177 0.14552
#
# Static dielectric constant tensor:
#      x y z
#    x 1.903260 0.000000 0.000000 
#    y 0.000000 1.724990 0.000000 
#    z 0.000000 0.000000 1.767540 
# 
# From -- ./inp_files/11607.got.cif
#   From: 2010.05.17/outbox.cif.g08.bks.cpg/sg46_6_cif.got.tgz:11607.got - 2010.06.03 19:58:25.
