data_PCOD9380101
_publ_section_title
;
Structure prediction by ZEFSAII (Michael W. Deem and Ramdas Pophale) SiO2 
 PCOD9380101
Probable space group: I M A 2
;
_chemical_formula_sum "Si O2"
_cell_formula_units_Z 60
_cell_length_a 13.590894
_cell_length_b 8.560885
_cell_length_c 26.980437
_cell_angle_alpha 90.000000
_cell_angle_beta 90.000000
_cell_angle_gamma 90.000000
_cell_volume 3139.176019
_symmetry_space_group_name_H-M "I M A 2"
_symmetry_group_IT_number 46
_symmetry_cell_setting 'orthorhombic'
loop_
_space_group_symop_operation_xyz
x,y,z
-x,-y,z
1/2-x,y,z
1/2+x,-y,z
1/2+x,1/2+y,1/2+z
1/2-x,1/2-y,1/2+z
-x,1/2+y,1/2+z
x,1/2-y,1/2+z
loop_
_atom_site_type_symbol
_atom_site_label
_atom_site_fract_x
_atom_site_fract_y
_atom_site_fract_z
Si Si1 0.863567 0.729259 0.032140
Si Si2 0.031722 0.819541 0.601946
Si Si3 0.639309 0.082450 0.800154
Si Si4 0.943670 0.737916 0.335521
Si Si5 0.527028 0.823417 0.942107
Si Si6 0.635807 0.367263 0.001790
Si Si7 0.000000 0.500000 0.765972
Si Si8 0.633654 0.267231 0.703877
O O1 0.750000 0.741157 0.044837
O O2 0.881959 0.554040 0.009408
O O3 0.932997 0.757097 0.079383
O O4 0.896786 0.838577 0.987362
O O5 0.108803 0.805190 0.556688
O O6 0.079605 0.760730 0.652102
O O7 0.000000 0.000000 0.608929
O O8 0.750000 0.128901 0.813359
O O9 0.620338 0.903112 0.813549
O O10 0.557179 0.181280 0.828888
O O11 0.625562 0.119723 0.741783
O O12 0.927205 0.757972 0.393770
O O13 0.936499 0.889151 0.301847
O O14 0.500000 0.000000 0.927160
O O15 0.436212 0.721095 0.963647
O O16 0.750000 0.344280 0.989620
O O17 0.074700 0.598117 0.732465
O O18 0.750000 0.298700 0.697387
#
# Coordination Sequence:
#
# PCOD9380101 Si02
#       8
#     8   8   8   8   8   8   4   8
#     4   9  20  39  59  87 119 150 193 239 284 349
#     4   9  18  34  65  87 115 150 195 236 289 343
#     4   9  19  37  59  81 110 145 192 243 286 340
#     4  10  21  38  57  83 115 153 193 238 294 345
#     4  11  21  35  57  86 116 153 194 238 292 343
#     4   9  19  37  59  85 115 151 193 240 289 347
#     4  10  24  38  60  80 124 156 194 242 298 342
#     4  10  21  39  62  88 115 151 196 245 296 350
#
# _framework density 19.113295999999998
#
# number of rings (size 3 to 8) (size 9 to 14) (size 15 to 20)
#    0.000    2.400    1.333    1.600    5.600    2.667 
#    4.800    0.667    0.000    0.000    0.000    0.000 
#    0.000    0.000    0.000    0.000    0.000    0.000 
#
# Total GULP energy -167268.746899 kJ/mol
# GULP energy per Si atom -5575.624897 kJ/mol
# Density = 1.906979 g / cm^3
# Si number density = 19.113296 Si / 1000 Ang^3
#
#
#
# Elastic Constant Matrix: (Units=GPa)
#
#
# Indices 1 2 3 4 5 6 
#
# 1 92.6978 6.4766 38.8569 0.0000 0.0000 0.0000
# 2 6.4766 34.0040 34.5812 0.0000 0.0000 0.0000
# 3 38.8569 34.5812 138.4066 0.0000 0.0000 0.0000
# 4 0.0000 0.0000 0.0000 21.0745 0.0000 0.0000
# 5 0.0000 0.0000 0.0000 0.0000 10.3698 0.0000
# 6 0.0000 0.0000 0.0000 0.0000 0.0000 13.3928
#
#
#
# Elastic Compliance Matrix: (Units=1/GPa)
#
#
# Indices 1 2 3 4 5 6 
#
# 1 0.012288 0.001566 -0.003841 0.000000 0.000000 0.000000
# 2 0.001566 0.039626 -0.010340 0.000000 0.000000 0.000000
# 3 -0.003841 -0.010340 0.010887 0.000000 0.000000 0.000000
# 4 0.000000 0.000000 0.000000 0.047451 0.000000 0.000000
# 5 0.000000 0.000000 0.000000 0.000000 0.096434 0.000000
# 6 0.000000 0.000000 0.000000 0.000000 0.000000 0.074667
#
#
# Mechanical properties :
#
#
# Convention : Reuss Voigt Hill
#
# Bulk Modulus (GPa) = 26.61682 47.21531 36.91607
# Shear Modulus (GPa) = 15.66872 21.31368 18.49120
#
# Velocity S-wave (km/s) = 2.86629 3.34297 3.11376
# Velocity P-wave (km/s) = 4.99101 6.29739 5.68187
#
# Compressibility (1/GPa) = 0.03757023
#
# Stress axis : x y z
#
# Youngs Moduli (GPa) = 81.37709 25.23607 91.85275
#
# Poissons Ratio (x) = -0.03952 0.35282
# Poissons Ratio (y) = -0.12742 0.94978
# Poissons Ratio (z) = 0.31258 0.26095
#
# Static dielectric constant tensor:
#      x y z
#    x 1.665670 0.000000 0.000000 
#    y 0.000000 1.694460 0.000000 
#    z 0.000000 0.000000 1.653270 
# 
# From -- ./inp_files/23611.got.cif
#   From: 2010.05.17/outbox.cif.g08.bks.cpg/sg46_12_cif.got.tgz:23611.got - 2010.06.03 19:58:25.
