data_PCOD9380535
_publ_section_title
;
Structure prediction by ZEFSAII (Michael W. Deem and Ramdas Pophale) SiO2 
 PCOD9380535
Probable space group: I M A 2
;
_chemical_formula_sum "Si O2"
_cell_formula_units_Z 56
_cell_length_a 15.855966
_cell_length_b 15.980912
_cell_length_c 9.333365
_cell_angle_alpha 90.000000
_cell_angle_beta 90.000000
_cell_angle_gamma 90.000000
_cell_volume 2365.007466
_symmetry_space_group_name_H-M "I M A 2"
_symmetry_group_IT_number 46
_symmetry_cell_setting 'orthorhombic'
loop_
_space_group_symop_operation_xyz
x,y,z
-x,-y,z
1/2-x,y,z
1/2+x,-y,z
1/2+x,1/2+y,1/2+z
1/2-x,1/2-y,1/2+z
-x,1/2+y,1/2+z
x,1/2-y,1/2+z
loop_
_atom_site_type_symbol
_atom_site_label
_atom_site_fract_x
_atom_site_fract_y
_atom_site_fract_z
Si Si1 0.847854 0.986203 0.747290
Si Si2 0.374588 0.862553 0.919232
Si Si3 0.656822 0.819979 0.096861
Si Si4 0.589480 0.453418 0.970664
Si Si5 0.588759 0.284230 0.146961
Si Si6 0.898165 0.492163 0.646888
Si Si7 0.912707 0.698610 0.310176
O O1 0.750000 0.997902 0.790899
O O2 0.850745 0.994924 0.576291
O O3 0.883702 0.896775 0.790408
O O4 0.906358 0.060807 0.811722
O O5 0.400872 0.795307 0.042296
O O6 0.348351 0.933631 0.036596
O O7 0.346927 0.803886 0.782044
O O8 0.750000 0.817057 0.032619
O O9 0.635188 0.913884 0.139383
O O10 0.650545 0.760499 0.232180
O O11 0.590931 0.787607 0.979107
O O12 0.500000 0.500000 0.982253
O O13 0.587190 0.360929 0.035366
O O14 0.612288 0.455604 0.805090
O O15 0.502848 0.283163 0.240510
O O16 0.000000 0.500000 0.615155
#
# Coordination Sequence:
#
# PCOD9380535 Si02
#       7
#     8   8   8   8   8   8   8
#     4  11  24  44  70  99 143 198 243 295 372 451
#     4  11  24  41  70 101 143 185 241 303 364 437
#     4  12  27  43  65 101 146 193 238 295 368 452
#     4  10  22  41  67 101 141 181 238 303 364 435
#     4  11  22  41  70 105 136 180 240 308 364 425
#     4  11  23  40  64  97 139 189 239 292 360 435
#     4  12  24  43  69  99 143 187 238 295 367 446
#
# _framework density 23.678573
#
# number of rings (size 3 to 8) (size 9 to 14) (size 15 to 20)
#    0.000    0.857    2.857    4.714    2.000    1.714 
#    0.000    2.857    0.000    3.429    0.000    0.000 
#    0.000    0.000    0.000    0.000    0.000    0.000 
#
# Total GULP energy -155873.785580 kJ/mol
# GULP energy per Si atom -5566.920914 kJ/mol
# Density = 2.362468 g / cm^3
# Si number density = 23.678573 Si / 1000 Ang^3
#
#
#
# Elastic Constant Matrix: (Units=GPa)
#
#
# Indices 1 2 3 4 5 6 
#
# 1 73.4304 20.9872 41.8481 0.0000 0.0000 0.0000
# 2 20.9872 133.4870 50.9421 0.0000 0.0000 0.0000
# 3 41.8481 50.9421 169.7155 0.0000 0.0000 0.0000
# 4 0.0000 0.0000 0.0000 50.1271 0.0000 0.0000
# 5 0.0000 0.0000 0.0000 0.0000 14.8937 0.0000
# 6 0.0000 0.0000 0.0000 0.0000 0.0000 14.3458
#
#
#
# Elastic Compliance Matrix: (Units=1/GPa)
#
#
# Indices 1 2 3 4 5 6 
#
# 1 0.015997 -0.001140 -0.003602 0.000000 0.000000 0.000000
# 2 -0.001140 0.008542 -0.002283 0.000000 0.000000 0.000000
# 3 -0.003602 -0.002283 0.007466 0.000000 0.000000 0.000000
# 4 0.000000 0.000000 0.000000 0.019949 0.000000 0.000000
# 5 0.000000 0.000000 0.000000 0.000000 0.067143 0.000000
# 6 0.000000 0.000000 0.000000 0.000000 0.000000 0.069707
#
#
# Mechanical properties :
#
#
# Convention : Reuss Voigt Hill
#
# Bulk Modulus (GPa) = 55.69827 67.13199 61.41513
# Shear Modulus (GPa) = 23.94194 33.39701 28.66947
#
# Velocity S-wave (km/s) = 3.18326 3.75965 3.48340
# Velocity P-wave (km/s) = 6.08971 6.87455 6.49400
#
# Compressibility (1/GPa) = 0.01795388
#
# Stress axis : x y z
#
# Youngs Moduli (GPa) = 62.51087 117.07116 133.94702
#
# Poissons Ratio (x) = 0.13351 0.48251
# Poissons Ratio (y) = 0.07129 0.30576
# Poissons Ratio (z) = 0.22518 0.26724
#
# Static dielectric constant tensor:
#      x y z
#    x 2.100250 0.000000 0.000000 
#    y 0.000000 1.887270 0.000000 
#    z 0.000000 0.000000 1.965710 
# 
# From -- ./inp_files/7427.got.cif
#   From: 2010.05.17/outbox.cif.g08.bks.cpg/sg46_4_cif.got.tgz:7427.got - 2010.06.03 19:58:25.
