data_PCOD9380110
_publ_section_title
;
Structure prediction by ZEFSAII (Michael W. Deem and Ramdas Pophale) SiO2 
 PCOD9380110
Probable space group: I M A 2
;
_chemical_formula_sum "Si O2"
_cell_formula_units_Z 60
_cell_length_a 24.099445
_cell_length_b 21.046433
_cell_length_c 5.378156
_cell_angle_alpha 90.000000
_cell_angle_beta 90.000000
_cell_angle_gamma 90.000000
_cell_volume 2727.840277
_symmetry_space_group_name_H-M "I M A 2"
_symmetry_group_IT_number 46
_symmetry_cell_setting 'orthorhombic'
loop_
_space_group_symop_operation_xyz
x,y,z
-x,-y,z
1/2-x,y,z
1/2+x,-y,z
1/2+x,1/2+y,1/2+z
1/2-x,1/2-y,1/2+z
-x,1/2+y,1/2+z
x,1/2-y,1/2+z
loop_
_atom_site_type_symbol
_atom_site_label
_atom_site_fract_x
_atom_site_fract_y
_atom_site_fract_z
Si Si1 0.959750 0.910942 0.777520
Si Si2 0.917638 0.831537 0.447850
Si Si3 0.462408 0.714393 0.798265
Si Si4 0.685091 0.220291 0.479449
Si Si5 0.917891 0.452334 0.376762
Si Si6 0.750000 0.709360 0.304954
Si Si7 0.370453 0.189002 0.958850
Si Si8 0.122580 0.601971 0.876378
O O1 0.949280 0.904270 0.485594
O O2 0.023516 0.912370 0.858315
O O3 0.933761 0.973764 0.885468
O O4 0.920069 0.845661 0.792302
O O5 0.876163 0.848011 0.218973
O O6 0.883310 0.762681 0.522298
O O7 0.972674 0.798500 0.330626
O O8 0.451096 0.734967 0.516997
O O9 0.427076 0.653437 0.869397
O O10 0.750000 0.234501 0.497334
O O11 0.661485 0.238663 0.749404
O O12 0.675318 0.147374 0.411462
O O13 0.882602 0.432799 0.614788
O O14 0.886462 0.439891 0.119176
O O15 0.750000 0.761256 0.529359
O O16 0.809431 0.676001 0.349561
#
# Coordination Sequence:
#
# PCOD9380110 Si02
#       8
#     8   8   8   8   8   4   8   8
#     4   9  23  40  62  88 119 159 204 241 305 367
#     4  10  21  38  59  83 119 153 198 242 302 361
#     4  12  23  34  54  83 122 157 188 233 306 365
#     4  10  21  39  63  85 114 161 200 233 287 353
#     4  11  23  36  66  88 122 156 198 245 302 365
#     4  12  26  42  64  94 118 162 216 260 304 354
#     4  10  22  40  61  83 121 153 199 256 296 355
#     4  12  22  38  55  90 122 152 197 250 289 349
#
# _framework density 21.995422999999999
#
# number of rings (size 3 to 8) (size 9 to 14) (size 15 to 20)
#    0.800    0.533    1.333    4.800    1.867    4.267 
#    0.000    0.000    2.933    0.000    0.000    0.000 
#    0.000    0.000    0.000    0.000    0.000    0.000 
#
# Total GULP energy -167038.085369 kJ/mol
# GULP energy per Si atom -5567.936179 kJ/mol
# Density = 2.194536 g / cm^3
# Si number density = 21.995423 Si / 1000 Ang^3
#
#
#
# Elastic Constant Matrix: (Units=GPa)
#
#
# Indices 1 2 3 4 5 6 
#
# 1 60.9144 0.7870 13.6814 0.0000 0.0000 0.0000
# 2 0.7870 60.8881 35.6072 0.0000 0.0000 0.0000
# 3 13.6814 35.6072 128.8177 0.0000 0.0000 0.0000
# 4 0.0000 0.0000 0.0000 21.2837 0.0000 0.0000
# 5 0.0000 0.0000 0.0000 0.0000 17.9204 0.0000
# 6 0.0000 0.0000 0.0000 0.0000 0.0000 24.7273
#
#
#
# Elastic Compliance Matrix: (Units=1/GPa)
#
#
# Indices 1 2 3 4 5 6 
#
# 1 0.016867 0.000990 -0.002065 0.000000 0.000000 0.000000
# 2 0.000990 0.019648 -0.005536 0.000000 0.000000 0.000000
# 3 -0.002065 -0.005536 0.009513 0.000000 0.000000 0.000000
# 4 0.000000 0.000000 0.000000 0.046984 0.000000 0.000000
# 5 0.000000 0.000000 0.000000 0.000000 0.055802 0.000000
# 6 0.000000 0.000000 0.000000 0.000000 0.000000 0.040441
#
#
# Mechanical properties :
#
#
# Convention : Reuss Voigt Hill
#
# Bulk Modulus (GPa) = 30.48305 38.97460 34.72882
# Shear Modulus (GPa) = 23.42863 26.15593 24.79228
#
# Velocity S-wave (km/s) = 3.26722 3.45215 3.36096
# Velocity P-wave (km/s) = 5.30300 5.80066 5.55741
#
# Compressibility (1/GPa) = 0.03280512
#
# Stress axis : x y z
#
# Youngs Moduli (GPa) = 59.28564 50.89486 105.12463
#
# Poissons Ratio (x) = -0.05036 0.21708
# Poissons Ratio (y) = -0.05867 0.58199
# Poissons Ratio (z) = 0.12242 0.28176
#
# Static dielectric constant tensor:
#      x y z
#    x 1.877760 0.000000 0.000000 
#    y 0.000000 1.832940 0.000000 
#    z 0.000000 0.000000 2.110940 
# 
# From -- ./inp_files/2412.got.cif
#   From: 2010.05.17/outbox.cif.g08.bks.cpg/sg46_2_cif.got.tgz:2412.got - 2010.06.03 19:58:25.
