data_PCOD9380082
_publ_section_title
;
Structure prediction by ZEFSAII (Michael W. Deem and Ramdas Pophale) SiO2 
 PCOD9380082
Probable space group: I M A 2
;
_chemical_formula_sum "Si O2"
_cell_formula_units_Z 64
_cell_length_a 9.630141
_cell_length_b 14.421193
_cell_length_c 24.180750
_cell_angle_alpha 90.000000
_cell_angle_beta 90.000000
_cell_angle_gamma 90.000000
_cell_volume 3358.177148
_symmetry_space_group_name_H-M "I M A 2"
_symmetry_group_IT_number 46
_symmetry_cell_setting 'orthorhombic'
loop_
_space_group_symop_operation_xyz
x,y,z
-x,-y,z
1/2-x,y,z
1/2+x,-y,z
1/2+x,1/2+y,1/2+z
1/2-x,1/2-y,1/2+z
-x,1/2+y,1/2+z
x,1/2-y,1/2+z
loop_
_atom_site_type_symbol
_atom_site_label
_atom_site_fract_x
_atom_site_fract_y
_atom_site_fract_z
Si Si1 0.406920 0.698407 0.633530
Si Si2 0.914161 0.729942 0.438980
Si Si3 0.031257 0.390163 0.132757
Si Si4 0.083370 0.737769 0.327216
Si Si5 0.904081 0.589110 0.009294
Si Si6 0.587118 0.406252 0.749185
Si Si7 0.407774 0.093195 0.755852
Si Si8 0.085033 0.404487 0.542144
O O1 0.250000 0.670579 0.617886
O O2 0.414701 0.810312 0.634823
O O3 0.437482 0.654613 0.693688
O O4 0.517032 0.658692 0.590010
O O5 0.750000 0.731365 0.422524
O O6 0.945764 0.825075 0.471472
O O7 0.931237 0.647823 0.483499
O O8 0.016505 0.724706 0.387335
O O9 0.103941 0.377768 0.191570
O O10 0.000000 0.500000 0.132194
O O11 0.099072 0.376666 0.072918
O O12 0.250000 0.720361 0.325943
O O13 0.059967 0.840288 0.301809
O O14 0.997276 0.668778 0.288121
O O15 0.750000 0.560247 0.993132
O O16 0.000000 0.500000 0.004944
O O17 0.500000 0.500000 0.748749
O O18 0.750000 0.429970 0.749242
O O19 0.250000 0.080913 0.777315
O O20 0.500000 0.000000 0.758575
O O21 0.250000 0.417860 0.551883
O O22 0.000000 0.500000 0.542040
#
# Coordination Sequence:
#
# PCOD9380082 Si02
#       8
#     8   8   8   8   8   8   8   8
#     4  11  22  40  66  95 130 167 207 256 312 374
#     4  10  23  43  63  87 123 163 208 261 312 369
#     4  10  21  37  61  97 132 165 201 246 307 375
#     4  11  24  43  64  89 123 162 212 264 312 369
#     4  10  21  39  61  90 126 161 200 249 304 368
#     4  10  23  42  63  91 125 163 208 258 310 368
#     4  11  23  39  64  94 127 165 204 249 309 376
#     4  11  24  43  65  93 128 163 209 260 314 376
#
# _framework density 19.057956999999998
#
# number of rings (size 3 to 8) (size 9 to 14) (size 15 to 20)
#    0.000    1.500    2.500    1.875    0.000    9.500 
#    0.000    3.750    0.000    0.000    0.000    0.000 
#    0.000    0.000    0.000    0.000    0.000    0.000 
#
# Total GULP energy -178470.038746 kJ/mol
# GULP energy per Si atom -5577.188711 kJ/mol
# Density = 1.901458 g / cm^3
# Si number density = 19.057957 Si / 1000 Ang^3
#
#
#
# Elastic Constant Matrix: (Units=GPa)
#
#
# Indices 1 2 3 4 5 6 
#
# 1 119.0967 66.1531 54.7098 0.0000 0.0000 0.0000
# 2 66.1531 106.6610 25.7801 0.0000 0.0000 0.0000
# 3 54.7098 25.7801 87.1396 0.0000 0.0000 0.0000
# 4 0.0000 0.0000 0.0000 13.9258 0.0000 0.0000
# 5 0.0000 0.0000 0.0000 0.0000 -13.6085 0.0000
# 6 0.0000 0.0000 0.0000 0.0000 0.0000 28.6368
#
#
#
# Elastic Compliance Matrix: (Units=1/GPa)
#
#
# Indices 1 2 3 4 5 6 
#
# 1 0.016796 -0.008475 -0.008038 0.000000 0.000000 0.000000
# 2 -0.008475 0.014373 0.001068 0.000000 0.000000 0.000000
# 3 -0.008038 0.001068 0.016207 0.000000 0.000000 0.000000
# 4 0.000000 0.000000 0.000000 0.071809 0.000000 0.000000
# 5 0.000000 0.000000 0.000000 0.000000 -0.073483 0.000000
# 6 0.000000 0.000000 0.000000 0.000000 0.000000 0.034920
#
#
# Mechanical properties :
#
#
# Convention : Reuss Voigt Hill
#
# Bulk Modulus (GPa) = 60.65278 67.35368 64.00323
# Shear Modulus (GPa) = 42.73268 16.87444 29.80356
#
# Velocity S-wave (km/s) = 4.74038 2.97884 3.95883
# Velocity P-wave (km/s) = 7.86486 6.87383 7.38599
#
# Compressibility (1/GPa) = 0.01648729
#
# Stress axis : x y z
#
# Youngs Moduli (GPa) = 59.53690 69.57327 61.70362
#
# Poissons Ratio (x) = 0.58960 0.49599
# Poissons Ratio (y) = 0.50455 -0.06592
# Poissons Ratio (z) = 0.47857 -0.07433
#
# Static dielectric constant tensor:
#      x y z
#    x 1.672240 0.000000 0.000000 
#    y 0.000000 1.673970 0.000000 
#    z 0.000000 0.000000 1.654850 
# 
# From -- ./inp_files/23245.got.cif
#   From: 2010.05.17/outbox.cif.g08.bks.cpg/sg46_12_cif.got.tgz:23245.got - 2010.06.03 19:58:25.
