data_PCOD9380628
_publ_section_title
;
Structure prediction by ZEFSAII (Michael W. Deem and Ramdas Pophale) SiO2 
 PCOD9380628
Probable space group: I M A 2
;
_chemical_formula_sum "Si O2"
_cell_formula_units_Z 64
_cell_length_a 8.862044
_cell_length_b 25.674790
_cell_length_c 15.335403
_cell_angle_alpha 90.000000
_cell_angle_beta 90.000000
_cell_angle_gamma 90.000000
_cell_volume 3489.281400
_symmetry_space_group_name_H-M "I M A 2"
_symmetry_group_IT_number 46
_symmetry_cell_setting 'orthorhombic'
loop_
_space_group_symop_operation_xyz
x,y,z
-x,-y,z
1/2-x,y,z
1/2+x,-y,z
1/2+x,1/2+y,1/2+z
1/2-x,1/2-y,1/2+z
-x,1/2+y,1/2+z
x,1/2-y,1/2+z
loop_
_atom_site_type_symbol
_atom_site_label
_atom_site_fract_x
_atom_site_fract_y
_atom_site_fract_z
Si Si1 0.566388 0.150344 0.269500
Si Si2 0.568756 0.443881 0.893825
Si Si3 0.929864 0.637296 0.397094
Si Si4 0.573461 0.216217 0.593522
Si Si5 0.931917 0.334195 0.571334
Si Si6 0.429869 0.107528 0.562839
Si Si7 0.931907 0.557235 0.248562
Si Si8 0.072857 0.734051 0.301800
O O1 0.750000 0.151912 0.268970
O O2 0.519836 0.100754 0.325412
O O3 0.518996 0.148907 0.168291
O O4 0.520042 0.206098 0.309753
O O5 0.500000 0.500000 0.873031
O O6 0.750000 0.446816 0.893530
O O7 0.511608 0.425153 0.988093
O O8 0.750000 0.635614 0.402346
O O9 0.981482 0.592624 0.329967
O O10 0.999870 0.633278 0.492789
O O11 0.981570 0.692145 0.356085
O O12 0.750000 0.208210 0.571380
O O13 0.526309 0.273155 0.560009
O O14 0.479425 0.167711 0.559378
O O15 0.562630 0.220119 0.698876
O O16 0.750000 0.336395 0.568768
O O17 0.250000 0.102847 0.553090
O O18 0.473621 0.085461 0.657976
O O19 0.750000 0.554047 0.250424
O O20 0.000000 0.500000 0.251808
O O21 0.250000 0.731170 0.326661
#
# Coordination Sequence:
#
# PCOD9380628 Si02
#       8
#     8   8   8   8   8   8   8   8
#     4   8  18  38  61  82 109 144 191 241 281 327
#     4  11  23  40  60  84 113 148 193 244 289 339
#     4  11  22  36  53  84 121 151 183 235 290 335
#     4   9  18  33  55  83 114 149 191 231 273 332
#     4   9  19  37  59  83 112 151 194 234 277 338
#     4  11  22  37  56  83 118 154 187 230 286 344
#     4  10  23  40  57  78 112 152 192 234 280 334
#     4   9  17  33  57  83 109 147 190 227 272 335
#
# _framework density 18.341884
#
# number of rings (size 3 to 8) (size 9 to 14) (size 15 to 20)
#    0.000    2.250    1.250    3.000    1.750    3.500 
#    0.000    4.375    0.000    3.000    0.000    0.000 
#    0.000    0.000    0.000    0.000    0.000    0.000 
#
# Total GULP energy -178674.031124 kJ/mol
# GULP energy per Si atom -5583.563473 kJ/mol
# Density = 1.830014 g / cm^3
# Si number density = 18.341884 Si / 1000 Ang^3
#
#
#
# Elastic Constant Matrix: (Units=GPa)
#
#
# Indices 1 2 3 4 5 6 
#
# 1 24.9829 30.4638 21.9009 0.0000 0.0000 0.0000
# 2 30.4638 118.0774 54.3546 0.0000 0.0000 0.0000
# 3 21.9009 54.3546 81.7099 0.0001 0.0000 0.0000
# 4 0.0000 0.0000 0.0001 25.0247 0.0000 0.0000
# 5 0.0000 0.0000 0.0000 0.0000 24.3076 0.0000
# 6 0.0000 0.0000 0.0000 0.0000 0.0000 28.9983
#
#
#
# Elastic Compliance Matrix: (Units=1/GPa)
#
#
# Indices 1 2 3 4 5 6 
#
# 1 0.062389 -0.012105 -0.008670 0.000000 0.000000 0.000000
# 2 -0.012105 0.014556 -0.006438 0.000000 0.000000 0.000000
# 3 -0.008670 -0.006438 0.018845 0.000000 0.000000 0.000000
# 4 0.000000 0.000000 0.000000 0.039961 0.000000 0.000000
# 5 0.000000 0.000000 0.000000 0.000000 0.041139 0.000000
# 6 0.000000 0.000000 0.000000 0.000000 0.000000 0.034485
#
#
# Mechanical properties :
#
#
# Convention : Reuss Voigt Hill
#
# Bulk Modulus (GPa) = 24.17602 48.68988 36.43295
# Shear Modulus (GPa) = 17.88347 23.53616 20.70981
#
# Velocity S-wave (km/s) = 3.12590 3.58605 3.36385
# Velocity P-wave (km/s) = 5.12228 6.61436 5.91555
#
# Compressibility (1/GPa) = 0.04136330
#
# Stress axis : x y z
#
# Youngs Moduli (GPa) = 16.02857 68.70096 53.06480
#
# Poissons Ratio (x) = 0.83165 0.46005
# Poissons Ratio (y) = 0.19403 0.34164
# Poissons Ratio (z) = 0.13896 0.44231
#
# Static dielectric constant tensor:
#      x y z
#    x 1.616660 0.000000 0.000000 
#    y 0.000000 1.609700 0.000000 
#    z 0.000000 0.000000 1.642530 
# 
# From -- ./inp_files/14453.got.cif
#   From: 2010.05.17/outbox.cif.g08.bks.cpg/sg46_8_cif.got.tgz:14453.got - 2010.06.03 19:58:25.
