data_PCOD9380995
_publ_section_title
;
Structure prediction by ZEFSAII (Michael W. Deem and Ramdas Pophale) SiO2 
 PCOD9380995
Probable space group: I M A 2
;
_chemical_formula_sum "Si O2"
_cell_formula_units_Z 56
_cell_length_a 20.295120
_cell_length_b 5.061569
_cell_length_c 22.860221
_cell_angle_alpha 90.000000
_cell_angle_beta 90.000000
_cell_angle_gamma 90.000000
_cell_volume 2348.319637
_symmetry_space_group_name_H-M "I M A 2"
_symmetry_group_IT_number 46
_symmetry_cell_setting 'orthorhombic'
loop_
_space_group_symop_operation_xyz
x,y,z
-x,-y,z
1/2-x,y,z
1/2+x,-y,z
1/2+x,1/2+y,1/2+z
1/2-x,1/2-y,1/2+z
-x,1/2+y,1/2+z
x,1/2-y,1/2+z
loop_
_atom_site_type_symbol
_atom_site_label
_atom_site_fract_x
_atom_site_fract_y
_atom_site_fract_z
Si Si1 0.173531 0.802592 0.616970
Si Si2 0.428011 0.463192 0.697011
Si Si3 0.072480 0.603203 0.385096
Si Si4 0.619894 0.581101 0.818820
Si Si5 0.750000 0.762659 0.933324
Si Si6 0.750000 0.286676 0.859564
Si Si7 0.061523 0.321152 0.079369
Si Si8 0.363834 0.525431 0.499995
O O1 0.250000 0.838233 0.636174
O O2 0.123082 0.669933 0.664950
O O3 0.172770 0.642004 0.556181
O O4 0.132968 0.054169 0.593811
O O5 0.500000 0.500000 0.726559
O O6 0.387114 0.345978 0.750795
O O7 0.453403 0.291374 0.642875
O O8 0.070634 0.853438 0.342181
O O9 0.109511 0.691008 0.444778
O O10 0.000000 0.500000 0.398143
O O11 0.109438 0.349709 0.355586
O O12 0.687088 0.412170 0.827365
O O13 0.750000 0.455302 0.919055
O O14 0.750000 0.978635 0.878836
O O15 0.814156 0.823374 0.970467
O O16 0.073425 0.111408 0.029289
O O17 0.000000 0.500000 0.062741
#
# Coordination Sequence:
#
# PCOD9380995 Si02
#       8
#     8   8   8   8   4   4   8   8
#     4  11  26  45  70 104 142 185 242 301 364 438
#     4  11  25  48  72 100 140 190 243 303 370 439
#     4  12  27  46  71 110 143 190 243 300 364 440
#     4  12  27  47  75 105 145 190 243 306 366 439
#     4  12  24  48  73 100 153 194 240 294 378 448
#     4  12  24  48  69 108 145 192 246 298 370 448
#     4  11  26  45  73 105 141 196 248 307 374 449
#     4  11  26  42  71 103 147 188 237 300 370 442
#
# _framework density 23.846838999999999
#
# number of rings (size 3 to 8) (size 9 to 14) (size 15 to 20)
#    0.000    0.571    5.000    1.286   10.000    1.143 
#    0.000    0.000    0.000    0.000    0.000    0.000 
#    0.000    0.000    0.000    0.000    0.000    0.000 
#
# Total GULP energy -156096.333233 kJ/mol
# GULP energy per Si atom -5574.869044 kJ/mol
# Density = 2.379256 g / cm^3
# Si number density = 23.846839 Si / 1000 Ang^3
#
#
#
# Elastic Constant Matrix: (Units=GPa)
#
#
# Indices 1 2 3 4 5 6 
#
# 1 133.1170 7.3138 18.2187 0.0000 0.0000 0.0000
# 2 7.3138 65.2958 7.9154 0.0000 0.0000 0.0000
# 3 18.2187 7.9154 110.8923 0.0000 0.0000 0.0000
# 4 0.0000 0.0000 0.0000 -31.4759 0.0000 0.0000
# 5 0.0000 0.0000 0.0000 0.0000 109.1991 0.0000
# 6 0.0000 0.0000 0.0000 0.0000 0.0000 35.2588
#
#
#
# Elastic Compliance Matrix: (Units=1/GPa)
#
#
# Indices 1 2 3 4 5 6 
#
# 1 0.007718 -0.000717 -0.001217 0.000000 0.000000 0.000000
# 2 -0.000717 0.015515 -0.000990 0.000000 0.000000 0.000000
# 3 -0.001217 -0.000990 0.009288 0.000000 0.000000 0.000000
# 4 0.000000 0.000000 0.000000 -0.031770 0.000000 0.000000
# 5 0.000000 0.000000 0.000000 0.000000 0.009158 0.000000
# 6 0.000000 0.000000 0.000000 0.000000 0.000000 0.028362
#
#
# Mechanical properties :
#
#
# Convention : Reuss Voigt Hill
#
# Bulk Modulus (GPa) = 37.48882 41.80011 39.64446
# Shear Modulus (GPa) = 94.32330 40.98688 67.65509
#
# Velocity S-wave (km/s) = 6.29600 4.15028 5.33219
# Velocity P-wave (km/s) = 8.28298 6.36656 7.38718
#
# Compressibility (1/GPa) = 0.02667462
#
# Stress axis : x y z
#
# Youngs Moduli (GPa) = 129.56515 64.45291 107.66209
#
# Poissons Ratio (x) = 0.04621 0.13101
# Poissons Ratio (y) = 0.09290 0.10655
# Poissons Ratio (z) = 0.15766 0.06379
#
# Static dielectric constant tensor:
#      x y z
#    x 1.886610 0.000000 0.000000 
#    y 0.000000 1.997460 0.000000 
#    z 0.000000 0.000000 1.891560 
# 
# From -- ./inp_files/23863.got.cif
#   From: 2010.05.17/outbox.cif.g08.bks.cpg/sg46_12_cif.got.tgz:23863.got - 2010.06.03 19:58:25.
