data_PCOD9380586
_publ_section_title
;
Structure prediction by ZEFSAII (Michael W. Deem and Ramdas Pophale) SiO2 
 PCOD9380586
Probable space group: I M A 2
;
_chemical_formula_sum "Si O2"
_cell_formula_units_Z 48
_cell_length_a 25.752118
_cell_length_b 5.723229
_cell_length_c 13.191340
_cell_angle_alpha 90.000000
_cell_angle_beta 90.000000
_cell_angle_gamma 90.000000
_cell_volume 1944.209188
_symmetry_space_group_name_H-M "I M A 2"
_symmetry_group_IT_number 46
_symmetry_cell_setting 'orthorhombic'
loop_
_space_group_symop_operation_xyz
x,y,z
-x,-y,z
1/2-x,y,z
1/2+x,-y,z
1/2+x,1/2+y,1/2+z
1/2-x,1/2-y,1/2+z
-x,1/2+y,1/2+z
x,1/2-y,1/2+z
loop_
_atom_site_type_symbol
_atom_site_label
_atom_site_fract_x
_atom_site_fract_y
_atom_site_fract_z
Si Si1 0.189475 0.706350 0.103240
Si Si2 0.620970 0.229626 0.428756
Si Si3 0.629291 0.553523 0.731300
Si Si4 0.307893 0.068238 0.817027
Si Si5 0.028786 0.248023 0.644076
Si Si6 0.993203 0.249688 0.928989
O O1 0.250000 0.757159 0.081390
O O2 0.188901 0.558856 0.207275
O O3 0.153353 0.925382 0.134478
O O4 0.159742 0.600083 0.006353
O O5 0.651378 0.461927 0.395236
O O6 0.564503 0.259029 0.476073
O O7 0.608624 0.115582 0.319229
O O8 0.584127 0.730873 0.699194
O O9 0.677422 0.671266 0.788800
O O10 0.250000 0.040154 0.856458
O O11 0.000000 0.500000 0.662191
O O12 0.033488 0.243836 0.521791
O O13 0.000000 0.000000 0.665452
O O14 0.000000 0.500000 0.876404
O O15 0.000000 0.000000 0.875526
#
# Coordination Sequence:
#
# PCOD9380586 Si02
#       6
#     8   8   8   8   8   8
#     4  10  22  43  72 101 140 191 246 306 381 453
#     4  11  25  43  70 103 143 189 242 310 374 445
#     4  11  25  43  71 103 144 194 243 312 378 456
#     4  10  24  44  69 102 141 184 242 308 375 451
#     4  10  23  43  73 101 142 197 243 302 368 442
#     4  10  23  42  69 102 142 189 243 299 361 440
#
# _framework density 24.688703
#
# number of rings (size 3 to 8) (size 9 to 14) (size 15 to 20)
#    0.000    1.667    0.000    3.000   11.667    4.000 
#    0.000    1.667    0.000    0.000    0.000    0.000 
#    0.000    0.000    0.000    0.000    0.000    0.000 
#
# Total GULP energy -133981.442177 kJ/mol
# GULP energy per Si atom -5582.560091 kJ/mol
# Density = 2.463251 g / cm^3
# Si number density = 24.688703 Si / 1000 Ang^3
#
#
#
# Elastic Constant Matrix: (Units=GPa)
#
#
# Indices 1 2 3 4 5 6 
#
# 1 113.2943 37.6312 3.0958 0.0000 0.0000 0.0000
# 2 37.6312 131.1541 8.4542 0.0000 0.0000 0.0000
# 3 3.0958 8.4542 90.4181 0.0000 0.0000 0.0000
# 4 0.0000 0.0000 0.0000 -20.8899 0.0000 0.0000
# 5 0.0000 0.0000 0.0000 0.0000 46.5964 0.0000
# 6 0.0000 0.0000 0.0000 0.0000 0.0000 30.6944
#
#
#
# Elastic Compliance Matrix: (Units=1/GPa)
#
#
# Indices 1 2 3 4 5 6 
#
# 1 0.009757 -0.002795 -0.000073 0.000000 0.000000 0.000000
# 2 -0.002795 0.008471 -0.000696 0.000000 0.000000 0.000000
# 3 -0.000073 -0.000696 0.011127 0.000000 0.000000 0.000000
# 4 0.000000 0.000000 0.000000 -0.047870 0.000000 0.000000
# 5 0.000000 0.000000 0.000000 0.000000 0.021461 0.000000
# 6 0.000000 0.000000 0.000000 0.000000 0.000000 0.032579
#
#
# Mechanical properties :
#
#
# Convention : Reuss Voigt Hill
#
# Bulk Modulus (GPa) = 44.98881 48.13653 46.56267
# Shear Modulus (GPa) = 99.87458 30.32586 65.10022
#
# Velocity S-wave (km/s) = 6.36721 3.50856 5.14059
# Velocity P-wave (km/s) = 8.50395 5.99608 7.35765
#
# Compressibility (1/GPa) = 0.02222775
#
# Stress axis : x y z
#
# Youngs Moduli (GPa) = 102.49199 118.04425 89.86875
#
# Poissons Ratio (x) = 0.32991 0.00654
# Poissons Ratio (y) = 0.28644 0.06258
# Poissons Ratio (z) = 0.00746 0.08221
#
# Static dielectric constant tensor:
#      x y z
#    x 1.905040 0.000000 0.000000 
#    y 0.000000 2.041360 0.000000 
#    z 0.000000 0.000000 1.984510 
# 
# From -- ./inp_files/17554.got.cif
#   From: 2010.05.17/outbox.cif.g08.bks.cpg/sg46_9_cif.got.tgz:17554.got - 2010.06.03 19:58:25.
