data_PCOD9380799
_publ_section_title
;
Structure prediction by ZEFSAII (Michael W. Deem and Ramdas Pophale) SiO2 
 PCOD9380799
Probable space group: I M A 2
;
_chemical_formula_sum "Si O2"
_cell_formula_units_Z 56
_cell_length_a 14.648576
_cell_length_b 17.511430
_cell_length_c 9.447857
_cell_angle_alpha 90.000000
_cell_angle_beta 90.000000
_cell_angle_gamma 90.000000
_cell_volume 2423.540783
_symmetry_space_group_name_H-M "I M A 2"
_symmetry_group_IT_number 46
_symmetry_cell_setting 'orthorhombic'
loop_
_space_group_symop_operation_xyz
x,y,z
-x,-y,z
1/2-x,y,z
1/2+x,-y,z
1/2+x,1/2+y,1/2+z
1/2-x,1/2-y,1/2+z
-x,1/2+y,1/2+z
x,1/2-y,1/2+z
loop_
_atom_site_type_symbol
_atom_site_label
_atom_site_fract_x
_atom_site_fract_y
_atom_site_fract_z
Si Si1 0.903944 0.968381 0.502730
Si Si2 0.859263 0.330950 0.800765
Si Si3 0.645251 0.991825 0.220697
Si Si4 0.401502 0.039853 0.901548
Si Si5 0.143994 0.328360 0.194777
Si Si6 0.843953 0.086832 0.690075
Si Si7 0.456604 0.717796 0.097599
O O1 0.913821 0.949958 0.339316
O O2 0.844024 0.041844 0.541374
O O3 0.863097 0.896387 0.579964
O O4 0.000000 0.000000 0.560204
O O5 0.750000 0.318247 0.827569
O O6 0.870448 0.418579 0.749694
O O7 0.896690 0.284109 0.665714
O O8 0.920624 0.303973 0.938460
O O9 0.750000 0.974790 0.255227
O O10 0.626601 0.965682 0.063465
O O11 0.385433 0.124355 0.836858
O O12 0.500000 0.000000 0.893516
O O13 0.346546 0.979658 0.805028
O O14 0.250000 0.301939 0.205653
O O15 0.064238 0.272288 0.135237
O O16 0.750000 0.131864 0.705203
O O17 0.927792 0.143413 0.689730
#
# Coordination Sequence:
#
# PCOD9380799 Si02
#       7
#     8   8   8   8   8   8   8
#     4  11  18  35  59  90 124 162 204 255 316 380
#     4  11  25  42  64  93 128 169 214 268 327 382
#     4  11  22  36  56  91 129 162 204 258 320 379
#     4  11  21  36  57  92 130 163 202 254 316 379
#     4  11  22  41  66  93 124 167 214 257 315 389
#     4  11  19  34  58  82 117 159 197 245 306 371
#     4  12  24  43  63  90 128 166 217 263 312 382
#
# _framework density 23.106687000000001
#
# number of rings (size 3 to 8) (size 9 to 14) (size 15 to 20)
#    0.000    0.857    4.286    6.000    2.000    0.000 
#    0.000    0.714    0.000    0.000    0.000    0.000 
#    0.000    0.000    0.000    0.000    0.000    0.000 
#
# Total GULP energy -156154.355701 kJ/mol
# GULP energy per Si atom -5576.941275 kJ/mol
# Density = 2.305410 g / cm^3
# Si number density = 23.106687 Si / 1000 Ang^3
#
#
#
# Elastic Constant Matrix: (Units=GPa)
#
#
# Indices 1 2 3 4 5 6 
#
# 1 149.5615 -9.2516 -10.7764 0.0000 0.0000 0.0000
# 2 -9.2516 14.3758 4.7934 0.0000 0.0000 0.0000
# 3 -10.7764 4.7934 117.7290 0.0000 0.0000 0.0000
# 4 0.0000 0.0000 0.0000 11.7093 0.0000 0.0000
# 5 0.0000 0.0000 0.0000 0.0000 -880.6168 0.0000
# 6 0.0000 0.0000 0.0000 0.0000 0.0000 20.8811
#
#
#
# Elastic Compliance Matrix: (Units=1/GPa)
#
#
# Indices 1 2 3 4 5 6 
#
# 1 0.006988 0.004343 0.000463 0.000000 0.000000 0.000000
# 2 0.004343 0.073218 -0.002584 0.000000 0.000000 0.000000
# 3 0.000463 -0.002584 0.008642 0.000000 0.000000 0.000000
# 4 0.000000 0.000000 0.000000 0.085402 0.000000 0.000000
# 5 0.000000 0.000000 0.000000 0.000000 -0.001136 0.000000
# 6 0.000000 0.000000 0.000000 0.000000 0.000000 0.047890
#
#
# Mechanical properties :
#
#
# Convention : Reuss Voigt Hill
#
# Bulk Modulus (GPa) = 10.71903 27.91079 19.31491
# Shear Modulus (GPa) = 20.18921 -149.81189 -64.81134
#
# Velocity S-wave (km/s) = 2.95911 -8.06075 -5.30185
# Velocity P-wave (km/s) = 4.04031 8.63301 5.39466
#
# Compressibility (1/GPa) = 0.09329202
#
# Stress axis : x y z
#
# Youngs Moduli (GPa) = 143.09818 13.65790 115.71869
#
# Poissons Ratio (x) = -0.05932 -0.05356
# Poissons Ratio (y) = -0.62147 0.29897
# Poissons Ratio (z) = -0.06623 0.03529
#
# Static dielectric constant tensor:
#      x y z
#    x 1.970560 0.000000 0.000000 
#    y 0.000000 1.873100 0.000000 
#    z 0.000000 0.000000 1.899830 
# 
# From -- ./inp_files/5950.got.cif
#   From: 2010.05.17/outbox.cif.g08.bks.cpg/sg46_3_cif.got.tgz:5950.got - 2010.06.03 19:58:25.
