data_PCOD9380807
_publ_section_title
;
Structure prediction by ZEFSAII (Michael W. Deem and Ramdas Pophale) SiO2 
 PCOD9380807
Probable space group: I M A 2
;
_chemical_formula_sum "Si O2"
_cell_formula_units_Z 40
_cell_length_a 18.277550
_cell_length_b 9.699008
_cell_length_c 9.917355
_cell_angle_alpha 90.000000
_cell_angle_beta 90.000000
_cell_angle_gamma 90.000000
_cell_volume 1758.090218
_symmetry_space_group_name_H-M "I M A 2"
_symmetry_group_IT_number 46
_symmetry_cell_setting 'orthorhombic'
loop_
_space_group_symop_operation_xyz
x,y,z
-x,-y,z
1/2-x,y,z
1/2+x,-y,z
1/2+x,1/2+y,1/2+z
1/2-x,1/2-y,1/2+z
-x,1/2+y,1/2+z
x,1/2-y,1/2+z
loop_
_atom_site_type_symbol
_atom_site_label
_atom_site_fract_x
_atom_site_fract_y
_atom_site_fract_z
Si Si1 0.663050 0.942229 0.109380
Si Si2 0.332191 0.506817 0.307703
Si Si3 0.915781 0.524460 0.037040
Si Si4 0.960746 0.847275 0.282458
Si Si5 0.618845 0.190047 0.306173
O O1 0.750000 0.908574 0.119732
O O2 0.649075 0.085003 0.192902
O O3 0.604334 0.840158 0.177086
O O4 0.641123 0.960624 0.954199
O O5 0.250000 0.455688 0.295316
O O6 0.373834 0.461136 0.174793
O O7 0.334583 0.672903 0.312471
O O8 0.000000 0.500000 0.070552
O O9 0.921109 0.646806 0.927037
O O10 0.884764 0.395805 0.946934
O O11 0.034675 0.759923 0.276357
O O12 0.000000 0.000000 0.267495
#
# Coordination Sequence:
#
# PCOD9380807 Si02
#       5
#     8   8   8   8   8
#     4   9  17  27  41  64  92 120 149 181 221 268
#     4  11  20  27  43  74 102 117 137 183 240 275
#     4   8  17  31  44  59  87 126 158 179 209 266
#     4   7  15  31  45  57  84 126 164 181 203 265
#     4   9  17  30  44  62  91 123 155 184 219 270
#
# _framework density 22.751961000000001
#
# number of rings (size 3 to 8) (size 9 to 14) (size 15 to 20)
#    0.000    4.000    0.000    1.800    0.000    8.000 
#    0.000    0.000    0.000    0.000    0.000    1.400 
#    0.000   64.000    0.000    0.200    0.000    0.000 
#
# Total GULP energy -111544.081399 kJ/mol
# GULP energy per Si atom -5577.204070 kJ/mol
# Density = 2.270018 g / cm^3
# Si number density = 22.751961 Si / 1000 Ang^3
#
#
#
# Elastic Constant Matrix: (Units=GPa)
#
#
# Indices 1 2 3 4 5 6 
#
# 1 88.7658 9.4586 95.1619 0.0000 0.0000 0.0000
# 2 9.4586 64.5105 27.2509 0.0000 0.0000 0.0000
# 3 95.1619 27.2509 218.4230 0.0000 0.0000 0.0000
# 4 0.0000 0.0000 0.0000 13.1828 0.0000 0.0000
# 5 0.0000 0.0000 0.0000 0.0000 48.7574 0.0000
# 6 0.0000 0.0000 0.0000 0.0000 0.0000 8.4976
#
#
#
# Elastic Compliance Matrix: (Units=1/GPa)
#
#
# Indices 1 2 3 4 5 6 
#
# 1 0.021182 0.000837 -0.009333 0.000000 0.000000 0.000000
# 2 0.000837 0.016397 -0.002410 0.000000 0.000000 0.000000
# 3 -0.009333 -0.002410 0.008945 0.000000 0.000000 0.000000
# 4 0.000000 0.000000 0.000000 0.075856 0.000000 0.000000
# 5 0.000000 0.000000 0.000000 0.000000 0.020510 0.000000
# 6 0.000000 0.000000 0.000000 0.000000 0.000000 0.117680
#
#
# Mechanical properties :
#
#
# Convention : Reuss Voigt Hill
#
# Bulk Modulus (GPa) = 40.46784 70.60469 55.53626
# Shear Modulus (GPa) = 17.20462 30.07609 23.64035
#
# Velocity S-wave (km/s) = 2.75286 3.63975 3.22692
# Velocity P-wave (km/s) = 5.28483 6.98309 6.19245
#
# Compressibility (1/GPa) = 0.02471098
#
# Stress axis : x y z
#
# Youngs Moduli (GPa) = 47.21052 60.98747 111.79352
#
# Poissons Ratio (x) = -0.05103 1.04334
# Poissons Ratio (y) = -0.03950 0.26945
# Poissons Ratio (z) = 0.44061 0.14699
#
# Static dielectric constant tensor:
#      x y z
#    x 1.859100 0.000000 0.000000 
#    y 0.000000 1.922100 0.000000 
#    z 0.000000 0.000000 1.850640 
# 
# From -- ./inp_files/6495.got.cif
#   From: 2010.05.17/outbox.cif.g08.bks.cpg/sg46_4_cif.got.tgz:6495.got - 2010.06.03 19:58:25.
