data_PCOD9380763
_publ_section_title
;
Structure prediction by ZEFSAII (Michael W. Deem and Ramdas Pophale) SiO2 
 PCOD9380763
Probable space group: I M A 2
;
_chemical_formula_sum "Si O2"
_cell_formula_units_Z 32
_cell_length_a 18.936597
_cell_length_b 13.585646
_cell_length_c 4.926190
_cell_angle_alpha 90.000000
_cell_angle_beta 90.000000
_cell_angle_gamma 90.000000
_cell_volume 1267.340720
_symmetry_space_group_name_H-M "I M A 2"
_symmetry_group_IT_number 46
_symmetry_cell_setting 'orthorhombic'
loop_
_space_group_symop_operation_xyz
x,y,z
-x,-y,z
1/2-x,y,z
1/2+x,-y,z
1/2+x,1/2+y,1/2+z
1/2-x,1/2-y,1/2+z
-x,1/2+y,1/2+z
x,1/2-y,1/2+z
loop_
_atom_site_type_symbol
_atom_site_label
_atom_site_fract_x
_atom_site_fract_y
_atom_site_fract_z
Si Si1 0.647156 0.683644 0.464440
Si Si2 0.534864 0.596229 0.754442
Si Si3 0.409347 0.818029 0.606566
Si Si4 0.328828 0.016559 0.571169
O O1 0.669937 0.741779 0.729953
O O2 0.562847 0.671472 0.527456
O O3 0.669347 0.576478 0.356266
O O4 0.500000 0.500000 0.621115
O O5 0.479834 0.631625 0.981001
O O6 0.607707 0.565628 0.901215
O O7 0.403897 0.723103 0.410567
O O8 0.350004 0.902456 0.586663
O O9 0.250000 0.027929 0.459020
#
# Coordination Sequence:
#
# PCOD9380763 Si02
#       4
#     8   8   8   8
#     4  12  25  46  69 103 146 198 245 299 366 440
#     4  10  24  46  78 112 151 196 251 315 382 440
#     4  11  27  48  80 112 144 196 253 312 374 440
#     4  11  28  50  74 112 158 197 248 309 378 458
#
# _framework density 25.249724000000001
#
# number of rings (size 3 to 8) (size 9 to 14) (size 15 to 20)
#    0.000    1.000    2.500    1.500   10.500    4.000 
#    0.000    0.000    0.000    0.000    0.000    0.000 
#    0.000    0.000    0.000    0.000    0.000    0.000 
#
# Total GULP energy -89415.045461 kJ/mol
# GULP energy per Si atom -5588.440341 kJ/mol
# Density = 2.519225 g / cm^3
# Si number density = 25.249724 Si / 1000 Ang^3
#
#
#
# Elastic Constant Matrix: (Units=GPa)
#
#
# Indices 1 2 3 4 5 6 
#
# 1 142.1602 57.7156 40.3147 0.0000 0.0000 0.0000
# 2 57.7156 96.8495 2.1034 0.0000 0.0000 0.0000
# 3 40.3147 2.1034 95.6019 0.0000 0.0000 0.0000
# 4 0.0000 0.0000 0.0000 45.4854 0.0000 0.0000
# 5 0.0000 0.0000 0.0000 0.0000 10.5176 0.0000
# 6 0.0000 0.0000 0.0000 0.0000 0.0000 4.1669
#
#
#
# Elastic Compliance Matrix: (Units=1/GPa)
#
#
# Indices 1 2 3 4 5 6 
#
# 1 0.010893 -0.006395 -0.004453 0.000000 0.000000 0.000000
# 2 -0.006395 0.014084 0.002387 0.000000 0.000000 0.000000
# 3 -0.004453 0.002387 0.012285 0.000000 0.000000 0.000000
# 4 0.000000 0.000000 0.000000 0.021985 0.000000 0.000000
# 5 0.000000 0.000000 0.000000 0.000000 0.095078 0.000000
# 6 0.000000 0.000000 0.000000 0.000000 0.000000 0.239987
#
#
# Mechanical properties :
#
#
# Convention : Reuss Voigt Hill
#
# Bulk Modulus (GPa) = 49.16202 59.43100 54.29651
# Shear Modulus (GPa) = 11.96124 27.66585 19.81355
#
# Velocity S-wave (km/s) = 2.17887 3.31371 2.80429
# Velocity P-wave (km/s) = 5.08356 6.18298 5.66003
#
# Compressibility (1/GPa) = 0.02034091
#
# Stress axis : x y z
#
# Youngs Moduli (GPa) = 91.79832 71.00024 81.39793
#
# Poissons Ratio (x) = 0.45405 0.36246
# Poissons Ratio (y) = 0.58705 -0.19429
# Poissons Ratio (z) = 0.40878 -0.16947
#
# Static dielectric constant tensor:
#      x y z
#    x 2.014120 0.000000 0.000000 
#    y 0.000000 2.014000 0.000000 
#    z 0.000000 0.000000 2.075020 
# 
# From -- ./inp_files/1546.got.cif
#   From: 2010.05.17/outbox.cif.g08.bks.cpg/sg46_1_cif.got.tgz:1546.got - 2010.06.03 19:58:25.
