data_PCOD9380564
_publ_section_title
;
Structure prediction by ZEFSAII (Michael W. Deem and Ramdas Pophale) SiO2 
 PCOD9380564
Probable space group: I M A 2
;
_chemical_formula_sum "Si O2"
_cell_formula_units_Z 36
_cell_length_a 15.580064
_cell_length_b 5.422545
_cell_length_c 19.546977
_cell_angle_alpha 90.000000
_cell_angle_beta 90.000000
_cell_angle_gamma 90.000000
_cell_volume 1651.398950
_symmetry_space_group_name_H-M "I M A 2"
_symmetry_group_IT_number 46
_symmetry_cell_setting 'orthorhombic'
loop_
_space_group_symop_operation_xyz
x,y,z
-x,-y,z
1/2-x,y,z
1/2+x,-y,z
1/2+x,1/2+y,1/2+z
1/2-x,1/2-y,1/2+z
-x,1/2+y,1/2+z
x,1/2-y,1/2+z
loop_
_atom_site_type_symbol
_atom_site_label
_atom_site_fract_x
_atom_site_fract_y
_atom_site_fract_z
Si Si1 0.903455 0.612731 0.451960
Si Si2 0.346622 0.944545 0.672160
Si Si3 0.345977 0.692979 0.325648
Si Si4 0.901477 0.565825 0.604301
Si Si5 0.500000 0.500000 0.876587
O O1 0.851088 0.479968 0.392317
O O2 0.864989 0.588793 0.527168
O O3 0.000000 0.500000 0.450838
O O4 0.927826 0.884500 0.426840
O O5 0.250000 0.006203 0.651151
O O6 0.351694 0.950223 0.754085
O O7 0.363823 0.665630 0.646295
O O8 0.399408 0.168251 0.640199
O O9 0.250000 0.815982 0.325191
O O10 0.435969 0.841699 0.329425
O O11 0.000000 0.500000 0.595143
#
# Coordination Sequence:
#
# PCOD9380564 Si02
#       5
#     8   8   8   8   4
#     4   9  22  41  65  94 131 171 226 282 335 405
#     4  11  26  45  65 100 142 178 224 285 342 408
#     4  10  24  43  66  98 136 178 228 283 341 407
#     4  11  25  43  71  99 135 180 229 278 344 411
#     4  10  22  42  68  98 130 176 232 284 340 406
#
# _framework density 21.799696999999998
#
# number of rings (size 3 to 8) (size 9 to 14) (size 15 to 20)
#    0.000    1.778    0.000    1.333   14.000    6.222 
#    0.000    0.000    0.000    0.000    0.000    0.000 
#    0.000    0.000    0.000    0.000    0.000    0.000 
#
# Total GULP energy -100287.770578 kJ/mol
# GULP energy per Si atom -5571.542810 kJ/mol
# Density = 2.175008 g / cm^3
# Si number density = 21.799697 Si / 1000 Ang^3
#
#
#
# Elastic Constant Matrix: (Units=GPa)
#
#
# Indices 1 2 3 4 5 6 
#
# 1 84.4899 14.8579 30.7513 0.0000 0.0000 0.0000
# 2 14.8579 73.1193 33.5674 0.0000 0.0000 0.0000
# 3 30.7513 33.5674 131.6190 0.0000 0.0000 0.0000
# 4 0.0000 0.0000 0.0000 10.2938 0.0000 0.0000
# 5 0.0000 0.0000 0.0000 0.0000 18.9040 0.0000
# 6 0.0000 0.0000 0.0000 0.0000 0.0000 226.1057
#
#
#
# Elastic Compliance Matrix: (Units=1/GPa)
#
#
# Indices 1 2 3 4 5 6 
#
# 1 0.013065 -0.001420 -0.002690 0.000000 0.000000 0.000000
# 2 -0.001420 0.015644 -0.003658 0.000000 0.000000 0.000000
# 3 -0.002690 -0.003658 0.009159 0.000000 0.000000 0.000000
# 4 0.000000 0.000000 0.000000 0.097146 0.000000 0.000000
# 5 0.000000 0.000000 0.000000 0.000000 0.052899 0.000000
# 6 0.000000 0.000000 0.000000 0.000000 0.000000 0.004423
#
#
# Mechanical properties :
#
#
# Convention : Reuss Voigt Hill
#
# Bulk Modulus (GPa) = 44.77942 49.73128 47.25535
# Shear Modulus (GPa) = 23.22175 65.06414 44.14294
#
# Velocity S-wave (km/s) = 3.26733 5.46911 4.50481
# Velocity P-wave (km/s) = 5.90083 7.92110 6.98440
#
# Compressibility (1/GPa) = 0.02233169
#
# Stress axis : x y z
#
# Youngs Moduli (GPa) = 76.54291 63.92183 109.17992
#
# Poissons Ratio (x) = 0.09075 0.29373
# Poissons Ratio (y) = 0.10867 0.39939
# Poissons Ratio (z) = 0.20593 0.23383
#
# Static dielectric constant tensor:
#      x y z
#    x 1.784710 0.000000 0.000000 
#    y 0.000000 2.096680 0.000000 
#    z 0.000000 0.000000 1.773010 
# 
# From -- ./inp_files/21831.got.cif
#   From: 2010.05.17/outbox.cif.g08.bks.cpg/sg46_11_cif.got.tgz:21831.got - 2010.06.03 19:58:25.
