data_PCOD9380592
_publ_section_title
;
Structure prediction by ZEFSAII (Michael W. Deem and Ramdas Pophale) SiO2 
 PCOD9380592
Probable space group: I M A 2
;
_chemical_formula_sum "Si O2"
_cell_formula_units_Z 48
_cell_length_a 9.688536
_cell_length_b 27.819752
_cell_length_c 8.723504
_cell_angle_alpha 90.000000
_cell_angle_beta 90.000000
_cell_angle_gamma 90.000000
_cell_volume 2351.269314
_symmetry_space_group_name_H-M "I M A 2"
_symmetry_group_IT_number 46
_symmetry_cell_setting 'orthorhombic'
loop_
_space_group_symop_operation_xyz
x,y,z
-x,-y,z
1/2-x,y,z
1/2+x,-y,z
1/2+x,1/2+y,1/2+z
1/2-x,1/2-y,1/2+z
-x,1/2+y,1/2+z
x,1/2-y,1/2+z
loop_
_atom_site_type_symbol
_atom_site_label
_atom_site_fract_x
_atom_site_fract_y
_atom_site_fract_z
Si Si1 0.250000 0.213316 0.771050
Si Si2 0.750000 0.215127 0.210241
Si Si3 0.750000 0.815453 0.418428
Si Si4 0.750000 0.316432 0.358009
Si Si5 0.463998 0.359058 0.407577
Si Si6 0.912419 0.955783 0.731291
Si Si7 0.913554 0.044928 0.416685
Si Si8 0.990060 0.143006 0.267431
O O1 0.250000 0.203018 0.591197
O O2 0.250000 0.269269 0.807566
O O3 0.121462 0.186434 0.847862
O O4 0.750000 0.271264 0.245543
O O5 0.617342 0.187120 0.275885
O O6 0.750000 0.206267 0.028543
O O7 0.883977 0.846235 0.379727
O O8 0.617474 0.349635 0.348155
O O9 0.413295 0.408519 0.335179
O O10 0.460918 0.360037 0.591372
O O11 0.750000 0.967399 0.703000
O O12 0.000920 0.946279 0.575373
O O13 0.000000 0.000000 0.803135
O O14 0.750000 0.034445 0.438596
O O15 0.923557 0.092708 0.315450
O O16 0.000000 0.000000 0.347222
#
# Coordination Sequence:
#
# PCOD9380592 Si02
#       8
#     4   4   4   4   8   8   8   8
#     4  12  24  46  61 102 127 178 219 270 324 390
#     4  10  22  44  59  96 127 166 217 258 320 376
#     4  12  26  40  71  92 137 172 221 266 328 390
#     4  10  24  38  67  88 131 168 211 264 314 382
#     4  11  24  43  65  96 133 169 222 269 327 386
#     4  11  24  43  67  98 132 170 219 270 324 394
#     4  11  24  43  68  98 133 171 219 267 326 394
#     4  11  24  43  65  97 131 174 214 275 324 387
#
# _framework density 20.414504999999998
#
# number of rings (size 3 to 8) (size 9 to 14) (size 15 to 20)
#    0.000    1.000    1.667    5.500    4.667    6.000 
#    0.000    1.667    0.000    0.000    0.000    0.000 
#    0.000    0.000    0.000    0.000    0.000    0.000 
#
# Total GULP energy -134133.607149 kJ/mol
# GULP energy per Si atom -5588.900298 kJ/mol
# Density = 2.036804 g / cm^3
# Si number density = 20.414505 Si / 1000 Ang^3
#
#
#
# Elastic Constant Matrix: (Units=GPa)
#
#
# Indices 1 2 3 4 5 6 
#
# 1 156.8522 25.7776 28.2909 0.0008 0.0003 0.0033
# 2 25.7776 94.7255 21.1441 0.0011 0.0028 0.0010
# 3 28.2909 21.1441 49.2843 0.0012 0.0023 0.0080
# 4 0.0008 0.0011 0.0012 34.7837 -0.0043 0.0007
# 5 0.0003 0.0028 0.0023 -0.0043 31.4544 -0.0007
# 6 0.0033 0.0010 0.0080 0.0007 -0.0007 52.2464
#
#
#
# Elastic Compliance Matrix: (Units=1/GPa)
#
#
# Indices 1 2 3 4 5 6 
#
# 1 0.007223 -0.001150 -0.003653 0.000000 0.000000 0.000000
# 2 -0.001150 0.011858 -0.004427 0.000000 -0.000001 0.000001
# 3 -0.003653 -0.004427 0.024287 -0.000001 -0.000001 -0.000003
# 4 0.000000 0.000000 -0.000001 0.028749 0.000004 0.000000
# 5 0.000000 -0.000001 -0.000001 0.000004 0.031792 0.000000
# 6 0.000000 0.000001 -0.000003 0.000000 0.000000 0.019140
#
#
# Mechanical properties :
#
#
# Convention : Reuss Voigt Hill
#
# Bulk Modulus (GPa) = 40.14867 50.14304 45.14585
# Shear Modulus (GPa) = 33.37510 38.74022 36.05766
#
# Velocity S-wave (km/s) = 4.04774 4.36096 4.20727
# Velocity P-wave (km/s) = 6.44632 7.06917 6.76492
#
# Compressibility (1/GPa) = 0.02490743
#
# Stress axis : x y z
#
# Youngs Moduli (GPa) = 138.44017 84.33101 41.17487
#
# Poissons Ratio (x) = 0.09701 0.15041
# Poissons Ratio (y) = 0.15925 0.18228
# Poissons Ratio (z) = 0.50571 0.37334
#
# Static dielectric constant tensor:
#      x y z
#    x 1.772540 0.000000 0.000010 
#    y 0.000000 1.702480 0.000000 
#    z 0.000010 0.000000 1.706840 
# 
# From -- ./inp_files/4027.got.cif
#   From: 2010.05.17/outbox.cif.g08.bks.cpg/sg46_3_cif.got.tgz:4027.got - 2010.06.03 19:58:25.
