data_PCOD9380181
_publ_section_title
;
Structure prediction by ZEFSAII (Michael W. Deem and Ramdas Pophale) SiO2 
 PCOD9380181
Probable space group: I M A 2
;
_chemical_formula_sum "Si O2"
_cell_formula_units_Z 48
_cell_length_a 23.647576
_cell_length_b 7.441971
_cell_length_c 12.666177
_cell_angle_alpha 90.000000
_cell_angle_beta 90.000000
_cell_angle_gamma 90.000000
_cell_volume 2229.051774
_symmetry_space_group_name_H-M "I M A 2"
_symmetry_group_IT_number 46
_symmetry_cell_setting 'orthorhombic'
loop_
_space_group_symop_operation_xyz
x,y,z
-x,-y,z
1/2-x,y,z
1/2+x,-y,z
1/2+x,1/2+y,1/2+z
1/2-x,1/2-y,1/2+z
-x,1/2+y,1/2+z
x,1/2-y,1/2+z
loop_
_atom_site_type_symbol
_atom_site_label
_atom_site_fract_x
_atom_site_fract_y
_atom_site_fract_z
Si Si1 0.155325 0.133262 0.031480
Si Si2 0.750000 0.471831 0.678345
Si Si3 0.750000 0.754948 0.374071
Si Si4 0.873298 0.132365 0.859036
Si Si5 0.750000 0.342358 0.313659
Si Si6 0.503488 0.288403 0.354730
Si Si7 0.584462 0.884578 0.681842
Si Si8 0.000000 0.500000 0.026887
O O1 0.117985 0.255450 0.105739
O O2 0.196811 0.025571 0.108420
O O3 0.194856 0.246964 0.950127
O O4 0.120701 0.990344 0.962593
O O5 0.750000 0.589089 0.786836
O O6 0.750000 0.261590 0.703980
O O7 0.750000 0.558219 0.317937
O O8 0.810366 0.213956 0.864754
O O9 0.929279 0.251588 0.841389
O O10 0.875761 0.993521 0.761087
O O11 0.500000 0.500000 0.379791
O O12 0.462130 0.278109 0.253374
O O13 0.485216 0.164268 0.450659
O O14 0.551850 0.025522 0.606842
#
# Coordination Sequence:
#
# PCOD9380181 Si02
#       8
#     8   4   4   8   4   8   8   4
#     4  10  21  38  69  95 131 180 219 273 349 400
#     4  11  23  41  66 100 129 177 233 262 341 422
#     4   9  21  43  60  98 139 169 215 284 329 400
#     4  10  21  43  62  92 141 170 214 292 332 392
#     4  10  22  38  66  90 130 174 216 270 332 404
#     4  10  23  44  63  96 137 169 231 291 330 418
#     4  11  21  42  67  95 134 176 231 283 340 422
#     4  12  24  42  70  94 124 186 226 264 378 402
#
# _framework density 21.533819000000001
#
# number of rings (size 3 to 8) (size 9 to 14) (size 15 to 20)
#    0.000    1.667    2.500    4.500    0.000    4.667 
#    4.500   11.667    0.000    0.000    0.000    0.000 
#    0.000    0.000    0.000    0.000    0.000    0.000 
#
# Total GULP energy -133888.633480 kJ/mol
# GULP energy per Si atom -5578.693062 kJ/mol
# Density = 2.148481 g / cm^3
# Si number density = 21.533819 Si / 1000 Ang^3
#
#
#
# Elastic Constant Matrix: (Units=GPa)
#
#
# Indices 1 2 3 4 5 6 
#
# 1 111.7748 4.4518 41.5511 0.0000 0.0000 0.0000
# 2 4.4518 44.1401 43.3578 0.0000 0.0000 0.0000
# 3 41.5511 43.3578 139.5087 0.0000 0.0000 0.0000
# 4 0.0000 0.0000 0.0000 24.0137 0.0000 0.0000
# 5 0.0000 0.0000 0.0000 0.0000 20.8730 0.0000
# 6 0.0000 0.0000 0.0000 0.0000 0.0000 5.6033
#
#
#
# Elastic Compliance Matrix: (Units=1/GPa)
#
#
# Indices 1 2 3 4 5 6 
#
# 1 0.010302 0.002843 -0.003952 0.000000 0.000000 0.000000
# 2 0.002843 0.033395 -0.011226 0.000000 0.000000 0.000000
# 3 -0.003952 -0.011226 0.011834 0.000000 0.000000 0.000000
# 4 0.000000 0.000000 0.000000 0.041643 0.000000 0.000000
# 5 0.000000 0.000000 0.000000 0.000000 0.047909 0.000000
# 6 0.000000 0.000000 0.000000 0.000000 0.000000 0.178467
#
#
# Mechanical properties :
#
#
# Convention : Reuss Voigt Hill
#
# Bulk Modulus (GPa) = 32.40229 52.68276 42.54253
# Shear Modulus (GPa) = 13.94674 23.83553 18.89114
#
# Velocity S-wave (km/s) = 2.54769 3.33060 2.96510
# Velocity P-wave (km/s) = 4.87177 6.26967 5.61440
#
# Compressibility (1/GPa) = 0.03086201
#
# Stress axis : x y z
#
# Youngs Moduli (GPa) = 97.06427 29.94462 84.50336
#
# Poissons Ratio (x) = -0.08513 0.33396
# Poissons Ratio (y) = -0.27594 0.94859
# Poissons Ratio (z) = 0.38360 0.33614
#
# Static dielectric constant tensor:
#      x y z
#    x 1.962000 0.000000 0.000000 
#    y 0.000000 1.764510 0.000000 
#    z 0.000000 0.000000 1.751440 
# 
# From -- ./inp_files/13010.got.cif
#   From: 2010.05.17/outbox.cif.g08.bks.cpg/sg46_7_cif.got.tgz:13010.got - 2010.06.03 19:58:25.
