data_PCOD9380272
_publ_section_title
;
Structure prediction by ZEFSAII (Michael W. Deem and Ramdas Pophale) SiO2 
 PCOD9380272
Probable space group: I M A 2
;
_chemical_formula_sum "Si O2"
_cell_formula_units_Z 64
_cell_length_a 16.845293
_cell_length_b 12.843257
_cell_length_c 14.394082
_cell_angle_alpha 90.000000
_cell_angle_beta 90.000000
_cell_angle_gamma 90.000000
_cell_volume 3114.137002
_symmetry_space_group_name_H-M "I M A 2"
_symmetry_group_IT_number 46
_symmetry_cell_setting 'orthorhombic'
loop_
_space_group_symop_operation_xyz
x,y,z
-x,-y,z
1/2-x,y,z
1/2+x,-y,z
1/2+x,1/2+y,1/2+z
1/2-x,1/2-y,1/2+z
-x,1/2+y,1/2+z
x,1/2-y,1/2+z
loop_
_atom_site_type_symbol
_atom_site_label
_atom_site_fract_x
_atom_site_fract_y
_atom_site_fract_z
Si Si1 0.442636 0.081820 0.227490
Si Si2 0.398235 0.280426 0.463858
Si Si3 0.986204 0.218641 0.629047
Si Si4 0.339210 0.429915 0.905080
Si Si5 0.498622 0.619111 0.305779
Si Si6 0.841583 0.990268 0.053669
Si Si7 0.340303 0.834343 0.899608
Si Si8 0.842022 0.129470 0.519009
O O1 0.495574 0.178064 0.191138
O O2 0.378474 0.099070 0.306800
O O3 0.400578 0.025246 0.139977
O O4 0.500000 0.000000 0.274838
O O5 0.465973 0.245382 0.536263
O O6 0.343233 0.180165 0.456740
O O7 0.443144 0.314138 0.370101
O O8 0.352253 0.382244 0.498468
O O9 0.020548 0.131028 0.698064
O O10 0.900051 0.177864 0.597087
O O11 0.250000 0.464968 0.886198
O O12 0.372571 0.522458 0.970946
O O13 0.500000 0.500000 0.336417
O O14 0.408297 0.655696 0.323159
O O15 0.750000 0.003174 0.083560
O O16 0.860702 0.086204 0.984827
O O17 0.250000 0.860012 0.869635
O O18 0.340950 0.718407 0.940016
O O19 0.750000 0.115430 0.550952
#
# Coordination Sequence:
#
# PCOD9380272 Si02
#       8
#     8   8   8   8   8   8   8   8
#     4  11  24  38  65 100 128 167 221 280 327 392
#     4  11  23  42  68  93 125 170 218 275 326 393
#     4  11  25  41  66  98 128 171 223 267 334 394
#     4  11  25  44  65  94 134 177 221 273 337 405
#     4  12  24  41  65  98 128 169 218 273 327 391
#     4  10  21  40  66  91 124 167 214 273 328 383
#     4  10  21  40  64  91 124 168 213 260 328 392
#     4  10  23  42  65  93 133 177 214 265 333 402
#
# _framework density 20.551438999999998
#
# number of rings (size 3 to 8) (size 9 to 14) (size 15 to 20)
#    0.000    1.250    3.750    1.500    7.000    0.500 
#    0.000    0.625    0.000    0.000    0.000    0.000 
#    0.000    0.000    0.000    0.000    0.000    0.000 
#
# Total GULP energy -178437.720444 kJ/mol
# GULP energy per Si atom -5576.178764 kJ/mol
# Density = 2.050466 g / cm^3
# Si number density = 20.551439 Si / 1000 Ang^3
#
#
#
# Elastic Constant Matrix: (Units=GPa)
#
#
# Indices 1 2 3 4 5 6 
#
# 1 58.8683 16.5889 18.9616 0.0000 0.0000 0.0000
# 2 16.5889 105.9507 14.7011 0.0000 0.0000 0.0000
# 3 18.9616 14.7011 50.5764 0.0000 0.0000 0.0000
# 4 0.0000 0.0000 0.0000 22.8520 0.0000 0.0000
# 5 0.0000 0.0000 0.0000 0.0000 14.9292 0.0000
# 6 0.0000 0.0000 0.0000 0.0000 0.0000 29.7012
#
#
#
# Elastic Compliance Matrix: (Units=1/GPa)
#
#
# Indices 1 2 3 4 5 6 
#
# 1 0.019781 -0.002155 -0.006790 0.000000 0.000000 0.000000
# 2 -0.002155 0.010070 -0.002119 0.000000 0.000000 0.000000
# 3 -0.006790 -0.002119 0.022934 0.000000 0.000000 0.000000
# 4 0.000000 0.000000 0.000000 0.043760 0.000000 0.000000
# 5 0.000000 0.000000 0.000000 0.000000 0.066983 0.000000
# 6 0.000000 0.000000 0.000000 0.000000 0.000000 0.033669
#
#
# Mechanical properties :
#
#
# Convention : Reuss Voigt Hill
#
# Bulk Modulus (GPa) = 32.61909 35.09983 33.85946
# Shear Modulus (GPa) = 21.78242 24.50607 23.14425
#
# Velocity S-wave (km/s) = 3.25914 3.45690 3.35947
# Velocity P-wave (km/s) = 5.48352 5.74888 5.61777
#
# Compressibility (1/GPa) = 0.03065689
#
# Stress axis : x y z
#
# Youngs Moduli (GPa) = 50.55262 99.30683 43.60414
#
# Poissons Ratio (x) = 0.21401 0.29606
# Poissons Ratio (y) = 0.10895 0.09240
# Poissons Ratio (z) = 0.34324 0.21043
#
# Static dielectric constant tensor:
#      x y z
#    x 1.772410 0.000000 0.000000 
#    y 0.000000 1.755510 0.000000 
#    z 0.000000 0.000000 1.719120 
# 
# From -- ./inp_files/16742.got.cif
#   From: 2010.05.17/outbox.cif.g08.bks.cpg/sg46_9_cif.got.tgz:16742.got - 2010.06.03 19:58:25.
