data_PCOD9380599
_publ_section_title
;
Structure prediction by ZEFSAII (Michael W. Deem and Ramdas Pophale) SiO2 
 PCOD9380599
Probable space group: I M A 2
;
_chemical_formula_sum "Si O2"
_cell_formula_units_Z 32
_cell_length_a 16.372261
_cell_length_b 5.946135
_cell_length_c 13.339295
_cell_angle_alpha 90.000000
_cell_angle_beta 90.000000
_cell_angle_gamma 90.000000
_cell_volume 1298.602700
_symmetry_space_group_name_H-M "I M A 2"
_symmetry_group_IT_number 46
_symmetry_cell_setting 'orthorhombic'
loop_
_space_group_symop_operation_xyz
x,y,z
-x,-y,z
1/2-x,y,z
1/2+x,-y,z
1/2+x,1/2+y,1/2+z
1/2-x,1/2-y,1/2+z
-x,1/2+y,1/2+z
x,1/2-y,1/2+z
loop_
_atom_site_type_symbol
_atom_site_label
_atom_site_fract_x
_atom_site_fract_y
_atom_site_fract_z
Si Si1 0.500000 0.000000 0.082210
Si Si2 0.250000 0.290060 0.954087
Si Si3 0.579006 0.860986 0.706670
Si Si4 0.750000 0.143055 0.310412
Si Si5 0.250000 0.567804 0.136438
Si Si6 0.384969 0.547784 0.415345
O O1 0.438285 0.121779 0.157749
O O2 0.445780 0.861061 0.000567
O O3 0.250000 0.384024 0.840738
O O4 0.173682 0.130047 0.970476
O O5 0.250000 0.516006 0.019330
O O6 0.666311 0.953046 0.672842
O O7 0.577155 0.894655 0.826411
O O8 0.500000 0.000000 0.669037
O O9 0.750000 0.192830 0.191908
O O10 0.670422 0.266762 0.358699
#
# Coordination Sequence:
#
# PCOD9380599 Si02
#       6
#     4   4   8   4   4   8
#     4  12  24  42  70  98 136 190 222 286 362 402
#     4  11  21  45  73  98 135 185 229 296 352 412
#     4  11  25  45  68 103 142 180 235 294 345 423
#     4   9  23  41  67  98 132 182 226 287 350 411
#     4  10  22  44  68 100 143 175 235 291 340 423
#     4  10  23  45  67  98 138 178 238 291 344 420
#
# _framework density 24.641869
#
# number of rings (size 3 to 8) (size 9 to 14) (size 15 to 20)
#    0.000    1.500    3.750    0.750    3.500    4.000 
#    2.250    1.250    0.000    0.000    0.000    0.000 
#    0.000    0.000    0.000    0.000    0.000    0.000 
#
# Total GULP energy -89300.399595 kJ/mol
# GULP energy per Si atom -5581.274975 kJ/mol
# Density = 2.458578 g / cm^3
# Si number density = 24.641869 Si / 1000 Ang^3
#
#
#
# Elastic Constant Matrix: (Units=GPa)
#
#
# Indices 1 2 3 4 5 6 
#
# 1 125.0701 11.4843 38.2226 0.0000 0.0000 0.0000
# 2 11.4843 17.5371 14.7389 0.0000 0.0000 0.0000
# 3 38.2226 14.7389 113.6289 0.0000 0.0000 0.0000
# 4 0.0000 0.0000 0.0000 34.3995 0.0000 0.0000
# 5 0.0000 0.0000 0.0000 0.0000 22.6625 0.0000
# 6 0.0000 0.0000 0.0000 0.0000 0.0000 24.1261
#
#
#
# Elastic Compliance Matrix: (Units=1/GPa)
#
#
# Indices 1 2 3 4 5 6 
#
# 1 0.009134 -0.003815 -0.002578 0.000000 0.000000 0.000000
# 2 -0.003815 0.065592 -0.007225 0.000000 0.000000 0.000000
# 3 -0.002578 -0.007225 0.010605 0.000000 0.000000 0.000000
# 4 0.000000 0.000000 0.000000 0.029070 0.000000 0.000000
# 5 0.000000 0.000000 0.000000 0.000000 0.044126 0.000000
# 6 0.000000 0.000000 0.000000 0.000000 0.000000 0.041449
#
#
# Mechanical properties :
#
#
# Convention : Reuss Voigt Hill
#
# Bulk Modulus (GPa) = 17.21290 42.79197 30.00244
# Shear Modulus (GPa) = 20.27782 29.02363 24.65073
#
# Velocity S-wave (km/s) = 2.87174 3.43566 3.16628
# Velocity P-wave (km/s) = 4.24220 5.75687 5.05657
#
# Compressibility (1/GPa) = 0.05809596
#
# Stress axis : x y z
#
# Youngs Moduli (GPa) = 109.48673 15.24576 94.29751
#
# Poissons Ratio (x) = 0.05816 0.24305
# Poissons Ratio (y) = 0.41768 0.68127
# Poissons Ratio (z) = 0.28220 0.11015
#
# Static dielectric constant tensor:
#      x y z
#    x 2.048250 0.000000 0.000000 
#    y 0.000000 2.003700 0.000000 
#    z 0.000000 0.000000 1.965230 
# 
# From -- ./inp_files/10778.got.cif
#   From: 2010.05.17/outbox.cif.g08.bks.cpg/sg46_6_cif.got.tgz:10778.got - 2010.06.03 19:58:25.
