data_PCOD9380877
_publ_section_title
;
Structure prediction by ZEFSAII (Michael W. Deem and Ramdas Pophale) SiO2 
 PCOD9380877
Probable space group: I M A 2
;
_chemical_formula_sum "Si O2"
_cell_formula_units_Z 48
_cell_length_a 8.738010
_cell_length_b 20.773565
_cell_length_c 14.598429
_cell_angle_alpha 90.000000
_cell_angle_beta 90.000000
_cell_angle_gamma 90.000000
_cell_volume 2649.901266
_symmetry_space_group_name_H-M "I M A 2"
_symmetry_group_IT_number 46
_symmetry_cell_setting 'orthorhombic'
loop_
_space_group_symop_operation_xyz
x,y,z
-x,-y,z
1/2-x,y,z
1/2+x,-y,z
1/2+x,1/2+y,1/2+z
1/2-x,1/2-y,1/2+z
-x,1/2+y,1/2+z
x,1/2-y,1/2+z
loop_
_atom_site_type_symbol
_atom_site_label
_atom_site_fract_x
_atom_site_fract_y
_atom_site_fract_z
Si Si1 0.567360 0.184953 0.948500
Si Si2 0.066934 0.877217 0.640245
Si Si3 0.932391 0.766535 0.133170
Si Si4 0.568025 0.693209 0.840778
Si Si5 0.567199 0.930191 0.828404
Si Si6 0.432922 0.569696 0.938871
O O1 0.750000 0.180829 0.947849
O O2 0.514696 0.249022 0.894457
O O3 0.496008 0.124058 0.896754
O O4 0.504962 0.192760 0.051204
O O5 0.250000 0.876618 0.653944
O O6 0.033007 0.913161 0.545091
O O7 0.006323 0.804388 0.632535
O O8 0.988145 0.910765 0.726631
O O9 0.750000 0.760486 0.119203
O O10 0.958992 0.797240 0.232782
O O11 0.750000 0.698283 0.857487
O O12 0.506296 0.625788 0.877949
O O13 0.750000 0.931220 0.831081
O O14 0.500000 0.000000 0.851124
O O15 0.500000 0.500000 0.916736
O O16 0.250000 0.570197 0.927834
#
# Coordination Sequence:
#
# PCOD9380877 Si02
#       6
#     8   8   8   8   8   8
#     4  12  24  40  64  92 125 164 208 257 308 369
#     4  11  22  37  61  94 129 164 204 254 312 369
#     4  11  23  39  63  94 126 162 207 258 309 361
#     4  11  23  40  64  91 123 163 207 255 307 366
#     4  12  25  42  63  91 127 167 209 258 315 375
#     4  11  24  40  61  90 126 166 206 254 309 368
#
# _framework density 18.113883000000001
#
# number of rings (size 3 to 8) (size 9 to 14) (size 15 to 20)
#    0.000    0.667    3.333    5.500    0.000    5.333 
#    0.000    0.833    0.000    4.000    0.000    0.000 
#    0.000    0.000    0.000    0.000    0.000    0.000 
#
# Total GULP energy -134316.379378 kJ/mol
# GULP energy per Si atom -5596.515807 kJ/mol
# Density = 1.807265 g / cm^3
# Si number density = 18.113883 Si / 1000 Ang^3
#
#
#
# Elastic Constant Matrix: (Units=GPa)
#
#
# Indices 1 2 3 4 5 6 
#
# 1 123.4319 57.3448 64.5439 0.0000 0.0000 0.0000
# 2 57.3448 145.4691 48.6223 0.0000 0.0000 0.0000
# 3 64.5439 48.6223 90.7783 0.0000 0.0000 0.0000
# 4 0.0000 0.0000 0.0000 11.9676 0.0000 0.0000
# 5 0.0000 0.0000 0.0000 0.0000 29.0764 0.0000
# 6 0.0000 0.0000 0.0000 0.0000 0.0000 34.6149
#
#
#
# Elastic Compliance Matrix: (Units=1/GPa)
#
#
# Indices 1 2 3 4 5 6 
#
# 1 0.013662 -0.002605 -0.008318 0.000000 0.000000 0.000000
# 2 -0.002605 0.008870 -0.002899 0.000000 0.000000 0.000000
# 3 -0.008318 -0.002899 0.018483 0.000000 0.000000 0.000000
# 4 0.000000 0.000000 0.000000 0.083559 0.000000 0.000000
# 5 0.000000 0.000000 0.000000 0.000000 0.034392 0.000000
# 6 0.000000 0.000000 0.000000 0.000000 0.000000 0.028889
#
#
# Mechanical properties :
#
#
# Convention : Reuss Voigt Hill
#
# Bulk Modulus (GPa) = 74.79181 77.85571 76.32376
# Shear Modulus (GPa) = 22.73186 27.74299 25.23743
#
# Velocity S-wave (km/s) = 3.54636 3.91780 3.73670
# Velocity P-wave (km/s) = 7.62550 7.97120 7.80027
#
# Compressibility (1/GPa) = 0.01337045
#
# Stress axis : x y z
#
# Youngs Moduli (GPa) = 73.19785 112.73743 54.10481
#
# Poissons Ratio (x) = 0.29370 0.45005
# Poissons Ratio (y) = 0.19070 0.15683
# Poissons Ratio (z) = 0.60887 0.32679
#
# Static dielectric constant tensor:
#      x y z
#    x 1.603900 0.000000 0.000000 
#    y 0.000000 1.585940 0.000000 
#    z 0.000000 0.000000 1.606220 
# 
# From -- ./inp_files/13900.got.cif
#   From: 2010.05.17/outbox.cif.g08.bks.cpg/sg46_7_cif.got.tgz:13900.got - 2010.06.03 19:58:25.
