data_PCOD9380411
_publ_section_title
;
Structure prediction by ZEFSAII (Michael W. Deem and Ramdas Pophale) SiO2 
 PCOD9380411
Probable space group: I M A 2
;
_chemical_formula_sum "Si O2"
_cell_formula_units_Z 56
_cell_length_a 14.529061
_cell_length_b 7.777426
_cell_length_c 22.555585
_cell_angle_alpha 90.000000
_cell_angle_beta 90.000000
_cell_angle_gamma 90.000000
_cell_volume 2548.751710
_symmetry_space_group_name_H-M "I M A 2"
_symmetry_group_IT_number 46
_symmetry_cell_setting 'orthorhombic'
loop_
_space_group_symop_operation_xyz
x,y,z
-x,-y,z
1/2-x,y,z
1/2+x,-y,z
1/2+x,1/2+y,1/2+z
1/2-x,1/2-y,1/2+z
-x,1/2+y,1/2+z
x,1/2-y,1/2+z
loop_
_atom_site_type_symbol
_atom_site_label
_atom_site_fract_x
_atom_site_fract_y
_atom_site_fract_z
Si Si1 0.058525 0.140182 0.174190
Si Si2 0.000000 0.500000 0.231895
Si Si3 0.500000 0.500000 0.008333
Si Si4 0.144269 0.253196 0.561396
Si Si5 0.646690 0.004952 0.289228
Si Si6 0.856362 0.140687 0.413728
Si Si7 0.145595 0.462554 0.448031
Si Si8 0.355269 0.106608 0.824872
O O1 0.139122 0.193249 0.129727
O O2 0.092941 0.018311 0.228199
O O3 0.011392 0.319244 0.196262
O O4 0.000000 0.000000 0.137841
O O5 0.912484 0.503219 0.276128
O O6 0.420803 0.556431 0.962298
O O7 0.559582 0.624321 0.050151
O O8 0.250000 0.191679 0.550123
O O9 0.120841 0.402785 0.513331
O O10 0.750000 0.069154 0.277655
O O11 0.650517 0.805743 0.308500
O O12 0.609644 0.110225 0.346043
O O13 0.750000 0.075669 0.414299
O O14 0.854627 0.337001 0.434696
O O15 0.250000 0.396183 0.442335
O O16 0.096868 0.389817 0.389672
O O17 0.250000 0.037209 0.826467
#
# Coordination Sequence:
#
# PCOD9380411 Si02
#       8
#     8   4   4   8   8   8   8   8
#     4  11  25  42  67  94 134 179 237 280 336 407
#     4  10  23  42  62 100 133 168 220 288 336 404
#     4  12  25  38  72  96 129 176 228 280 352 408
#     4  11  25  47  68  95 137 184 231 284 343 407
#     4   9  19  38  62  89 128 173 218 275 343 404
#     4  10  22  38  61  99 135 167 222 284 345 413
#     4   9  20  38  63  93 129 171 218 273 338 405
#     4   9  18  35  61  92 128 170 212 271 344 405
#
# _framework density 21.971540000000001
#
# number of rings (size 3 to 8) (size 9 to 14) (size 15 to 20)
#    0.000    2.000    0.000    2.143    5.000    5.143 
#    0.000    0.714    0.000    0.000    0.000    0.000 
#    0.000    0.000    0.000    0.000    0.000    0.000 
#
# Total GULP energy -155946.596977 kJ/mol
# GULP energy per Si atom -5569.521321 kJ/mol
# Density = 2.192153 g / cm^3
# Si number density = 21.971540 Si / 1000 Ang^3
#
#
#
# Elastic Constant Matrix: (Units=GPa)
#
#
# Indices 1 2 3 4 5 6 
#
# 1 88.0597 34.6993 48.2678 0.0000 0.0000 0.0000
# 2 34.6993 52.4726 29.2748 0.0000 0.0000 0.0000
# 3 48.2678 29.2748 108.2239 0.0000 0.0000 0.0000
# 4 0.0000 0.0000 0.0000 25.2171 0.0000 0.0000
# 5 0.0000 0.0000 0.0000 0.0000 30.2517 0.0000
# 6 0.0000 0.0000 0.0000 0.0000 0.0000 22.6224
#
#
#
# Elastic Compliance Matrix: (Units=1/GPa)
#
#
# Indices 1 2 3 4 5 6 
#
# 1 0.017851 -0.008671 -0.005616 0.000000 0.000000 0.000000
# 2 -0.008671 0.026657 -0.003343 0.000000 0.000000 0.000000
# 3 -0.005616 -0.003343 0.012649 0.000000 0.000000 0.000000
# 4 0.000000 0.000000 0.000000 0.039656 0.000000 0.000000
# 5 0.000000 0.000000 0.000000 0.000000 0.033056 0.000000
# 6 0.000000 0.000000 0.000000 0.000000 0.000000 0.044204
#
#
# Mechanical properties :
#
#
# Convention : Reuss Voigt Hill
#
# Bulk Modulus (GPa) = 45.67056 52.58220 49.12638
# Shear Modulus (GPa) = 23.08049 24.71919 23.89984
#
# Velocity S-wave (km/s) = 3.24461 3.35782 3.30170
# Velocity P-wave (km/s) = 5.90492 6.24638 6.07805
#
# Compressibility (1/GPa) = 0.02189594
#
# Stress axis : x y z
#
# Youngs Moduli (GPa) = 56.01898 37.51340 79.05648
#
# Poissons Ratio (x) = 0.32530 0.44398
# Poissons Ratio (y) = 0.48577 0.26431
# Poissons Ratio (z) = 0.31460 0.12542
#
# Static dielectric constant tensor:
#      x y z
#    x 1.902580 0.000000 0.000000 
#    y 0.000000 1.890070 0.000000 
#    z 0.000000 0.000000 1.891600 
# 
# From -- ./inp_files/22041.got.cif
#   From: 2010.05.17/outbox.cif.g08.bks.cpg/sg46_12_cif.got.tgz:22041.got - 2010.06.03 19:58:25.
