data_PCOD9380429
_publ_section_title
;
Structure prediction by ZEFSAII (Michael W. Deem and Ramdas Pophale) SiO2 
 PCOD9380429
Probable space group: I M A 2
;
_chemical_formula_sum "Si O2"
_cell_formula_units_Z 48
_cell_length_a 16.835175
_cell_length_b 16.419276
_cell_length_c 7.387763
_cell_angle_alpha 90.000000
_cell_angle_beta 90.000000
_cell_angle_gamma 90.000000
_cell_volume 2042.135679
_symmetry_space_group_name_H-M "I M A 2"
_symmetry_group_IT_number 46
_symmetry_cell_setting 'orthorhombic'
loop_
_space_group_symop_operation_xyz
x,y,z
-x,-y,z
1/2-x,y,z
1/2+x,-y,z
1/2+x,1/2+y,1/2+z
1/2-x,1/2-y,1/2+z
-x,1/2+y,1/2+z
x,1/2-y,1/2+z
loop_
_atom_site_type_symbol
_atom_site_label
_atom_site_fract_x
_atom_site_fract_y
_atom_site_fract_z
Si Si1 0.343201 0.075334 0.150020
Si Si2 0.059543 0.214331 0.032007
Si Si3 0.656289 0.622799 0.066729
Si Si4 0.064674 0.807423 0.283070
Si Si5 0.407114 0.985981 0.837968
Si Si6 0.656033 0.338534 0.122213
O O1 0.250000 0.060589 0.140142
O O2 0.366191 0.154149 0.027760
O O3 0.361140 0.093750 0.360103
O O4 0.385621 0.002357 0.046082
O O5 0.100895 0.298407 0.099997
O O6 0.997075 0.156350 0.141706
O O7 0.999551 0.247024 0.879985
O O8 0.750000 0.643512 0.076685
O O9 0.636517 0.550765 0.205342
O O10 0.129224 0.752108 0.180463
O O11 0.108509 0.857428 0.437078
O O12 0.500000 0.000000 0.808398
O O13 0.375726 0.899111 0.773859
O O14 0.750000 0.344582 0.098957
#
# Coordination Sequence:
#
# PCOD9380429 Si02
#       6
#     8   8   8   8   8   8
#     4  11  24  41  65 101 139 180 228 275 334 415
#     4  11  19  40  65  98 137 173 220 272 331 411
#     4  11  24  42  67 103 141 183 227 275 345 418
#     4  10  22  38  67  94 125 171 225 282 337 410
#     4  12  26  45  68  96 137 182 230 293 351 409
#     4  11  23  44  66  94 130 173 229 291 352 407
#
# _framework density 23.504805000000001
#
# number of rings (size 3 to 8) (size 9 to 14) (size 15 to 20)
#    0.000    1.000    1.667    6.500    0.000    0.667 
#    6.000    0.000    0.000    0.000    0.000    0.000 
#    0.000    0.000    0.000    0.000    0.000    0.000 
#
# Total GULP energy -134004.435567 kJ/mol
# GULP energy per Si atom -5583.518149 kJ/mol
# Density = 2.345131 g / cm^3
# Si number density = 23.504805 Si / 1000 Ang^3
#
#
#
# Elastic Constant Matrix: (Units=GPa)
#
#
# Indices 1 2 3 4 5 6 
#
# 1 148.7600 19.7487 47.4846 0.0000 0.0000 0.0000
# 2 19.7487 48.5125 3.6935 0.0000 0.0000 0.0000
# 3 47.4846 3.6935 38.6174 0.0000 0.0000 0.0000
# 4 0.0000 0.0000 0.0000 12.6490 0.0000 0.0000
# 5 0.0000 0.0000 0.0000 0.0000 45.2323 0.0000
# 6 0.0000 0.0000 0.0000 0.0000 0.0000 26.4816
#
#
#
# Elastic Compliance Matrix: (Units=1/GPa)
#
#
# Indices 1 2 3 4 5 6 
#
# 1 0.011686 -0.003690 -0.014017 0.000000 0.000000 0.000000
# 2 -0.003690 0.021930 0.002440 0.000000 0.000000 0.000000
# 3 -0.014017 0.002440 0.042897 0.000000 0.000000 0.000000
# 4 0.000000 0.000000 0.000000 0.079057 0.000000 0.000000
# 5 0.000000 0.000000 0.000000 0.000000 0.022108 0.000000
# 6 0.000000 0.000000 0.000000 0.000000 0.000000 0.037762
#
#
# Mechanical properties :
#
#
# Convention : Reuss Voigt Hill
#
# Bulk Modulus (GPa) = 21.74895 41.97151 31.86023
# Shear Modulus (GPa) = 19.13505 27.87012 23.50259
#
# Velocity S-wave (km/s) = 2.85632 3.44716 3.16556
# Velocity P-wave (km/s) = 4.48901 5.80855 5.19088
#
# Compressibility (1/GPa) = 0.04597923
#
# Stress axis : x y z
#
# Youngs Moduli (GPa) = 85.57012 45.60031 23.31166
#
# Poissons Ratio (x) = 0.16827 0.32675
# Poissons Ratio (y) = 0.31577 -0.05688
# Poissons Ratio (z) = 1.19942 -0.11127
#
# Static dielectric constant tensor:
#      x y z
#    x 1.824140 0.000000 0.000000 
#    y 0.000000 1.917380 0.000000 
#    z 0.000000 0.000000 2.026220 
# 
# From -- ./inp_files/5704.got.cif
#   From: 2010.05.17/outbox.cif.g08.bks.cpg/sg46_3_cif.got.tgz:5704.got - 2010.06.03 19:58:25.
