data_PCOD9380782
_publ_section_title
;
Structure prediction by ZEFSAII (Michael W. Deem and Ramdas Pophale) SiO2 
 PCOD9380782
Probable space group: I M A 2
;
_chemical_formula_sum "Si O2"
_cell_formula_units_Z 36
_cell_length_a 19.277186
_cell_length_b 8.608953
_cell_length_c 9.497734
_cell_angle_alpha 90.000000
_cell_angle_beta 90.000000
_cell_angle_gamma 90.000000
_cell_volume 1576.209631
_symmetry_space_group_name_H-M "I M A 2"
_symmetry_group_IT_number 46
_symmetry_cell_setting 'orthorhombic'
loop_
_space_group_symop_operation_xyz
x,y,z
-x,-y,z
1/2-x,y,z
1/2+x,-y,z
1/2+x,1/2+y,1/2+z
1/2-x,1/2-y,1/2+z
-x,1/2+y,1/2+z
x,1/2-y,1/2+z
loop_
_atom_site_type_symbol
_atom_site_label
_atom_site_fract_x
_atom_site_fract_y
_atom_site_fract_z
Si Si1 0.096134 0.772469 0.992670
Si Si2 0.500000 0.000000 0.818138
Si Si3 0.750000 0.224046 0.091868
Si Si4 0.961746 0.743277 0.122793
Si Si5 0.750000 0.479480 0.873269
Si Si6 0.600542 0.929070 0.357136
O O1 0.092635 0.606588 0.911522
O O2 0.174244 0.823667 0.029880
O O3 0.050863 0.898768 0.912624
O O4 0.045445 0.747372 0.124824
O O5 0.447808 0.098105 0.722599
O O6 0.750000 0.160341 0.253737
O O7 0.750000 0.402274 0.030378
O O8 0.930663 0.889762 0.204283
O O9 0.933002 0.688839 0.971607
O O10 0.817107 0.583932 0.851688
#
# Coordination Sequence:
#
# PCOD9380782 Si02
#       6
#     8   4   4   8   4   8
#     4  11  26  46  72 106 145 186 248 302 357 438
#     4  12  26  42  72 112 138 190 244 300 370 420
#     4  10  26  44  70 106 144 196 242 285 367 433
#     4  12  25  45  70 106 142 188 240 308 354 439
#     4  10  26  46  74 106 150 200 232 305 359 443
#     4  11  26  48  71 106 149 187 246 298 370 424
#
# _framework density 22.839600999999998
#
# number of rings (size 3 to 8) (size 9 to 14) (size 15 to 20)
#    0.000    0.889    4.444    0.000    9.333    0.889 
#    0.000    1.111    0.000    0.000    0.000    0.000 
#    0.000    0.000    0.000    0.000    0.000    0.000 
#
# Total GULP energy -100388.417249 kJ/mol
# GULP energy per Si atom -5577.134292 kJ/mol
# Density = 2.278762 g / cm^3
# Si number density = 22.839601 Si / 1000 Ang^3
#
#
#
# Elastic Constant Matrix: (Units=GPa)
#
#
# Indices 1 2 3 4 5 6 
#
# 1 208.3297 45.8546 40.6793 0.0000 0.0000 0.0000
# 2 45.8546 65.4423 38.2054 0.0000 0.0000 0.0000
# 3 40.6793 38.2054 105.9697 0.0000 0.0000 0.0000
# 4 0.0000 0.0000 0.0000 44.8058 0.0000 0.0000
# 5 0.0000 0.0000 0.0000 0.0000 26.6295 0.0000
# 6 0.0000 0.0000 0.0000 0.0000 0.0000 34.3948
#
#
#
# Elastic Compliance Matrix: (Units=1/GPa)
#
#
# Indices 1 2 3 4 5 6 
#
# 1 0.005751 -0.003471 -0.000956 0.000000 0.000000 0.000000
# 2 -0.003471 0.021450 -0.006401 0.000000 0.000000 0.000000
# 3 -0.000956 -0.006401 0.012111 0.000000 0.000000 0.000000
# 4 0.000000 0.000000 0.000000 0.022319 0.000000 0.000000
# 5 0.000000 0.000000 0.000000 0.000000 0.037552 0.000000
# 6 0.000000 0.000000 0.000000 0.000000 0.000000 0.029074
#
#
# Mechanical properties :
#
#
# Convention : Reuss Voigt Hill
#
# Bulk Modulus (GPa) = 56.63936 69.91336 63.27636
# Shear Modulus (GPa) = 32.09272 38.16618 35.12945
#
# Velocity S-wave (km/s) = 3.75258 4.09229 3.92611
# Velocity P-wave (km/s) = 6.60518 7.28053 6.95106
#
# Compressibility (1/GPa) = 0.01765557
#
# Stress axis : x y z
#
# Youngs Moduli (GPa) = 173.88753 46.62056 82.56721
#
# Poissons Ratio (x) = 0.16184 0.07894
# Poissons Ratio (y) = 0.60363 0.52849
# Poissons Ratio (z) = 0.16625 0.29841
#
# Static dielectric constant tensor:
#      x y z
#    x 1.887810 0.000000 0.000000 
#    y 0.000000 1.935990 0.000000 
#    z 0.000000 0.000000 1.935540 
# 
# From -- ./inp_files/7174.got.cif
#   From: 2010.05.17/outbox.cif.g08.bks.cpg/sg46_4_cif.got.tgz:7174.got - 2010.06.03 19:58:25.
