data_PCOD9380672
_publ_section_title
;
Structure prediction by ZEFSAII (Michael W. Deem and Ramdas Pophale) SiO2 
 PCOD9380672
Probable space group: I M A 2
;
_chemical_formula_sum "Si O2"
_cell_formula_units_Z 32
_cell_length_a 26.145103
_cell_length_b 5.050238
_cell_length_c 9.126292
_cell_angle_alpha 90.000000
_cell_angle_beta 90.000000
_cell_angle_gamma 90.000000
_cell_volume 1205.026403
_symmetry_space_group_name_H-M "I M A 2"
_symmetry_group_IT_number 46
_symmetry_cell_setting 'orthorhombic'
loop_
_space_group_symop_operation_xyz
x,y,z
-x,-y,z
1/2-x,y,z
1/2+x,-y,z
1/2+x,1/2+y,1/2+z
1/2-x,1/2-y,1/2+z
-x,1/2+y,1/2+z
x,1/2-y,1/2+z
loop_
_atom_site_type_symbol
_atom_site_label
_atom_site_fract_x
_atom_site_fract_y
_atom_site_fract_z
Si Si1 0.805245 0.384138 0.178950
Si Si2 0.396890 0.936691 0.096047
Si Si3 0.467588 0.726486 0.846935
Si Si4 0.807741 0.749753 0.944973
O O1 0.750000 0.267072 0.215925
O O2 0.855051 0.214681 0.193973
O O3 0.810144 0.646063 0.279772
O O4 0.805443 0.451788 0.004976
O O5 0.444400 0.939241 0.208907
O O6 0.422207 0.802372 0.955729
O O7 0.360203 0.157108 0.023125
O O8 0.500000 0.500000 0.928135
O O9 0.500000 0.000000 0.817330
O O10 0.750000 0.845110 0.993482
#
# Coordination Sequence:
#
# PCOD9380672 Si02
#       4
#     8   8   8   8
#     4  10  23  42  68 106 145 187 239 294 364 450
#     4  12  25  44  74  98 144 190 241 298 376 430
#     4  12  30  50  73 106 141 192 252 314 362 428
#     4  10  23  42  68 106 145 187 239 294 364 450
#
# _framework density 26.555436
#
# number of rings (size 3 to 8) (size 9 to 14) (size 15 to 20)
#    0.000    1.000    2.500    2.250   10.500    0.000 
#    0.000    0.000    0.000    0.000    0.000    0.000 
#    0.000    0.000    0.000    0.000    0.000    0.000 
#
# Total GULP energy -89127.149457 kJ/mol
# GULP energy per Si atom -5570.446841 kJ/mol
# Density = 2.649499 g / cm^3
# Si number density = 26.555436 Si / 1000 Ang^3
#
#
#
# Elastic Constant Matrix: (Units=GPa)
#
#
# Indices 1 2 3 4 5 6 
#
# 1 186.4070 37.5709 15.8618 0.0000 0.0000 0.0000
# 2 37.5709 58.4818 -11.0046 0.0000 0.0000 0.0000
# 3 15.8618 -11.0046 79.6465 0.0000 0.0000 0.0000
# 4 0.0000 0.0000 0.0000 29.0349 0.0000 0.0000
# 5 0.0000 0.0000 0.0000 0.0000 27.3028 0.0000
# 6 0.0000 0.0000 0.0000 0.0000 0.0000 30.3020
#
#
#
# Elastic Compliance Matrix: (Units=1/GPa)
#
#
# Indices 1 2 3 4 5 6 
#
# 1 0.006431 -0.004489 -0.001901 0.000000 0.000000 0.000000
# 2 -0.004489 0.020690 0.003753 0.000000 0.000000 0.000000
# 3 -0.001901 0.003753 0.013453 0.000000 0.000000 0.000000
# 4 0.000000 0.000000 0.000000 0.034441 0.000000 0.000000
# 5 0.000000 0.000000 0.000000 0.000000 0.036626 0.000000
# 6 0.000000 0.000000 0.000000 0.000000 0.000000 0.033001
#
#
# Mechanical properties :
#
#
# Convention : Reuss Voigt Hill
#
# Bulk Modulus (GPa) = 28.33024 45.48794 36.90909
# Shear Modulus (GPa) = 30.92457 36.13507 33.52982
#
# Velocity S-wave (km/s) = 3.41622 3.69282 3.55721
# Velocity P-wave (km/s) = 5.12370 5.94552 5.54984
#
# Compressibility (1/GPa) = 0.03529797
#
# Stress axis : x y z
#
# Youngs Moduli (GPa) = 155.49144 48.33334 74.33508
#
# Poissons Ratio (x) = 0.21699 0.14132
# Poissons Ratio (y) = 0.69806 -0.27896
# Poissons Ratio (z) = 0.29560 -0.18138
#
# Static dielectric constant tensor:
#      x y z
#    x 2.224160 0.000000 0.000000 
#    y 0.000000 2.187760 0.000000 
#    z 0.000000 0.000000 2.051490 
# 
# From -- ./inp_files/8275.got.cif
#   From: 2010.05.17/outbox.cif.g08.bks.cpg/sg46_5_cif.got.tgz:8275.got - 2010.06.03 19:58:25.
