data_PCOD9380624
_publ_section_title
;
Structure prediction by ZEFSAII (Michael W. Deem and Ramdas Pophale) SiO2 
 PCOD9380624
Probable space group: I M A 2
;
_chemical_formula_sum "Si O2"
_cell_formula_units_Z 28
_cell_length_a 16.006495
_cell_length_b 13.480073
_cell_length_c 4.830763
_cell_angle_alpha 90.000000
_cell_angle_beta 90.000000
_cell_angle_gamma 90.000000
_cell_volume 1042.327554
_symmetry_space_group_name_H-M "I M A 2"
_symmetry_group_IT_number 46
_symmetry_cell_setting 'orthorhombic'
loop_
_space_group_symop_operation_xyz
x,y,z
-x,-y,z
1/2-x,y,z
1/2+x,-y,z
1/2+x,1/2+y,1/2+z
1/2-x,1/2-y,1/2+z
-x,1/2+y,1/2+z
x,1/2-y,1/2+z
loop_
_atom_site_type_symbol
_atom_site_label
_atom_site_fract_x
_atom_site_fract_y
_atom_site_fract_z
Si Si1 0.372703 0.188554 0.549750
Si Si2 0.842125 0.112174 0.216929
Si Si3 0.250000 0.447326 0.389731
Si Si4 0.044201 0.894242 0.741464
O O1 0.351269 0.213733 0.234628
O O2 0.320469 0.102752 0.687639
O O3 0.468870 0.166521 0.604572
O O4 0.750000 0.162294 0.231446
O O5 0.911324 0.154649 0.007674
O O6 0.820962 0.006915 0.074626
O O7 0.882808 0.098536 0.513648
O O8 0.000000 0.000000 0.810233
#
# Coordination Sequence:
#
# PCOD9380624 Si02
#       4
#     8   8   4   8
#     4  12  27  43  66 101 147 186 221 283 368 442
#     4  10  23  38  70 101 125 169 238 293 340 387
#     4  10  24  44  68 104 138 182 224 286 360 422
#     4  12  22  42  68  95 136 180 237 287 334 423
#
# _framework density 26.862953999999998
#
# number of rings (size 3 to 8) (size 9 to 14) (size 15 to 20)
#    0.857    0.000    2.857    4.286    4.000    2.286 
#    0.000    0.000    0.000   17.143    0.000    0.000 
#    0.000    0.000    0.000    0.000    0.000    0.000 
#
# Total GULP energy -77961.049663 kJ/mol
# GULP energy per Si atom -5568.646405 kJ/mol
# Density = 2.680181 g / cm^3
# Si number density = 26.862954 Si / 1000 Ang^3
#
#
#
# Elastic Constant Matrix: (Units=GPa)
#
#
# Indices 1 2 3 4 5 6 
#
# 1 185.4246 19.1043 37.6926 0.0000 0.0000 0.0000
# 2 19.1043 58.6570 4.1681 0.0000 0.0000 0.0000
# 3 37.6926 4.1681 127.2783 0.0000 0.0000 0.0000
# 4 0.0000 0.0000 0.0000 37.3255 0.0000 0.0000
# 5 0.0000 0.0000 0.0000 0.0000 48.9590 0.0000
# 6 0.0000 0.0000 0.0000 0.0000 0.0000 11.9415
#
#
#
# Elastic Compliance Matrix: (Units=1/GPa)
#
#
# Indices 1 2 3 4 5 6 
#
# 1 0.005924 -0.001809 -0.001695 0.000000 0.000000 0.000000
# 2 -0.001809 0.017640 -0.000042 0.000000 0.000000 0.000000
# 3 -0.001695 -0.000042 0.008360 0.000000 0.000000 0.000000
# 4 0.000000 0.000000 0.000000 0.026791 0.000000 0.000000
# 5 0.000000 0.000000 0.000000 0.000000 0.020425 0.000000
# 6 0.000000 0.000000 0.000000 0.000000 0.000000 0.083741
#
#
# Mechanical properties :
#
#
# Convention : Reuss Voigt Hill
#
# Bulk Modulus (GPa) = 40.26986 54.81001 47.53994
# Shear Modulus (GPa) = 28.05017 40.33820 34.19419
#
# Velocity S-wave (km/s) = 3.23491 3.87929 3.57166
# Velocity P-wave (km/s) = 5.38296 6.36499 5.89446
#
# Compressibility (1/GPa) = 0.02483247
#
# Stress axis : x y z
#
# Youngs Moduli (GPa) = 168.80541 56.68802 119.61486
#
# Poissons Ratio (x) = 0.10255 0.20276
# Poissons Ratio (y) = 0.30536 0.00502
# Poissons Ratio (z) = 0.28614 0.00238
#
# Static dielectric constant tensor:
#      x y z
#    x 2.064220 0.000000 0.000000 
#    y 0.000000 2.250110 0.000000 
#    z 0.000000 0.000000 2.003110 
# 
# From -- ./inp_files/1026.got.cif
#   From: 2010.05.17/outbox.cif.g08.bks.cpg/sg46_1_cif.got.tgz:1026.got - 2010.06.03 19:58:25.
