data_PCOD9380258
_publ_section_title
;
Structure prediction by ZEFSAII (Michael W. Deem and Ramdas Pophale) SiO2 
 PCOD9380258
Probable space group: I M A 2
;
_chemical_formula_sum "Si O2"
_cell_formula_units_Z 40
_cell_length_a 20.703124
_cell_length_b 8.704858
_cell_length_c 10.852783
_cell_angle_alpha 90.000000
_cell_angle_beta 90.000000
_cell_angle_gamma 90.000000
_cell_volume 1955.864183
_symmetry_space_group_name_H-M "I M A 2"
_symmetry_group_IT_number 46
_symmetry_cell_setting 'orthorhombic'
loop_
_space_group_symop_operation_xyz
x,y,z
-x,-y,z
1/2-x,y,z
1/2+x,-y,z
1/2+x,1/2+y,1/2+z
1/2-x,1/2-y,1/2+z
-x,1/2+y,1/2+z
x,1/2-y,1/2+z
loop_
_atom_site_type_symbol
_atom_site_label
_atom_site_fract_x
_atom_site_fract_y
_atom_site_fract_z
Si Si1 0.923343 0.884090 0.285190
Si Si2 0.674631 0.884546 0.825778
Si Si3 0.057474 0.802675 0.373889
Si Si4 0.176858 0.691842 0.209875
Si Si5 0.610123 0.421212 0.544424
O O1 0.864738 0.768655 0.300003
O O2 0.991373 0.796317 0.296730
O O3 0.928148 0.016215 0.390996
O O4 0.914402 0.977419 0.158444
O O5 0.750000 0.855178 0.849359
O O6 0.670722 0.007196 0.712594
O O7 0.642076 0.968711 0.942987
O O8 0.120293 0.745560 0.300639
O O9 0.054046 0.686385 0.487593
O O10 0.250000 0.724531 0.252573
O O11 0.162260 0.793764 0.090178
#
# Coordination Sequence:
#
# PCOD9380258 Si02
#       5
#     8   8   8   8   8
#     4  10  22  39  61  92 122 157 207 257 301 355
#     4  10  22  38  60  93 125 157 207 261 301 353
#     4   9  21  39  59  87 120 159 202 245 300 368
#     4   9  19  36  58  86 120 161 206 245 295 365
#     4  10  21  40  62  85 124 170 200 244 314 370
#
# _framework density 20.451318000000001
#
# number of rings (size 3 to 8) (size 9 to 14) (size 15 to 20)
#    0.000    2.400    0.000    0.600    0.000   16.000 
#    0.000    8.000    0.000    0.000    0.000    0.000 
#    0.000    0.000    0.000    0.000    0.000    0.000 
#
# Total GULP energy -111418.186235 kJ/mol
# GULP energy per Si atom -5570.909312 kJ/mol
# Density = 2.040477 g / cm^3
# Si number density = 20.451318 Si / 1000 Ang^3
#
#
#
# Elastic Constant Matrix: (Units=GPa)
#
#
# Indices 1 2 3 4 5 6 
#
# 1 131.0763 72.2978 36.8479 0.0000 0.0000 0.0000
# 2 72.2978 130.9550 67.0718 0.0000 0.0000 0.0000
# 3 36.8479 67.0718 81.6587 0.0000 0.0000 0.0000
# 4 0.0000 0.0000 0.0000 46.9497 0.0000 0.0000
# 5 0.0000 0.0000 0.0000 0.0000 20.7106 0.0000
# 6 0.0000 0.0000 0.0000 0.0000 0.0000 35.8894
#
#
#
# Elastic Compliance Matrix: (Units=1/GPa)
#
#
# Indices 1 2 3 4 5 6 
#
# 1 0.010970 -0.006078 0.000042 0.000000 0.000000 0.000000
# 2 -0.006078 0.016549 -0.010850 0.000000 0.000000 0.000000
# 3 0.000042 -0.010850 0.021139 0.000000 0.000000 0.000000
# 4 0.000000 0.000000 0.000000 0.021299 0.000000 0.000000
# 5 0.000000 0.000000 0.000000 0.000000 0.048284 0.000000
# 6 0.000000 0.000000 0.000000 0.000000 0.000000 0.027863
#
#
# Mechanical properties :
#
#
# Convention : Reuss Voigt Hill
#
# Bulk Modulus (GPa) = 67.17745 77.34722 72.26234
# Shear Modulus (GPa) = 27.05075 31.87478 29.46276
#
# Velocity S-wave (km/s) = 3.64083 3.95215 3.79968
# Velocity P-wave (km/s) = 7.11287 7.66344 7.39328
#
# Compressibility (1/GPa) = 0.01488595
#
# Stress axis : x y z
#
# Youngs Moduli (GPa) = 91.16136 60.42776 47.30582
#
# Poissons Ratio (x) = 0.36726 -0.00199
# Poissons Ratio (y) = 0.55404 0.51327
# Poissons Ratio (z) = -0.00383 0.65565
#
# Static dielectric constant tensor:
#      x y z
#    x 1.722880 0.000000 0.000000 
#    y 0.000000 1.762470 0.000000 
#    z 0.000000 0.000000 1.813840 
# 
# From -- ./inp_files/11600.got.cif
#   From: 2010.05.17/outbox.cif.g08.bks.cpg/sg46_6_cif.got.tgz:11600.got - 2010.06.03 19:58:25.
