data_PCOD9380914
_publ_section_title
;
Structure prediction by ZEFSAII (Michael W. Deem and Ramdas Pophale) SiO2 
 PCOD9380914
Probable space group: I M A 2
;
_chemical_formula_sum "Si O2"
_cell_formula_units_Z 40
_cell_length_a 23.380352
_cell_length_b 5.903026
_cell_length_c 13.185016
_cell_angle_alpha 90.000000
_cell_angle_beta 90.000000
_cell_angle_gamma 90.000000
_cell_volume 1819.727686
_symmetry_space_group_name_H-M "I M A 2"
_symmetry_group_IT_number 46
_symmetry_cell_setting 'orthorhombic'
loop_
_space_group_symop_operation_xyz
x,y,z
-x,-y,z
1/2-x,y,z
1/2+x,-y,z
1/2+x,1/2+y,1/2+z
1/2-x,1/2-y,1/2+z
-x,1/2+y,1/2+z
x,1/2-y,1/2+z
loop_
_atom_site_type_symbol
_atom_site_label
_atom_site_fract_x
_atom_site_fract_y
_atom_site_fract_z
Si Si1 0.869749 0.705214 0.233970
Si Si2 0.558928 0.510856 0.598529
Si Si3 0.055376 0.337927 0.907983
Si Si4 0.750000 0.246799 0.958982
Si Si5 0.131362 0.883753 0.539766
Si Si6 0.250000 0.250039 0.347521
O O1 0.889695 0.925049 0.172014
O O2 0.921268 0.680677 0.316091
O O3 0.867306 0.519293 0.145171
O O4 0.808047 0.731122 0.282927
O O5 0.500000 0.500000 0.658639
O O6 0.546911 0.689534 0.509311
O O7 0.578377 0.283007 0.547921
O O8 0.000000 0.500000 0.890676
O O9 0.113237 0.472941 0.940767
O O10 0.750000 0.495572 0.899156
O O11 0.750000 0.992381 0.909917
O O12 0.691382 0.263479 0.021531
#
# Coordination Sequence:
#
# PCOD9380914 Si02
#       6
#     8   8   8   4   8   4
#     4  11  26  43  72 107 145 192 252 305 370 446
#     4  11  24  44  70 104 148 191 246 301 377 444
#     4  11  22  45  69 106 145 191 242 300 374 445
#     4  12  27  49  78 107 150 196 246 304 375 444
#     4  11  25  45  72 104 148 198 238 309 372 445
#     4  12  27  49  76 109 146 194 252 304 371 444
#
# _framework density 21.981313
#
# number of rings (size 3 to 8) (size 9 to 14) (size 15 to 20)
#    0.000    0.800    4.000    2.400    5.600    2.400 
#    3.600    0.000    0.000    0.000    0.000    0.000 
#    0.000    0.000    0.000    0.000    0.000    0.000 
#
# Total GULP energy -111439.436789 kJ/mol
# GULP energy per Si atom -5571.971839 kJ/mol
# Density = 2.193128 g / cm^3
# Si number density = 21.981313 Si / 1000 Ang^3
#
#
#
# Elastic Constant Matrix: (Units=GPa)
#
#
# Indices 1 2 3 4 5 6 
#
# 1 145.7645 21.2569 50.3514 0.0000 0.0000 0.0000
# 2 21.2569 62.1140 23.5422 0.0000 0.0000 0.0000
# 3 50.3514 23.5422 97.3317 0.0000 0.0000 0.0000
# 4 0.0000 0.0000 0.0000 6.6780 0.0000 0.0000
# 5 0.0000 0.0000 0.0000 0.0000 33.4820 0.0000
# 6 0.0000 0.0000 0.0000 0.0000 0.0000 30.1617
#
#
#
# Elastic Compliance Matrix: (Units=1/GPa)
#
#
# Indices 1 2 3 4 5 6 
#
# 1 0.008456 -0.001361 -0.004045 0.000000 0.000000 0.000000
# 2 -0.001361 0.017943 -0.003636 0.000000 0.000000 0.000000
# 3 -0.004045 -0.003636 0.013246 0.000000 0.000000 0.000000
# 4 0.000000 0.000000 0.000000 0.149745 0.000000 0.000000
# 5 0.000000 0.000000 0.000000 0.000000 0.029867 0.000000
# 6 0.000000 0.000000 0.000000 0.000000 0.000000 0.033155
#
#
# Mechanical properties :
#
#
# Convention : Reuss Voigt Hill
#
# Bulk Modulus (GPa) = 46.37917 55.05679 50.71798
# Shear Modulus (GPa) = 18.00609 28.06833 23.03721
#
# Velocity S-wave (km/s) = 2.86519 3.57728 3.24085
# Velocity P-wave (km/s) = 5.66489 6.49338 6.09323
#
# Compressibility (1/GPa) = 0.02156140
#
# Stress axis : x y z
#
# Youngs Moduli (GPa) = 118.25612 55.73136 75.49203
#
# Poissons Ratio (x) = 0.07583 0.30540
# Poissons Ratio (y) = 0.16090 0.27450
# Poissons Ratio (z) = 0.47840 0.20265
#
# Static dielectric constant tensor:
#      x y z
#    x 1.775420 0.000000 0.000000 
#    y 0.000000 1.860280 0.000000 
#    z 0.000000 0.000000 1.837320 
# 
# From -- ./inp_files/17269.got.cif
#   From: 2010.05.17/outbox.cif.g08.bks.cpg/sg46_9_cif.got.tgz:17269.got - 2010.06.03 19:58:25.
