data_PCOD9380640
_publ_section_title
;
Structure prediction by ZEFSAII (Michael W. Deem and Ramdas Pophale) SiO2 
 PCOD9380640
Probable space group: I M A 2
;
_chemical_formula_sum "Si O2"
_cell_formula_units_Z 56
_cell_length_a 9.148557
_cell_length_b 15.576427
_cell_length_c 19.886029
_cell_angle_alpha 90.000000
_cell_angle_beta 90.000000
_cell_angle_gamma 90.000000
_cell_volume 2833.795529
_symmetry_space_group_name_H-M "I M A 2"
_symmetry_group_IT_number 46
_symmetry_cell_setting 'orthorhombic'
loop_
_space_group_symop_operation_xyz
x,y,z
-x,-y,z
1/2-x,y,z
1/2+x,-y,z
1/2+x,1/2+y,1/2+z
1/2-x,1/2-y,1/2+z
-x,1/2+y,1/2+z
x,1/2-y,1/2+z
loop_
_atom_site_type_symbol
_atom_site_label
_atom_site_fract_x
_atom_site_fract_y
_atom_site_fract_z
Si Si1 0.074661 0.256114 0.319410
Si Si2 0.927265 0.906577 0.230451
Si Si3 0.591581 0.384605 0.117367
Si Si4 0.081980 0.081222 0.738142
Si Si5 0.580037 0.321720 0.601149
Si Si6 0.413744 0.918879 0.462809
Si Si7 0.427792 0.775909 0.954648
O O1 0.250000 0.253585 0.330245
O O2 0.032422 0.162368 0.289641
O O3 0.036651 0.324892 0.262151
O O4 0.996876 0.299007 0.383764
O O5 0.750000 0.912434 0.228556
O O6 0.986323 0.867872 0.159032
O O7 0.000000 0.000000 0.240807
O O8 0.750000 0.403675 0.150785
O O9 0.455615 0.416417 0.159576
O O10 0.581669 0.281451 0.111192
O O11 0.595674 0.424062 0.043558
O O12 0.250000 0.072011 0.752439
O O13 0.000000 0.000000 0.768607
O O14 0.750000 0.350888 0.606049
O O15 0.529990 0.327011 0.522506
O O16 0.250000 0.919158 0.434699
O O17 0.478601 0.824149 0.455246
O O18 0.500000 0.000000 0.435801
O O19 0.250000 0.775699 0.954060
#
# Coordination Sequence:
#
# PCOD9380640 Si02
#       7
#     8   8   8   8   8   8   8
#     4  10  23  41  58  83 120 155 197 248 298 358
#     4  11  23  40  62  91 123 161 208 258 309 364
#     4   9  17  31  53  80 111 144 178 221 275 332
#     4  11  22  36  54  81 113 144 184 232 282 342
#     4   9  18  36  60  87 116 150 195 244 294 354
#     4   9  18  31  47  75 110 142 180 225 270 333
#     4   9  20  37  58  81 111 152 197 242 297 357
#
# _framework density 19.761482000000001
#
# number of rings (size 3 to 8) (size 9 to 14) (size 15 to 20)
#    0.000    2.286    1.429    3.000    0.000    5.714 
#    0.000    6.429    0.000    1.714    0.000    0.000 
#    0.000    0.000    0.000    0.000    0.000    0.000 
#
# Total GULP energy -155886.179102 kJ/mol
# GULP energy per Si atom -5567.363539 kJ/mol
# Density = 1.971650 g / cm^3
# Si number density = 19.761482 Si / 1000 Ang^3
#
#
#
# Elastic Constant Matrix: (Units=GPa)
#
#
# Indices 1 2 3 4 5 6 
#
# 1 31.1584 16.9181 8.4538 0.0000 0.0000 0.0000
# 2 16.9181 62.2492 -9.7885 0.0000 0.0000 0.0000
# 3 8.4538 -9.7885 65.3895 0.0000 0.0000 0.0000
# 4 0.0000 0.0000 0.0000 9.2487 0.0000 0.0000
# 5 0.0000 0.0000 0.0000 0.0000 14.0381 0.0000
# 6 0.0000 0.0000 0.0000 0.0000 0.0000 29.0821
#
#
#
# Elastic Compliance Matrix: (Units=1/GPa)
#
#
# Indices 1 2 3 4 5 6 
#
# 1 0.040608 -0.012148 -0.007068 0.000000 0.000000 0.000000
# 2 -0.012148 0.020086 0.004577 0.000000 0.000000 0.000000
# 3 -0.007068 0.004577 0.016892 0.000000 0.000000 0.000000
# 4 0.000000 0.000000 0.000000 0.108123 0.000000 0.000000
# 5 0.000000 0.000000 0.000000 0.000000 0.071235 0.000000
# 6 0.000000 0.000000 0.000000 0.000000 0.000000 0.034385
#
#
# Mechanical properties :
#
#
# Convention : Reuss Voigt Hill
#
# Bulk Modulus (GPa) = 20.70071 21.10710 20.90390
# Shear Modulus (GPa) = 14.84958 20.02136 17.43547
#
# Velocity S-wave (km/s) = 2.74422 3.18646 2.97357
# Velocity P-wave (km/s) = 4.53200 4.92363 4.73187
#
# Compressibility (1/GPa) = 0.04830753
#
# Stress axis : x y z
#
# Youngs Moduli (GPa) = 24.62581 49.78645 59.19961
#
# Poissons Ratio (x) = 0.60480 0.41845
# Poissons Ratio (y) = 0.29915 -0.27097
# Poissons Ratio (z) = 0.17407 -0.22789
#
# Static dielectric constant tensor:
#      x y z
#    x 1.712940 0.000000 0.000000 
#    y 0.000000 1.724190 0.000000 
#    z 0.000000 0.000000 1.733690 
# 
# From -- ./inp_files/21057.got.cif
#   From: 2010.05.17/outbox.cif.g08.bks.cpg/sg46_11_cif.got.tgz:21057.got - 2010.06.03 19:58:25.
