data_PCOD9380513
_publ_section_title
;
Structure prediction by ZEFSAII (Michael W. Deem and Ramdas Pophale) SiO2 
 PCOD9380513
Probable space group: I M A 2
;
_chemical_formula_sum "Si O2"
_cell_formula_units_Z 40
_cell_length_a 18.542205
_cell_length_b 15.463867
_cell_length_c 5.131230
_cell_angle_alpha 90.000000
_cell_angle_beta 90.000000
_cell_angle_gamma 90.000000
_cell_volume 1471.299088
_symmetry_space_group_name_H-M "I M A 2"
_symmetry_group_IT_number 46
_symmetry_cell_setting 'orthorhombic'
loop_
_space_group_symop_operation_xyz
x,y,z
-x,-y,z
1/2-x,y,z
1/2+x,-y,z
1/2+x,1/2+y,1/2+z
1/2-x,1/2-y,1/2+z
-x,1/2+y,1/2+z
x,1/2-y,1/2+z
loop_
_atom_site_type_symbol
_atom_site_label
_atom_site_fract_x
_atom_site_fract_y
_atom_site_fract_z
Si Si1 0.669408 0.045016 0.223400
Si Si2 0.662485 0.201021 0.577867
Si Si3 0.830890 0.858104 0.495523
Si Si4 0.461861 0.201205 0.229009
Si Si5 0.064372 0.451826 0.378783
O O1 0.750000 0.072177 0.136697
O O2 0.640566 0.113416 0.432120
O O3 0.676223 0.951703 0.357753
O O4 0.617363 0.024788 0.986804
O O5 0.750000 0.197671 0.583338
O O6 0.641332 0.223957 0.871089
O O7 0.750000 0.829779 0.566102
O O8 0.874854 0.799358 0.290443
O O9 0.886176 0.884207 0.724592
O O10 0.489379 0.232734 0.508958
O O11 0.471271 0.105224 0.112804
O O12 0.000000 0.500000 0.230634
#
# Coordination Sequence:
#
# PCOD9380513 Si02
#       5
#     8   8   8   8   8
#     4   9  20  38  62  92 129 174 233 293 347 420
#     4   9  18  32  55  86 121 159 204 263 325 378
#     4  10  22  40  69 105 140 182 238 300 369 439
#     4  11  23  47  70 101 138 183 234 298 357 429
#     4  11  24  43  71 100 143 190 239 283 365 439
#
# _framework density 27.186858999999998
#
# number of rings (size 3 to 8) (size 9 to 14) (size 15 to 20)
#    0.000    2.000    2.000    0.600    2.800    4.800 
#    0.000    2.000    0.000    0.000    0.000    0.000 
#    0.000    0.000    0.000    0.000    0.000    0.000 
#
# Total GULP energy -111880.509437 kJ/mol
# GULP energy per Si atom -5594.025472 kJ/mol
# Density = 2.712498 g / cm^3
# Si number density = 27.186859 Si / 1000 Ang^3
#
#
#
# Elastic Constant Matrix: (Units=GPa)
#
#
# Indices 1 2 3 4 5 6 
#
# 1 138.4873 37.0340 39.7710 0.0000 0.0000 0.0000
# 2 37.0340 94.9327 18.3962 0.0000 0.0000 0.0000
# 3 39.7710 18.3962 127.1599 0.0000 0.0000 0.0000
# 4 0.0000 0.0000 0.0000 51.2001 0.0000 0.0000
# 5 0.0000 0.0000 0.0000 0.0000 26.0891 0.0000
# 6 0.0000 0.0000 0.0000 0.0000 0.0000 22.0748
#
#
#
# Elastic Compliance Matrix: (Units=1/GPa)
#
#
# Indices 1 2 3 4 5 6 
#
# 1 0.008662 -0.002937 -0.002284 0.000000 0.000000 0.000000
# 2 -0.002937 0.011833 -0.000793 0.000000 0.000000 0.000000
# 3 -0.002284 -0.000793 0.008693 0.000000 0.000000 0.000000
# 4 0.000000 0.000000 0.000000 0.019531 0.000000 0.000000
# 5 0.000000 0.000000 0.000000 0.000000 0.038330 0.000000
# 6 0.000000 0.000000 0.000000 0.000000 0.000000 0.045301
#
#
# Mechanical properties :
#
#
# Convention : Reuss Voigt Hill
#
# Bulk Modulus (GPa) = 58.27529 61.22026 59.74778
# Shear Modulus (GPa) = 33.31127 37.56471 35.43799
#
# Velocity S-wave (km/s) = 3.50418 3.72119 3.61431
# Velocity P-wave (km/s) = 6.15256 6.40548 6.28030
#
# Compressibility (1/GPa) = 0.01715993
#
# Stress axis : x y z
#
# Youngs Moduli (GPa) = 115.44420 84.50873 115.03006
#
# Poissons Ratio (x) = 0.24816 0.26277
# Poissons Ratio (y) = 0.33900 0.09127
# Poissons Ratio (z) = 0.26372 0.06705
#
# Static dielectric constant tensor:
#      x y z
#    x 2.190930 0.000000 0.000000 
#    y 0.000000 2.087320 0.000000 
#    z 0.000000 0.000000 2.139870 
# 
# From -- ./inp_files/1574.got.cif
#   From: 2010.05.17/outbox.cif.g08.bks.cpg/sg46_1_cif.got.tgz:1574.got - 2010.06.03 19:58:25.
