data_PCOD9380418
_publ_section_title
;
Structure prediction by ZEFSAII (Michael W. Deem and Ramdas Pophale) SiO2 
 PCOD9380418
Probable space group: I M A 2
;
_chemical_formula_sum "Si O2"
_cell_formula_units_Z 60
_cell_length_a 14.855547
_cell_length_b 9.897649
_cell_length_c 21.509802
_cell_angle_alpha 90.000000
_cell_angle_beta 90.000000
_cell_angle_gamma 90.000000
_cell_volume 3162.693520
_symmetry_space_group_name_H-M "I M A 2"
_symmetry_group_IT_number 46
_symmetry_cell_setting 'orthorhombic'
loop_
_space_group_symop_operation_xyz
x,y,z
-x,-y,z
1/2-x,y,z
1/2+x,-y,z
1/2+x,1/2+y,1/2+z
1/2-x,1/2-y,1/2+z
-x,1/2+y,1/2+z
x,1/2-y,1/2+z
loop_
_atom_site_type_symbol
_atom_site_label
_atom_site_fract_x
_atom_site_fract_y
_atom_site_fract_z
Si Si1 0.143393 0.057601 0.756360
Si Si2 0.353351 0.229997 0.357937
Si Si3 0.893311 0.017318 0.279826
Si Si4 0.500000 0.500000 0.151558
Si Si5 0.353439 0.796047 0.841178
Si Si6 0.985960 0.210041 0.090952
Si Si7 0.145935 0.477618 0.638645
Si Si8 0.503247 0.337457 0.445304
O O1 0.250000 0.067415 0.742244
O O2 0.114974 0.187171 0.796836
O O3 0.083722 0.036361 0.696122
O O4 0.128399 0.931395 0.802259
O O5 0.250000 0.267781 0.369181
O O6 0.413928 0.272727 0.415505
O O7 0.360435 0.075785 0.336563
O O8 0.869655 0.170307 0.295880
O O9 0.853769 0.974409 0.213581
O O10 0.000000 0.000000 0.275050
O O11 0.520400 0.364144 0.113263
O O12 0.250000 0.798629 0.860938
O O13 0.417302 0.788384 0.900390
O O14 0.079804 0.140739 0.113967
O O15 0.905611 0.115520 0.118079
O O16 0.983906 0.201458 0.016585
O O17 0.250000 0.470258 0.616933
O O18 0.500000 0.500000 0.441559
#
# Coordination Sequence:
#
# PCOD9380418 Si02
#       8
#     8   8   8   4   8   8   8   8
#     4  10  22  38  63  95 124 158 198 246 315 378
#     4  11  23  39  64  96 125 161 202 252 315 374
#     4  12  22  38  64  96 131 159 200 261 322 372
#     4  12  24  40  64  90 134 160 198 268 316 374
#     4  11  23  39  64  96 125 161 202 252 315 374
#     4  11  26  43  63  96 122 171 222 252 316 366
#     4  11  23  44  68  91 128 172 217 260 302 379
#     4  12  23  43  65  88 122 163 214 259 296 366
#
# _framework density 18.971170999999998
#
# number of rings (size 3 to 8) (size 9 to 14) (size 15 to 20)
#    0.000    0.800    5.333    3.600    0.000    5.333 
#    0.000    0.000    0.000    0.000    0.000    0.000 
#    0.000    0.000    0.000    0.000    0.000    0.000 
#
# Total GULP energy -167735.301271 kJ/mol
# GULP energy per Si atom -5591.176709 kJ/mol
# Density = 1.892799 g / cm^3
# Si number density = 18.971171 Si / 1000 Ang^3
#
#
#
# Elastic Constant Matrix: (Units=GPa)
#
#
# Indices 1 2 3 4 5 6 
#
# 1 84.7266 -2.1367 13.3452 0.0000 0.0000 0.0000
# 2 -2.1367 48.9057 -16.8164 0.0000 0.0000 0.0000
# 3 13.3452 -16.8164 69.9426 0.0000 0.0000 0.0000
# 4 0.0000 0.0000 0.0000 -8.4986 0.0000 0.0000
# 5 0.0000 0.0000 0.0000 0.0000 2.2396 0.0000
# 6 0.0000 0.0000 0.0000 0.0000 0.0000 15.9604
#
#
#
# Elastic Compliance Matrix: (Units=1/GPa)
#
#
# Indices 1 2 3 4 5 6 
#
# 1 0.012172 -0.000291 -0.002392 0.000000 0.000000 0.000000
# 2 -0.000291 0.022297 0.005416 0.000000 0.000000 0.000000
# 3 -0.002392 0.005416 0.016056 0.000000 0.000000 0.000000
# 4 0.000000 0.000000 0.000000 -0.117667 0.000000 0.000000
# 5 0.000000 0.000000 0.000000 0.000000 0.446505 0.000000
# 6 0.000000 0.000000 0.000000 0.000000 0.000000 0.062655
#
#
# Mechanical properties :
#
#
# Convention : Reuss Voigt Hill
#
# Bulk Modulus (GPa) = 17.85969 21.37326 19.61647
# Shear Modulus (GPa) = 10.98379 15.88580 13.43480
#
# Velocity S-wave (km/s) = 2.40880 2.89687 2.66403
# Velocity P-wave (km/s) = 4.14378 4.74128 4.45257
#
# Compressibility (1/GPa) = 0.05599203
#
# Stress axis : x y z
#
# Youngs Moduli (GPa) = 82.15466 44.84854 62.28123
#
# Poissons Ratio (x) = 0.01304 0.14900
# Poissons Ratio (y) = 0.02389 -0.33734
# Poissons Ratio (z) = 0.19655 -0.24292
#
# Static dielectric constant tensor:
#      x y z
#    x 1.666690 0.000000 0.000000 
#    y 0.000000 1.648910 0.000000 
#    z 0.000000 0.000000 1.613170 
# 
# From -- ./inp_files/23626.got.cif
#   From: 2010.05.17/outbox.cif.g08.bks.cpg/sg46_12_cif.got.tgz:23626.got - 2010.06.03 19:58:25.
