data_PCOD9380947
_publ_section_title
;
Structure prediction by ZEFSAII (Michael W. Deem and Ramdas Pophale) SiO2 
 PCOD9380947
Probable space group: I M A 2
;
_chemical_formula_sum "Si O2"
_cell_formula_units_Z 40
_cell_length_a 14.170884
_cell_length_b 14.574695
_cell_length_c 8.634382
_cell_angle_alpha 90.000000
_cell_angle_beta 90.000000
_cell_angle_gamma 90.000000
_cell_volume 1783.313416
_symmetry_space_group_name_H-M "I M A 2"
_symmetry_group_IT_number 46
_symmetry_cell_setting 'orthorhombic'
loop_
_space_group_symop_operation_xyz
x,y,z
-x,-y,z
1/2-x,y,z
1/2+x,-y,z
1/2+x,1/2+y,1/2+z
1/2-x,1/2-y,1/2+z
-x,1/2+y,1/2+z
x,1/2-y,1/2+z
loop_
_atom_site_type_symbol
_atom_site_label
_atom_site_fract_x
_atom_site_fract_y
_atom_site_fract_z
Si Si1 0.451699 0.099834 0.471160
Si Si2 0.250000 0.875619 0.494261
Si Si3 0.250000 0.441922 0.472840
Si Si4 0.750000 0.375618 0.312657
Si Si5 0.451699 0.400166 0.335749
Si Si6 0.750000 0.941921 0.334071
Si Si7 0.417634 0.750000 0.903459
O O1 0.458206 0.128766 0.653455
O O2 0.344387 0.093258 0.416647
O O3 0.509294 0.169471 0.361228
O O4 0.500000 0.000000 0.460978
O O5 0.250000 0.932475 0.653459
O O6 0.158633 0.811412 0.494735
O O7 0.250000 0.946978 0.355332
O O8 0.250000 0.553023 0.451587
O O9 0.344386 0.406744 0.390262
O O10 0.250000 0.418640 0.653455
O O11 0.841367 0.311413 0.312185
O O12 0.500000 0.500000 0.345931
O O13 0.509291 0.330528 0.445682
#
# Coordination Sequence:
#
# PCOD9380947 Si02
#       7
#     8   4   4   4   8   4   8
#     4  11  24  47  73 100 139 188 233 283 353 420
#     4  11  23  45  73 104 142 184 233 286 352 419
#     4  12  27  44  69 106 144 182 235 293 344 409
#     4  11  23  45  73 104 142 184 233 286 352 419
#     4  11  24  47  73 100 139 188 233 283 353 420
#     4  12  27  44  69 106 144 182 235 293 344 409
#     4  11  24  41  74 108 132 177 238 293 334 414
#
# _framework density 22.430157000000001
#
# number of rings (size 3 to 8) (size 9 to 14) (size 15 to 20)
#    0.000    0.800    4.000    3.000    0.000    9.600 
#    0.000    0.000    0.000    0.000    0.000    0.000 
#    0.000    0.000    0.000    0.000    0.000    0.000 
#
# Total GULP energy -111456.420620 kJ/mol
# GULP energy per Si atom -5572.821031 kJ/mol
# Density = 2.237911 g / cm^3
# Si number density = 22.430157 Si / 1000 Ang^3
#
#
#
# Elastic Constant Matrix: (Units=GPa)
#
#
# Indices 1 2 3 4 5 6 
#
# 1 234.5662 49.5484 34.8793 0.0000 0.0000 0.0000
# 2 49.5484 87.4246 5.9358 0.0000 0.0000 0.0000
# 3 34.8793 5.9358 48.7070 0.0000 0.0000 0.0000
# 4 0.0000 0.0000 0.0000 -15.6933 0.0000 0.0000
# 5 0.0000 0.0000 0.0000 0.0000 -74.4930 0.0000
# 6 0.0000 0.0000 0.0000 0.0000 0.0000 49.9240
#
#
#
# Elastic Compliance Matrix: (Units=1/GPa)
#
#
# Indices 1 2 3 4 5 6 
#
# 1 0.005379 -0.002810 -0.003509 0.000000 0.000000 0.000000
# 2 -0.002810 0.013002 0.000428 0.000000 0.000000 0.000000
# 3 -0.003509 0.000428 0.022992 0.000000 0.000000 0.000000
# 4 0.000000 0.000000 0.000000 -0.063721 0.000000 0.000000
# 5 0.000000 0.000000 0.000000 0.000000 -0.013424 0.000000
# 6 0.000000 0.000000 0.000000 0.000000 0.000000 0.020030
#
#
# Mechanical properties :
#
#
# Convention : Reuss Voigt Hill
#
# Bulk Modulus (GPa) = 33.79587 61.26941 47.53264
# Shear Modulus (GPa) = 846.97840 10.63649 428.80745
#
# Velocity S-wave (km/s) = 19.45319 2.17999 13.84159
# Velocity P-wave (km/s) = 22.79625 5.80615 16.63401
#
# Compressibility (1/GPa) = 0.02958941
#
# Stress axis : x y z
#
# Youngs Moduli (GPa) = 185.92288 76.91119 43.49389
#
# Poissons Ratio (x) = 0.21613 0.15263
# Poissons Ratio (y) = 0.52246 -0.01861
# Poissons Ratio (z) = 0.65243 -0.03290
#
# Static dielectric constant tensor:
#      x y z
#    x 1.797860 0.000000 0.000000 
#    y 0.000000 1.804760 0.000000 
#    z 0.000000 0.000000 1.800990 
# 
# From -- ./inp_files/5478.got.cif
#   From: 2010.05.17/outbox.cif.g08.bks.cpg/sg46_3_cif.got.tgz:5478.got - 2010.06.03 19:58:25.
