data_PCOD9380629
_publ_section_title
;
Structure prediction by ZEFSAII (Michael W. Deem and Ramdas Pophale) SiO2 
 PCOD9380629
Probable space group: I M A 2
;
_chemical_formula_sum "Si O2"
_cell_formula_units_Z 64
_cell_length_a 15.769916
_cell_length_b 24.604532
_cell_length_c 8.588454
_cell_angle_alpha 90.000000
_cell_angle_beta 90.000000
_cell_angle_gamma 90.000000
_cell_volume 3332.418085
_symmetry_space_group_name_H-M "I M A 2"
_symmetry_group_IT_number 46
_symmetry_cell_setting 'orthorhombic'
loop_
_space_group_symop_operation_xyz
x,y,z
-x,-y,z
1/2-x,y,z
1/2+x,-y,z
1/2+x,1/2+y,1/2+z
1/2-x,1/2-y,1/2+z
-x,1/2+y,1/2+z
x,1/2-y,1/2+z
loop_
_atom_site_type_symbol
_atom_site_label
_atom_site_fract_x
_atom_site_fract_y
_atom_site_fract_z
Si Si1 0.847217 0.390571 0.528460
Si Si2 0.503830 0.187944 0.408362
Si Si3 0.005361 0.809113 0.035505
Si Si4 0.652525 0.874922 0.909676
Si Si5 0.902165 0.992517 0.419397
Si Si6 0.845296 0.623272 0.038476
Si Si7 0.842967 0.111227 0.407917
Si Si8 0.351548 0.489492 0.565262
O O1 0.750000 0.380347 0.476605
O O2 0.916534 0.346773 0.477518
O O3 0.845943 0.389749 0.718346
O O4 0.873526 0.452511 0.488688
O O5 0.507245 0.190630 0.222075
O O6 0.512726 0.248026 0.475430
O O7 0.416247 0.160224 0.459450
O O8 0.580814 0.149159 0.462612
O O9 0.916941 0.835349 0.981777
O O10 0.750000 0.863591 0.959768
O O11 0.649332 0.870516 0.723931
O O12 0.632049 0.936496 0.963106
O O13 0.862952 0.939433 0.496428
O O14 0.895951 0.984244 0.232427
O O15 0.855788 0.048889 0.457598
O O16 0.000000 0.000000 0.462525
O O17 0.750000 0.637455 0.986805
O O18 0.750000 0.130936 0.455383
O O19 0.250000 0.492259 0.595658
#
# Coordination Sequence:
#
# PCOD9380629 Si02
#       8
#     8   8   8   8   8   8   8   8
#     4   8  17  34  57  86 116 153 191 232 284 341
#     4  11  23  40  60  87 113 151 201 241 295 344
#     4  11  23  39  61  84 115 150 195 251 287 347
#     4  10  23  40  59  86 119 155 193 237 294 346
#     4  11  19  33  59  92 120 151 194 231 283 347
#     4  11  23  41  60  84 121 156 190 239 291 346
#     4   9  18  35  58  84 118 154 192 234 280 343
#     4   9  18  34  58  88 119 153 196 234 279 346
#
# _framework density 19.205272999999998
#
# number of rings (size 3 to 8) (size 9 to 14) (size 15 to 20)
#    0.000    2.000    1.250    3.375    3.500    2.500 
#    2.250    0.000    0.000    3.750    0.000    0.000 
#    0.000    0.000    0.000    0.000    0.000    0.000 
#
# Total GULP energy -178718.545560 kJ/mol
# GULP energy per Si atom -5584.954549 kJ/mol
# Density = 1.916156 g / cm^3
# Si number density = 19.205273 Si / 1000 Ang^3
#
#
#
# Elastic Constant Matrix: (Units=GPa)
#
#
# Indices 1 2 3 4 5 6 
#
# 1 74.0433 6.6693 7.4871 0.0000 0.0000 0.0000
# 2 6.6693 63.2083 3.7930 0.0000 0.0000 0.0000
# 3 7.4871 3.7930 24.1484 0.0000 0.0000 0.0000
# 4 0.0000 0.0000 0.0000 32.4557 0.0000 0.0000
# 5 0.0000 0.0000 0.0000 0.0000 10.0178 0.0000
# 6 0.0000 0.0000 0.0000 0.0000 0.0000 -8.0960
#
#
#
# Elastic Compliance Matrix: (Units=1/GPa)
#
#
# Indices 1 2 3 4 5 6 
#
# 1 0.014037 -0.001232 -0.004159 0.000000 0.000000 0.000000
# 2 -0.001232 0.016079 -0.002144 0.000000 0.000000 0.000000
# 3 -0.004159 -0.002144 0.043037 0.000000 0.000000 0.000000
# 4 0.000000 0.000000 0.000000 0.030811 0.000000 0.000000
# 5 0.000000 0.000000 0.000000 0.000000 0.099823 0.000000
# 6 0.000000 0.000000 0.000000 0.000000 0.000000 -0.123518
#
#
# Mechanical properties :
#
#
# Convention : Reuss Voigt Hill
#
# Bulk Modulus (GPa) = 17.21610 21.92208 19.56909
# Shear Modulus (GPa) = 43.59272 16.43889 30.01581
#
# Velocity S-wave (km/s) = 4.76944 2.92885 3.95763
# Velocity P-wave (km/s) = 6.27007 4.78298 5.57632
#
# Compressibility (1/GPa) = 0.05808516
#
# Stress axis : x y z
#
# Youngs Moduli (GPa) = 71.24004 62.19177 23.23597
#
# Poissons Ratio (x) = 0.07659 0.09663
# Poissons Ratio (y) = 0.08773 0.04981
# Poissons Ratio (z) = 0.29627 0.13332
#
# Static dielectric constant tensor:
#      x y z
#    x 1.674770 0.000000 0.000000 
#    y 0.000000 1.647410 0.000000 
#    z 0.000000 0.000000 1.654000 
# 
# From -- ./inp_files/6107.got.cif
#   From: 2010.05.17/outbox.cif.g08.bks.cpg/sg46_4_cif.got.tgz:6107.got - 2010.06.03 19:58:25.
