data_PCOD9380778
_publ_section_title
;
Structure prediction by ZEFSAII (Michael W. Deem and Ramdas Pophale) SiO2 
 PCOD9380778
Probable space group: I M A 2
;
_chemical_formula_sum "Si O2"
_cell_formula_units_Z 28
_cell_length_a 20.310056
_cell_length_b 4.938408
_cell_length_c 10.475061
_cell_angle_alpha 90.000000
_cell_angle_beta 90.000000
_cell_angle_gamma 90.000000
_cell_volume 1050.641737
_symmetry_space_group_name_H-M "I M A 2"
_symmetry_group_IT_number 46
_symmetry_cell_setting 'orthorhombic'
loop_
_space_group_symop_operation_xyz
x,y,z
-x,-y,z
1/2-x,y,z
1/2+x,-y,z
1/2+x,1/2+y,1/2+z
1/2-x,1/2-y,1/2+z
-x,1/2+y,1/2+z
x,1/2-y,1/2+z
loop_
_atom_site_type_symbol
_atom_site_label
_atom_site_fract_x
_atom_site_fract_y
_atom_site_fract_z
Si Si1 0.890174 0.724061 0.750000
Si Si2 0.104882 0.765966 0.909844
Si Si3 0.250000 0.077632 0.158922
Si Si4 0.250000 0.753010 0.418011
Si Si5 0.500000 0.000000 0.581781
O O1 0.905484 0.414521 0.783736
O O2 0.817078 0.730460 0.692685
O O3 0.889553 0.921271 0.873029
O O4 0.947305 0.836873 0.663137
O O5 0.176207 0.655179 0.956870
O O6 0.043978 0.700288 0.997261
O O7 0.250000 0.823223 0.264123
O O8 0.250000 0.015673 0.007801
#
# Coordination Sequence:
#
# PCOD9380778 Si02
#       5
#     8   8   4   4   4
#     4  11  27  50  75 113 158 204 269 331 403 471
#     4  11  27  49  74 115 155 206 266 337 394 479
#     4  10  25  53  84 122 158 214 272 348 400 484
#     4  10  25  49  84 114 158 204 278 330 410 460
#     4  12  28  46  82 108 168 212 266 318 416 496
#
# _framework density 26.650379999999998
#
# number of rings (size 3 to 8) (size 9 to 14) (size 15 to 20)
#    0.000    1.143    0.000    2.571   12.000    3.429 
#    0.000    0.000    0.000    0.000    0.000    0.000 
#    0.000    0.000    0.000    0.000    0.000    0.000 
#
# Total GULP energy -78342.598207 kJ/mol
# GULP energy per Si atom -5595.899872 kJ/mol
# Density = 2.658972 g / cm^3
# Si number density = 26.650380 Si / 1000 Ang^3
#
#
#
# Elastic Constant Matrix: (Units=GPa)
#
#
# Indices 1 2 3 4 5 6 
#
# 1 266.4604 38.7523 77.5355 0.0000 0.0000 0.0000
# 2 38.7523 74.7869 8.0256 0.0000 0.0000 0.0000
# 3 77.5355 8.0256 47.7832 0.0000 0.0000 0.0000
# 4 0.0000 0.0000 0.0000 49.9278 0.0000 0.0000
# 5 0.0000 0.0000 0.0000 0.0000 122.7496 0.0000
# 6 0.0000 0.0000 0.0000 0.0000 0.0000 45.2283
#
#
#
# Elastic Compliance Matrix: (Units=1/GPa)
#
#
# Indices 1 2 3 4 5 6 
#
# 1 0.007597 -0.002662 -0.011880 0.000000 0.000000 0.000000
# 2 -0.002662 0.014549 0.001875 0.000000 0.000000 0.000000
# 3 -0.011880 0.001875 0.039890 0.000000 0.000000 0.000000
# 4 0.000000 0.000000 0.000000 0.020029 0.000000 0.000000
# 5 0.000000 0.000000 0.000000 0.000000 0.008147 0.000000
# 6 0.000000 0.000000 0.000000 0.000000 0.000000 0.022110
#
#
# Mechanical properties :
#
#
# Convention : Reuss Voigt Hill
#
# Bulk Modulus (GPa) = 27.24552 70.85084 49.04818
# Shear Modulus (GPa) = 33.35792 61.22894 47.29343
#
# Velocity S-wave (km/s) = 3.54176 4.79841 4.21716
# Velocity P-wave (km/s) = 5.19335 7.57250 6.49283
#
# Compressibility (1/GPa) = 0.03670328
#
# Stress axis : x y z
#
# Youngs Moduli (GPa) = 131.63268 68.73209 25.06882
#
# Poissons Ratio (x) = 0.18294 0.29782
# Poissons Ratio (y) = 0.35035 -0.04701
# Poissons Ratio (z) = 1.56381 -0.12888
#
# Static dielectric constant tensor:
#      x y z
#    x 1.967040 0.000000 0.000000 
#    y 0.000000 2.098130 0.000000 
#    z 0.000000 0.000000 2.150490 
# 
# From -- ./inp_files/12152.got.cif
#   From: 2010.05.17/outbox.cif.g08.bks.cpg/sg46_7_cif.got.tgz:12152.got - 2010.06.03 19:58:25.
