data_PCOD9380714
_publ_section_title
;
Structure prediction by ZEFSAII (Michael W. Deem and Ramdas Pophale) SiO2 
 PCOD9380714
Probable space group: I M A 2
;
_chemical_formula_sum "Si O2"
_cell_formula_units_Z 32
_cell_length_a 16.550333
_cell_length_b 7.617558
_cell_length_c 10.035506
_cell_angle_alpha 90.000000
_cell_angle_beta 90.000000
_cell_angle_gamma 90.000000
_cell_volume 1265.207568
_symmetry_space_group_name_H-M "I M A 2"
_symmetry_group_IT_number 46
_symmetry_cell_setting 'orthorhombic'
loop_
_space_group_symop_operation_xyz
x,y,z
-x,-y,z
1/2-x,y,z
1/2+x,-y,z
1/2+x,1/2+y,1/2+z
1/2-x,1/2-y,1/2+z
-x,1/2+y,1/2+z
x,1/2-y,1/2+z
loop_
_atom_site_type_symbol
_atom_site_label
_atom_site_fract_x
_atom_site_fract_y
_atom_site_fract_z
Si Si1 0.485427 0.705881 0.430250
Si Si2 0.376972 0.373981 0.091247
Si Si3 0.878499 0.903174 0.290957
Si Si4 0.846138 0.242832 0.116926
O O1 0.500000 0.500000 0.411965
O O2 0.535847 0.789722 0.554678
O O3 0.531575 0.821280 0.319440
O O4 0.393475 0.720522 0.477085
O O5 0.342937 0.400019 0.940952
O O6 0.338911 0.233706 0.189379
O O7 0.372942 0.562270 0.160875
O O8 0.127855 0.911876 0.216698
O O9 0.750000 0.237732 0.101891
#
# Coordination Sequence:
#
# PCOD9380714 Si02
#       4
#     8   8   8   8
#     4  10  23  49  81 120 160 231 298 360 433 541
#     4  10  25  48  81 118 171 223 305 353 458 537
#     4  10  25  50  79 122 169 225 303 362 445 546
#     4  12  26  48  79 127 175 226 286 377 453 526
#
# _framework density 25.292290999999999
#
# number of rings (size 3 to 8) (size 9 to 14) (size 15 to 20)
#    1.500    0.000    2.500    0.750    0.000   12.000 
#    0.000    1.250    0.000    0.000    0.000    0.000 
#    0.000    0.000    0.000    0.000    0.000    0.000 
#
# Total GULP energy -89252.677516 kJ/mol
# GULP energy per Si atom -5578.292345 kJ/mol
# Density = 2.523472 g / cm^3
# Si number density = 25.292291 Si / 1000 Ang^3
#
#
#
# Elastic Constant Matrix: (Units=GPa)
#
#
# Indices 1 2 3 4 5 6 
#
# 1 176.1544 63.2240 43.6112 0.0000 0.0000 0.0000
# 2 63.2240 282.0175 99.4147 0.0000 0.0000 0.0000
# 3 43.6112 99.4147 179.7538 0.0000 0.0000 0.0000
# 4 0.0000 0.0000 0.0000 55.3100 0.0000 0.0000
# 5 0.0000 0.0000 0.0000 0.0000 1585.6664 0.0000
# 6 0.0000 0.0000 0.0000 0.0000 0.0000 -25.1151
#
#
#
# Elastic Compliance Matrix: (Units=1/GPa)
#
#
# Indices 1 2 3 4 5 6 
#
# 1 0.006296 -0.001084 -0.000928 0.000000 0.000000 0.000000
# 2 -0.001084 0.004591 -0.002276 0.000000 0.000000 0.000000
# 3 -0.000928 -0.002276 0.007047 0.000000 0.000000 0.000000
# 4 0.000000 0.000000 0.000000 0.018080 0.000000 0.000000
# 5 0.000000 0.000000 0.000000 0.000000 0.000631 0.000000
# 6 0.000000 0.000000 0.000000 0.000000 0.000000 -0.039817
#
#
# Mechanical properties :
#
#
# Convention : Reuss Voigt Hill
#
# Bulk Modulus (GPa) = 106.86506 116.71396 111.78951
# Shear Modulus (GPa) = 586.58296 351.95065 469.26680
#
# Velocity S-wave (km/s) = 15.24550 11.80912 13.63599
# Velocity P-wave (km/s) = 18.76816 15.23768 17.09431
#
# Compressibility (1/GPa) = 0.00935760
#
# Stress axis : x y z
#
# Youngs Moduli (GPa) = 158.83825 217.79970 141.90170
#
# Poissons Ratio (x) = 0.23618 0.13165
# Poissons Ratio (y) = 0.17224 0.32300
# Poissons Ratio (z) = 0.14736 0.49576
#
# Static dielectric constant tensor:
#      x y z
#    x 0.730740 0.000000 0.000000 
#    y 0.000000 1.984440 0.000000 
#    z 0.000000 0.000000 2.021480 
# 
# From -- ./inp_files/10843.got.cif
#   From: 2010.05.17/outbox.cif.g08.bks.cpg/sg46_6_cif.got.tgz:10843.got - 2010.06.03 19:58:25.
