data_PCOD9380175
_publ_section_title
;
Structure prediction by ZEFSAII (Michael W. Deem and Ramdas Pophale) SiO2 
 PCOD9380175
Probable space group: I M A 2
;
_chemical_formula_sum "Si O2"
_cell_formula_units_Z 48
_cell_length_a 9.723641
_cell_length_b 8.661419
_cell_length_c 28.514580
_cell_angle_alpha 90.000000
_cell_angle_beta 90.000000
_cell_angle_gamma 90.000000
_cell_volume 2401.513009
_symmetry_space_group_name_H-M "I M A 2"
_symmetry_group_IT_number 46
_symmetry_cell_setting 'orthorhombic'
loop_
_space_group_symop_operation_xyz
x,y,z
-x,-y,z
1/2-x,y,z
1/2+x,-y,z
1/2+x,1/2+y,1/2+z
1/2-x,1/2-y,1/2+z
-x,1/2+y,1/2+z
x,1/2-y,1/2+z
loop_
_atom_site_type_symbol
_atom_site_label
_atom_site_fract_x
_atom_site_fract_y
_atom_site_fract_z
Si Si1 0.250000 0.339881 0.611750
Si Si2 0.414536 0.837391 0.467767
Si Si3 0.250000 0.205624 0.221126
Si Si4 0.750000 0.342607 0.746226
Si Si5 0.913254 0.659187 0.882749
Si Si6 0.017152 0.182317 0.786385
Si Si7 0.483670 0.684466 0.071208
Si Si8 0.250000 0.700935 0.636563
O O1 0.250000 0.280702 0.665361
O O2 0.379504 0.275851 0.583738
O O3 0.250000 0.523109 0.619667
O O4 0.250000 0.853516 0.458414
O O5 0.500106 0.760610 0.425136
O O6 0.430139 0.767288 0.519641
O O7 0.500000 0.000000 0.470783
O O8 0.381591 0.284742 0.243493
O O9 0.250000 0.027713 0.239445
O O10 0.619703 0.277120 0.773855
O O11 0.750000 0.284876 0.692396
O O12 0.750000 0.635405 0.893738
O O13 0.922413 0.752949 0.834770
O O14 0.000000 0.500000 0.874903
O O15 0.000000 0.000000 0.790734
O O16 0.500000 0.500000 0.070397
O O17 0.380229 0.721923 0.112796
#
# Coordination Sequence:
#
# PCOD9380175 Si02
#       8
#     4   8   4   4   8   8   8   4
#     4  11  25  39  68  89 134 173 210 269 316 381
#     4  10  21  38  65  98 130 165 218 266 310 377
#     4  11  23  47  62  95 122 173 230 253 312 387
#     4  11  25  41  72  87 126 179 216 265 304 389
#     4  11  23  41  69  97 128 169 219 259 314 390
#     4  12  26  42  64  97 134 163 207 272 331 376
#     4  11  23  39  66  97 130 167 214 267 315 377
#     4  11  23  45  60  97 130 169 220 259 324 377
#
# _framework density 19.987400000000001
#
# number of rings (size 3 to 8) (size 9 to 14) (size 15 to 20)
#    0.000    1.000    1.667    6.000    7.000    6.667 
#    0.000    1.667    0.000    0.000    0.000    0.000 
#    0.000    0.000    0.000    0.000    0.000    0.000 
#
# Total GULP energy -133982.968469 kJ/mol
# GULP energy per Si atom -5582.623686 kJ/mol
# Density = 1.994191 g / cm^3
# Si number density = 19.987400 Si / 1000 Ang^3
#
#
#
# Elastic Constant Matrix: (Units=GPa)
#
#
# Indices 1 2 3 4 5 6 
#
# 1 169.1985 16.5809 42.1464 0.0000 0.0000 0.0000
# 2 16.5809 48.8034 36.9945 0.0000 0.0000 0.0000
# 3 42.1464 36.9945 124.7910 0.0000 0.0000 0.0000
# 4 0.0000 0.0000 0.0000 26.4749 0.0000 0.0000
# 5 0.0000 0.0000 0.0000 0.0000 47.3427 0.0000
# 6 0.0000 0.0000 0.0000 0.0000 0.0000 3.8415
#
#
#
# Elastic Compliance Matrix: (Units=1/GPa)
#
#
# Indices 1 2 3 4 5 6 
#
# 1 0.006472 -0.000699 -0.001978 0.000000 0.000000 0.000000
# 2 -0.000699 0.026505 -0.007621 0.000000 0.000000 0.000000
# 3 -0.001978 -0.007621 0.010941 0.000000 0.000000 0.000000
# 4 0.000000 0.000000 0.000000 0.037772 0.000000 0.000000
# 5 0.000000 0.000000 0.000000 0.000000 0.021123 0.000000
# 6 0.000000 0.000000 0.000000 0.000000 0.000000 0.260312
#
#
# Mechanical properties :
#
#
# Convention : Reuss Voigt Hill
#
# Bulk Modulus (GPa) = 42.88173 59.35960 51.12066
# Shear Modulus (GPa) = 12.77156 32.00323 22.38740
#
# Velocity S-wave (km/s) = 2.53055 4.00580 3.35038
# Velocity P-wave (km/s) = 5.48080 7.15250 6.37171
#
# Compressibility (1/GPa) = 0.02331996
#
# Stress axis : x y z
#
# Youngs Moduli (GPa) = 154.52282 37.72855 91.39958
#
# Poissons Ratio (x) = 0.02637 0.18083
# Poissons Ratio (y) = 0.10801 0.69659
# Poissons Ratio (z) = 0.30572 0.28754
#
# Static dielectric constant tensor:
#      x y z
#    x 1.552680 0.000000 0.000000 
#    y 0.000000 1.701270 0.000000 
#    z 0.000000 0.000000 1.717060 
# 
# From -- ./inp_files/25094.got.cif
#   From: 2010.05.17/outbox.cif.g08.bks.cpg/sg46_13_cif.got.tgz:25094.got - 2010.06.03 19:58:25.
