data_PCOD9380127
_publ_section_title
;
Structure prediction by ZEFSAII (Michael W. Deem and Ramdas Pophale) SiO2 
 PCOD9380127
Probable space group: I M A 2
;
_chemical_formula_sum "Si O2"
_cell_formula_units_Z 48
_cell_length_a 8.707887
_cell_length_b 18.446979
_cell_length_c 15.244240
_cell_angle_alpha 90.000000
_cell_angle_beta 90.000000
_cell_angle_gamma 90.000000
_cell_volume 2448.746428
_symmetry_space_group_name_H-M "I M A 2"
_symmetry_group_IT_number 46
_symmetry_cell_setting 'orthorhombic'
loop_
_space_group_symop_operation_xyz
x,y,z
-x,-y,z
1/2-x,y,z
1/2+x,-y,z
1/2+x,1/2+y,1/2+z
1/2-x,1/2-y,1/2+z
-x,1/2+y,1/2+z
x,1/2-y,1/2+z
loop_
_atom_site_type_symbol
_atom_site_label
_atom_site_fract_x
_atom_site_fract_y
_atom_site_fract_z
Si Si1 0.565906 0.695438 0.786510
Si Si2 0.566541 0.865558 0.780658
Si Si3 0.567551 0.075675 0.606110
Si Si4 0.065406 0.703920 0.976294
Si Si5 0.565884 0.864480 0.980877
Si Si6 0.932779 0.423172 0.655743
O O1 0.750000 0.688769 0.794341
O O2 0.531632 0.780035 0.767009
O O3 0.486745 0.679285 0.879633
O O4 0.503101 0.642047 0.712732
O O5 0.750000 0.874559 0.772866
O O6 0.485131 0.910526 0.705488
O O7 0.523005 0.884279 0.880761
O O8 0.750000 0.071975 0.602402
O O9 0.517966 0.143793 0.546964
O O10 0.500000 0.000000 0.573619
O O11 0.250000 0.713232 0.979222
O O12 0.984681 0.780862 0.993346
O O13 0.750000 0.870030 0.989551
O O14 0.484109 0.910630 0.055406
O O15 0.750000 0.422794 0.662654
O O16 0.000000 0.500000 0.686331
#
# Coordination Sequence:
#
# PCOD9380127 Si02
#       6
#     8   8   8   8   8   8
#     4  10  21  39  63  89 116 151 191 237 290 345
#     4   9  20  38  61  86 114 148 188 233 283 338
#     4  11  24  38  56  82 115 153 191 233 284 337
#     4  10  21  38  60  88 117 151 195 241 287 339
#     4  10  21  39  62  88 116 151 193 239 290 344
#     4  12  25  40  59  85 118 156 194 239 292 351
#
# _framework density 19.601866999999999
#
# number of rings (size 3 to 8) (size 9 to 14) (size 15 to 20)
#    0.000    1.667    0.000    5.500    0.000   10.667 
#    0.000    1.667    0.000    0.000    0.000    0.000 
#    0.000    0.000    0.000    0.000    0.000    0.000 
#
# Total GULP energy -134187.639503 kJ/mol
# GULP energy per Si atom -5591.151646 kJ/mol
# Density = 1.955725 g / cm^3
# Si number density = 19.601867 Si / 1000 Ang^3
#
#
#
# Elastic Constant Matrix: (Units=GPa)
#
#
# Indices 1 2 3 4 5 6 
#
# 1 36.7692 0.7771 2.2963 0.0000 0.0000 0.0000
# 2 0.7771 18.5171 10.8294 0.0000 0.0000 0.0000
# 3 2.2963 10.8294 46.1008 0.0000 0.0000 0.0000
# 4 0.0000 0.0000 0.0000 -10.3114 0.0000 0.0000
# 5 0.0000 0.0000 0.0000 0.0000 34.6696 0.0000
# 6 0.0000 0.0000 0.0000 0.0000 0.0000 32.9232
#
#
#
# Elastic Compliance Matrix: (Units=1/GPa)
#
#
# Indices 1 2 3 4 5 6 
#
# 1 0.027284 -0.000406 -0.001264 0.000000 0.000000 0.000000
# 2 -0.000406 0.062611 -0.014688 0.000000 0.000000 0.000000
# 3 -0.001264 -0.014688 0.025205 0.000000 0.000000 0.000000
# 4 0.000000 0.000000 0.000000 -0.096980 0.000000 0.000000
# 5 0.000000 0.000000 0.000000 0.000000 0.028844 0.000000
# 6 0.000000 0.000000 0.000000 0.000000 0.000000 0.030374
#
#
# Mechanical properties :
#
#
# Convention : Reuss Voigt Hill
#
# Bulk Modulus (GPa) = 12.13807 14.35476 13.24642
# Shear Modulus (GPa) = 36.35999 17.28856 26.82428
#
# Velocity S-wave (km/s) = 4.31156 2.97305 3.70328
# Velocity P-wave (km/s) = 5.56703 4.37314 5.00580
#
# Compressibility (1/GPa) = 0.08238541
#
# Stress axis : x y z
#
# Youngs Moduli (GPa) = 36.65128 15.97161 39.67501
#
# Poissons Ratio (x) = 0.00649 0.05014
# Poissons Ratio (y) = 0.01488 0.58273
# Poissons Ratio (z) = 0.04631 0.23458
#
# Static dielectric constant tensor:
#      x y z
#    x 1.650470 0.000000 0.000000 
#    y 0.000000 1.677250 0.000000 
#    z 0.000000 0.000000 1.681520 
# 
# From -- ./inp_files/13882.got.cif
#   From: 2010.05.17/outbox.cif.g08.bks.cpg/sg46_7_cif.got.tgz:13882.got - 2010.06.03 19:58:25.
