data_PCOD9380446
_publ_section_title
;
Structure prediction by ZEFSAII (Michael W. Deem and Ramdas Pophale) SiO2 
 PCOD9380446
Probable space group: I M A 2
;
_chemical_formula_sum "Si O2"
_cell_formula_units_Z 36
_cell_length_a 27.447180
_cell_length_b 6.667324
_cell_length_c 7.735673
_cell_angle_alpha 90.000000
_cell_angle_beta 90.000000
_cell_angle_gamma 90.000000
_cell_volume 1415.622295
_symmetry_space_group_name_H-M "I M A 2"
_symmetry_group_IT_number 46
_symmetry_cell_setting 'orthorhombic'
loop_
_space_group_symop_operation_xyz
x,y,z
-x,-y,z
1/2-x,y,z
1/2+x,-y,z
1/2+x,1/2+y,1/2+z
1/2-x,1/2-y,1/2+z
-x,1/2+y,1/2+z
x,1/2-y,1/2+z
loop_
_atom_site_type_symbol
_atom_site_label
_atom_site_fract_x
_atom_site_fract_y
_atom_site_fract_z
Si Si1 0.382544 0.062639 0.152480
Si Si2 0.805306 0.188917 0.991411
Si Si3 0.000000 0.500000 0.050596
Si Si4 0.304839 0.417451 0.145970
Si Si5 0.949852 0.697154 0.358568
O O1 0.345310 0.249531 0.141139
O O2 0.415635 0.110668 0.316951
O O3 0.348252 0.876029 0.119295
O O4 0.421777 0.069009 0.998576
O O5 0.750000 0.157225 0.060252
O O6 0.809318 0.429708 0.984873
O O7 0.808986 0.051890 0.820599
O O8 0.041681 0.433646 0.187476
O O9 0.000984 0.301513 0.930578
O O10 0.250000 0.332063 0.143363
#
# Coordination Sequence:
#
# PCOD9380446 Si02
#       5
#     8   8   4   8   8
#     4  11  21  43  64 102 129 178 221 285 318 419
#     4  10  22  39  61  94 140 184 222 266 326 388
#     4  10  24  50  70 100 130 174 212 296 352 444
#     4  10  22  39  61  97 139 181 226 269 326 389
#     4  10  24  46  70  97 132 164 232 274 365 416
#
# _framework density 25.430513000000001
#
# number of rings (size 3 to 8) (size 9 to 14) (size 15 to 20)
#    0.000    1.778    2.222    0.667    3.111    3.556 
#   16.000    0.000    0.000    0.000    0.000    0.000 
#    0.000    0.000    0.000    0.000    0.000    0.000 
#
# Total GULP energy -100549.255519 kJ/mol
# GULP energy per Si atom -5586.069751 kJ/mol
# Density = 2.537263 g / cm^3
# Si number density = 25.430513 Si / 1000 Ang^3
#
#
#
# Elastic Constant Matrix: (Units=GPa)
#
#
# Indices 1 2 3 4 5 6 
#
# 1 97.2629 55.2653 15.6475 0.0000 0.0000 0.0000
# 2 55.2653 71.5398 3.7114 0.0000 0.0000 0.0000
# 3 15.6475 3.7114 77.7966 0.0000 0.0000 0.0000
# 4 0.0000 0.0000 0.0000 27.6245 0.0000 0.0000
# 5 0.0000 0.0000 0.0000 0.0000 28.8392 0.0000
# 6 0.0000 0.0000 0.0000 0.0000 0.0000 44.8235
#
#
#
# Elastic Compliance Matrix: (Units=1/GPa)
#
#
# Indices 1 2 3 4 5 6 
#
# 1 0.019060 -0.014561 -0.003139 0.000000 0.000000 0.000000
# 2 -0.014561 0.025137 0.001730 0.000000 0.000000 0.000000
# 3 -0.003139 0.001730 0.013403 0.000000 0.000000 0.000000
# 4 0.000000 0.000000 0.000000 0.036200 0.000000 0.000000
# 5 0.000000 0.000000 0.000000 0.000000 0.034675 0.000000
# 6 0.000000 0.000000 0.000000 0.000000 0.000000 0.022310
#
#
# Mechanical properties :
#
#
# Convention : Reuss Voigt Hill
#
# Bulk Modulus (GPa) = 38.97293 43.98308 41.47800
# Shear Modulus (GPa) = 26.13972 31.72244 28.93108
#
# Velocity S-wave (km/s) = 3.20955 3.53571 3.37657
# Velocity P-wave (km/s) = 5.39384 5.83106 5.61670
#
# Compressibility (1/GPa) = 0.02565884
#
# Stress axis : x y z
#
# Youngs Moduli (GPa) = 52.46506 39.78140 74.61091
#
# Poissons Ratio (x) = 0.57927 0.23420
# Poissons Ratio (y) = 0.76397 -0.12905
# Poissons Ratio (z) = 0.16469 -0.06880
#
# Static dielectric constant tensor:
#      x y z
#    x 2.005720 0.000000 0.000000 
#    y 0.000000 2.013050 0.000000 
#    z 0.000000 0.000000 2.086870 
# 
# From -- ./inp_files/8082.got.cif
#   From: 2010.05.17/outbox.cif.g08.bks.cpg/sg46_5_cif.got.tgz:8082.got - 2010.06.03 19:58:25.
