data_PCOD9380957
_publ_section_title
;
Structure prediction by ZEFSAII (Michael W. Deem and Ramdas Pophale) SiO2 
 PCOD9380957
Probable space group: I M A 2
;
_chemical_formula_sum "Si O2"
_cell_formula_units_Z 40
_cell_length_a 15.451485
_cell_length_b 5.018400
_cell_length_c 20.800099
_cell_angle_alpha 90.000000
_cell_angle_beta 90.000000
_cell_angle_gamma 90.000000
_cell_volume 1612.875709
_symmetry_space_group_name_H-M "I M A 2"
_symmetry_group_IT_number 46
_symmetry_cell_setting 'orthorhombic'
loop_
_space_group_symop_operation_xyz
x,y,z
-x,-y,z
1/2-x,y,z
1/2+x,-y,z
1/2+x,1/2+y,1/2+z
1/2-x,1/2-y,1/2+z
-x,1/2+y,1/2+z
x,1/2-y,1/2+z
loop_
_atom_site_type_symbol
_atom_site_label
_atom_site_fract_x
_atom_site_fract_y
_atom_site_fract_z
Si Si1 0.890347 0.166525 0.229460
Si Si2 0.000000 0.500000 0.627092
Si Si3 0.071339 0.317666 0.022652
Si Si4 0.500000 0.500000 0.406417
Si Si5 0.250000 0.550051 0.048231
Si Si6 0.851577 0.665069 0.310071
Si Si7 0.250000 0.446808 0.633278
O O1 0.854503 0.445456 0.253855
O O2 0.827359 0.017476 0.180787
O O3 0.893296 0.948221 0.287768
O O4 0.970835 0.211613 0.181606
O O5 0.925783 0.581954 0.575251
O O6 0.162044 0.463463 0.012375
O O7 0.000000 0.500000 0.056105
O O8 0.024749 0.228072 0.957622
O O9 0.584765 0.521269 0.361596
O O10 0.250000 0.851441 0.072285
O O11 0.250000 0.356468 0.110203
O O12 0.750000 0.704306 0.329032
#
# Coordination Sequence:
#
# PCOD9380957 Si02
#       7
#     8   4   8   4   4   8   4
#     4  12  24  43  72 109 146 182 235 295 371 446
#     4  11  24  40  72 108 150 183 228 302 370 441
#     4  11  27  49  72 109 142 198 251 307 369 448
#     4  11  30  50  70 102 144 191 262 310 352 433
#     4  12  26  46  78 105 155 192 238 301 388 442
#     4  12  26  48  73 104 143 195 244 298 366 436
#     4  12  22  44  70 113 151 182 232 299 362 472
#
# _framework density 24.800424
#
# number of rings (size 3 to 8) (size 9 to 14) (size 15 to 20)
#    0.000    0.400    4.000    3.600    9.800    0.000 
#    1.800    0.000    0.000    0.000    0.000    0.000 
#    0.000    0.000    0.000    0.000    0.000    0.000 
#
# Total GULP energy -111499.232884 kJ/mol
# GULP energy per Si atom -5574.961644 kJ/mol
# Density = 2.474398 g / cm^3
# Si number density = 24.800424 Si / 1000 Ang^3
#
#
#
# Elastic Constant Matrix: (Units=GPa)
#
#
# Indices 1 2 3 4 5 6 
#
# 1 154.0304 39.7451 50.1036 0.0000 0.0000 0.0000
# 2 39.7451 97.9067 35.1446 0.0000 0.0000 0.0000
# 3 50.1036 35.1446 91.5236 0.0000 0.0000 0.0000
# 4 0.0000 0.0000 0.0000 26.7371 0.0000 0.0000
# 5 0.0000 0.0000 0.0000 0.0000 28.5553 0.0000
# 6 0.0000 0.0000 0.0000 0.0000 0.0000 35.3631
#
#
#
# Elastic Compliance Matrix: (Units=1/GPa)
#
#
# Indices 1 2 3 4 5 6 
#
# 1 0.008222 -0.001997 -0.003734 0.000000 0.000000 0.000000
# 2 -0.001997 0.012332 -0.003642 0.000000 0.000000 0.000000
# 3 -0.003734 -0.003642 0.014369 0.000000 0.000000 0.000000
# 4 0.000000 0.000000 0.000000 0.037401 0.000000 0.000000
# 5 0.000000 0.000000 0.000000 0.000000 0.035020 0.000000
# 6 0.000000 0.000000 0.000000 0.000000 0.000000 0.028278
#
#
# Mechanical properties :
#
#
# Convention : Reuss Voigt Hill
#
# Bulk Modulus (GPa) = 61.81994 65.93860 63.87927
# Shear Modulus (GPa) = 31.29667 32.69558 31.99613
#
# Velocity S-wave (km/s) = 3.55623 3.63484 3.59575
# Velocity P-wave (km/s) = 6.46865 6.65293 6.56144
#
# Compressibility (1/GPa) = 0.01617601
#
# Stress axis : x y z
#
# Youngs Moduli (GPa) = 121.62038 81.09007 69.59476
#
# Poissons Ratio (x) = 0.16197 0.25988
# Poissons Ratio (y) = 0.24292 0.25346
# Poissons Ratio (z) = 0.45416 0.29533
#
# Static dielectric constant tensor:
#      x y z
#    x 2.703110 0.000000 0.000000 
#    y 0.000000 2.114300 0.000000 
#    z 0.000000 0.000000 1.994530 
# 
# From -- ./inp_files/22154.got.cif
#   From: 2010.05.17/outbox.cif.g08.bks.cpg/sg46_12_cif.got.tgz:22154.got - 2010.06.03 19:58:25.
