data_PCOD9380076
_publ_section_title
;
Structure prediction by ZEFSAII (Michael W. Deem and Ramdas Pophale) SiO2 
 PCOD9380076
Probable space group: I M A 2
;
_chemical_formula_sum "Si O2"
_cell_formula_units_Z 32
_cell_length_a 15.781408
_cell_length_b 16.598414
_cell_length_c 5.223605
_cell_angle_alpha 90.000000
_cell_angle_beta 90.000000
_cell_angle_gamma 90.000000
_cell_volume 1368.304230
_symmetry_space_group_name_H-M "I M A 2"
_symmetry_group_IT_number 46
_symmetry_cell_setting 'orthorhombic'
loop_
_space_group_symop_operation_xyz
x,y,z
-x,-y,z
1/2-x,y,z
1/2+x,-y,z
1/2+x,1/2+y,1/2+z
1/2-x,1/2-y,1/2+z
-x,1/2+y,1/2+z
x,1/2-y,1/2+z
loop_
_atom_site_type_symbol
_atom_site_label
_atom_site_fract_x
_atom_site_fract_y
_atom_site_fract_z
Si Si1 0.896730 0.716778 0.423570
Si Si2 0.654490 0.446109 0.753341
Si Si3 0.408373 0.781061 0.066550
Si Si4 0.404766 0.032641 0.763454
O O1 0.857681 0.725641 0.706340
O O2 0.898870 0.628130 0.302940
O O3 0.994518 0.738946 0.494229
O O4 0.750000 0.418960 0.805508
O O5 0.597701 0.367456 0.701200
O O6 0.650353 0.494631 0.489436
O O7 0.622804 0.500784 0.986377
O O8 0.369159 0.778186 0.781049
O O9 0.500000 0.000000 0.804844
#
# Coordination Sequence:
#
# PCOD9380076 Si02
#       4
#     8   8   8   8
#     4  10  21  38  64  97 124 158 214 276 321 371
#     4  12  26  42  63  96 136 175 213 267 331 392
#     4  10  21  37  61  93 132 170 209 253 316 396
#     4  12  24  42  69  95 127 172 223 271 321 383
#
# _framework density 23.386610999999998
#
# number of rings (size 3 to 8) (size 9 to 14) (size 15 to 20)
#    0.000    1.000    2.500    4.500    7.000    1.000 
#    0.000    0.000    0.000   15.000    0.000    0.000 
#    0.000    0.000    0.000    0.000    0.000    0.000 
#
# Total GULP energy -89359.371346 kJ/mol
# GULP energy per Si atom -5584.960709 kJ/mol
# Density = 2.333338 g / cm^3
# Si number density = 23.386611 Si / 1000 Ang^3
#
#
#
# Elastic Constant Matrix: (Units=GPa)
#
#
# Indices 1 2 3 4 5 6 
#
# 1 53.6040 -8.4922 18.6491 0.0000 0.0000 0.0000
# 2 -8.4922 105.2758 63.2982 0.0000 0.0000 0.0000
# 3 18.6491 63.2982 218.7585 0.0000 0.0000 0.0000
# 4 0.0000 0.0000 0.0000 41.0760 0.0000 0.0000
# 5 0.0000 0.0000 0.0000 0.0000 -14.8313 0.0000
# 6 0.0000 0.0000 0.0000 0.0000 0.0000 -13.9343
#
#
#
# Elastic Compliance Matrix: (Units=1/GPa)
#
#
# Indices 1 2 3 4 5 6 
#
# 1 0.020082 0.003207 -0.002640 0.000000 0.000000 0.000000
# 2 0.003207 0.012012 -0.003749 0.000000 0.000000 0.000000
# 3 -0.002640 -0.003749 0.005881 0.000000 0.000000 0.000000
# 4 0.000000 0.000000 0.000000 0.024345 0.000000 0.000000
# 5 0.000000 0.000000 0.000000 0.000000 -0.067425 0.000000
# 6 0.000000 0.000000 0.000000 0.000000 0.000000 -0.071765
#
#
# Mechanical properties :
#
#
# Convention : Reuss Voigt Hill
#
# Bulk Modulus (GPa) = 31.63435 58.28316 44.95876
# Shear Modulus (GPa) = -83.37525 22.74095 -30.31715
#
# Velocity S-wave (km/s) = -5.97731 3.12170 -3.60439
# Velocity P-wave (km/s) = 5.83794 6.16190 1.39418
#
# Compressibility (1/GPa) = 0.03161121
#
# Stress axis : x y z
#
# Youngs Moduli (GPa) = 49.79601 83.25201 170.03615
#
# Poissons Ratio (x) = -0.26701 0.44890
# Poissons Ratio (y) = -0.15971 0.63747
# Poissons Ratio (z) = 0.13146 0.31211
#
# Static dielectric constant tensor:
#      x y z
#    x 1.902810 0.000000 0.000000 
#    y 0.000000 1.899060 0.000000 
#    z 0.000000 0.000000 1.986270 
# 
# From -- ./inp_files/1516.got.cif
#   From: 2010.05.17/outbox.cif.g08.bks.cpg/sg46_1_cif.got.tgz:1516.got - 2010.06.03 19:58:25.
