data_PCOD9380881
_publ_section_title
;
Structure prediction by ZEFSAII (Michael W. Deem and Ramdas Pophale) SiO2 
 PCOD9380881
Probable space group: I M A 2
;
_chemical_formula_sum "Si O2"
_cell_formula_units_Z 64
_cell_length_a 20.449747
_cell_length_b 16.698995
_cell_length_c 9.107252
_cell_angle_alpha 90.000000
_cell_angle_beta 90.000000
_cell_angle_gamma 90.000000
_cell_volume 3110.037516
_symmetry_space_group_name_H-M "I M A 2"
_symmetry_group_IT_number 46
_symmetry_cell_setting 'orthorhombic'
loop_
_space_group_symop_operation_xyz
x,y,z
-x,-y,z
1/2-x,y,z
1/2+x,-y,z
1/2+x,1/2+y,1/2+z
1/2-x,1/2-y,1/2+z
-x,1/2+y,1/2+z
x,1/2-y,1/2+z
loop_
_atom_site_type_symbol
_atom_site_label
_atom_site_fract_x
_atom_site_fract_y
_atom_site_fract_z
Si Si1 0.125074 0.637838 0.992040
Si Si2 0.375159 0.793270 0.810122
Si Si3 0.678749 0.441325 0.449631
Si Si4 0.067691 0.449559 0.303865
Si Si5 0.022616 0.350877 0.044221
Si Si6 0.324208 0.991542 0.277196
Si Si7 0.540451 0.576304 0.759238
Si Si8 0.994060 0.671725 0.492841
O O1 0.128076 0.701787 0.859540
O O2 0.160977 0.561050 0.923513
O O3 0.142503 0.686039 0.141611
O O4 0.051212 0.615516 0.038165
O O5 0.327571 0.850244 0.900169
O O6 0.447032 0.819116 0.875576
O O7 0.750000 0.474429 0.411358
O O8 0.624661 0.492777 0.361241
O O9 0.673039 0.441964 0.625187
O O10 0.065976 0.409631 0.142704
O O11 0.064457 0.369872 0.404590
O O12 0.000000 0.500000 0.320613
O O13 0.017743 0.256108 0.073865
O O14 0.043454 0.353796 0.876431
O O15 0.250000 0.024068 0.288693
O O16 0.384393 0.051005 0.244731
O O17 0.500000 0.500000 0.815901
O O18 0.497945 0.606670 0.621602
#
# Coordination Sequence:
#
# PCOD9380881 Si02
#       8
#     8   8   8   8   8   8   8   8
#     4  11  23  40  63  96 134 169 212 264 330 404
#     4  11  23  39  64  96 133 172 209 264 331 401
#     4  11  24  42  65  92 128 176 222 269 330 398
#     4  12  21  40  64  95 130 166 215 274 325 388
#     4  11  24  36  62  97 132 160 211 269 334 387
#     4  11  25  43  63  92 129 174 223 273 328 399
#     4  12  22  38  66  95 126 170 216 270 332 385
#     4  11  22  38  63  95 130 167 208 269 328 390
#
# _framework density 20.578531000000002
#
# number of rings (size 3 to 8) (size 9 to 14) (size 15 to 20)
#    0.000    0.750    5.000    3.000    7.000    1.000 
#    0.000    0.000    0.000    4.500    0.000    0.000 
#    0.000    0.000    0.000    0.000    0.000    0.000 
#
# Total GULP energy -178286.175415 kJ/mol
# GULP energy per Si atom -5571.442982 kJ/mol
# Density = 2.053169 g / cm^3
# Si number density = 20.578531 Si / 1000 Ang^3
#
#
#
# Elastic Constant Matrix: (Units=GPa)
#
#
# Indices 1 2 3 4 5 6 
#
# 1 92.8454 22.0221 12.1937 0.0000 0.0000 0.0000
# 2 22.0221 57.6317 12.9694 0.0000 0.0000 0.0000
# 3 12.1937 12.9694 86.0990 0.0000 0.0000 0.0000
# 4 0.0000 0.0000 0.0000 40.7805 0.0000 0.0000
# 5 0.0000 0.0000 0.0000 0.0000 15.9980 0.0000
# 6 0.0000 0.0000 0.0000 0.0000 0.0000 13.1177
#
#
#
# Elastic Compliance Matrix: (Units=1/GPa)
#
#
# Indices 1 2 3 4 5 6 
#
# 1 0.011933 -0.004326 -0.001038 0.000000 0.000000 0.000000
# 2 -0.004326 0.019529 -0.002329 0.000000 0.000000 0.000000
# 3 -0.001038 -0.002329 0.012112 0.000000 0.000000 0.000000
# 4 0.000000 0.000000 0.000000 0.024522 0.000000 0.000000
# 5 0.000000 0.000000 0.000000 0.000000 0.062508 0.000000
# 6 0.000000 0.000000 0.000000 0.000000 0.000000 0.076233
#
#
# Mechanical properties :
#
#
# Convention : Reuss Voigt Hill
#
# Bulk Modulus (GPa) = 35.47702 36.77182 36.12442
# Shear Modulus (GPa) = 21.58714 26.60530 24.09622
#
# Velocity S-wave (km/s) = 3.24236 3.59955 3.42561
# Velocity P-wave (km/s) = 5.59414 5.93156 5.76532
#
# Compressibility (1/GPa) = 0.02818726
#
# Stress axis : x y z
#
# Youngs Moduli (GPa) = 83.80065 51.20642 82.55995
#
# Poissons Ratio (x) = 0.22153 0.08573
# Poissons Ratio (y) = 0.36254 0.19228
# Poissons Ratio (z) = 0.08701 0.11926
#
# Static dielectric constant tensor:
#      x y z
#    x 1.776990 0.000000 0.000000 
#    y 0.000000 1.757610 0.000000 
#    z 0.000000 0.000000 1.835750 
# 
# From -- ./inp_files/7566.got.cif
#   From: 2010.05.17/outbox.cif.g08.bks.cpg/sg46_4_cif.got.tgz:7566.got - 2010.06.03 19:58:25.
