data_PCOD9380823
_publ_section_title
;
Structure prediction by ZEFSAII (Michael W. Deem and Ramdas Pophale) SiO2 
 PCOD9380823
Probable space group: I M A 2
;
_chemical_formula_sum "Si O2"
_cell_formula_units_Z 60
_cell_length_a 17.440462
_cell_length_b 8.995716
_cell_length_c 17.764317
_cell_angle_alpha 90.000000
_cell_angle_beta 90.000000
_cell_angle_gamma 90.000000
_cell_volume 2787.033800
_symmetry_space_group_name_H-M "I M A 2"
_symmetry_group_IT_number 46
_symmetry_cell_setting 'orthorhombic'
loop_
_space_group_symop_operation_xyz
x,y,z
-x,-y,z
1/2-x,y,z
1/2+x,-y,z
1/2+x,1/2+y,1/2+z
1/2-x,1/2-y,1/2+z
-x,1/2+y,1/2+z
x,1/2-y,1/2+z
loop_
_atom_site_type_symbol
_atom_site_label
_atom_site_fract_x
_atom_site_fract_y
_atom_site_fract_z
Si Si1 0.409392 0.003729 0.133050
Si Si2 0.405698 0.831102 0.286077
Si Si3 0.000000 0.000000 0.931361
Si Si4 0.087211 0.741526 0.533142
Si Si5 0.338227 0.517532 0.923943
Si Si6 0.160103 0.288370 0.186278
Si Si7 0.574547 0.750845 0.345686
Si Si8 0.076775 0.576494 0.177474
O O1 0.376236 0.166941 0.130924
O O2 0.500000 0.000000 0.114900
O O3 0.404844 0.949890 0.218923
O O4 0.366779 0.887588 0.078391
O O5 0.347200 0.882633 0.348783
O O6 0.490418 0.813049 0.321991
O O7 0.389372 0.679396 0.242352
O O8 0.062448 0.088221 0.881996
O O9 0.963411 0.138695 0.977688
O O10 0.128102 0.872672 0.487571
O O11 0.050900 0.826676 0.605291
O O12 0.250000 0.479978 0.938931
O O13 0.386960 0.369451 0.903023
O O14 0.250000 0.267431 0.190997
O O15 0.123388 0.266609 0.269293
O O16 0.136768 0.450322 0.157344
O O17 0.000000 0.500000 0.207426
#
# Coordination Sequence:
#
# PCOD9380823 Si02
#       8
#     8   8   4   8   8   8   8   8
#     4  11  20  42  70 104 139 178 235 287 342 408
#     4  11  21  41  71 101 132 178 229 290 340 404
#     4  12  26  42  70 106 134 174 236 292 348 396
#     4  11  27  42  68 102 139 185 231 279 341 417
#     4  12  27  45  67 100 145 191 227 274 351 425
#     4  12  25  41  71 108 139 177 230 293 355 407
#     4  12  23  43  70 106 134 175 233 295 340 414
#     4  11  24  43  71 102 136 177 232 290 344 414
#
# _framework density 21.528264
#
# number of rings (size 3 to 8) (size 9 to 14) (size 15 to 20)
#    0.000    0.533    6.000    2.400    1.867    1.600 
#    0.000    3.333    0.000    0.000    0.000    0.000 
#    0.000    0.000    0.000    0.000    0.000    0.000 
#
# Total GULP energy -167535.947022 kJ/mol
# GULP energy per Si atom -5584.531567 kJ/mol
# Density = 2.147926 g / cm^3
# Si number density = 21.528264 Si / 1000 Ang^3
#
#
#
# Elastic Constant Matrix: (Units=GPa)
#
#
# Indices 1 2 3 4 5 6 
#
# 1 74.2246 35.2279 9.1398 0.0000 0.0000 0.0000
# 2 35.2279 159.5145 40.5611 0.0000 0.0000 0.0000
# 3 9.1398 40.5611 76.9686 0.0000 0.0000 0.0000
# 4 0.0000 0.0000 0.0000 40.1294 0.0000 0.0000
# 5 0.0000 0.0000 0.0000 0.0000 1.4282 0.0000
# 6 0.0000 0.0000 0.0000 0.0000 0.0000 14.7321
#
#
#
# Elastic Compliance Matrix: (Units=1/GPa)
#
#
# Indices 1 2 3 4 5 6 
#
# 1 0.015050 -0.003313 -0.000041 0.000000 0.000000 0.000000
# 2 -0.003313 0.007968 -0.003806 0.000000 0.000000 0.000000
# 3 -0.000041 -0.003806 0.015003 0.000000 0.000000 0.000000
# 4 0.000000 0.000000 0.000000 0.024919 0.000000 0.000000
# 5 0.000000 0.000000 0.000000 0.000000 0.700182 0.000000
# 6 0.000000 0.000000 0.000000 0.000000 0.000000 0.067879
#
#
# Mechanical properties :
#
#
# Convention : Reuss Voigt Hill
#
# Bulk Modulus (GPa) = 42.19226 53.39615 47.79421
# Shear Modulus (GPa) = 5.86014 26.30987 16.08500
#
# Velocity S-wave (km/s) = 1.65166 3.49966 2.73638
# Velocity P-wave (km/s) = 4.82477 6.41769 5.67738
#
# Compressibility (1/GPa) = 0.02370103
#
# Stress axis : x y z
#
# Youngs Moduli (GPa) = 66.44425 125.49443 66.65424
#
# Poissons Ratio (x) = 0.41580 0.00274
# Poissons Ratio (y) = 0.22015 0.25367
# Poissons Ratio (z) = 0.00273 0.47761
#
# Static dielectric constant tensor:
#      x y z
#    x 1.745640 0.000000 0.000000 
#    y 0.000000 1.838610 0.000000 
#    z 0.000000 0.000000 1.849260 
# 
# From -- ./inp_files/19978.got.cif
#   From: 2010.05.17/outbox.cif.g08.bks.cpg/sg46_10_cif.got.tgz:19978.got - 2010.06.03 19:58:25.
