data_PCOD9380825
_publ_section_title
;
Structure prediction by ZEFSAII (Michael W. Deem and Ramdas Pophale) SiO2 
 PCOD9380825
Probable space group: I M A 2
;
_chemical_formula_sum "Si O2"
_cell_formula_units_Z 32
_cell_length_a 19.846847
_cell_length_b 6.973521
_cell_length_c 11.055068
_cell_angle_alpha 90.000000
_cell_angle_beta 90.000000
_cell_angle_gamma 90.000000
_cell_volume 1530.047991
_symmetry_space_group_name_H-M "I M A 2"
_symmetry_group_IT_number 46
_symmetry_cell_setting 'orthorhombic'
loop_
_space_group_symop_operation_xyz
x,y,z
-x,-y,z
1/2-x,y,z
1/2+x,-y,z
1/2+x,1/2+y,1/2+z
1/2-x,1/2-y,1/2+z
-x,1/2+y,1/2+z
x,1/2-y,1/2+z
loop_
_atom_site_type_symbol
_atom_site_label
_atom_site_fract_x
_atom_site_fract_y
_atom_site_fract_z
Si Si1 0.500000 0.000000 0.621910
Si Si2 0.450845 0.680536 0.435931
Si Si3 0.881288 0.750000 0.185931
Si Si4 0.500000 0.500000 0.749952
Si Si5 0.327955 0.100930 0.935931
O O1 0.527589 0.319929 0.826727
O O2 0.432477 0.071402 0.685176
O O3 0.500000 0.500000 0.435931
O O4 0.472411 0.819929 0.545135
O O5 0.376709 0.586562 0.435931
O O6 0.842670 0.724827 0.313331
O O7 0.932477 0.928598 0.186686
O O8 0.842670 0.775173 0.058532
O O9 0.250000 0.044623 0.935931
#
# Coordination Sequence:
#
# PCOD9380825 Si02
#       5
#     4   8   8   4   8
#     4  11  22  39  76 108 132 176 242 294 340 394
#     4  11  20  45  71 104 137 181 234 286 341 411
#     4  12  23  44  70 104 141 180 234 290 341 408
#     4  11  22  39  76 108 132 176 242 294 340 394
#     4  12  26  44  66 102 146 186 224 278 354 424
#
# _framework density 20.914376000000001
#
# number of rings (size 3 to 8) (size 9 to 14) (size 15 to 20)
#    0.000    0.500    5.000    5.250    0.000    0.000 
#    0.000   10.000    0.000    0.000    0.000    0.000 
#    0.000    0.000    0.000    0.000    0.000    0.000 
#
# Total GULP energy -89280.970916 kJ/mol
# GULP energy per Si atom -5580.060682 kJ/mol
# Density = 2.086677 g / cm^3
# Si number density = 20.914376 Si / 1000 Ang^3
#
#
#
# Elastic Constant Matrix: (Units=GPa)
#
#
# Indices 1 2 3 4 5 6 
#
# 1 178.6719 50.6109 61.4615 0.0000 0.0000 0.0000
# 2 50.6109 123.2745 36.6933 0.0000 0.0000 0.0000
# 3 61.4615 36.6933 151.3878 0.0000 0.0000 0.0000
# 4 0.0000 0.0000 0.0000 30.4018 0.0000 0.0000
# 5 0.0000 0.0000 0.0000 0.0000 11.0665 0.0000
# 6 0.0000 0.0000 0.0000 0.0000 0.0000 32.7323
#
#
#
# Elastic Compliance Matrix: (Units=1/GPa)
#
#
# Indices 1 2 3 4 5 6 
#
# 1 0.007014 -0.002190 -0.002317 0.000000 0.000000 0.000000
# 2 -0.002190 0.009427 -0.001396 0.000000 0.000000 0.000000
# 3 -0.002317 -0.001396 0.007884 0.000000 0.000000 0.000000
# 4 0.000000 0.000000 0.000000 0.032893 0.000000 0.000000
# 5 0.000000 0.000000 0.000000 0.000000 0.090363 0.000000
# 6 0.000000 0.000000 0.000000 0.000000 0.000000 0.030551
#
#
# Mechanical properties :
#
#
# Convention : Reuss Voigt Hill
#
# Bulk Modulus (GPa) = 79.87212 83.42952 81.65082
# Shear Modulus (GPa) = 25.75860 35.14469 30.45165
#
# Velocity S-wave (km/s) = 3.51325 4.10373 3.81992
# Velocity P-wave (km/s) = 7.39799 7.90137 7.65382
#
# Compressibility (1/GPa) = 0.01252001
#
# Stress axis : x y z
#
# Youngs Moduli (GPa) = 142.56814 106.08327 126.83217
#
# Poissons Ratio (x) = 0.23233 0.29385
# Poissons Ratio (y) = 0.31224 0.17701
# Poissons Ratio (z) = 0.33031 0.14806
#
# Static dielectric constant tensor:
#      x y z
#    x 1.692890 0.000000 0.000000 
#    y 0.000000 1.757060 0.000000 
#    z 0.000000 0.000000 1.958590 
# 
# From -- ./inp_files/7116.got.cif
#   From: 2010.05.17/outbox.cif.g08.bks.cpg/sg46_4_cif.got.tgz:7116.got - 2010.06.03 19:58:25.
