data_PCOD9380359
_publ_section_title
;
Structure prediction by ZEFSAII (Michael W. Deem and Ramdas Pophale) SiO2 
 PCOD9380359
Probable space group: I M A 2
;
_chemical_formula_sum "Si O2"
_cell_formula_units_Z 48
_cell_length_a 21.491159
_cell_length_b 4.979185
_cell_length_c 18.789370
_cell_angle_alpha 90.000000
_cell_angle_beta 90.000000
_cell_angle_gamma 90.000000
_cell_volume 2010.621483
_symmetry_space_group_name_H-M "I M A 2"
_symmetry_group_IT_number 46
_symmetry_cell_setting 'orthorhombic'
loop_
_space_group_symop_operation_xyz
x,y,z
-x,-y,z
1/2-x,y,z
1/2+x,-y,z
1/2+x,1/2+y,1/2+z
1/2-x,1/2-y,1/2+z
-x,1/2+y,1/2+z
x,1/2-y,1/2+z
loop_
_atom_site_type_symbol
_atom_site_label
_atom_site_fract_x
_atom_site_fract_y
_atom_site_fract_z
Si Si1 0.941472 0.700687 0.968990
Si Si2 0.899578 0.744940 0.310863
Si Si3 0.431408 0.002688 0.667948
Si Si4 0.386952 0.492792 0.591444
Si Si5 0.181124 0.741523 0.328298
Si Si6 0.182663 0.852986 0.492654
O O1 0.933359 0.792780 0.886971
O O2 0.877637 0.541178 0.987839
O O3 0.000000 0.500000 0.973125
O O4 0.935645 0.941079 0.026252
O O5 0.939558 0.636678 0.245319
O O6 0.839705 0.551612 0.305244
O O7 0.872490 0.045481 0.308481
O O8 0.408131 0.704926 0.651429
O O9 0.500000 0.000000 0.634054
O O10 0.384055 0.207961 0.630135
O O11 0.329144 0.627081 0.551716
O O12 0.250000 0.816595 0.302153
O O13 0.183873 0.729276 0.413804
O O14 0.250000 0.987251 0.503690
#
# Coordination Sequence:
#
# PCOD9380359 Si02
#       6
#     8   8   8   8   8   8
#     4  11  25  44  79 115 148 188 256 319 368 446
#     4  11  24  46  67 107 141 189 242 302 370 439
#     4  12  28  45  69  97 150 196 235 295 382 450
#     4  12  24  47  69 104 138 194 243 296 365 447
#     4  10  21  42  73 103 138 184 241 305 372 436
#     4  10  23  43  72 107 143 186 240 310 375 435
#
# _framework density 23.873215999999999
#
# number of rings (size 3 to 8) (size 9 to 14) (size 15 to 20)
#    0.000    1.000    3.333    2.500    2.333    5.333 
#    0.000    5.000    0.000    0.000    0.000    0.000 
#    0.000    0.000    0.000    0.000    0.000    0.000 
#
# Total GULP energy -134011.129828 kJ/mol
# GULP energy per Si atom -5583.797076 kJ/mol
# Density = 2.381888 g / cm^3
# Si number density = 23.873216 Si / 1000 Ang^3
#
#
#
# Elastic Constant Matrix: (Units=GPa)
#
#
# Indices 1 2 3 4 5 6 
#
# 1 109.6675 16.0242 7.7025 0.0000 0.0000 0.0000
# 2 16.0242 91.2510 29.9394 0.0000 0.0000 0.0000
# 3 7.7025 29.9394 130.2687 0.0000 0.0000 0.0000
# 4 0.0000 0.0000 0.0000 25.2246 0.0000 0.0000
# 5 0.0000 0.0000 0.0000 0.0000 -13.1667 0.0000
# 6 0.0000 0.0000 0.0000 0.0000 0.0000 30.2402
#
#
#
# Elastic Compliance Matrix: (Units=1/GPa)
#
#
# Indices 1 2 3 4 5 6 
#
# 1 0.009363 -0.001582 -0.000190 0.000000 0.000000 0.000000
# 2 -0.001582 0.012120 -0.002692 0.000000 0.000000 0.000000
# 3 -0.000190 -0.002692 0.008306 0.000000 0.000000 0.000000
# 4 0.000000 0.000000 0.000000 0.039644 0.000000 0.000000
# 5 0.000000 0.000000 0.000000 0.000000 -0.075949 0.000000
# 6 0.000000 0.000000 0.000000 0.000000 0.000000 0.033069
#
#
# Mechanical properties :
#
#
# Convention : Reuss Voigt Hill
#
# Bulk Modulus (GPa) = 47.93535 48.72440 48.32988
# Shear Modulus (GPa) = 117.83116 26.96103 72.39609
#
# Velocity S-wave (km/s) = 7.03308 3.36421 5.51281
# Velocity P-wave (km/s) = 9.27766 5.96192 7.79806
#
# Compressibility (1/GPa) = 0.02086143
#
# Stress axis : x y z
#
# Youngs Moduli (GPa) = 106.80394 82.50975 120.38967
#
# Poissons Ratio (x) = 0.13052 0.02288
# Poissons Ratio (y) = 0.16895 0.32408
# Poissons Ratio (z) = 0.02030 0.22211
#
# Static dielectric constant tensor:
#      x y z
#    x 1.973730 0.000000 0.000000 
#    y 0.000000 2.043530 0.000000 
#    z 0.000000 0.000000 2.018190 
# 
# From -- ./inp_files/22363.got.cif
#   From: 2010.05.17/outbox.cif.g08.bks.cpg/sg46_12_cif.got.tgz:22363.got - 2010.06.03 19:58:25.
