data_PCOD9380739
_publ_section_title
;
Structure prediction by ZEFSAII (Michael W. Deem and Ramdas Pophale) SiO2 
 PCOD9380739
Probable space group: I M A 2
;
_chemical_formula_sum "Si O2"
_cell_formula_units_Z 24
_cell_length_a 20.580141
_cell_length_b 5.255006
_cell_length_c 10.028409
_cell_angle_alpha 90.000000
_cell_angle_beta 90.000000
_cell_angle_gamma 90.000000
_cell_volume 1084.560043
_symmetry_space_group_name_H-M "I M A 2"
_symmetry_group_IT_number 46
_symmetry_cell_setting 'orthorhombic'
loop_
_space_group_symop_operation_xyz
x,y,z
-x,-y,z
1/2-x,y,z
1/2+x,-y,z
1/2+x,1/2+y,1/2+z
1/2-x,1/2-y,1/2+z
-x,1/2+y,1/2+z
x,1/2-y,1/2+z
loop_
_atom_site_type_symbol
_atom_site_label
_atom_site_fract_x
_atom_site_fract_y
_atom_site_fract_z
Si Si1 0.427428 0.450657 0.112280
Si Si2 0.178794 0.770704 0.995248
Si Si3 0.867278 0.783354 0.364137
O O1 0.500000 0.500000 0.158616
O O2 0.390169 0.273656 0.216576
O O3 0.381344 0.697719 0.091792
O O4 0.427835 0.324523 0.965703
O O5 0.250000 0.760143 0.059434
O O6 0.173291 0.539129 0.888497
O O7 0.169082 0.037585 0.922610
#
# Coordination Sequence:
#
# PCOD9380739 Si02
#       3
#     8   8   8
#     4  10  26  45  73  98 140 176 232 282 343 403
#     4  10  24  44  68 100 137 176 226 279 341 405
#     4  10  25  44  67 103 131 179 226 277 343 404
#
# _framework density 22.128789000000001
#
# number of rings (size 3 to 8) (size 9 to 14) (size 15 to 20)
#    2.000    0.000    0.000    1.000    9.333    2.667 
#    0.000    0.000    0.000    0.000    0.000    0.000 
#    0.000    0.000    0.000    0.000    0.000    0.000 
#
# Total GULP energy -66874.714329 kJ/mol
# GULP energy per Si atom -5572.892861 kJ/mol
# Density = 2.207842 g / cm^3
# Si number density = 22.128789 Si / 1000 Ang^3
#
#
#
# Elastic Constant Matrix: (Units=GPa)
#
#
# Indices 1 2 3 4 5 6 
#
# 1 121.5593 19.5136 -9.7721 0.0000 0.0000 0.0000
# 2 19.5136 125.6842 -1.9764 0.0000 0.0000 0.0000
# 3 -9.7721 -1.9764 51.8926 0.0000 0.0000 0.0000
# 4 0.0000 0.0000 0.0000 25.5704 0.0000 0.0000
# 5 0.0000 0.0000 0.0000 0.0000 0.2631 0.0000
# 6 0.0000 0.0000 0.0000 0.0000 0.0000 4.4303
#
#
#
# Elastic Compliance Matrix: (Units=1/GPa)
#
#
# Indices 1 2 3 4 5 6 
#
# 1 0.008561 -0.001305 0.001563 0.000000 0.000000 0.000000
# 2 -0.001305 0.008160 0.000065 0.000000 0.000000 0.000000
# 3 0.001563 0.000065 0.019567 0.000000 0.000000 0.000000
# 4 0.000000 0.000000 0.000000 0.039108 0.000000 0.000000
# 5 0.000000 0.000000 0.000000 0.000000 3.800887 0.000000
# 6 0.000000 0.000000 0.000000 0.000000 0.000000 0.225721
#
#
# Mechanical properties :
#
#
# Convention : Reuss Voigt Hill
#
# Bulk Modulus (GPa) = 27.07474 34.96291 31.01882
# Shear Modulus (GPa) = 1.21546 25.47748 13.34647
#
# Velocity S-wave (km/s) = 0.74193 3.39680 2.45853
# Velocity P-wave (km/s) = 3.60494 5.58734 4.70181
#
# Compressibility (1/GPa) = 0.03693480
#
# Stress axis : x y z
#
# Youngs Moduli (GPa) = 116.80217 122.54848 51.10564
#
# Poissons Ratio (x) = 0.15989 -0.07986
# Poissons Ratio (y) = 0.15239 -0.00333
# Poissons Ratio (z) = -0.18251 -0.00798
#
# Static dielectric constant tensor:
#      x y z
#    x 1.855880 0.000000 0.000000 
#    y 0.000000 1.817970 0.000000 
#    z 0.000000 0.000000 1.787340 
# 
# From -- ./inp_files/7667.got.cif
#   From: 2010.05.17/outbox.cif.g08.bks.cpg/sg46_4_cif.got.tgz:7667.got - 2010.06.03 19:58:25.
