data_PCOD9380765
_publ_section_title
;
Structure prediction by ZEFSAII (Michael W. Deem and Ramdas Pophale) SiO2 
 PCOD9380765
Probable space group: I M A 2
;
_chemical_formula_sum "Si O2"
_cell_formula_units_Z 24
_cell_length_a 11.668459
_cell_length_b 10.920441
_cell_length_c 7.949584
_cell_angle_alpha 90.000000
_cell_angle_beta 90.000000
_cell_angle_gamma 90.000000
_cell_volume 1012.973500
_symmetry_space_group_name_H-M "I M A 2"
_symmetry_group_IT_number 46
_symmetry_cell_setting 'orthorhombic'
loop_
_space_group_symop_operation_xyz
x,y,z
-x,-y,z
1/2-x,y,z
1/2+x,-y,z
1/2+x,1/2+y,1/2+z
1/2-x,1/2-y,1/2+z
-x,1/2+y,1/2+z
x,1/2-y,1/2+z
loop_
_atom_site_type_symbol
_atom_site_label
_atom_site_fract_x
_atom_site_fract_y
_atom_site_fract_z
Si Si1 0.250000 0.946450 0.888231
Si Si2 0.010252 0.872509 0.389282
Si Si3 0.250000 0.705911 0.045901
Si Si4 0.879198 0.849477 0.728808
O O1 0.250000 0.854893 0.728841
O O2 0.142747 0.037899 0.857344
O O3 0.250000 0.854505 0.043801
O O4 0.928217 0.892086 0.551384
O O5 0.961231 0.755644 0.293967
O O6 0.136404 0.840652 0.452823
O O7 0.000000 0.000000 0.290308
O O8 0.750000 0.799353 0.702463
#
# Coordination Sequence:
#
# PCOD9380765 Si02
#       4
#     4   8   4   8
#     4  10  24  47  69  99 145 176 238 279 355 403
#     4  12  24  45  71 103 140 180 233 291 348 415
#     4  12  24  41  71 103 137 186 226 293 341 405
#     4  10  24  47  71  96 138 189 226 285 348 417
#
# _framework density 23.692623999999999
#
# number of rings (size 3 to 8) (size 9 to 14) (size 15 to 20)
#    1.000    0.000    3.333    3.000    2.333    0.000 
#   12.000    0.000    0.000    0.000    0.000    0.000 
#    0.000    0.000    0.000    0.000    0.000    0.000 
#
# Total GULP energy -67133.746162 kJ/mol
# GULP energy per Si atom -5594.478847 kJ/mol
# Density = 2.363870 g / cm^3
# Si number density = 23.692624 Si / 1000 Ang^3
#
#
#
# Elastic Constant Matrix: (Units=GPa)
#
#
# Indices 1 2 3 4 5 6 
#
# 1 127.0189 13.4199 11.2886 0.0000 0.0000 0.0000
# 2 13.4199 171.4503 26.8394 0.0000 0.0000 0.0000
# 3 11.2886 26.8394 27.3572 0.0000 0.0000 0.0000
# 4 0.0000 0.0000 0.0000 43.1046 0.0000 0.0000
# 5 0.0000 0.0000 0.0000 0.0000 32.3602 0.0000
# 6 0.0000 0.0000 0.0000 0.0000 0.0000 37.2739
#
#
#
# Elastic Compliance Matrix: (Units=1/GPa)
#
#
# Indices 1 2 3 4 5 6 
#
# 1 0.008175 -0.000132 -0.003244 0.000000 0.000000 0.000000
# 2 -0.000132 0.006893 -0.006708 0.000000 0.000000 0.000000
# 3 -0.003244 -0.006708 0.044473 0.000000 0.000000 0.000000
# 4 0.000000 0.000000 0.000000 0.023199 0.000000 0.000000
# 5 0.000000 0.000000 0.000000 0.000000 0.030902 0.000000
# 6 0.000000 0.000000 0.000000 0.000000 0.000000 0.026828
#
#
# Mechanical properties :
#
#
# Convention : Reuss Voigt Hill
#
# Bulk Modulus (GPa) = 25.39792 47.65801 36.52797
# Shear Modulus (GPa) = 28.77478 40.83296 34.80387
#
# Velocity S-wave (km/s) = 3.48875 4.15594 3.83688
# Velocity P-wave (km/s) = 5.19342 6.57175 5.92282
#
# Compressibility (1/GPa) = 0.03937331
#
# Stress axis : x y z
#
# Youngs Moduli (GPa) = 122.32294 145.07400 22.48558
#
# Poissons Ratio (x) = 0.01916 0.07294
# Poissons Ratio (y) = 0.01616 0.15083
# Poissons Ratio (z) = 0.39678 0.97316
#
# Static dielectric constant tensor:
#      x y z
#    x 1.876910 0.000000 0.000000 
#    y 0.000000 1.984770 0.000000 
#    z 0.000000 0.000000 1.917730 
# 
# From -- ./inp_files/4157.got.cif
#   From: 2010.05.17/outbox.cif.g08.bks.cpg/sg46_3_cif.got.tgz:4157.got - 2010.06.03 19:58:25.
