data_PCOD9380407
_publ_section_title
;
Structure prediction by ZEFSAII (Michael W. Deem and Ramdas Pophale) SiO2 
 PCOD9380407
Probable space group: I M A 2
;
_chemical_formula_sum "Si O2"
_cell_formula_units_Z 48
_cell_length_a 8.128871
_cell_length_b 27.919125
_cell_length_c 9.803780
_cell_angle_alpha 90.000000
_cell_angle_beta 90.000000
_cell_angle_gamma 90.000000
_cell_volume 2224.977337
_symmetry_space_group_name_H-M "I M A 2"
_symmetry_group_IT_number 46
_symmetry_cell_setting 'orthorhombic'
loop_
_space_group_symop_operation_xyz
x,y,z
-x,-y,z
1/2-x,y,z
1/2+x,-y,z
1/2+x,1/2+y,1/2+z
1/2-x,1/2-y,1/2+z
-x,1/2+y,1/2+z
x,1/2-y,1/2+z
loop_
_atom_site_type_symbol
_atom_site_label
_atom_site_fract_x
_atom_site_fract_y
_atom_site_fract_z
Si Si1 0.446317 0.084736 0.353610
Si Si2 0.451127 0.807798 0.278735
Si Si3 0.943387 0.628976 0.360393
Si Si4 0.947338 0.949619 0.067020
Si Si5 0.943465 0.275795 0.476193
Si Si6 0.559980 0.445835 0.146209
O O1 0.250000 0.078560 0.372027
O O2 0.483227 0.139832 0.316396
O O3 0.503649 0.055103 0.221886
O O4 0.535464 0.066538 0.487913
O O5 0.250000 0.809499 0.277557
O O6 0.507476 0.770744 0.396364
O O7 0.507338 0.790237 0.127265
O O8 0.750000 0.638179 0.379506
O O9 0.009207 0.595381 0.482129
O O10 0.031555 0.679537 0.373875
O O11 0.967218 0.595820 0.228873
O O12 0.750000 0.947287 0.064768
O O13 0.000000 0.000000 0.005998
O O14 0.750000 0.267538 0.495763
O O15 0.500000 0.500000 0.171702
O O16 0.750000 0.442969 0.185032
#
# Coordination Sequence:
#
# PCOD9380407 Si02
#       6
#     8   8   8   8   8   8
#     4  11  23  42  64  93 128 167 212 262 316 377
#     4  10  22  40  63  93 128 168 213 260 315 379
#     4  11  23  42  64  93 128 167 212 262 316 377
#     4  10  22  38  61  90 123 158 203 252 306 370
#     4  10  22  40  63  93 128 168 213 260 315 379
#     4  12  26  44  65  94 129 170 215 262 318 380
#
# _framework density 21.573253000000001
#
# number of rings (size 3 to 8) (size 9 to 14) (size 15 to 20)
#    0.000    1.333    1.667    3.500    2.333    6.000 
#    0.000    0.000    0.000    0.000    0.000    0.000 
#    0.000    0.000    0.000    0.000    0.000    0.000 
#
# Total GULP energy -134152.926736 kJ/mol
# GULP energy per Si atom -5589.705281 kJ/mol
# Density = 2.152415 g / cm^3
# Si number density = 21.573253 Si / 1000 Ang^3
#
#
#
# Elastic Constant Matrix: (Units=GPa)
#
#
# Indices 1 2 3 4 5 6 
#
# 1 18.6103 -8.1359 -5.1305 -0.0002 -0.0001 0.0000
# 2 -8.1359 97.0122 1.3560 0.0003 0.0001 0.0000
# 3 -5.1305 1.3560 72.8989 -0.0006 -0.0001 0.0001
# 4 -0.0002 0.0003 -0.0006 37.3013 0.0001 0.0001
# 5 -0.0001 0.0001 -0.0001 0.0001 33.5331 0.0002
# 6 0.0000 0.0000 0.0001 0.0001 0.0002 30.5823
#
#
#
# Elastic Compliance Matrix: (Units=1/GPa)
#
#
# Indices 1 2 3 4 5 6 
#
# 1 0.056874 0.004715 0.003915 0.000000 0.000000 0.000000
# 2 0.004715 0.010702 0.000133 0.000000 0.000000 0.000000
# 3 0.003915 0.000133 0.013991 0.000000 0.000000 0.000000
# 4 0.000000 0.000000 0.000000 0.026809 0.000000 0.000000
# 5 0.000000 0.000000 0.000000 0.000000 0.029821 0.000000
# 6 0.000000 0.000000 0.000000 0.000000 0.000000 0.032699
#
#
# Mechanical properties :
#
#
# Convention : Reuss Voigt Hill
#
# Bulk Modulus (GPa) = 10.09161 18.30005 14.19583
# Shear Modulus (GPa) = 26.82400 33.64546 30.23473
#
# Velocity S-wave (km/s) = 3.53000 3.95345 3.74771
# Velocity P-wave (km/s) = 4.61547 5.41672 5.03207
#
# Compressibility (1/GPa) = 0.09909226
#
# Stress axis : x y z
#
# Youngs Moduli (GPa) = 17.58264 93.44437 71.47604
#
# Poissons Ratio (x) = -0.44059 -0.27983
# Poissons Ratio (y) = -0.08290 -0.00949
# Poissons Ratio (z) = -0.06884 -0.01241
#
# Static dielectric constant tensor:
#      x y z
#    x 1.747280 0.000000 0.000000 
#    y 0.000000 1.654730 0.000000 
#    z 0.000000 0.000000 1.801730 
# 
# From -- ./inp_files/3891.got.cif
#   From: 2010.05.17/outbox.cif.g08.bks.cpg/sg46_2_cif.got.tgz:3891.got - 2010.06.03 19:58:25.
