data_PCOD9380869
_publ_section_title
;
Structure prediction by ZEFSAII (Michael W. Deem and Ramdas Pophale) SiO2 
 PCOD9380869
Probable space group: I M A 2
;
_chemical_formula_sum "Si O2"
_cell_formula_units_Z 40
_cell_length_a 20.805965
_cell_length_b 11.168967
_cell_length_c 7.544058
_cell_angle_alpha 90.000000
_cell_angle_beta 90.000000
_cell_angle_gamma 90.000000
_cell_volume 1753.096772
_symmetry_space_group_name_H-M "I M A 2"
_symmetry_group_IT_number 46
_symmetry_cell_setting 'orthorhombic'
loop_
_space_group_symop_operation_xyz
x,y,z
-x,-y,z
1/2-x,y,z
1/2+x,-y,z
1/2+x,1/2+y,1/2+z
1/2-x,1/2-y,1/2+z
-x,1/2+y,1/2+z
x,1/2-y,1/2+z
loop_
_atom_site_type_symbol
_atom_site_label
_atom_site_fract_x
_atom_site_fract_y
_atom_site_fract_z
Si Si1 0.502023 0.627003 0.457480
Si Si2 0.179286 0.884616 0.776816
Si Si3 0.043219 0.379547 0.822946
Si Si4 0.132535 0.641492 0.656029
Si Si5 0.674653 0.543964 0.956598
O O1 0.500000 0.500000 0.352648
O O2 0.555586 0.618322 0.611472
O O3 0.508911 0.753387 0.363525
O O4 0.438117 0.625197 0.576826
O O5 0.250000 0.840283 0.725766
O O6 0.133969 0.779771 0.710591
O O7 0.168708 0.001764 0.660436
O O8 0.174921 0.894104 0.986382
O O9 0.112768 0.374944 0.916513
O O10 0.000000 0.500000 0.870406
O O11 0.157479 0.567506 0.825072
O O12 0.750000 0.579613 0.927189
#
# Coordination Sequence:
#
# PCOD9380869 Si02
#       5
#     8   8   8   8   8
#     4  11  24  43  68  97 132 181 238 290 352 414
#     4  11  22  34  60 100 136 179 227 281 354 419
#     4  11  23  46  68 102 142 179 236 300 357 420
#     4  12  20  38  63  95 134 180 231 294 349 410
#     4  11  23  41  65  98 144 187 230 291 359 434
#
# _framework density 22.816766999999999
#
# number of rings (size 3 to 8) (size 9 to 14) (size 15 to 20)
#    0.000    0.800    6.000    4.200    0.000    2.400 
#    0.000    1.000    0.000    0.000    0.000    0.000 
#    0.000    0.000    0.000    0.000    0.000    0.000 
#
# Total GULP energy -111502.433124 kJ/mol
# GULP energy per Si atom -5575.121656 kJ/mol
# Density = 2.276484 g / cm^3
# Si number density = 22.816767 Si / 1000 Ang^3
#
#
#
# Elastic Constant Matrix: (Units=GPa)
#
#
# Indices 1 2 3 4 5 6 
#
# 1 96.9268 31.1099 -9.1239 0.0000 0.0000 0.0000
# 2 31.1099 139.9598 20.0019 0.0000 0.0000 0.0000
# 3 -9.1239 20.0019 79.9177 0.0000 0.0000 0.0000
# 4 0.0000 0.0000 0.0000 27.2383 0.0000 0.0000
# 5 0.0000 0.0000 0.0000 0.0000 28.4324 0.0000
# 6 0.0000 0.0000 0.0000 0.0000 0.0000 27.6975
#
#
#
# Elastic Compliance Matrix: (Units=1/GPa)
#
#
# Indices 1 2 3 4 5 6 
#
# 1 0.011413 -0.002824 0.002010 0.000000 0.000000 0.000000
# 2 -0.002824 0.008109 -0.002352 0.000000 0.000000 0.000000
# 3 0.002010 -0.002352 0.013331 0.000000 0.000000 0.000000
# 4 0.000000 0.000000 0.000000 0.036713 0.000000 0.000000
# 5 0.000000 0.000000 0.000000 0.000000 0.035171 0.000000
# 6 0.000000 0.000000 0.000000 0.000000 0.000000 0.036104
#
#
# Mechanical properties :
#
#
# Convention : Reuss Voigt Hill
#
# Bulk Modulus (GPa) = 37.70727 44.53109 41.11918
# Shear Modulus (GPa) = 32.04861 34.99475 33.52168
#
# Velocity S-wave (km/s) = 3.75188 3.92053 3.83713
# Velocity P-wave (km/s) = 5.94397 6.32877 6.13938
#
# Compressibility (1/GPa) = 0.02652008
#
# Stress axis : x y z
#
# Youngs Moduli (GPa) = 87.62216 123.32391 75.01340
#
# Poissons Ratio (x) = 0.34826 -0.15076
# Poissons Ratio (y) = 0.24744 0.17642
# Poissons Ratio (z) = -0.17610 0.29004
#
# Static dielectric constant tensor:
#      x y z
#    x 1.979200 0.000000 0.000000 
#    y 0.000000 1.916220 0.000000 
#    z 0.000000 0.000000 1.900130 
# 
# From -- ./inp_files/7261.got.cif
#   From: 2010.05.17/outbox.cif.g08.bks.cpg/sg46_4_cif.got.tgz:7261.got - 2010.06.03 19:58:25.
