data_PCOD9380316
_publ_section_title
;
Structure prediction by ZEFSAII (Michael W. Deem and Ramdas Pophale) SiO2 
 PCOD9380316
Probable space group: I M A 2
;
_chemical_formula_sum "Si O2"
_cell_formula_units_Z 56
_cell_length_a 31.365258
_cell_length_b 18.568456
_cell_length_c 5.146169
_cell_angle_alpha 90.000000
_cell_angle_beta 90.000000
_cell_angle_gamma 90.000000
_cell_volume 2997.151536
_symmetry_space_group_name_H-M "I M A 2"
_symmetry_group_IT_number 46
_symmetry_cell_setting 'orthorhombic'
loop_
_space_group_symop_operation_xyz
x,y,z
-x,-y,z
1/2-x,y,z
1/2+x,-y,z
1/2+x,1/2+y,1/2+z
1/2-x,1/2-y,1/2+z
-x,1/2+y,1/2+z
x,1/2-y,1/2+z
loop_
_atom_site_type_symbol
_atom_site_label
_atom_site_fract_x
_atom_site_fract_y
_atom_site_fract_z
Si Si1 0.118713 0.067041 0.843540
Si Si2 0.659614 0.516514 0.832489
Si Si3 0.750000 0.055125 0.423509
Si Si4 0.601957 0.081561 0.035544
Si Si5 0.342912 0.793902 0.803574
Si Si6 0.250000 0.848863 0.916469
Si Si7 0.433759 0.205002 0.022776
Si Si8 0.964579 0.296488 0.530043
O O1 0.139293 0.063767 0.560737
O O2 0.090988 0.135112 0.923470
O O3 0.155800 0.057597 0.058868
O O4 0.092213 0.992649 0.884658
O O5 0.628692 0.447226 0.783240
O O6 0.706893 0.489681 0.884705
O O7 0.750000 0.119819 0.209213
O O8 0.750000 0.085178 0.714554
O O9 0.634221 0.131725 0.873797
O O10 0.561402 0.131069 0.084820
O O11 0.354615 0.734749 0.020808
O O12 0.292572 0.805552 0.847858
O O13 0.423850 0.267693 0.812819
O O14 0.484622 0.191092 0.024542
O O15 0.953845 0.261534 0.252480
#
# Coordination Sequence:
#
# PCOD9380316 Si02
#       8
#     8   8   4   8   8   4   8   8
#     4  10  22  38  61  90 116 147 203 238 301 357
#     4  10  22  36  59  88 115 155 197 246 295 345
#     4  12  20  39  60  80 120 157 196 255 293 343
#     4  10  23  36  58  80 122 150 207 241 286 340
#     4  12  24  35  51  74 110 159 204 252 292 324
#     4  12  22  37  52  74 110 155 216 249 293 331
#     4  10  21  41  65  90 119 149 187 239 301 374
#     4  10  22  37  58  84 118 163 201 235 292 344
#
# _framework density 18.684405999999999
#
# number of rings (size 3 to 8) (size 9 to 14) (size 15 to 20)
#    0.857    0.571    1.429    4.714    4.000    0.571 
#    0.000    0.000    3.143    0.000    0.000   10.000 
#    0.000    0.000    0.000    0.000    0.000    0.000 
#
# Total GULP energy -156281.673081 kJ/mol
# GULP energy per Si atom -5581.488324 kJ/mol
# Density = 1.864188 g / cm^3
# Si number density = 18.684406 Si / 1000 Ang^3
#
#
#
# Elastic Constant Matrix: (Units=GPa)
#
#
# Indices 1 2 3 4 5 6 
#
# 1 60.4336 37.6427 15.3038 0.0000 0.0000 0.0000
# 2 37.6427 70.3665 0.5403 0.0000 0.0000 0.0000
# 3 15.3038 0.5403 59.7934 0.0001 0.0000 0.0000
# 4 0.0000 0.0000 0.0001 27.8366 0.0000 0.0000
# 5 0.0000 0.0000 0.0000 0.0000 17.0912 0.0000
# 6 0.0000 0.0000 0.0000 0.0000 0.0000 37.7985
#
#
#
# Elastic Compliance Matrix: (Units=1/GPa)
#
#
# Indices 1 2 3 4 5 6 
#
# 1 0.027378 -0.014593 -0.006875 0.000000 0.000000 0.000000
# 2 -0.014593 0.021991 0.003536 0.000000 0.000000 0.000000
# 3 -0.006875 0.003536 0.018452 0.000000 0.000000 0.000000
# 4 0.000000 0.000000 0.000000 0.035924 0.000000 0.000000
# 5 0.000000 0.000000 0.000000 0.000000 0.058509 0.000000
# 6 0.000000 0.000000 0.000000 0.000000 0.000000 0.026456
#
#
# Mechanical properties :
#
#
# Convention : Reuss Voigt Hill
#
# Bulk Modulus (GPa) = 31.29263 33.06301 32.17782
# Shear Modulus (GPa) = 21.25613 25.68571 23.47092
#
# Velocity S-wave (km/s) = 3.37655 3.71174 3.54810
# Velocity P-wave (km/s) = 5.65560 6.00860 5.83477
#
# Compressibility (1/GPa) = 0.03195640
#
# Stress axis : x y z
#
# Youngs Moduli (GPa) = 36.52597 45.47374 54.19460
#
# Poissons Ratio (x) = 0.66360 0.37261
# Poissons Ratio (y) = 0.53302 -0.19165
# Poissons Ratio (z) = 0.25113 -0.16081
#
# Static dielectric constant tensor:
#      x y z
#    x 1.642890 0.000000 0.000000 
#    y 0.000000 1.632940 0.000000 
#    z 0.000000 0.000000 1.662460 
# 
# From -- ./inp_files/2733.got.cif
#   From: 2010.05.17/outbox.cif.g08.bks.cpg/sg46_2_cif.got.tgz:2733.got - 2010.06.03 19:58:25.
