data_PCOD9380240
_publ_section_title
;
Structure prediction by ZEFSAII (Michael W. Deem and Ramdas Pophale) SiO2 
 PCOD9380240
Probable space group: I M A 2
;
_chemical_formula_sum "Si O2"
_cell_formula_units_Z 44
_cell_length_a 9.725270
_cell_length_b 9.354238
_cell_length_c 25.811680
_cell_angle_alpha 90.000000
_cell_angle_beta 90.000000
_cell_angle_gamma 90.000000
_cell_volume 2348.152806
_symmetry_space_group_name_H-M "I M A 2"
_symmetry_group_IT_number 46
_symmetry_cell_setting 'orthorhombic'
loop_
_space_group_symop_operation_xyz
x,y,z
-x,-y,z
1/2-x,y,z
1/2+x,-y,z
1/2+x,1/2+y,1/2+z
1/2-x,1/2-y,1/2+z
-x,1/2+y,1/2+z
x,1/2-y,1/2+z
loop_
_atom_site_type_symbol
_atom_site_label
_atom_site_fract_x
_atom_site_fract_y
_atom_site_fract_z
Si Si1 0.903555 0.366061 0.659320
Si Si2 0.084860 0.644327 0.250409
Si Si3 0.250000 0.334650 0.020240
Si Si4 0.750000 0.583496 0.907216
Si Si5 0.977500 0.168413 0.041478
Si Si6 0.750000 0.349088 0.988291
Si Si7 0.591202 0.866157 0.308300
O O1 0.750000 0.415136 0.670198
O O2 0.932233 0.237000 0.698105
O O3 0.915034 0.324190 0.599098
O O4 0.000000 0.500000 0.667889
O O5 0.250000 0.627636 0.259974
O O6 0.000000 0.500000 0.244165
O O7 0.002941 0.731888 0.294601
O O8 0.381588 0.255929 0.042456
O O9 0.250000 0.317545 0.957678
O O10 0.250000 0.507706 0.025019
O O11 0.750000 0.424320 0.931901
O O12 0.877823 0.613016 0.869415
O O13 0.879902 0.250898 0.001309
O O14 0.000000 0.000000 0.029414
O O15 0.750000 0.860016 0.286754
O O16 0.500000 0.000000 0.289960
#
# Coordination Sequence:
#
# PCOD9380240 Si02
#       7
#     8   8   4   4   8   4   8
#     4  10  23  41  64  94 131 173 221 261 328 413
#     4  11  24  43  65  97 135 170 215 283 346 404
#     4  10  23  37  63  91 122 174 222 274 327 392
#     4   8  24  38  69  88 130 164 235 270 331 389
#     4  11  22  40  62  96 133 176 219 271 340 400
#     4  10  21  39  66  85 134 172 219 278 320 403
#     4  10  21  39  67  92 121 167 223 272 332 401
#
# _framework density 18.738133000000001
#
# number of rings (size 3 to 8) (size 9 to 14) (size 15 to 20)
#    1.091    0.727    0.909    2.727    6.364    4.364 
#    0.000    0.909    4.000    0.000    0.000    0.000 
#    0.000    0.000    0.000    0.000    0.000    0.000 
#
# Total GULP energy -122551.921269 kJ/mol
# GULP energy per Si atom -5570.541876 kJ/mol
# Density = 1.869548 g / cm^3
# Si number density = 18.738133 Si / 1000 Ang^3
#
#
#
# Elastic Constant Matrix: (Units=GPa)
#
#
# Indices 1 2 3 4 5 6 
#
# 1 141.1436 81.0930 31.0629 0.0000 0.0000 0.0000
# 2 81.0930 135.6491 45.0263 0.0000 0.0000 0.0000
# 3 31.0629 45.0263 83.2060 0.0000 0.0000 0.0000
# 4 0.0000 0.0000 0.0000 11.2163 0.0000 0.0000
# 5 0.0000 0.0000 0.0000 0.0000 -70.8677 0.0000
# 6 0.0000 0.0000 0.0000 0.0000 0.0000 42.4615
#
#
#
# Elastic Compliance Matrix: (Units=1/GPa)
#
#
# Indices 1 2 3 4 5 6 
#
# 1 0.010821 -0.006251 -0.000657 0.000000 0.000000 0.000000
# 2 -0.006251 0.012597 -0.004483 0.000000 0.000000 0.000000
# 3 -0.000657 -0.004483 0.014690 0.000000 0.000000 0.000000
# 4 0.000000 0.000000 0.000000 0.089156 0.000000 0.000000
# 5 0.000000 0.000000 0.000000 0.000000 -0.014111 0.000000
# 6 0.000000 0.000000 0.000000 0.000000 0.000000 0.023551
#
#
# Mechanical properties :
#
#
# Convention : Reuss Voigt Hill
#
# Bulk Modulus (GPa) = 65.25125 74.92924 70.09024
# Shear Modulus (GPa) = 30.37781 10.08313 20.23047
#
# Velocity S-wave (km/s) = 4.03075 2.32223 3.28935
# Velocity P-wave (km/s) = 7.52070 6.87493 7.20505
#
# Compressibility (1/GPa) = 0.01532538
#
# Stress axis : x y z
#
# Youngs Moduli (GPa) = 92.41327 79.38481 68.07481
#
# Poissons Ratio (x) = 0.49622 0.04474
# Poissons Ratio (y) = 0.57766 0.30519
# Poissons Ratio (z) = 0.06073 0.35589
#
# Static dielectric constant tensor:
#      x y z
#    x 1.691940 0.000000 0.000000 
#    y 0.000000 1.670940 0.000000 
#    z 0.000000 0.000000 1.676670 
# 
# From -- ./inp_files/24928.got.cif
#   From: 2010.05.17/outbox.cif.g08.bks.cpg/sg46_13_cif.got.tgz:24928.got - 2010.06.03 19:58:25.
