data_PCOD9380808
_publ_section_title
;
Structure prediction by ZEFSAII (Michael W. Deem and Ramdas Pophale) SiO2 
 PCOD9380808
Probable space group: I M A 2
;
_chemical_formula_sum "Si O2"
_cell_formula_units_Z 56
_cell_length_a 8.631218
_cell_length_b 14.101583
_cell_length_c 30.341031
_cell_angle_alpha 90.000000
_cell_angle_beta 90.000000
_cell_angle_gamma 90.000000
_cell_volume 3692.923302
_symmetry_space_group_name_H-M "I M A 2"
_symmetry_group_IT_number 46
_symmetry_cell_setting 'orthorhombic'
loop_
_space_group_symop_operation_xyz
x,y,z
-x,-y,z
1/2-x,y,z
1/2+x,-y,z
1/2+x,1/2+y,1/2+z
1/2-x,1/2-y,1/2+z
-x,1/2+y,1/2+z
x,1/2-y,1/2+z
loop_
_atom_site_type_symbol
_atom_site_label
_atom_site_fract_x
_atom_site_fract_y
_atom_site_fract_z
Si Si1 0.563430 0.103412 0.355530
Si Si2 0.434045 0.107144 0.989589
Si Si3 0.063484 0.896524 0.813337
Si Si4 0.438892 0.707290 0.766489
Si Si5 0.437249 0.892994 0.177970
Si Si6 0.437122 0.793962 0.903674
Si Si7 0.064258 0.607329 0.581007
O O1 0.750000 0.100250 0.355385
O O2 0.513795 0.138052 0.306608
O O3 0.517886 0.187500 0.389037
O O4 0.500000 0.000000 0.365783
O O5 0.250000 0.100776 0.990941
O O6 0.489241 0.168818 0.948363
O O7 0.500000 0.000000 0.984716
O O8 0.494997 0.148623 0.036120
O O9 0.250000 0.899197 0.812331
O O10 0.012113 0.813212 0.780083
O O11 0.018901 0.861583 0.862490
O O12 0.000000 0.000000 0.803693
O O13 0.250000 0.707477 0.766239
O O14 0.491549 0.669155 0.719302
O O15 0.250000 0.897901 0.179340
O O16 0.479028 0.853534 0.129344
O O17 0.500000 0.000000 0.182189
O O18 0.250000 0.796888 0.907481
O O19 0.250000 0.605827 0.577372
O O20 0.000000 0.500000 0.581947
#
# Coordination Sequence:
#
# PCOD9380808 Si02
#       7
#     8   8   8   8   8   8   8
#     4   9  17  29  45  63  87 115 141 172 208 244
#     4  11  20  29  43  62  85 113 141 174 212 252
#     4   9  17  29  44  60  83 112 141 173 207 242
#     4   8  15  28  43  61  85 114 142 167 202 247
#     4   9  16  26  42  62  85 112 140 168 201 243
#     4   9  18  31  44  61  85 114 144 173 207 248
#     4   9  16  26  40  59  83 110 138 169 205 248
#
# _framework density 15.164139
#
# number of rings (size 3 to 8) (size 9 to 14) (size 15 to 20)
#    0.000    2.857    0.000    5.143    0.000    2.857 
#    0.000    2.857    0.000    0.000    0.000    1.000 
#    0.000    2.286    0.000    0.000    0.000    0.000 
#
# Total GULP energy -155939.821226 kJ/mol
# GULP energy per Si atom -5569.279329 kJ/mol
# Density = 1.512962 g / cm^3
# Si number density = 15.164139 Si / 1000 Ang^3
#
#
#
# Elastic Constant Matrix: (Units=GPa)
#
#
# Indices 1 2 3 4 5 6 
#
# 1 31.9664 21.5747 37.8538 0.0000 0.0000 0.0000
# 2 21.5747 94.7270 67.0279 0.0000 0.0000 0.0000
# 3 37.8538 67.0279 161.0750 0.0000 0.0000 0.0000
# 4 0.0000 0.0000 0.0000 23.7915 0.0000 0.0000
# 5 0.0000 0.0000 0.0000 0.0000 18.4543 0.0000
# 6 0.0000 0.0000 0.0000 0.0000 0.0000 22.7833
#
#
#
# Elastic Compliance Matrix: (Units=1/GPa)
#
#
# Indices 1 2 3 4 5 6 
#
# 1 0.044320 -0.003861 -0.008809 0.000000 0.000000 0.000000
# 2 -0.003861 0.015299 -0.005459 0.000000 0.000000 0.000000
# 3 -0.008809 -0.005459 0.010550 0.000000 0.000000 0.000000
# 4 0.000000 0.000000 0.000000 0.042032 0.000000 0.000000
# 5 0.000000 0.000000 0.000000 0.000000 0.054188 0.000000
# 6 0.000000 0.000000 0.000000 0.000000 0.000000 0.043892
#
#
# Mechanical properties :
#
#
# Convention : Reuss Voigt Hill
#
# Bulk Modulus (GPa) = 29.48892 60.07570 44.78231
# Shear Modulus (GPa) = 19.39178 23.75995 21.57587
#
# Velocity S-wave (km/s) = 3.57990 3.96264 3.77612
# Velocity P-wave (km/s) = 6.04783 7.78715 6.97194
#
# Compressibility (1/GPa) = 0.03391105
#
# Stress axis : x y z
#
# Youngs Moduli (GPa) = 22.56327 65.36518 94.78694
#
# Poissons Ratio (x) = 0.25238 0.83495
# Poissons Ratio (y) = 0.08712 0.51742
# Poissons Ratio (z) = 0.19875 0.35682
#
# Static dielectric constant tensor:
#      x y z
#    x 1.512130 0.000000 0.000000 
#    y 0.000000 1.472770 0.000000 
#    z 0.000000 0.000000 1.531920 
# 
# From -- ./inp_files/25233.got.cif
#   From: 2010.05.17/outbox.cif.g08.bks.cpg/sg46_13_cif.got.tgz:25233.got - 2010.06.03 19:58:25.
