data_PCOD9380632
_publ_section_title
;
Structure prediction by ZEFSAII (Michael W. Deem and Ramdas Pophale) SiO2 
 PCOD9380632
Probable space group: I M A 2
;
_chemical_formula_sum "Si O2"
_cell_formula_units_Z 48
_cell_length_a 8.585598
_cell_length_b 9.300021
_cell_length_c 31.327178
_cell_angle_alpha 90.000000
_cell_angle_beta 90.000000
_cell_angle_gamma 90.000000
_cell_volume 2501.357426
_symmetry_space_group_name_H-M "I M A 2"
_symmetry_group_IT_number 46
_symmetry_cell_setting 'orthorhombic'
loop_
_space_group_symop_operation_xyz
x,y,z
-x,-y,z
1/2-x,y,z
1/2+x,-y,z
1/2+x,1/2+y,1/2+z
1/2-x,1/2-y,1/2+z
-x,1/2+y,1/2+z
x,1/2-y,1/2+z
loop_
_atom_site_type_symbol
_atom_site_label
_atom_site_fract_x
_atom_site_fract_y
_atom_site_fract_z
Si Si1 0.437656 0.838140 0.780310
Si Si2 0.563692 0.661065 0.699834
Si Si3 0.062405 0.839094 0.948280
Si Si4 0.063560 0.160030 0.527131
Si Si5 0.437560 0.838670 0.364517
Si Si6 0.063432 0.660544 0.120937
O O1 0.250000 0.839989 0.778003
O O2 0.504127 0.757059 0.739140
O O3 0.485655 0.751281 0.822812
O O4 0.500000 0.000000 0.782066
O O5 0.500000 0.500000 0.704653
O O6 0.750000 0.659688 0.699132
O O7 0.499532 0.731456 0.656450
O O8 0.250000 0.840466 0.950310
O O9 0.013468 0.743535 0.907525
O O10 0.000000 0.000000 0.943298
O O11 0.995199 0.767562 0.990958
O O12 0.250000 0.156180 0.528639
O O13 0.997706 0.199258 0.573776
O O14 0.000000 0.000000 0.517330
O O15 0.250000 0.844233 0.364542
O O16 0.500000 0.000000 0.363213
O O17 0.250000 0.657680 0.121067
O O18 0.000000 0.500000 0.130292
#
# Coordination Sequence:
#
# PCOD9380632 Si02
#       6
#     8   8   8   8   8   8
#     4  11  23  41  63  91 122 159 201 247 298 354
#     4  12  25  42  62  89 122 159 200 248 299 356
#     4  11  23  40  60  88 121 159 202 249 300 356
#     4  11  22  39  62  90 121 158 200 248 299 356
#     4  10  23  40  62  89 121 157 200 247 298 354
#     4  11  22  40  64  91 121 158 200 247 298 356
#
# _framework density 19.189581
#
# number of rings (size 3 to 8) (size 9 to 14) (size 15 to 20)
#    0.000    1.000    0.000    8.500    0.000    6.000 
#    0.000    3.333    0.000    0.000    0.000    0.000 
#    0.000    0.000    0.000    0.000    0.000    0.000 
#
# Total GULP energy -134326.192767 kJ/mol
# GULP energy per Si atom -5596.924699 kJ/mol
# Density = 1.914590 g / cm^3
# Si number density = 19.189581 Si / 1000 Ang^3
#
#
#
# Elastic Constant Matrix: (Units=GPa)
#
#
# Indices 1 2 3 4 5 6 
#
# 1 147.1315 66.8175 62.0123 0.0000 0.0000 0.0000
# 2 66.8175 192.6762 125.6366 0.0000 0.0000 0.0000
# 3 62.0123 125.6366 138.1267 0.0000 0.0000 0.0000
# 4 0.0000 0.0000 0.0000 44.8276 0.0000 0.0000
# 5 0.0000 0.0000 0.0000 0.0000 108.2847 0.0000
# 6 0.0000 0.0000 0.0000 0.0000 0.0000 40.6637
#
#
#
# Elastic Compliance Matrix: (Units=1/GPa)
#
#
# Indices 1 2 3 4 5 6 
#
# 1 0.008481 -0.001126 -0.002783 0.000000 0.000000 0.000000
# 2 -0.001126 0.012905 -0.011232 0.000000 0.000000 0.000000
# 3 -0.002783 -0.011232 0.018706 0.000000 0.000000 0.000000
# 4 0.000000 0.000000 0.000000 0.022308 0.000000 0.000000
# 5 0.000000 0.000000 0.000000 0.000000 0.009235 0.000000
# 6 0.000000 0.000000 0.000000 0.000000 0.000000 0.024592
#
#
# Mechanical properties :
#
#
# Convention : Reuss Voigt Hill
#
# Bulk Modulus (GPa) = 101.95408 109.65190 105.80299
# Shear Modulus (GPa) = 38.52714 53.65305 46.09009
#
# Velocity S-wave (km/s) = 4.48561 5.29341 4.90616
# Velocity P-wave (km/s) = 8.94834 9.72757 9.34608
#
# Compressibility (1/GPa) = 0.00980834
#
# Stress axis : x y z
#
# Youngs Moduli (GPa) = 117.90798 77.49130 53.45988
#
# Poissons Ratio (x) = 0.08729 0.14878
# Poissons Ratio (y) = 0.13281 0.60046
# Poissons Ratio (z) = 0.32815 0.87039
#
# Static dielectric constant tensor:
#      x y z
#    x 1.643640 0.000000 0.000000 
#    y 0.000000 1.628200 0.000000 
#    z 0.000000 0.000000 1.647380 
# 
# From -- ./inp_files/24977.got.cif
#   From: 2010.05.17/outbox.cif.g08.bks.cpg/sg46_13_cif.got.tgz:24977.got - 2010.06.03 19:58:25.
