data_PCOD9380235
_publ_section_title
;
Structure prediction by ZEFSAII (Michael W. Deem and Ramdas Pophale) SiO2 
 PCOD9380235
Probable space group: I M A 2
;
_chemical_formula_sum "Si O2"
_cell_formula_units_Z 64
_cell_length_a 33.019080
_cell_length_b 8.816536
_cell_length_c 10.458351
_cell_angle_alpha 90.000000
_cell_angle_beta 90.000000
_cell_angle_gamma 90.000000
_cell_volume 3044.571426
_symmetry_space_group_name_H-M "I M A 2"
_symmetry_group_IT_number 46
_symmetry_cell_setting 'orthorhombic'
loop_
_space_group_symop_operation_xyz
x,y,z
-x,-y,z
1/2-x,y,z
1/2+x,-y,z
1/2+x,1/2+y,1/2+z
1/2-x,1/2-y,1/2+z
-x,1/2+y,1/2+z
x,1/2-y,1/2+z
loop_
_atom_site_type_symbol
_atom_site_label
_atom_site_fract_x
_atom_site_fract_y
_atom_site_fract_z
Si Si1 0.461034 0.394435 0.033800
Si Si2 0.627059 0.566807 0.738533
Si Si3 0.795326 0.630849 0.415161
Si Si4 0.825687 0.829677 0.643317
Si Si5 0.461531 0.109708 0.228759
Si Si6 0.325008 0.812905 0.945966
Si Si7 0.877386 0.048265 0.515627
Si Si8 0.205689 0.637025 0.704827
O O1 0.500000 0.500000 0.051404
O O2 0.462420 0.252534 0.131678
O O3 0.422114 0.503562 0.058289
O O4 0.460482 0.347163 0.881563
O O5 0.634927 0.729303 0.677177
O O6 0.581245 0.521487 0.705129
O O7 0.666380 0.471004 0.699329
O O8 0.629261 0.558697 0.891583
O O9 0.750000 0.571184 0.437181
O O10 0.804137 0.758574 0.520010
O O11 0.798913 0.683849 0.269614
O O12 0.827131 0.493446 0.429290
O O13 0.843316 0.994799 0.614874
O O14 0.500000 0.000000 0.209771
O O15 0.366291 0.718530 0.971530
O O16 0.296636 0.784017 0.068016
O O17 0.303437 0.746657 0.821742
O O18 0.250000 0.564845 0.722432
#
# Coordination Sequence:
#
# PCOD9380235 Si02
#       8
#     8   8   8   8   8   8   8   8
#     4  10  22  42  67  99 136 170 214 271 327 400
#     4  10  21  39  65  92 129 173 217 270 330 388
#     4  12  26  43  63  94 130 171 229 285 336 402
#     4  12  22  42  67  94 125 174 221 275 342 402
#     4  10  22  42  69  99 136 171 216 269 333 399
#     4  11  24  41  61  91 128 169 216 271 334 393
#     4  10  22  42  65  94 129 173 218 269 333 402
#     4  11  22  39  61  89 127 170 217 269 329 392
#
# _framework density 21.021021000000001
#
# number of rings (size 3 to 8) (size 9 to 14) (size 15 to 20)
#    0.000    1.250    3.750    2.250    0.000    2.000 
#    0.000    5.000    0.000    0.000    0.000    0.000 
#    0.000    0.000    0.000    0.000    0.000    0.000 
#
# Total GULP energy -178417.935691 kJ/mol
# GULP energy per Si atom -5575.560490 kJ/mol
# Density = 2.097318 g / cm^3
# Si number density = 21.021021 Si / 1000 Ang^3
#
#
#
# Elastic Constant Matrix: (Units=GPa)
#
#
# Indices 1 2 3 4 5 6 
#
# 1 134.3280 45.7437 45.0348 0.0000 0.0000 0.0000
# 2 45.7437 66.9551 36.2943 0.0000 0.0000 0.0000
# 3 45.0348 36.2943 120.7127 0.0000 0.0000 0.0000
# 4 0.0000 0.0000 0.0000 32.9873 0.0000 0.0000
# 5 0.0000 0.0000 0.0000 0.0000 11.7327 0.0000
# 6 0.0000 0.0000 0.0000 0.0000 0.0000 20.0170
#
#
#
# Elastic Compliance Matrix: (Units=1/GPa)
#
#
# Indices 1 2 3 4 5 6 
#
# 1 0.010099 -0.005803 -0.002023 0.000000 0.000000 0.000000
# 2 -0.005803 0.021178 -0.004203 0.000000 0.000000 0.000000
# 3 -0.002023 -0.004203 0.010302 0.000000 0.000000 0.000000
# 4 0.000000 0.000000 0.000000 0.030315 0.000000 0.000000
# 5 0.000000 0.000000 0.000000 0.000000 0.085232 0.000000
# 6 0.000000 0.000000 0.000000 0.000000 0.000000 0.049957
#
#
# Mechanical properties :
#
#
# Convention : Reuss Voigt Hill
#
# Bulk Modulus (GPa) = 57.06978 64.01574 60.54276
# Shear Modulus (GPa) = 21.09876 25.94227 23.52051
#
# Velocity S-wave (km/s) = 3.17156 3.51680 3.34863
# Velocity P-wave (km/s) = 6.37335 6.85637 6.61927
#
# Compressibility (1/GPa) = 0.01752241
#
# Stress axis : x y z
#
# Youngs Moduli (GPa) = 99.02202 47.21869 97.06491
#
# Poissons Ratio (x) = 0.27401 0.19635
# Poissons Ratio (y) = 0.57462 0.40793
# Poissons Ratio (z) = 0.20031 0.19844
#
# Static dielectric constant tensor:
#      x y z
#    x 1.778920 0.000000 0.000000 
#    y 0.000000 1.801670 0.000000 
#    z 0.000000 0.000000 1.825250 
# 
# From -- ./inp_files/13227.got.cif
#   From: 2010.05.17/outbox.cif.g08.bks.cpg/sg46_7_cif.got.tgz:13227.got - 2010.06.03 19:58:25.
