data_PCOD9380125
_publ_section_title
;
Structure prediction by ZEFSAII (Michael W. Deem and Ramdas Pophale) SiO2 
 PCOD9380125
Probable space group: I M A 2
;
_chemical_formula_sum "Si O2"
_cell_formula_units_Z 40
_cell_length_a 8.646337
_cell_length_b 9.743939
_cell_length_c 25.756268
_cell_angle_alpha 90.000000
_cell_angle_beta 90.000000
_cell_angle_gamma 90.000000
_cell_volume 2169.949618
_symmetry_space_group_name_H-M "I M A 2"
_symmetry_group_IT_number 46
_symmetry_cell_setting 'orthorhombic'
loop_
_space_group_symop_operation_xyz
x,y,z
-x,-y,z
1/2-x,y,z
1/2+x,-y,z
1/2+x,1/2+y,1/2+z
1/2-x,1/2-y,1/2+z
-x,1/2+y,1/2+z
x,1/2-y,1/2+z
loop_
_atom_site_type_symbol
_atom_site_label
_atom_site_fract_x
_atom_site_fract_y
_atom_site_fract_z
Si Si1 0.565253 0.151899 0.453330
Si Si2 0.434967 0.652939 0.832451
Si Si3 0.065205 0.154176 0.743721
Si Si4 0.065591 0.151606 0.040753
Si Si5 0.935165 0.346046 0.653046
O O1 0.750000 0.154045 0.460613
O O2 0.533288 0.186018 0.392926
O O3 0.485436 0.252544 0.493754
O O4 0.500000 0.000000 0.462090
O O5 0.500000 0.500000 0.821938
O O6 0.250000 0.651485 0.824639
O O7 0.511413 0.763211 0.794761
O O8 0.250000 0.150524 0.741015
O O9 0.998763 0.241018 0.695477
O O10 0.000000 0.000000 0.743799
O O11 0.250000 0.146976 0.045878
O O12 0.992506 0.196278 0.095726
O O13 0.000000 0.000000 0.030858
O O14 0.750000 0.350870 0.654592
O O15 0.000000 0.500000 0.662717
#
# Coordination Sequence:
#
# PCOD9380125 Si02
#       5
#     8   8   8   8   8
#     4  10  21  38  60  87 118 153 194 238 286 340
#     4  10  21  39  62  87 116 153 195 237 284 341
#     4  12  25  41  60  86 118 151 191 239 292 343
#     4  11  22  38  60  87 118 153 194 238 287 340
#     4  11  22  40  63  87 116 152 194 236 284 342
#
# _framework density 18.433606999999999
#
# number of rings (size 3 to 8) (size 9 to 14) (size 15 to 20)
#    0.000    1.200    0.000    8.400    0.000    4.000 
#    0.000    4.000    0.000    0.000    0.000    0.000 
#    0.000    0.000    0.000    0.000    0.000    0.000 
#
# Total GULP energy -111861.063260 kJ/mol
# GULP energy per Si atom -5593.053163 kJ/mol
# Density = 1.839165 g / cm^3
# Si number density = 18.433607 Si / 1000 Ang^3
#
#
#
# Elastic Constant Matrix: (Units=GPa)
#
#
# Indices 1 2 3 4 5 6 
#
# 1 190.4626 83.9881 95.2509 0.0000 0.0000 0.0000
# 2 83.9881 122.6767 112.8261 0.0000 0.0000 0.0000
# 3 95.2509 112.8261 139.2676 0.0000 0.0000 0.0000
# 4 0.0000 0.0000 0.0000 44.9662 0.0000 0.0000
# 5 0.0000 0.0000 0.0000 0.0000 34.7687 0.0000
# 6 0.0000 0.0000 0.0000 0.0000 0.0000 37.6804
#
#
#
# Elastic Compliance Matrix: (Units=1/GPa)
#
#
# Indices 1 2 3 4 5 6 
#
# 1 0.008076 -0.001762 -0.004096 0.000000 0.000000 0.000000
# 2 -0.001762 0.032362 -0.025013 0.000000 0.000000 0.000000
# 3 -0.004096 -0.025013 0.030246 0.000000 0.000000 0.000000
# 4 0.000000 0.000000 0.000000 0.022239 0.000000 0.000000
# 5 0.000000 0.000000 0.000000 0.000000 0.028761 0.000000
# 6 0.000000 0.000000 0.000000 0.000000 0.000000 0.026539
#
#
# Mechanical properties :
#
#
# Convention : Reuss Voigt Hill
#
# Bulk Modulus (GPa) = 111.82857 115.17080 113.49968
# Shear Modulus (GPa) = 23.48032 34.17252 28.82642
#
# Velocity S-wave (km/s) = 3.57287 4.31027 3.95878
# Velocity P-wave (km/s) = 8.82144 9.34802 9.08855
#
# Compressibility (1/GPa) = 0.00894226
#
# Stress axis : x y z
#
# Youngs Moduli (GPa) = 123.82848 30.90062 33.06257
#
# Poissons Ratio (x) = 0.05444 0.13543
# Poissons Ratio (y) = 0.21814 0.82698
# Poissons Ratio (z) = 0.50722 0.77291
#
# Static dielectric constant tensor:
#      x y z
#    x 1.613340 0.000000 0.000000 
#    y 0.000000 1.585980 0.000000 
#    z 0.000000 0.000000 1.629030 
# 
# From -- ./inp_files/22732.got.cif
#   From: 2010.05.17/outbox.cif.g08.bks.cpg/sg46_12_cif.got.tgz:22732.got - 2010.06.03 19:58:25.
