data_PCOD9380964
_publ_section_title
;
Structure prediction by ZEFSAII (Michael W. Deem and Ramdas Pophale) SiO2 
 PCOD9380964
Probable space group: I M A 2
;
_chemical_formula_sum "Si O2"
_cell_formula_units_Z 32
_cell_length_a 24.665679
_cell_length_b 4.811822
_cell_length_c 11.334498
_cell_angle_alpha 90.000000
_cell_angle_beta 90.000000
_cell_angle_gamma 90.000000
_cell_volume 1345.255942
_symmetry_space_group_name_H-M "I M A 2"
_symmetry_group_IT_number 46
_symmetry_cell_setting 'orthorhombic'
loop_
_space_group_symop_operation_xyz
x,y,z
-x,-y,z
1/2-x,y,z
1/2+x,-y,z
1/2+x,1/2+y,1/2+z
1/2-x,1/2-y,1/2+z
-x,1/2+y,1/2+z
x,1/2-y,1/2+z
loop_
_atom_site_type_symbol
_atom_site_label
_atom_site_fract_x
_atom_site_fract_y
_atom_site_fract_z
Si Si1 0.500000 0.500000 0.447820
Si Si2 0.250000 0.523208 0.398639
Si Si3 0.842376 0.761598 0.772674
Si Si4 0.582132 0.254979 0.764036
Si Si5 0.500000 0.000000 0.584798
Si Si6 0.750000 0.419165 0.662280
O O1 0.453078 0.651604 0.374237
O O2 0.528990 0.757419 0.512712
O O3 0.303408 0.330316 0.383726
O O4 0.250000 0.676828 0.525225
O O5 0.250000 0.712209 0.277432
O O6 0.893658 0.557576 0.785165
O O7 0.802287 0.615548 0.680740
O O8 0.867292 0.055836 0.738875
O O9 0.540709 0.191576 0.659036
#
# Coordination Sequence:
#
# PCOD9380964 Si02
#       6
#     4   4   8   8   4   4
#     4  11  24  43  68 102 144 187 236 303 362 430
#     4  11  26  49  76 110 153 195 248 316 374 445
#     4  11  24  47  70 105 139 200 241 303 367 444
#     4  11  24  45  69 104 144 185 247 292 365 442
#     4  11  24  43  68 104 142 191 234 303 358 436
#     4  11  26  49  74 110 153 193 250 314 374 447
#
# _framework density 23.787295
#
# number of rings (size 3 to 8) (size 9 to 14) (size 15 to 20)
#    0.000    1.000    2.500    3.000    0.000   14.000 
#    4.500    0.000    0.000    0.000    0.000    0.000 
#    0.000    0.000    0.000    0.000    0.000    0.000 
#
# Total GULP energy -89306.788619 kJ/mol
# GULP energy per Si atom -5581.674289 kJ/mol
# Density = 2.373315 g / cm^3
# Si number density = 23.787295 Si / 1000 Ang^3
#
#
#
# Elastic Constant Matrix: (Units=GPa)
#
#
# Indices 1 2 3 4 5 6 
#
# 1 79.7866 -4.5298 12.6814 0.0000 0.0000 0.0000
# 2 -4.5298 103.8627 37.7608 0.0000 0.0000 0.0000
# 3 12.6814 37.7608 118.1776 0.0000 0.0000 0.0000
# 4 0.0000 0.0000 0.0000 18.8681 0.0000 0.0000
# 5 0.0000 0.0000 0.0000 0.0000 -9.5445 0.0000
# 6 0.0000 0.0000 0.0000 0.0000 0.0000 60.2141
#
#
#
# Elastic Compliance Matrix: (Units=1/GPa)
#
#
# Indices 1 2 3 4 5 6 
#
# 1 0.012883 0.001204 -0.001767 0.000000 0.000000 0.000000
# 2 0.001204 0.011006 -0.003646 0.000000 0.000000 0.000000
# 3 -0.001767 -0.003646 0.009816 0.000000 0.000000 0.000000
# 4 0.000000 0.000000 0.000000 0.053000 0.000000 0.000000
# 5 0.000000 0.000000 0.000000 0.000000 -0.104772 0.000000
# 6 0.000000 0.000000 0.000000 0.000000 0.000000 0.016607
#
#
# Mechanical properties :
#
#
# Convention : Reuss Voigt Hill
#
# Bulk Modulus (GPa) = 39.54509 43.73909 41.64209
# Shear Modulus (GPa) = 324.94804 30.96851 177.95828
#
# Velocity S-wave (km/s) = 11.70052 3.61209 8.65880
# Velocity P-wave (km/s) = 14.11371 5.98530 10.84022
#
# Compressibility (1/GPa) = 0.02528759
#
# Stress axis : x y z
#
# Youngs Moduli (GPa) = 77.62353 90.85804 101.86958
#
# Poissons Ratio (x) = -0.10943 0.18003
# Poissons Ratio (y) = -0.09349 0.37142
# Poissons Ratio (z) = 0.13718 0.33127
#
# Static dielectric constant tensor:
#      x y z
#    x 2.014660 0.000000 0.000000 
#    y 0.000000 1.915700 0.000000 
#    z 0.000000 0.000000 2.035120 
# 
# From -- ./inp_files/12905.got.cif
#   From: 2010.05.17/outbox.cif.g08.bks.cpg/sg46_7_cif.got.tgz:12905.got - 2010.06.03 19:58:25.
