data_PCOD9380088
_publ_section_title
;
Structure prediction by ZEFSAII (Michael W. Deem and Ramdas Pophale) SiO2 
 PCOD9380088
Probable space group: I M A 2
;
_chemical_formula_sum "Si O2"
_cell_formula_units_Z 44
_cell_length_a 15.217273
_cell_length_b 9.571551
_cell_length_c 13.658195
_cell_angle_alpha 90.000000
_cell_angle_beta 90.000000
_cell_angle_gamma 90.000000
_cell_volume 1989.355773
_symmetry_space_group_name_H-M "I M A 2"
_symmetry_group_IT_number 46
_symmetry_cell_setting 'orthorhombic'
loop_
_space_group_symop_operation_xyz
x,y,z
-x,-y,z
1/2-x,y,z
1/2+x,-y,z
1/2+x,1/2+y,1/2+z
1/2-x,1/2-y,1/2+z
-x,1/2+y,1/2+z
x,1/2-y,1/2+z
loop_
_atom_site_type_symbol
_atom_site_label
_atom_site_fract_x
_atom_site_fract_y
_atom_site_fract_z
Si Si1 0.500000 0.500000 0.876330
Si Si2 0.403548 0.454179 0.409001
Si Si3 0.039307 0.299275 0.035343
Si Si4 0.152266 0.541535 0.747344
Si Si5 0.154235 0.799945 0.040237
Si Si6 0.151807 0.207839 0.718811
O O1 0.431826 0.587196 0.810463
O O2 0.442020 0.404076 0.946954
O O3 0.500000 0.500000 0.374088
O O4 0.422183 0.349127 0.499650
O O5 0.354555 0.588394 0.452153
O O6 0.358248 0.374046 0.320350
O O7 0.081549 0.337738 0.138026
O O8 0.933674 0.291014 0.039653
O O9 0.250000 0.569200 0.789351
O O10 0.149759 0.613431 0.641665
O O11 0.141824 0.374167 0.736250
O O12 0.250000 0.729977 0.035783
O O13 0.250000 0.185291 0.679241
#
# Coordination Sequence:
#
# PCOD9380088 Si02
#       6
#     4   8   8   8   8   8
#     4  12  24  40  60  86 128 160 192 252 310 360
#     4  10  21  38  63  91 121 160 203 253 304 359
#     4  11  24  38  62  89 124 163 200 248 303 367
#     4  10  21  37  64  91 115 152 203 251 295 355
#     4  10  21  41  66  90 119 159 205 250 298 363
#     4  11  22  38  61  91 124 157 202 251 301 362
#
# _framework density 22.117711
#
# number of rings (size 3 to 8) (size 9 to 14) (size 15 to 20)
#    0.000    1.455    3.636    1.636    2.545    2.182 
#    0.000    0.000    0.000    0.000    0.000    0.000 
#    0.000    0.000    0.000    0.000    0.000    0.000 
#
# Total GULP energy -122969.296454 kJ/mol
# GULP energy per Si atom -5589.513475 kJ/mol
# Density = 2.206737 g / cm^3
# Si number density = 22.117711 Si / 1000 Ang^3
#
#
#
# Elastic Constant Matrix: (Units=GPa)
#
#
# Indices 1 2 3 4 5 6 
#
# 1 113.4426 2.3367 48.5147 0.0000 0.0000 0.0000
# 2 2.3367 17.6702 6.8423 0.0000 0.0000 0.0000
# 3 48.5147 6.8423 90.3365 0.0000 0.0000 0.0000
# 4 0.0000 0.0000 0.0000 18.1256 0.0000 0.0000
# 5 0.0000 0.0000 0.0000 0.0000 -0.9125 0.0000
# 6 0.0000 0.0000 0.0000 0.0000 0.0000 18.0821
#
#
#
# Elastic Compliance Matrix: (Units=1/GPa)
#
#
# Indices 1 2 3 4 5 6 
#
# 1 0.011457 0.000894 -0.006221 0.000000 0.000000 0.000000
# 2 0.000894 0.058372 -0.004901 0.000000 0.000000 0.000000
# 3 -0.006221 -0.004901 0.014782 0.000000 0.000000 0.000000
# 4 0.000000 0.000000 0.000000 0.055171 0.000000 0.000000
# 5 0.000000 0.000000 0.000000 0.000000 -1.095875 0.000000
# 6 0.000000 0.000000 0.000000 0.000000 0.000000 0.055303
#
#
# Mechanical properties :
#
#
# Convention : Reuss Voigt Hill
#
# Bulk Modulus (GPa) = 15.58739 37.42631 26.50685
# Shear Modulus (GPa) = -5.82106 17.97608 6.07751
#
# Velocity S-wave (km/s) = -1.62406 2.85396 1.65945
# Velocity P-wave (km/s) = 1.88309 5.27430 3.96007
#
# Compressibility (1/GPa) = 0.06415444
#
# Stress axis : x y z
#
# Youngs Moduli (GPa) = 87.28366 17.13150 67.65137
#
# Poissons Ratio (x) = -0.01531 0.42083
# Poissons Ratio (y) = -0.07800 0.33157
# Poissons Ratio (z) = 0.54295 0.08396
#
# Static dielectric constant tensor:
#      x y z
#    x 1.817050 0.000000 0.000000 
#    y 0.000000 1.817500 0.000000 
#    z 0.000000 0.000000 1.787720 
# 
# From -- ./inp_files/15814.got.cif
#   From: 2010.05.17/outbox.cif.g08.bks.cpg/sg46_8_cif.got.tgz:15814.got - 2010.06.03 19:58:25.
