data_PCOD9380695
_publ_section_title
;
Structure prediction by ZEFSAII (Michael W. Deem and Ramdas Pophale) SiO2 
 PCOD9380695
Probable space group: I M A 2
;
_chemical_formula_sum "Si O2"
_cell_formula_units_Z 56
_cell_length_a 25.694419
_cell_length_b 5.539165
_cell_length_c 14.297164
_cell_angle_alpha 90.000000
_cell_angle_beta 90.000000
_cell_angle_gamma 90.000000
_cell_volume 2034.852822
_symmetry_space_group_name_H-M "I M A 2"
_symmetry_group_IT_number 46
_symmetry_cell_setting 'orthorhombic'
loop_
_space_group_symop_operation_xyz
x,y,z
-x,-y,z
1/2-x,y,z
1/2+x,-y,z
1/2+x,1/2+y,1/2+z
1/2-x,1/2-y,1/2+z
-x,1/2+y,1/2+z
x,1/2-y,1/2+z
loop_
_atom_site_type_symbol
_atom_site_label
_atom_site_fract_x
_atom_site_fract_y
_atom_site_fract_z
Si Si1 0.372020 0.724034 0.960570
Si Si2 0.844996 0.380225 0.766111
Si Si3 0.444870 0.399146 0.356329
Si Si4 0.438168 0.153750 0.545103
Si Si5 0.828664 0.888815 0.082529
Si Si6 0.946990 0.567941 0.705588
Si Si7 0.750000 0.122868 0.836277
Si Si8 0.750000 0.872402 0.456356
O O1 0.354168 0.547733 0.875717
O O2 0.404625 0.915447 0.900585
O O3 0.412840 0.604742 0.031568
O O4 0.328541 0.867934 0.019194
O O5 0.816341 0.551309 0.689651
O O6 0.902865 0.358791 0.718871
O O7 0.803843 0.160012 0.778488
O O8 0.500000 0.500000 0.327033
O O9 0.456929 0.223711 0.443356
O O10 0.419505 0.272780 0.268190
O O11 0.388886 0.314130 0.578047
O O12 0.474985 0.271738 0.621868
O O13 0.797546 0.682530 0.028544
O O14 0.000000 0.500000 0.759642
O O15 0.750000 0.371169 0.902125
O O16 0.750000 0.861875 0.886496
#
# Coordination Sequence:
#
# PCOD9380695 Si02
#       8
#     8   8   8   8   8   8   4   4
#     4  11  22  42  69  98 137 194 241 306 372 450
#     4  11  23  46  73 106 148 190 252 305 381 448
#     4  11  24  40  63  97 135 183 242 298 364 435
#     4  10  23  44  68  94 140 188 240 306 374 444
#     4  10  24  42  69 102 142 189 247 311 376 450
#     4  11  24  45  71 105 147 192 249 308 375 456
#     4  12  27  46  79 111 151 202 249 318 381 469
#     4  12  25  48  73 109 155 196 253 310 391 453
#
# _framework density 27.520417999999999
#
# number of rings (size 3 to 8) (size 9 to 14) (size 15 to 20)
#    0.000    1.143    2.857    2.571    4.000    0.000 
#    7.714    1.429    0.000    0.000    0.000    0.000 
#    0.000    0.000    0.000    0.000    0.000    0.000 
#
# Total GULP energy -156094.623692 kJ/mol
# GULP energy per Si atom -5574.807989 kJ/mol
# Density = 2.745778 g / cm^3
# Si number density = 27.520418 Si / 1000 Ang^3
#
#
#
# Elastic Constant Matrix: (Units=GPa)
#
#
# Indices 1 2 3 4 5 6 
#
# 1 72.7973 -9.5554 -7.6571 0.0000 0.0000 0.0000
# 2 -9.5554 98.1491 41.4125 0.0000 0.0000 0.0000
# 3 -7.6571 41.4125 164.6776 0.0000 0.0000 0.0000
# 4 0.0000 0.0000 0.0000 47.7732 0.0000 0.0000
# 5 0.0000 0.0000 0.0000 0.0000 138.0551 0.0000
# 6 0.0000 0.0000 0.0000 0.0000 0.0000 -342.6780
#
#
#
# Elastic Compliance Matrix: (Units=1/GPa)
#
#
# Indices 1 2 3 4 5 6 
#
# 1 0.013932 0.001212 0.000343 0.000000 0.000000 0.000000
# 2 0.001212 0.011503 -0.002836 0.000000 0.000000 0.000000
# 3 0.000343 -0.002836 0.006802 0.000000 0.000000 0.000000
# 4 0.000000 0.000000 0.000000 0.020932 0.000000 0.000000
# 5 0.000000 0.000000 0.000000 0.000000 0.007243 0.000000
# 6 0.000000 0.000000 0.000000 0.000000 0.000000 -0.002918
#
#
# Mechanical properties :
#
#
# Convention : Reuss Voigt Hill
#
# Bulk Modulus (GPa) = 33.70022 42.66933 38.18477
# Shear Modulus (GPa) = 71.48045 -10.60834 30.43606
#
# Velocity S-wave (km/s) = 5.10196 -1.96547 3.32918
# Velocity P-wave (km/s) = 6.85411 3.22296 5.35566
#
# Compressibility (1/GPa) = 0.02967340
#
# Stress axis : x y z
#
# Youngs Moduli (GPa) = 71.77778 86.93124 147.02132
#
# Poissons Ratio (x) = -0.10532 -0.05045
# Poissons Ratio (y) = -0.08696 0.41702
# Poissons Ratio (z) = -0.02463 0.24658
#
# Static dielectric constant tensor:
#      x y z
#    x 1.111350 0.000000 0.000000 
#    y 0.000000 2.274310 0.000000 
#    z 0.000000 0.000000 2.302560 
# 
# From -- ./inp_files/17728.got.cif
#   From: 2010.05.17/outbox.cif.g08.bks.cpg/sg46_9_cif.got.tgz:17728.got - 2010.06.03 19:58:25.
