data_PCOD9380310
_publ_section_title
;
Structure prediction by ZEFSAII (Michael W. Deem and Ramdas Pophale) SiO2 
 PCOD9380310
Probable space group: I M A 2
;
_chemical_formula_sum "Si O2"
_cell_formula_units_Z 64
_cell_length_a 27.706779
_cell_length_b 9.073815
_cell_length_c 11.885066
_cell_angle_alpha 90.000000
_cell_angle_beta 90.000000
_cell_angle_gamma 90.000000
_cell_volume 2987.979124
_symmetry_space_group_name_H-M "I M A 2"
_symmetry_group_IT_number 46
_symmetry_cell_setting 'orthorhombic'
loop_
_space_group_symop_operation_xyz
x,y,z
-x,-y,z
1/2-x,y,z
1/2+x,-y,z
1/2+x,1/2+y,1/2+z
1/2-x,1/2-y,1/2+z
-x,1/2+y,1/2+z
x,1/2-y,1/2+z
loop_
_atom_site_type_symbol
_atom_site_label
_atom_site_fract_x
_atom_site_fract_y
_atom_site_fract_z
Si Si1 0.302596 0.849027 0.280010
Si Si2 0.979126 0.143150 0.458896
Si Si3 0.541557 0.377804 0.621164
Si Si4 0.695579 0.006158 0.812022
Si Si5 0.805803 0.927716 0.070560
Si Si6 0.895580 0.488918 0.810647
Si Si7 0.519432 0.836338 0.775793
Si Si8 0.374931 0.277689 0.207009
O O1 0.250000 0.886051 0.330029
O O2 0.305018 0.674056 0.270744
O O3 0.349625 0.896407 0.347979
O O4 0.306347 0.941070 0.163669
O O5 0.948639 0.273951 0.515868
O O6 0.942484 0.055740 0.378824
O O7 0.019285 0.239307 0.391251
O O8 0.000000 0.000000 0.526194
O O9 0.500000 0.500000 0.601057
O O10 0.586411 0.452316 0.682838
O O11 0.518790 0.256288 0.704023
O O12 0.750000 0.947722 0.794257
O O13 0.657006 0.913305 0.744656
O O14 0.685601 0.990622 0.945717
O O15 0.750000 0.869525 0.073322
O O16 0.845720 0.806393 0.107656
O O17 0.877893 0.655605 0.806278
O O18 0.569207 0.828354 0.705044
O O19 0.500000 0.000000 0.798045
#
# Coordination Sequence:
#
# PCOD9380310 Si02
#       8
#     8   8   8   8   8   8   8   8
#     4   9  20  40  65  91 125 165 210 269 324 380
#     4  11  22  41  61  88 126 160 208 263 319 380
#     4  11  22  41  62  86 123 166 207 262 320 374
#     4  10  22  40  64  97 128 164 217 266 321 392
#     4   9  20  41  66  93 127 169 211 263 328 389
#     4  10  21  41  60  89 123 161 209 257 311 385
#     4  11  23  40  59  88 124 162 212 260 309 378
#     4  11  21  39  64  89 131 168 210 263 320 376
#
# _framework density 21.419160000000002
#
# number of rings (size 3 to 8) (size 9 to 14) (size 15 to 20)
#    0.000    1.750    2.500    1.875    3.500    3.500 
#    2.250    2.500    0.000    7.500    0.000    0.000 
#    0.000    0.000    0.000    0.000    0.000    0.000 
#
# Total GULP energy -178240.848907 kJ/mol
# GULP energy per Si atom -5570.026528 kJ/mol
# Density = 2.137041 g / cm^3
# Si number density = 21.419160 Si / 1000 Ang^3
#
#
#
# Elastic Constant Matrix: (Units=GPa)
#
#
# Indices 1 2 3 4 5 6 
#
# 1 107.3237 33.7117 -5.8584 0.0000 0.0000 0.0000
# 2 33.7117 110.5556 4.1529 0.0000 0.0000 0.0000
# 3 -5.8584 4.1529 19.7013 0.0000 0.0000 0.0000
# 4 0.0000 0.0000 0.0000 8.0089 0.0000 0.0000
# 5 0.0000 0.0000 0.0000 0.0000 -1.3981 0.0000
# 6 0.0000 0.0000 0.0000 0.0000 0.0000 41.4368
#
#
#
# Elastic Compliance Matrix: (Units=1/GPa)
#
#
# Indices 1 2 3 4 5 6 
#
# 1 0.010588 -0.003374 0.003860 0.000000 0.000000 0.000000
# 2 -0.003374 0.010192 -0.003152 0.000000 0.000000 0.000000
# 3 0.003860 -0.003152 0.052570 0.000000 0.000000 0.000000
# 4 0.000000 0.000000 0.000000 0.124861 0.000000 0.000000
# 5 0.000000 0.000000 0.000000 0.000000 -0.715240 0.000000
# 6 0.000000 0.000000 0.000000 0.000000 0.000000 0.024133
#
#
# Mechanical properties :
#
#
# Convention : Reuss Voigt Hill
#
# Bulk Modulus (GPa) = 14.70172 33.51031 24.10601
# Shear Modulus (GPa) = -10.75521 23.31448 6.27963
#
# Velocity S-wave (km/s) = -2.24326 3.30280 1.71410
# Velocity P-wave (km/s) = 0.41123 5.49760 3.89825
#
# Compressibility (1/GPa) = 0.06801926
#
# Stress axis : x y z
#
# Youngs Moduli (GPa) = 94.44679 98.11316 19.02219
#
# Poissons Ratio (x) = 0.33099 -0.07342
# Poissons Ratio (y) = 0.31862 0.05995
# Poissons Ratio (z) = -0.36453 0.30922
#
# Static dielectric constant tensor:
#      x y z
#    x 1.819080 0.000000 0.000000 
#    y 0.000000 1.772100 0.000000 
#    z 0.000000 0.000000 1.881120 
# 
# From -- ./inp_files/13189.got.cif
#   From: 2010.05.17/outbox.cif.g08.bks.cpg/sg46_7_cif.got.tgz:13189.got - 2010.06.03 19:58:25.
