data_PCOD9380052
_publ_section_title
;
Structure prediction by ZEFSAII (Michael W. Deem and Ramdas Pophale) SiO2 
 PCOD9380052
Probable space group: I M A 2
;
_chemical_formula_sum "Si O2"
_cell_formula_units_Z 48
_cell_length_a 9.077626
_cell_length_b 17.826115
_cell_length_c 15.369697
_cell_angle_alpha 90.000000
_cell_angle_beta 90.000000
_cell_angle_gamma 90.000000
_cell_volume 2487.106002
_symmetry_space_group_name_H-M "I M A 2"
_symmetry_group_IT_number 46
_symmetry_cell_setting 'orthorhombic'
loop_
_space_group_symop_operation_xyz
x,y,z
-x,-y,z
1/2-x,y,z
1/2+x,-y,z
1/2+x,1/2+y,1/2+z
1/2-x,1/2-y,1/2+z
-x,1/2+y,1/2+z
x,1/2-y,1/2+z
loop_
_atom_site_type_symbol
_atom_site_label
_atom_site_fract_x
_atom_site_fract_y
_atom_site_fract_z
Si Si1 0.575594 0.628386 0.743430
Si Si2 0.426458 0.077020 0.051898
Si Si3 0.425669 0.075509 0.597093
Si Si4 0.576686 0.307915 0.424407
Si Si5 0.075702 0.193860 0.744840
Si Si6 0.576625 0.127971 0.422835
O O1 0.750000 0.617382 0.759513
O O2 0.534805 0.588805 0.653511
O O3 0.551315 0.717693 0.729647
O O4 0.485515 0.605243 0.828578
O O5 0.250000 0.073953 0.044751
O O6 0.500000 0.000000 0.020708
O O7 0.488080 0.146295 0.996513
O O8 0.250000 0.067446 0.593045
O O9 0.461204 0.144746 0.660753
O O10 0.490048 0.090604 0.501687
O O11 0.500000 0.000000 0.631991
O O12 0.750000 0.323490 0.432307
O O13 0.516815 0.329351 0.329087
O O14 0.555151 0.218120 0.431700
O O15 0.250000 0.183916 0.763379
O O16 0.750000 0.111728 0.428814
#
# Coordination Sequence:
#
# PCOD9380052 Si02
#       6
#     8   8   8   8   8   8
#     4   9  19  37  60  83 108 144 189 233 278 329
#     4  11  23  38  57  82 114 151 188 229 278 331
#     4  11  23  38  57  82 114 151 188 229 278 331
#     4  10  21  37  59  86 114 146 185 230 278 329
#     4   9  19  37  60  83 108 144 189 233 278 329
#     4  10  21  37  59  86 114 146 185 230 278 329
#
# _framework density 19.29954
#
# number of rings (size 3 to 8) (size 9 to 14) (size 15 to 20)
#    0.000    2.000    0.000    3.000    0.000    7.333 
#    0.000    6.667    0.000    0.000    0.000    0.000 
#    0.000    0.000    0.000    0.000    0.000    0.000 
#
# Total GULP energy -134118.794164 kJ/mol
# GULP energy per Si atom -5588.283090 kJ/mol
# Density = 1.925561 g / cm^3
# Si number density = 19.299540 Si / 1000 Ang^3
#
#
#
# Elastic Constant Matrix: (Units=GPa)
#
#
# Indices 1 2 3 4 5 6 
#
# 1 53.7822 28.2301 35.3573 0.0000 0.0000 0.0000
# 2 28.2301 26.9728 15.0406 0.0000 0.0000 0.0000
# 3 35.3573 15.0406 71.8971 0.0000 0.0000 0.0000
# 4 0.0000 0.0000 0.0000 -25.1463 0.0000 0.0000
# 5 0.0000 0.0000 0.0000 0.0000 26.8078 0.0000
# 6 0.0000 0.0000 0.0000 0.0000 0.0000 27.7926
#
#
#
# Elastic Compliance Matrix: (Units=1/GPa)
#
#
# Indices 1 2 3 4 5 6 
#
# 1 0.055012 -0.048102 -0.016991 0.000000 0.000000 0.000000
# 2 -0.048102 0.084031 0.006077 0.000000 0.000000 0.000000
# 3 -0.016991 0.006077 0.020993 0.000000 0.000000 0.000000
# 4 0.000000 0.000000 0.000000 -0.039767 0.000000 0.000000
# 5 0.000000 0.000000 0.000000 0.000000 0.037303 0.000000
# 6 0.000000 0.000000 0.000000 0.000000 0.000000 0.035981
#
#
# Mechanical properties :
#
#
# Convention : Reuss Voigt Hill
#
# Bulk Modulus (GPa) = 23.80777 34.43425 29.12101
# Shear Modulus (GPa) = 15.35688 10.82577 13.09133
#
# Velocity S-wave (km/s) = 2.82390 2.37097 2.60729
# Velocity P-wave (km/s) = 4.79533 5.03747 4.91789
#
# Compressibility (1/GPa) = 0.04200310
#
# Stress axis : x y z
#
# Youngs Moduli (GPa) = 18.17769 11.90041 47.63425
#
# Poissons Ratio (x) = 0.57244 0.80935
# Poissons Ratio (y) = 0.87439 -0.28946
# Poissons Ratio (z) = 0.30886 -0.07232
#
# Static dielectric constant tensor:
#      x y z
#    x 1.639230 0.000000 0.000000 
#    y 0.000000 1.681520 0.000000 
#    z 0.000000 0.000000 1.643170 
# 
# From -- ./inp_files/13883.got.cif
#   From: 2010.05.17/outbox.cif.g08.bks.cpg/sg46_7_cif.got.tgz:13883.got - 2010.06.03 19:58:25.
