data_PCOD9380394
_publ_section_title
;
Structure prediction by ZEFSAII (Michael W. Deem and Ramdas Pophale) SiO2 
 PCOD9380394
Probable space group: I M A 2
;
_chemical_formula_sum "Si O2"
_cell_formula_units_Z 44
_cell_length_a 7.839030
_cell_length_b 32.609099
_cell_length_c 7.442841
_cell_angle_alpha 90.000000
_cell_angle_beta 90.000000
_cell_angle_gamma 90.000000
_cell_volume 1902.566595
_symmetry_space_group_name_H-M "I M A 2"
_symmetry_group_IT_number 46
_symmetry_cell_setting 'orthorhombic'
loop_
_space_group_symop_operation_xyz
x,y,z
-x,-y,z
1/2-x,y,z
1/2+x,-y,z
1/2+x,1/2+y,1/2+z
1/2-x,1/2-y,1/2+z
-x,1/2+y,1/2+z
x,1/2-y,1/2+z
loop_
_atom_site_type_symbol
_atom_site_label
_atom_site_fract_x
_atom_site_fract_y
_atom_site_fract_z
Si Si1 0.568843 0.234144 0.707610
Si Si2 0.947659 0.884538 0.439441
Si Si3 0.940843 0.811700 0.022293
Si Si4 0.455882 0.396145 0.356727
Si Si5 0.551666 0.452759 0.671242
Si Si6 0.750000 0.176435 0.430544
O O1 0.750000 0.232676 0.809866
O O2 0.432827 0.214978 0.838660
O O3 0.539629 0.280807 0.651840
O O4 0.602832 0.204505 0.540630
O O5 0.750000 0.869392 0.444575
O O6 0.000808 0.894419 0.646415
O O7 0.951963 0.924562 0.313580
O O8 0.095197 0.854698 0.366275
O O9 0.750000 0.818410 0.091600
O O10 0.017493 0.854559 0.956237
O O11 0.250000 0.395565 0.365535
O O12 0.519955 0.434114 0.472791
O O13 0.500000 0.500000 0.678355
O O14 0.750000 0.449263 0.714970
#
# Coordination Sequence:
#
# PCOD9380394 Si02
#       6
#     8   8   8   8   8   4
#     4  10  22  37  60  87 133 169 228 283 327 407
#     4  11  23  45  75 103 141 185 237 293 354 429
#     4  11  22  40  62  92 131 180 231 286 345 406
#     4  10  23  44  71 101 138 185 235 289 355 425
#     4  12  27  46  73 107 144 181 232 297 360 433
#     4  10  22  40  68 100 132 186 242 284 356 418
#
# _framework density 23.126652
#
# number of rings (size 3 to 8) (size 9 to 14) (size 15 to 20)
#    0.545    0.727    2.727    2.727    1.273    4.364 
#    0.000    0.000    0.000    0.000    0.000    0.000 
#    0.000    0.000    0.000    0.000    0.000    0.000 
#
# Total GULP energy -122482.545103 kJ/mol
# GULP energy per Si atom -5567.388414 kJ/mol
# Density = 2.307401 g / cm^3
# Si number density = 23.126652 Si / 1000 Ang^3
#
#
#
# Elastic Constant Matrix: (Units=GPa)
#
#
# Indices 1 2 3 4 5 6 
#
# 1 101.6443 10.4382 9.3998 0.0008 -0.0003 0.0000
# 2 10.4382 132.3950 44.7980 0.0065 -0.0019 -0.0009
# 3 9.3998 44.7980 113.6060 0.0101 -0.0026 0.0009
# 4 0.0008 0.0065 0.0101 36.5086 -0.0023 -0.0007
# 5 -0.0003 -0.0019 -0.0026 -0.0023 3.4827 0.0009
# 6 0.0000 -0.0009 0.0009 -0.0007 0.0009 48.6211
#
#
#
# Elastic Compliance Matrix: (Units=1/GPa)
#
#
# Indices 1 2 3 4 5 6 
#
# 1 0.009953 -0.000584 -0.000593 0.000000 0.000000 0.000000
# 2 -0.000584 0.008750 -0.003402 -0.000001 0.000002 0.000000
# 3 -0.000593 -0.003402 0.010193 -0.000002 0.000006 0.000000
# 4 0.000000 -0.000001 -0.000002 0.027391 0.000018 0.000000
# 5 0.000000 0.000002 0.000006 0.000018 0.287132 -0.000006
# 6 0.000000 0.000000 0.000000 0.000000 -0.000006 0.020567
#
#
# Mechanical properties :
#
#
# Convention : Reuss Voigt Hill
#
# Bulk Modulus (GPa) = 50.66465 52.99081 51.82773
# Shear Modulus (GPa) = 13.16746 36.58977 24.87862
#
# Velocity S-wave (km/s) = 2.38872 3.98194 3.28343
# Velocity P-wave (km/s) = 5.43719 6.64110 6.06907
#
# Compressibility (1/GPa) = 0.01973763
#
# Stress axis : x y z
#
# Youngs Moduli (GPa) = 100.47154 114.28071 98.10640
#
# Poissons Ratio (x) = 0.06674 0.05820
# Poissons Ratio (y) = 0.05867 0.33378
# Poissons Ratio (z) = 0.05960 0.38881
#
# Static dielectric constant tensor:
#      x y z
#    x 2.002390 0.000000 0.000010 
#    y 0.000000 1.869630 0.000000 
#    z 0.000010 0.000000 1.943600 
# 
# From -- ./inp_files/3805.got.cif
#   From: 2010.05.17/outbox.cif.g08.bks.cpg/sg46_2_cif.got.tgz:3805.got - 2010.06.03 19:58:25.
