data_PCOD9380667
_publ_section_title
;
Structure prediction by ZEFSAII (Michael W. Deem and Ramdas Pophale) SiO2 
 PCOD9380667
Probable space group: I M A 2
;
_chemical_formula_sum "Si O2"
_cell_formula_units_Z 36
_cell_length_a 7.252659
_cell_length_b 7.824384
_cell_length_c 25.655520
_cell_angle_alpha 90.000000
_cell_angle_beta 90.000000
_cell_angle_gamma 90.000000
_cell_volume 1455.888905
_symmetry_space_group_name_H-M "I M A 2"
_symmetry_group_IT_number 46
_symmetry_cell_setting 'orthorhombic'
loop_
_space_group_symop_operation_xyz
x,y,z
-x,-y,z
1/2-x,y,z
1/2+x,-y,z
1/2+x,1/2+y,1/2+z
1/2-x,1/2-y,1/2+z
-x,1/2+y,1/2+z
x,1/2-y,1/2+z
loop_
_atom_site_type_symbol
_atom_site_label
_atom_site_fract_x
_atom_site_fract_y
_atom_site_fract_z
Si Si1 0.968241 0.195215 0.037440
Si Si2 0.532096 0.200098 0.424967
Si Si3 0.250000 0.162475 0.618375
Si Si4 0.967904 0.299901 0.311785
Si Si5 0.968241 0.304784 0.699311
O O1 0.750000 0.234984 0.041227
O O2 0.089422 0.316256 0.073101
O O3 0.032121 0.207246 0.977262
O O4 0.000000 0.000000 0.055317
O O5 0.750000 0.235465 0.422939
O O6 0.455239 0.249996 0.368376
O O7 0.500000 0.000000 0.432604
O O8 0.410578 0.183744 0.663649
O O9 0.750000 0.264534 0.313813
O O10 0.032121 0.207250 0.259489
O O11 0.000000 0.500000 0.304151
O O12 0.750000 0.265015 0.695524
O O13 0.000000 0.500000 0.681435
#
# Coordination Sequence:
#
# PCOD9380667 Si02
#       5
#     8   8   4   8   8
#     4  11  23  39  65  96 129 166 218 261 314 376
#     4  10  23  42  66  96 129 162 208 261 322 388
#     4  12  24  40  66  92 128 178 212 270 306 370
#     4  10  23  42  66  96 129 162 208 261 322 388
#     4  11  23  39  65  96 129 166 218 261 314 376
#
# _framework density 24.727162
#
# number of rings (size 3 to 8) (size 9 to 14) (size 15 to 20)
#    0.000    1.333    2.222    2.667    3.111    0.889 
#    0.000    1.111    0.000    0.000    0.000    0.000 
#    0.000    0.000    0.000    0.000    0.000    0.000 
#
# Total GULP energy -100288.236227 kJ/mol
# GULP energy per Si atom -5571.568679 kJ/mol
# Density = 2.467088 g / cm^3
# Si number density = 24.727162 Si / 1000 Ang^3
#
#
#
# Elastic Constant Matrix: (Units=GPa)
#
#
# Indices 1 2 3 4 5 6 
#
# 1 185.4982 -6.4872 60.8397 0.0000 0.0000 0.0000
# 2 -6.4872 77.2029 12.7158 0.0000 0.0000 0.0000
# 3 60.8397 12.7158 211.9085 0.0000 0.0000 0.0000
# 4 0.0000 0.0000 0.0000 -51.9399 0.0000 0.0000
# 5 0.0000 0.0000 0.0000 0.0000 33.9247 0.0000
# 6 0.0000 0.0000 0.0000 0.0000 0.0000 14.8290
#
#
#
# Elastic Compliance Matrix: (Units=1/GPa)
#
#
# Indices 1 2 3 4 5 6 
#
# 1 0.005999 0.000796 -0.001770 0.000000 0.000000 0.000000
# 2 0.000796 0.013188 -0.001020 0.000000 0.000000 0.000000
# 3 -0.001770 -0.001020 0.005288 0.000000 0.000000 0.000000
# 4 0.000000 0.000000 0.000000 -0.019253 0.000000 0.000000
# 5 0.000000 0.000000 0.000000 0.000000 0.029477 0.000000
# 6 0.000000 0.000000 0.000000 0.000000 0.000000 0.067436
#
#
# Mechanical properties :
#
#
# Convention : Reuss Voigt Hill
#
# Bulk Modulus (GPa) = 48.81174 67.63844 58.22509
# Shear Modulus (GPa) = 44.26642 26.53219 35.39930
#
# Velocity S-wave (km/s) = 4.23566 3.27922 3.78775
# Velocity P-wave (km/s) = 6.61090 6.46150 6.53663
#
# Compressibility (1/GPa) = 0.02048687
#
# Stress axis : x y z
#
# Youngs Moduli (GPa) = 166.68631 75.82821 189.09197
#
# Poissons Ratio (x) = -0.06033 0.33472
# Poissons Ratio (y) = -0.13263 0.19283
# Poissons Ratio (z) = 0.29506 0.07733
#
# Static dielectric constant tensor:
#      x y z
#    x 1.940700 0.000000 0.000000 
#    y 0.000000 1.880970 0.000000 
#    z 0.000000 0.000000 1.968640 
# 
# From -- ./inp_files/22746.got.cif
#   From: 2010.05.17/outbox.cif.g08.bks.cpg/sg46_12_cif.got.tgz:22746.got - 2010.06.03 19:58:25.
