data_PCOD9380084
_publ_section_title
;
Structure prediction by ZEFSAII (Michael W. Deem and Ramdas Pophale) SiO2 
 PCOD9380084
Probable space group: I M A 2
;
_chemical_formula_sum "Si O2"
_cell_formula_units_Z 48
_cell_length_a 18.615270
_cell_length_b 5.459302
_cell_length_c 20.069934
_cell_angle_alpha 90.000000
_cell_angle_beta 90.000000
_cell_angle_gamma 90.000000
_cell_volume 2039.634754
_symmetry_space_group_name_H-M "I M A 2"
_symmetry_group_IT_number 46
_symmetry_cell_setting 'orthorhombic'
loop_
_space_group_symop_operation_xyz
x,y,z
-x,-y,z
1/2-x,y,z
1/2+x,-y,z
1/2+x,1/2+y,1/2+z
1/2-x,1/2-y,1/2+z
-x,1/2+y,1/2+z
x,1/2-y,1/2+z
loop_
_atom_site_type_symbol
_atom_site_label
_atom_site_fract_x
_atom_site_fract_y
_atom_site_fract_z
Si Si1 0.170955 0.780493 0.286110
Si Si2 0.572665 0.918533 0.719845
Si Si3 0.430494 0.343953 0.857569
Si Si4 0.836093 0.333768 0.040086
Si Si5 0.330491 0.997586 0.920980
Si Si6 0.662901 0.832161 0.113302
O O1 0.250000 0.846330 0.261617
O O2 0.122342 0.654958 0.230991
O O3 0.177412 0.576258 0.344080
O O4 0.132577 0.993622 0.326005
O O5 0.548944 0.812951 0.791852
O O6 0.500000 0.000000 0.683685
O O7 0.620816 0.722927 0.681165
O O8 0.500000 0.500000 0.877070
O O9 0.395250 0.188978 0.917094
O O10 0.750000 0.345694 0.044830
O O11 0.857775 0.095263 0.083260
O O12 0.859244 0.599947 0.066130
O O13 0.850446 0.239009 0.965030
O O14 0.250000 0.084913 0.943836
O O15 0.750000 0.825589 0.121384
#
# Coordination Sequence:
#
# PCOD9380084 Si02
#       6
#     8   8   8   8   8   8
#     4  10  21  37  62  92 120 156 207 256 308 379
#     4  11  23  40  59  85 127 167 204 259 322 385
#     4  11  22  37  61  90 124 168 204 258 327 388
#     4   9  20  39  63  92 123 161 211 267 318 367
#     4   9  20  37  61  91 124 161 207 262 320 383
#     4  10  22  39  64  92 122 164 216 266 311 371
#
# _framework density 23.533624
#
# number of rings (size 3 to 8) (size 9 to 14) (size 15 to 20)
#    0.000    2.000    1.667    1.000    4.667    2.000 
#    0.000    0.833    3.667    0.000    0.000    0.000 
#    0.000    0.000    0.000    0.000    0.000    0.000 
#
# Total GULP energy -134047.072422 kJ/mol
# GULP energy per Si atom -5585.294684 kJ/mol
# Density = 2.348006 g / cm^3
# Si number density = 23.533624 Si / 1000 Ang^3
#
#
#
# Elastic Constant Matrix: (Units=GPa)
#
#
# Indices 1 2 3 4 5 6 
#
# 1 97.2637 24.8687 12.0230 0.0000 0.0000 0.0000
# 2 24.8687 90.8111 24.4996 0.0000 0.0000 0.0000
# 3 12.0230 24.4996 81.0543 0.0000 0.0000 0.0000
# 4 0.0000 0.0000 0.0000 42.7835 0.0000 0.0000
# 5 0.0000 0.0000 0.0000 0.0000 -1.8726 0.0000
# 6 0.0000 0.0000 0.0000 0.0000 0.0000 16.1410
#
#
#
# Elastic Compliance Matrix: (Units=1/GPa)
#
#
# Indices 1 2 3 4 5 6 
#
# 1 0.011102 -0.002826 -0.000792 0.000000 0.000000 0.000000
# 2 -0.002826 0.012709 -0.003422 0.000000 0.000000 0.000000
# 3 -0.000792 -0.003422 0.013489 0.000000 0.000000 0.000000
# 4 0.000000 0.000000 0.000000 0.023373 0.000000 0.000000
# 5 0.000000 0.000000 0.000000 0.000000 -0.534011 0.000000
# 6 0.000000 0.000000 0.000000 0.000000 0.000000 0.061954
#
#
# Mechanical properties :
#
#
# Convention : Reuss Voigt Hill
#
# Bulk Modulus (GPa) = 43.06973 43.54575 43.30774
# Shear Modulus (GPa) = -12.83495 25.25957 6.21231
#
# Velocity S-wave (km/s) = -2.33789 3.27974 1.62650
# Velocity P-wave (km/s) = 3.32468 5.73464 4.68719
#
# Compressibility (1/GPa) = 0.02321816
#
# Stress axis : x y z
#
# Youngs Moduli (GPa) = 90.07410 78.68331 74.13249
#
# Poissons Ratio (x) = 0.22240 0.05875
# Poissons Ratio (y) = 0.25459 0.25370
# Poissons Ratio (z) = 0.07138 0.26927
#
# Static dielectric constant tensor:
#      x y z
#    x 1.901710 0.000000 0.000000 
#    y 0.000000 1.937050 0.000000 
#    z 0.000000 0.000000 1.937110 
# 
# From -- ./inp_files/22346.got.cif
#   From: 2010.05.17/outbox.cif.g08.bks.cpg/sg46_12_cif.got.tgz:22346.got - 2010.06.03 19:58:25.
