data_PCOD9380067
_publ_section_title
;
Structure prediction by ZEFSAII (Michael W. Deem and Ramdas Pophale) SiO2 
 PCOD9380067
Probable space group: I M A 2
;
_chemical_formula_sum "Si O2"
_cell_formula_units_Z 56
_cell_length_a 22.320639
_cell_length_b 12.531389
_cell_length_c 10.908855
_cell_angle_alpha 90.000000
_cell_angle_beta 90.000000
_cell_angle_gamma 90.000000
_cell_volume 3051.300669
_symmetry_space_group_name_H-M "I M A 2"
_symmetry_group_IT_number 46
_symmetry_cell_setting 'orthorhombic'
loop_
_space_group_symop_operation_xyz
x,y,z
-x,-y,z
1/2-x,y,z
1/2+x,-y,z
1/2+x,1/2+y,1/2+z
1/2-x,1/2-y,1/2+z
-x,1/2+y,1/2+z
x,1/2-y,1/2+z
loop_
_atom_site_type_symbol
_atom_site_label
_atom_site_fract_x
_atom_site_fract_y
_atom_site_fract_z
Si Si1 0.319056 0.081727 0.989400
Si Si2 0.680932 0.127274 0.416128
Si Si3 0.907018 0.434765 0.132642
Si Si4 0.319056 0.081727 0.275885
Si Si5 0.319068 0.627274 0.349156
Si Si6 0.408577 0.250000 0.382642
Si Si7 0.964374 0.830682 0.632642
O O1 0.250000 0.111282 0.960260
O O2 0.365248 0.149753 0.909937
O O3 0.324859 0.956067 0.960823
O O4 0.329304 0.103267 0.132642
O O5 0.750000 0.118710 0.460482
O O6 0.633993 0.089885 0.516383
O O7 0.670575 0.250000 0.382642
O O8 0.675141 0.043933 0.304462
O O9 0.866007 0.410115 0.248901
O O10 0.928856 0.556811 0.132642
O O11 0.965796 0.360788 0.132642
O O12 0.250000 0.111282 0.305025
O O13 0.365248 0.149753 0.355347
O O14 0.250000 0.618710 0.304803
O O15 0.446311 0.228907 0.506550
O O16 0.446311 0.271093 0.258735
#
# Coordination Sequence:
#
# PCOD9380067 Si02
#       7
#     8   8   8   8   8   8   8
#     4  10  21  37  60  92 128 162 201 252 312 372
#     4  10  22  39  63  91 123 160 205 258 311 366
#     4  11  23  44  61  90 118 168 210 259 297 374
#     4  10  21  37  60  92 128 162 201 252 312 372
#     4  10  22  39  63  91 123 160 205 258 311 366
#     4  12  21  44  60  94 121 172 200 264 304 378
#     4  11  26  40  67  86 131 165 216 250 310 372
#
# _framework density 18.352830000000001
#
# number of rings (size 3 to 8) (size 9 to 14) (size 15 to 20)
#    0.000    1.429    4.286    0.857    4.000    0.000 
#    0.000    0.000    0.000    5.143    0.000    0.000 
#    0.000    0.000    0.000    0.000    0.000    0.000 
#
# Total GULP energy -156285.522183 kJ/mol
# GULP energy per Si atom -5581.625792 kJ/mol
# Density = 1.831106 g / cm^3
# Si number density = 18.352830 Si / 1000 Ang^3
#
#
#
# Elastic Constant Matrix: (Units=GPa)
#
#
# Indices 1 2 3 4 5 6 
#
# 1 65.2748 22.8147 39.8834 0.0000 0.0000 0.0000
# 2 22.8147 80.6879 14.5363 0.0000 0.0000 0.0000
# 3 39.8834 14.5363 96.4793 0.0000 0.0000 0.0000
# 4 0.0000 0.0000 0.0000 23.3848 0.0000 0.0000
# 5 0.0000 0.0000 0.0000 0.0000 31.1110 0.0000
# 6 0.0000 0.0000 0.0000 0.0000 0.0000 17.6096
#
#
#
# Elastic Compliance Matrix: (Units=1/GPa)
#
#
# Indices 1 2 3 4 5 6 
#
# 1 0.022129 -0.004738 -0.008434 0.000000 0.000000 0.000000
# 2 -0.004738 0.013753 -0.000114 0.000000 0.000000 0.000000
# 3 -0.008434 -0.000114 0.013869 0.000000 0.000000 0.000000
# 4 0.000000 0.000000 0.000000 0.042763 0.000000 0.000000
# 5 0.000000 0.000000 0.000000 0.000000 0.032143 0.000000
# 6 0.000000 0.000000 0.000000 0.000000 0.000000 0.056787
#
#
# Mechanical properties :
#
#
# Convention : Reuss Voigt Hill
#
# Bulk Modulus (GPa) = 43.14009 44.10120 43.62064
# Shear Modulus (GPa) = 23.17590 25.43494 24.30542
#
# Velocity S-wave (km/s) = 3.55744 3.72679 3.64310
# Velocity P-wave (km/s) = 6.35852 6.52690 6.44326
#
# Compressibility (1/GPa) = 0.02318030
#
# Stress axis : x y z
#
# Youngs Moduli (GPa) = 45.18959 72.70880 72.10539
#
# Poissons Ratio (x) = 0.34446 0.60814
# Poissons Ratio (y) = 0.21409 0.00820
# Poissons Ratio (z) = 0.38113 0.00827
#
# Static dielectric constant tensor:
#      x y z
#    x 1.609800 0.000000 0.000000 
#    y 0.000000 1.622090 0.000000 
#    z 0.000000 0.000000 1.619760 
# 
# From -- ./inp_files/12378.got.cif
#   From: 2010.05.17/outbox.cif.g08.bks.cpg/sg46_7_cif.got.tgz:12378.got - 2010.06.03 19:58:25.
