data_PCOD9380931
_publ_section_title
;
Structure prediction by ZEFSAII (Michael W. Deem and Ramdas Pophale) SiO2 
 PCOD9380931
Probable space group: I M A 2
;
_chemical_formula_sum "Si O2"
_cell_formula_units_Z 52
_cell_length_a 15.125365
_cell_length_b 8.741169
_cell_length_c 18.859489
_cell_angle_alpha 90.000000
_cell_angle_beta 90.000000
_cell_angle_gamma 90.000000
_cell_volume 2493.476628
_symmetry_space_group_name_H-M "I M A 2"
_symmetry_group_IT_number 46
_symmetry_cell_setting 'orthorhombic'
loop_
_space_group_symop_operation_xyz
x,y,z
-x,-y,z
1/2-x,y,z
1/2+x,-y,z
1/2+x,1/2+y,1/2+z
1/2-x,1/2-y,1/2+z
-x,1/2+y,1/2+z
x,1/2-y,1/2+z
loop_
_atom_site_type_symbol
_atom_site_label
_atom_site_fract_x
_atom_site_fract_y
_atom_site_fract_z
Si Si1 0.591598 0.697858 0.422290
Si Si2 0.479481 0.338904 0.195340
Si Si3 0.750000 0.359581 0.989762
Si Si4 0.348798 0.785056 0.242272
Si Si5 0.383195 0.650732 0.395088
Si Si6 0.908450 0.576626 0.042230
Si Si7 0.349997 0.136340 0.286953
O O1 0.487152 0.685983 0.405842
O O2 0.630379 0.528727 0.411610
O O3 0.606384 0.766784 0.499561
O O4 0.634329 0.820485 0.368492
O O5 0.500000 0.500000 0.232827
O O6 0.574691 0.258727 0.187317
O O7 0.429090 0.381274 0.123597
O O8 0.419865 0.232425 0.243075
O O9 0.826320 0.259356 0.945935
O O10 0.828055 0.462695 0.028722
O O11 0.250000 0.768309 0.212667
O O12 0.358334 0.685175 0.313533
O O13 0.360931 0.958223 0.269778
O O14 0.000000 0.500000 0.015139
O O15 0.250000 0.179354 0.267628
#
# Coordination Sequence:
#
# PCOD9380931 Si02
#       7
#     8   8   4   8   8   8   8
#     4  11  24  43  67 104 146 184 238 314 373 441
#     4  11  25  46  68  97 140 193 240 301 367 444
#     4  12  24  44  74 102 144 190 246 298 372 448
#     4  11  23  43  69 106 140 185 242 306 373 442
#     4  11  23  40  71 107 140 183 242 311 377 434
#     4  11  26  47  70 101 142 196 242 295 366 447
#     4  11  25  41  72 103 142 190 240 302 379 453
#
# _framework density 20.854417999999999
#
# number of rings (size 3 to 8) (size 9 to 14) (size 15 to 20)
#    0.000    0.923    3.846    2.308    5.385    1.846 
#    9.692    0.000    6.769    0.000    0.000    0.000 
#    0.000    0.000    0.000    0.000    0.000    0.000 
#
# Total GULP energy -144870.972011 kJ/mol
# GULP energy per Si atom -5571.960462 kJ/mol
# Density = 2.080695 g / cm^3
# Si number density = 20.854418 Si / 1000 Ang^3
#
#
#
# Elastic Constant Matrix: (Units=GPa)
#
#
# Indices 1 2 3 4 5 6 
#
# 1 152.2969 50.0753 31.1914 0.0000 0.0000 0.0000
# 2 50.0753 71.4438 25.5895 0.0000 0.0000 0.0000
# 3 31.1914 25.5895 50.9024 0.0000 0.0000 0.0000
# 4 0.0000 0.0000 0.0000 31.4822 0.0000 0.0000
# 5 0.0000 0.0000 0.0000 0.0000 17.5551 0.0000
# 6 0.0000 0.0000 0.0000 0.0000 0.0000 35.6523
#
#
#
# Elastic Compliance Matrix: (Units=1/GPa)
#
#
# Indices 1 2 3 4 5 6 
#
# 1 0.008850 -0.005197 -0.002811 0.000000 0.000000 0.000000
# 2 -0.005197 0.020122 -0.006931 0.000000 0.000000 0.000000
# 3 -0.002811 -0.006931 0.024852 0.000000 0.000000 0.000000
# 4 0.000000 0.000000 0.000000 0.031764 0.000000 0.000000
# 5 0.000000 0.000000 0.000000 0.000000 0.056963 0.000000
# 6 0.000000 0.000000 0.000000 0.000000 0.000000 0.028049
#
#
# Mechanical properties :
#
#
# Convention : Reuss Voigt Hill
#
# Bulk Modulus (GPa) = 41.75856 54.26174 48.01015
# Shear Modulus (GPa) = 23.98532 28.12372 26.05452
#
# Velocity S-wave (km/s) = 3.39504 3.67628 3.53845
# Velocity P-wave (km/s) = 5.95279 6.64047 6.30601
#
# Compressibility (1/GPa) = 0.02394718
#
# Stress axis : x y z
#
# Youngs Moduli (GPa) = 112.98889 49.69702 40.23753
#
# Poissons Ratio (x) = 0.25825 0.11310
# Poissons Ratio (y) = 0.58715 0.27890
# Poissons Ratio (z) = 0.31760 0.34447
#
# Static dielectric constant tensor:
#      x y z
#    x 1.756860 0.000000 0.000000 
#    y 0.000000 1.745410 0.000000 
#    z 0.000000 0.000000 1.740440 
# 
# From -- ./inp_files/21980.got.cif
#   From: 2010.05.17/outbox.cif.g08.bks.cpg/sg46_11_cif.got.tgz:21980.got - 2010.06.03 19:58:25.
