data_PCOD9380934
_publ_section_title
;
Structure prediction by ZEFSAII (Michael W. Deem and Ramdas Pophale) SiO2 
 PCOD9380934
Probable space group: I M A 2
;
_chemical_formula_sum "Si O2"
_cell_formula_units_Z 40
_cell_length_a 25.550835
_cell_length_b 5.125960
_cell_length_c 13.257296
_cell_angle_alpha 90.000000
_cell_angle_beta 90.000000
_cell_angle_gamma 90.000000
_cell_volume 1736.341972
_symmetry_space_group_name_H-M "I M A 2"
_symmetry_group_IT_number 46
_symmetry_cell_setting 'orthorhombic'
loop_
_space_group_symop_operation_xyz
x,y,z
-x,-y,z
1/2-x,y,z
1/2+x,-y,z
1/2+x,1/2+y,1/2+z
1/2-x,1/2-y,1/2+z
-x,1/2+y,1/2+z
x,1/2-y,1/2+z
loop_
_atom_site_type_symbol
_atom_site_label
_atom_site_fract_x
_atom_site_fract_y
_atom_site_fract_z
Si Si1 0.859492 0.645815 0.636550
Si Si2 0.651647 0.336515 0.820859
Si Si3 0.604693 0.853588 0.908551
Si Si4 0.250000 0.636707 0.439640
Si Si5 0.250000 0.134185 0.577699
Si Si6 0.466408 0.248685 0.750456
O O1 0.846683 0.388420 0.702047
O O2 0.879438 0.600603 0.523473
O O3 0.804903 0.806801 0.634756
O O4 0.910554 0.758045 0.693214
O O5 0.643545 0.621877 0.870449
O O6 0.701177 0.198016 0.869174
O O7 0.607256 0.134195 0.853484
O O8 0.549106 0.746294 0.869486
O O9 0.250000 0.351335 0.487917
O O10 0.250000 0.847118 0.530343
O O11 0.500000 0.500000 0.723146
O O12 0.500000 0.000000 0.724768
#
# Coordination Sequence:
#
# PCOD9380934 Si02
#       6
#     8   8   8   4   4   8
#     4  11  25  46  75 107 144 193 235 293 359 434
#     4  11  23  41  66 100 143 184 234 285 346 420
#     4  11  24  44  70  99 140 183 235 300 349 412
#     4  12  21  42  65 100 150 192 227 286 345 424
#     4  12  25  42  71 110 148 190 233 282 365 434
#     4  11  26  47  72 106 142 189 247 298 352 419
#
# _framework density 23.036936000000001
#
# number of rings (size 3 to 8) (size 9 to 14) (size 15 to 20)
#    0.000    0.800    4.000    3.000    0.000   11.200 
#    0.000    3.000    0.000    0.000    0.000    0.000 
#    0.000    0.000    0.000    0.000    0.000    0.000 
#
# Total GULP energy -111722.844869 kJ/mol
# GULP energy per Si atom -5586.142243 kJ/mol
# Density = 2.298450 g / cm^3
# Si number density = 23.036936 Si / 1000 Ang^3
#
#
#
# Elastic Constant Matrix: (Units=GPa)
#
#
# Indices 1 2 3 4 5 6 
#
# 1 139.5529 26.0806 27.3005 0.0000 0.0000 0.0000
# 2 26.0806 115.3752 38.8270 0.0000 0.0000 0.0000
# 3 27.3005 38.8270 124.2857 0.0000 0.0000 0.0000
# 4 0.0000 0.0000 0.0000 22.1409 0.0000 0.0000
# 5 0.0000 0.0000 0.0000 0.0000 47.8740 0.0000
# 6 0.0000 0.0000 0.0000 0.0000 0.0000 25.9307
#
#
#
# Elastic Compliance Matrix: (Units=1/GPa)
#
#
# Indices 1 2 3 4 5 6 
#
# 1 0.007659 -0.001302 -0.001276 0.000000 0.000000 0.000000
# 2 -0.001302 0.009907 -0.002809 0.000000 0.000000 0.000000
# 3 -0.001276 -0.002809 0.009204 0.000000 0.000000 0.000000
# 4 0.000000 0.000000 0.000000 0.045165 0.000000 0.000000
# 5 0.000000 0.000000 0.000000 0.000000 0.020888 0.000000
# 6 0.000000 0.000000 0.000000 0.000000 0.000000 0.038564
#
#
# Mechanical properties :
#
#
# Convention : Reuss Voigt Hill
#
# Bulk Modulus (GPa) = 62.51444 62.62556 62.57000
# Shear Modulus (GPa) = 33.90013 38.32284 36.11148
#
# Velocity S-wave (km/s) = 3.84025 4.08307 3.96352
# Velocity P-wave (km/s) = 6.84535 7.03367 6.94015
#
# Compressibility (1/GPa) = 0.01599630
#
# Stress axis : x y z
#
# Youngs Moduli (GPa) = 130.57224 100.93895 108.65211
#
# Poissons Ratio (x) = 0.13142 0.13859
# Poissons Ratio (y) = 0.17000 0.30520
# Poissons Ratio (z) = 0.16655 0.28353
#
# Static dielectric constant tensor:
#      x y z
#    x 1.961230 0.000000 0.000000 
#    y 0.000000 1.833560 0.000000 
#    z 0.000000 0.000000 1.917090 
# 
# From -- ./inp_files/12934.got.cif
#   From: 2010.05.17/outbox.cif.g08.bks.cpg/sg46_7_cif.got.tgz:12934.got - 2010.06.03 19:58:25.
