data_PCOD9380633
_publ_section_title
;
Structure prediction by ZEFSAII (Michael W. Deem and Ramdas Pophale) SiO2 
 PCOD9380633
Probable space group: I M A 2
;
_chemical_formula_sum "Si O2"
_cell_formula_units_Z 56
_cell_length_a 8.687174
_cell_length_b 21.638062
_cell_length_c 15.384218
_cell_angle_alpha 90.000000
_cell_angle_beta 90.000000
_cell_angle_gamma 90.000000
_cell_volume 2891.826989
_symmetry_space_group_name_H-M "I M A 2"
_symmetry_group_IT_number 46
_symmetry_cell_setting 'orthorhombic'
loop_
_space_group_symop_operation_xyz
x,y,z
-x,-y,z
1/2-x,y,z
1/2+x,-y,z
1/2+x,1/2+y,1/2+z
1/2-x,1/2-y,1/2+z
-x,1/2+y,1/2+z
x,1/2-y,1/2+z
loop_
_atom_site_type_symbol
_atom_site_label
_atom_site_fract_x
_atom_site_fract_y
_atom_site_fract_z
Si Si1 0.928239 0.130993 0.457260
Si Si2 0.070392 0.245730 0.001559
Si Si3 0.936287 0.200396 0.186415
Si Si4 0.571494 0.436443 0.277334
Si Si5 0.434545 0.569801 0.771117
Si Si6 0.426554 0.443950 0.092733
Si Si7 0.573129 0.695388 0.315601
O O1 0.750000 0.116626 0.478358
O O2 0.968041 0.096049 0.368176
O O3 0.955351 0.203641 0.459457
O O4 0.047088 0.113241 0.532233
O O5 0.250000 0.265473 0.012845
O O6 0.072910 0.199733 0.919964
O O7 0.006806 0.221111 0.093553
O O8 0.750000 0.202593 0.182618
O O9 0.981715 0.129123 0.211024
O O10 0.990027 0.249577 0.260937
O O11 0.500000 0.500000 0.314168
O O12 0.750000 0.435568 0.296870
O O13 0.538595 0.439927 0.174291
O O14 0.496308 0.371628 0.298979
O O15 0.500000 0.500000 0.757538
O O16 0.250000 0.564625 0.763600
O O17 0.500000 0.500000 0.038132
O O18 0.250000 0.451797 0.117747
O O19 0.750000 0.697476 0.285308
#
# Coordination Sequence:
#
# PCOD9380633 Si02
#       7
#     8   8   8   8   8   8   8
#     4  11  21  37  58  86 121 158 203 255 312 378
#     4  11  24  40  62  92 122 160 207 260 317 376
#     4  11  23  42  65  93 127 168 215 265 321 383
#     4  11  22  38  60  86 119 159 202 251 310 372
#     4  10  23  40  62  90 124 167 214 263 323 382
#     4  11  21  34  52  80 117 155 197 240 297 364
#     4  11  23  41  64  91 124 161 206 258 315 377
#
# _framework density 19.364920999999999
#
# number of rings (size 3 to 8) (size 9 to 14) (size 15 to 20)
#    0.000    1.143    1.429    6.429    0.000    5.143 
#    0.000    0.714    0.000    1.714    0.000    0.000 
#    0.000    0.000    0.000    0.000    0.000    0.000 
#
# Total GULP energy -155950.324119 kJ/mol
# GULP energy per Si atom -5569.654433 kJ/mol
# Density = 1.932085 g / cm^3
# Si number density = 19.364921 Si / 1000 Ang^3
#
#
#
# Elastic Constant Matrix: (Units=GPa)
#
#
# Indices 1 2 3 4 5 6 
#
# 1 66.4792 33.0203 29.7318 0.0000 0.0000 0.0000
# 2 33.0203 137.5748 49.0087 0.0000 0.0000 0.0000
# 3 29.7318 49.0087 87.5320 -0.0001 0.0000 0.0000
# 4 0.0000 0.0000 -0.0001 13.2125 0.0000 0.0000
# 5 0.0000 0.0000 0.0000 0.0000 15.9131 0.0000
# 6 0.0000 0.0000 0.0000 0.0000 0.0000 36.5492
#
#
#
# Elastic Compliance Matrix: (Units=1/GPa)
#
#
# Indices 1 2 3 4 5 6 
#
# 1 0.018537 -0.002756 -0.004753 0.000000 0.000000 0.000000
# 2 -0.002756 0.009489 -0.004377 0.000000 0.000000 0.000000
# 3 -0.004753 -0.004377 0.015490 0.000000 0.000000 0.000000
# 4 0.000000 0.000000 0.000000 0.075686 0.000000 0.000000
# 5 0.000000 0.000000 0.000000 0.000000 0.062841 0.000000
# 6 0.000000 0.000000 0.000000 0.000000 0.000000 0.027360
#
#
# Mechanical properties :
#
#
# Convention : Reuss Voigt Hill
#
# Bulk Modulus (GPa) = 50.64957 57.23417 53.94187
# Shear Modulus (GPa) = 20.85443 25.12332 22.98887
#
# Velocity S-wave (km/s) = 3.28520 3.60580 3.44923
# Velocity P-wave (km/s) = 6.37198 6.85241 6.61656
#
# Compressibility (1/GPa) = 0.01974350
#
# Stress axis : x y z
#
# Youngs Moduli (GPa) = 53.94602 105.37992 64.55926
#
# Poissons Ratio (x) = 0.29041 0.30688
# Poissons Ratio (y) = 0.14867 0.28258
# Poissons Ratio (z) = 0.25643 0.46125
#
# Static dielectric constant tensor:
#      x y z
#    x 1.685630 0.000000 0.000000 
#    y 0.000000 2.547030 0.000000 
#    z 0.000000 0.000000 1.700520 
# 
# From -- ./inp_files/14230.got.cif
#   From: 2010.05.17/outbox.cif.g08.bks.cpg/sg46_8_cif.got.tgz:14230.got - 2010.06.03 19:58:25.
