data_PCOD9380210
_publ_section_title
;
Structure prediction by ZEFSAII (Michael W. Deem and Ramdas Pophale) SiO2 
 PCOD9380210
Probable space group: I M A 2
;
_chemical_formula_sum "Si O2"
_cell_formula_units_Z 48
_cell_length_a 16.034350
_cell_length_b 16.053621
_cell_length_c 8.970053
_cell_angle_alpha 90.000000
_cell_angle_beta 90.000000
_cell_angle_gamma 90.000000
_cell_volume 2308.975762
_symmetry_space_group_name_H-M "I M A 2"
_symmetry_group_IT_number 46
_symmetry_cell_setting 'orthorhombic'
loop_
_space_group_symop_operation_xyz
x,y,z
-x,-y,z
1/2-x,y,z
1/2+x,-y,z
1/2+x,1/2+y,1/2+z
1/2-x,1/2-y,1/2+z
-x,1/2+y,1/2+z
x,1/2-y,1/2+z
loop_
_atom_site_type_symbol
_atom_site_label
_atom_site_fract_x
_atom_site_fract_y
_atom_site_fract_z
Si Si1 0.344107 0.827904 0.891450
Si Si2 0.095693 0.826414 0.568136
Si Si3 0.346016 0.333131 0.616555
Si Si4 0.409347 0.322531 0.937990
Si Si5 0.101267 0.008917 0.589635
Si Si6 0.400025 0.494734 0.437037
O O1 0.250000 0.831930 0.832744
O O2 0.404414 0.821227 0.747983
O O3 0.364568 0.914131 0.974339
O O4 0.354291 0.749423 0.997979
O O5 0.003330 0.819481 0.500473
O O6 0.131670 0.918634 0.535013
O O7 0.250000 0.332254 0.665540
O O8 0.404008 0.321712 0.760507
O O9 0.362313 0.256894 0.504667
O O10 0.366543 0.419847 0.535913
O O11 0.373249 0.410578 0.996828
O O12 0.122927 0.020589 0.763384
O O13 0.000000 0.000000 0.583542
O O14 0.500000 0.500000 0.448118
#
# Coordination Sequence:
#
# PCOD9380210 Si02
#       6
#     8   8   8   8   8   8
#     4  11  22  38  60  92 126 158 196 248 300 348
#     4  10  21  39  62  88 119 161 204 242 291 357
#     4  12  25  40  59  90 123 156 198 253 306 351
#     4  11  22  40  63  86 117 160 204 246 294 360
#     4   8  18  37  62  88 113 148 200 247 286 341
#     4  10  21  40  64  88 118 161 202 240 293 361
#
# _framework density 20.788437999999999
#
# number of rings (size 3 to 8) (size 9 to 14) (size 15 to 20)
#    0.000    1.667    0.000    5.500    0.000    3.333 
#    0.000   10.833    0.000    0.000    0.000    0.000 
#    0.000    0.000    0.000    0.000    0.000    0.000 
#
# Total GULP energy -134146.691952 kJ/mol
# GULP energy per Si atom -5589.445498 kJ/mol
# Density = 2.074112 g / cm^3
# Si number density = 20.788438 Si / 1000 Ang^3
#
#
#
# Elastic Constant Matrix: (Units=GPa)
#
#
# Indices 1 2 3 4 5 6 
#
# 1 47.0030 23.5572 5.7605 0.0000 0.0000 0.0000
# 2 23.5572 182.4428 71.3977 0.0000 0.0000 0.0000
# 3 5.7605 71.3977 77.4441 0.0000 0.0000 0.0000
# 4 0.0000 0.0000 0.0000 36.5035 0.0000 0.0000
# 5 0.0000 0.0000 0.0000 0.0000 19.9474 0.0000
# 6 0.0000 0.0000 0.0000 0.0000 0.0000 -27.0346
#
#
#
# Elastic Compliance Matrix: (Units=1/GPa)
#
#
# Indices 1 2 3 4 5 6 
#
# 1 0.022873 -0.003579 0.001598 0.000000 0.000000 0.000000
# 2 -0.003579 0.009135 -0.008155 0.000000 0.000000 0.000000
# 3 0.001598 -0.008155 0.020312 0.000000 0.000000 0.000000
# 4 0.000000 0.000000 0.000000 0.027395 0.000000 0.000000
# 5 0.000000 0.000000 0.000000 0.000000 0.050132 0.000000
# 6 0.000000 0.000000 0.000000 0.000000 0.000000 -0.036990
#
#
# Mechanical properties :
#
#
# Convention : Reuss Voigt Hill
#
# Bulk Modulus (GPa) = 31.20338 56.48008 43.84173
# Shear Modulus (GPa) = 40.38381 19.62824 30.00602
#
# Velocity S-wave (km/s) = 4.41229 3.07610 3.80333
# Velocity P-wave (km/s) = 6.40314 6.31225 6.35786
#
# Compressibility (1/GPa) = 0.03204781
#
# Stress axis : x y z
#
# Youngs Moduli (GPa) = 43.71969 109.47108 49.23105
#
# Poissons Ratio (x) = 0.39177 -0.07867
# Poissons Ratio (y) = 0.15646 0.40150
# Poissons Ratio (z) = -0.06986 0.89278
#
# Static dielectric constant tensor:
#      x y z
#    x 1.748680 0.000000 0.000000 
#    y 0.000000 1.744210 0.000000 
#    z 0.000000 0.000000 1.707260 
# 
# From -- ./inp_files/5689.got.cif
#   From: 2010.05.17/outbox.cif.g08.bks.cpg/sg46_3_cif.got.tgz:5689.got - 2010.06.03 19:58:25.
