data_PCOD9380326
_publ_section_title
;
Structure prediction by ZEFSAII (Michael W. Deem and Ramdas Pophale) SiO2 
 PCOD9380326
Probable space group: I M A 2
;
_chemical_formula_sum "Si O2"
_cell_formula_units_Z 64
_cell_length_a 21.077015
_cell_length_b 9.098899
_cell_length_c 15.578881
_cell_angle_alpha 90.000000
_cell_angle_beta 90.000000
_cell_angle_gamma 90.000000
_cell_volume 2987.680887
_symmetry_space_group_name_H-M "I M A 2"
_symmetry_group_IT_number 46
_symmetry_cell_setting 'orthorhombic'
loop_
_space_group_symop_operation_xyz
x,y,z
-x,-y,z
1/2-x,y,z
1/2+x,-y,z
1/2+x,1/2+y,1/2+z
1/2-x,1/2-y,1/2+z
-x,1/2+y,1/2+z
x,1/2-y,1/2+z
loop_
_atom_site_type_symbol
_atom_site_label
_atom_site_fract_x
_atom_site_fract_y
_atom_site_fract_z
Si Si1 0.179885 0.298947 0.923720
Si Si2 0.408660 0.697581 0.281286
Si Si3 0.018800 0.668756 0.099544
Si Si4 0.902359 0.808419 0.180190
Si Si5 0.928620 0.517860 0.847364
Si Si6 0.441998 0.607942 0.465133
Si Si7 0.321853 0.069054 0.765698
Si Si8 0.176978 0.453471 0.550939
O O1 0.250000 0.367498 0.913150
O O2 0.122090 0.409034 0.910681
O O3 0.175520 0.169175 0.851911
O O4 0.177543 0.210998 0.012005
O O5 0.442036 0.685055 0.188704
O O6 0.446187 0.630473 0.362956
O O7 0.346545 0.595324 0.278139
O O8 0.401914 0.866012 0.309299
O O9 0.052376 0.740227 0.017543
O O10 0.000000 0.500000 0.089222
O O11 0.956610 0.768521 0.113724
O O12 0.933513 0.871206 0.266498
O O13 0.866914 0.657794 0.202049
O O14 0.853442 0.929420 0.144364
O O15 0.000000 0.500000 0.881101
O O16 0.500000 0.500000 0.488699
O O17 0.374078 0.542680 0.494775
O O18 0.250000 0.070230 0.735058
O O19 0.250000 0.507010 0.549784
#
# Coordination Sequence:
#
# PCOD9380326 Si02
#       8
#     8   8   8   8   8   8   8   8
#     4   9  21  42  66  95 132 177 229 281 337 414
#     4  12  25  41  68 102 141 185 227 283 360 408
#     4  12  25  45  67 102 146 178 228 295 350 415
#     4  11  22  42  67  94 133 179 233 285 341 419
#     4  11  24  38  65  99 139 176 228 285 341 404
#     4  12  27  43  71 105 135 187 239 284 349 420
#     4  10  21  41  67  95 128 178 233 281 344 416
#     4  11  23  43  72  99 134 182 234 292 346 410
#
# _framework density 21.421296000000002
#
# number of rings (size 3 to 8) (size 9 to 14) (size 15 to 20)
#    0.000    1.000    5.000    1.500    1.750    2.500 
#    0.000    1.875    0.000    0.000    0.000    0.000 
#    0.000    0.000    0.000    0.000    0.000    0.000 
#
# Total GULP energy -178801.892343 kJ/mol
# GULP energy per Si atom -5587.559136 kJ/mol
# Density = 2.137254 g / cm^3
# Si number density = 21.421296 Si / 1000 Ang^3
#
#
#
# Elastic Constant Matrix: (Units=GPa)
#
#
# Indices 1 2 3 4 5 6 
#
# 1 125.1025 26.9070 11.2434 0.0000 0.0000 0.0000
# 2 26.9070 71.3366 -15.0500 0.0000 0.0000 0.0000
# 3 11.2434 -15.0500 55.3595 0.0000 0.0000 0.0000
# 4 0.0000 0.0000 0.0000 24.9862 0.0000 0.0000
# 5 0.0000 0.0000 0.0000 0.0000 17.4918 0.0000
# 6 0.0000 0.0000 0.0000 0.0000 0.0000 32.7272
#
#
#
# Elastic Compliance Matrix: (Units=1/GPa)
#
#
# Indices 1 2 3 4 5 6 
#
# 1 0.009135 -0.004071 -0.002962 0.000000 0.000000 0.000000
# 2 -0.004071 0.016685 0.005363 0.000000 0.000000 0.000000
# 3 -0.002962 0.005363 0.020123 0.000000 0.000000 0.000000
# 4 0.000000 0.000000 0.000000 0.040022 0.000000 0.000000
# 5 0.000000 0.000000 0.000000 0.000000 0.057170 0.000000
# 6 0.000000 0.000000 0.000000 0.000000 0.000000 0.030556
#
#
# Mechanical properties :
#
#
# Convention : Reuss Voigt Hill
#
# Bulk Modulus (GPa) = 23.47234 33.11107 28.29170
# Shear Modulus (GPa) = 26.14635 30.28758 28.21696
#
# Velocity S-wave (km/s) = 3.49747 3.76427 3.63332
# Velocity P-wave (km/s) = 5.22408 5.86375 5.55313
#
# Compressibility (1/GPa) = 0.04260334
#
# Stress axis : x y z
#
# Youngs Moduli (GPa) = 109.46756 59.93505 49.69398
#
# Poissons Ratio (x) = 0.24397 0.14719
# Poissons Ratio (y) = 0.44559 -0.26649
# Poissons Ratio (z) = 0.32423 -0.32141
#
# Static dielectric constant tensor:
#      x y z
#    x 1.777830 0.000000 0.000000 
#    y 0.000000 1.759400 0.000000 
#    z 0.000000 0.000000 1.808730 
# 
# From -- ./inp_files/20212.got.cif
#   From: 2010.05.17/outbox.cif.g08.bks.cpg/sg46_11_cif.got.tgz:20212.got - 2010.06.03 19:58:25.
