data_PCOD9380438
_publ_section_title
;
Structure prediction by ZEFSAII (Michael W. Deem and Ramdas Pophale) SiO2 
 PCOD9380438
Probable space group: I M A 2
;
_chemical_formula_sum "Si O2"
_cell_formula_units_Z 48
_cell_length_a 15.550485
_cell_length_b 20.016964
_cell_length_c 5.552913
_cell_angle_alpha 90.000000
_cell_angle_beta 90.000000
_cell_angle_gamma 90.000000
_cell_volume 1728.474656
_symmetry_space_group_name_H-M "I M A 2"
_symmetry_group_IT_number 46
_symmetry_cell_setting 'orthorhombic'
loop_
_space_group_symop_operation_xyz
x,y,z
-x,-y,z
1/2-x,y,z
1/2+x,-y,z
1/2+x,1/2+y,1/2+z
1/2-x,1/2-y,1/2+z
-x,1/2+y,1/2+z
x,1/2-y,1/2+z
loop_
_atom_site_type_symbol
_atom_site_label
_atom_site_fract_x
_atom_site_fract_y
_atom_site_fract_z
Si Si1 0.483195 0.091352 0.483240
Si Si2 0.648462 0.135260 0.276894
Si Si3 0.155341 0.001824 0.741296
Si Si4 0.349296 0.660108 0.282838
Si Si5 0.059062 0.207964 0.788696
Si Si6 0.157088 0.383058 0.596061
O O1 0.572503 0.082035 0.337565
O O2 0.424476 0.033649 0.599272
O O3 0.500213 0.144188 0.704389
O O4 0.418240 0.123411 0.288497
O O5 0.750000 0.113329 0.265403
O O6 0.641273 0.182144 0.508173
O O7 0.614819 0.174183 0.046273
O O8 0.250000 0.015786 0.630629
O O9 0.150917 0.922606 0.778812
O O10 0.154318 0.041832 0.992683
O O11 0.250000 0.680119 0.325486
O O12 0.053266 0.249398 0.040553
O O13 0.143360 0.164593 0.862865
O O14 0.250000 0.368187 0.703113
#
# Coordination Sequence:
#
# PCOD9380438 Si02
#       6
#     8   8   8   8   8   8
#     4  11  23  39  66  92 126 165 213 263 319 378
#     4  10  23  41  63  91 124 165 214 265 318 367
#     4   9  20  37  57  87 128 170 207 252 308 366
#     4   9  20  39  60  85 124 167 210 259 307 364
#     4  11  23  43  63  91 121 158 198 254 312 378
#     4  10  22  39  60  90 128 168 207 248 305 375
#
# _framework density 27.770152
#
# number of rings (size 3 to 8) (size 9 to 14) (size 15 to 20)
#    0.000    2.000    1.667    0.500    7.000    2.000 
#    0.000    0.000    0.000    1.000    0.000    0.000 
#    0.000    0.000    0.000    0.000    0.000    0.000 
#
# Total GULP energy -133667.250071 kJ/mol
# GULP energy per Si atom -5569.468753 kJ/mol
# Density = 2.770695 g / cm^3
# Si number density = 27.770152 Si / 1000 Ang^3
#
#
#
# Elastic Constant Matrix: (Units=GPa)
#
#
# Indices 1 2 3 4 5 6 
#
# 1 180.8179 50.3297 53.5384 0.0000 0.0000 0.0000
# 2 50.3297 121.8066 34.1089 0.0000 0.0000 0.0000
# 3 53.5384 34.1089 230.3498 0.0000 0.0000 0.0000
# 4 0.0000 0.0000 0.0000 15.9974 0.0000 0.0000
# 5 0.0000 0.0000 0.0000 0.0000 52.8266 0.0000
# 6 0.0000 0.0000 0.0000 0.0000 0.0000 32.9480
#
#
#
# Elastic Compliance Matrix: (Units=1/GPa)
#
#
# Indices 1 2 3 4 5 6 
#
# 1 0.006537 -0.002374 -0.001168 0.000000 0.000000 0.000000
# 2 -0.002374 0.009427 -0.000844 0.000000 0.000000 0.000000
# 3 -0.001168 -0.000844 0.004738 0.000000 0.000000 0.000000
# 4 0.000000 0.000000 0.000000 0.062510 0.000000 0.000000
# 5 0.000000 0.000000 0.000000 0.000000 0.018930 0.000000
# 6 0.000000 0.000000 0.000000 0.000000 0.000000 0.030351
#
#
# Mechanical properties :
#
#
# Convention : Reuss Voigt Hill
#
# Bulk Modulus (GPa) = 83.82402 89.88093 86.85247
# Shear Modulus (GPa) = 34.42553 46.68755 40.55654
#
# Velocity S-wave (km/s) = 3.52470 4.10471 3.82571
# Velocity P-wave (km/s) = 6.84216 7.40953 7.13149
#
# Compressibility (1/GPa) = 0.01192975
#
# Stress axis : x y z
#
# Youngs Moduli (GPa) = 152.97532 106.07773 211.07547
#
# Poissons Ratio (x) = 0.25183 0.24650
# Poissons Ratio (y) = 0.36317 0.17817
# Poissons Ratio (z) = 0.17865 0.08954
#
# Static dielectric constant tensor:
#      x y z
#    x 11.559680 0.000000 0.000000 
#    y 0.000000 2.310300 0.000000 
#    z 0.000000 0.000000 2.226960 
# 
# From -- ./inp_files/1325.got.cif
#   From: 2010.05.17/outbox.cif.g08.bks.cpg/sg46_1_cif.got.tgz:1325.got - 2010.06.03 19:58:25.
