data_PCOD9380903
_publ_section_title
;
Structure prediction by ZEFSAII (Michael W. Deem and Ramdas Pophale) SiO2 
 PCOD9380903
Probable space group: I M A 2
;
_chemical_formula_sum "Si O2"
_cell_formula_units_Z 48
_cell_length_a 14.913673
_cell_length_b 11.841445
_cell_length_c 14.675561
_cell_angle_alpha 90.000000
_cell_angle_beta 90.000000
_cell_angle_gamma 90.000000
_cell_volume 2591.695833
_symmetry_space_group_name_H-M "I M A 2"
_symmetry_group_IT_number 46
_symmetry_cell_setting 'orthorhombic'
loop_
_space_group_symop_operation_xyz
x,y,z
-x,-y,z
1/2-x,y,z
1/2+x,-y,z
1/2+x,1/2+y,1/2+z
1/2-x,1/2-y,1/2+z
-x,1/2+y,1/2+z
x,1/2-y,1/2+z
loop_
_atom_site_type_symbol
_atom_site_label
_atom_site_fract_x
_atom_site_fract_y
_atom_site_fract_z
Si Si1 0.000000 0.500000 0.861270
Si Si2 0.921510 0.593203 0.275669
Si Si3 0.643924 0.748830 0.118020
Si Si4 0.025454 0.242786 0.440643
Si Si5 0.250000 0.492359 0.386252
Si Si6 0.910256 0.424573 0.517916
Si Si7 0.354742 0.496837 0.706693
O O1 0.011837 0.387529 0.919241
O O2 0.085276 0.513177 0.794941
O O3 0.903811 0.654684 0.179658
O O4 0.947498 0.689931 0.349348
O O5 0.829681 0.539094 0.312421
O O6 0.000000 0.500000 0.271706
O O7 0.750000 0.727110 0.111509
O O8 0.632566 0.869708 0.167931
O O9 0.600936 0.756437 0.018225
O O10 0.936605 0.302811 0.479343
O O11 0.171451 0.522662 0.462558
O O12 0.887482 0.423807 0.624484
O O13 0.000000 0.500000 0.504993
O O14 0.250000 0.513647 0.725013
#
# Coordination Sequence:
#
# PCOD9380903 Si02
#       7
#     4   8   8   8   4   8   8
#     4  12  26  44  62  90 142 178 206 266 336 396
#     4  12  24  42  67 101 133 173 222 280 333 395
#     4  11  24  40  70  97 131 168 220 276 332 389
#     4  12  25  42  64  95 133 176 216 268 327 400
#     4  12  20  38  68 104 126 164 220 284 334 378
#     4  12  21  39  68  99 126 165 224 276 322 384
#     4  11  22  41  67  98 123 166 218 274 324 387
#
# _framework density 18.520690999999999
#
# number of rings (size 3 to 8) (size 9 to 14) (size 15 to 20)
#    0.000    0.333    9.167    0.000    4.667    0.667 
#    1.500    0.000    0.000    3.000    0.000    0.000 
#    0.000    0.000    0.000    0.000    0.000    0.000 
#
# Total GULP energy -133668.258928 kJ/mol
# GULP energy per Si atom -5569.510789 kJ/mol
# Density = 1.847854 g / cm^3
# Si number density = 18.520691 Si / 1000 Ang^3
#
#
#
# Elastic Constant Matrix: (Units=GPa)
#
#
# Indices 1 2 3 4 5 6 
#
# 1 135.4858 37.1617 25.9228 0.0000 0.0000 0.0000
# 2 37.1617 51.5048 35.8354 0.0000 0.0000 0.0000
# 3 25.9228 35.8354 63.9593 0.0000 0.0000 0.0000
# 4 0.0000 0.0000 0.0000 21.5156 0.0000 0.0000
# 5 0.0000 0.0000 0.0000 0.0000 19.6345 0.0000
# 6 0.0000 0.0000 0.0000 0.0000 0.0000 13.8655
#
#
#
# Elastic Compliance Matrix: (Units=1/GPa)
#
#
# Indices 1 2 3 4 5 6 
#
# 1 0.009202 -0.006628 -0.000016 0.000000 0.000000 0.000000
# 2 -0.006628 0.036595 -0.017817 0.000000 0.000000 0.000000
# 3 -0.000016 -0.017817 0.025624 0.000000 0.000000 0.000000
# 4 0.000000 0.000000 0.000000 0.046478 0.000000 0.000000
# 5 0.000000 0.000000 0.000000 0.000000 0.050931 0.000000
# 6 0.000000 0.000000 0.000000 0.000000 0.000000 0.072121
#
#
# Mechanical properties :
#
#
# Convention : Reuss Voigt Hill
#
# Bulk Modulus (GPa) = 44.44784 49.86554 47.15669
# Shear Modulus (GPa) = 16.81398 21.13846 18.97622
#
# Velocity S-wave (km/s) = 3.01632 3.38204 3.20440
# Velocity P-wave (km/s) = 6.01515 6.49874 6.26162
#
# Compressibility (1/GPa) = 0.02249828
#
# Stress axis : x y z
#
# Youngs Moduli (GPa) = 108.67273 27.32651 39.02624
#
# Poissons Ratio (x) = 0.18113 0.00062
# Poissons Ratio (y) = 0.72033 0.69532
# Poissons Ratio (z) = 0.00172 0.48687
#
# Static dielectric constant tensor:
#      x y z
#    x 1.619850 0.000000 0.000000 
#    y 0.000000 1.658520 0.000000 
#    z 0.000000 0.000000 1.637100 
# 
# From -- ./inp_files/15883.got.cif
#   From: 2010.05.17/outbox.cif.g08.bks.cpg/sg46_8_cif.got.tgz:15883.got - 2010.06.03 19:58:25.
