data_PCOD9380652
_publ_section_title
;
Structure prediction by ZEFSAII (Michael W. Deem and Ramdas Pophale) SiO2 
 PCOD9380652
Probable space group: I M A 2
;
_chemical_formula_sum "Si O2"
_cell_formula_units_Z 44
_cell_length_a 23.985986
_cell_length_b 5.220900
_cell_length_c 15.547283
_cell_angle_alpha 90.000000
_cell_angle_beta 90.000000
_cell_angle_gamma 90.000000
_cell_volume 1946.961908
_symmetry_space_group_name_H-M "I M A 2"
_symmetry_group_IT_number 46
_symmetry_cell_setting 'orthorhombic'
loop_
_space_group_symop_operation_xyz
x,y,z
-x,-y,z
1/2-x,y,z
1/2+x,-y,z
1/2+x,1/2+y,1/2+z
1/2-x,1/2-y,1/2+z
-x,1/2+y,1/2+z
x,1/2-y,1/2+z
loop_
_atom_site_type_symbol
_atom_site_label
_atom_site_fract_x
_atom_site_fract_y
_atom_site_fract_z
Si Si1 0.000000 0.000000 0.680820
Si Si2 0.367648 0.810059 0.460766
Si Si3 0.811860 0.688042 0.509662
Si Si4 0.981676 0.251199 0.017126
Si Si5 0.316159 0.138796 0.213590
Si Si6 0.116574 0.865732 0.770496
O O1 0.012586 0.221371 0.609056
O O2 0.055468 0.925631 0.731552
O O3 0.320276 0.605963 0.483243
O O4 0.416286 0.760389 0.529621
O O5 0.389890 0.724038 0.368655
O O6 0.352048 0.106368 0.465532
O O7 0.750000 0.771097 0.486179
O O8 0.818771 0.704287 0.612200
O O9 0.000000 0.500000 0.965670
O O10 0.000000 0.000000 0.970909
O O11 0.250000 0.114973 0.236722
O O12 0.346268 0.375939 0.261492
O O13 0.349062 0.872201 0.228675
#
# Coordination Sequence:
#
# PCOD9380652 Si02
#       6
#     4   8   8   8   8   8
#     4  10  26  44  68  98 134 178 230 274 340 414
#     4  12  25  43  66 102 139 174 224 283 346 403
#     4  11  24  44  71  97 131 181 232 277 331 413
#     4  10  23  41  68  91 122 182 218 274 316 406
#     4  11  25  47  72 100 137 186 238 284 340 413
#     4  12  27  42  70 106 143 180 222 296 354 408
#
# _framework density 22.599312999999999
#
# number of rings (size 3 to 8) (size 9 to 14) (size 15 to 20)
#    0.545    0.364    0.000    6.545    6.364    7.273 
#    0.000    0.000    0.000    0.000    0.000    0.000 
#    0.000    0.000    0.000    0.000    0.000    0.000 
#
# Total GULP energy -122846.448718 kJ/mol
# GULP energy per Si atom -5583.929487 kJ/mol
# Density = 2.254788 g / cm^3
# Si number density = 22.599313 Si / 1000 Ang^3
#
#
#
# Elastic Constant Matrix: (Units=GPa)
#
#
# Indices 1 2 3 4 5 6 
#
# 1 137.9850 58.3340 28.5414 0.0000 0.0000 0.0000
# 2 58.3340 156.3591 9.9548 0.0000 0.0000 0.0000
# 3 28.5414 9.9548 70.8402 0.0000 0.0000 0.0000
# 4 0.0000 0.0000 0.0000 -2.2524 0.0000 0.0000
# 5 0.0000 0.0000 0.0000 0.0000 3.1442 0.0000
# 6 0.0000 0.0000 0.0000 0.0000 0.0000 37.7811
#
#
#
# Elastic Compliance Matrix: (Units=1/GPa)
#
#
# Indices 1 2 3 4 5 6 
#
# 1 0.009307 -0.003263 -0.003291 0.000000 0.000000 0.000000
# 2 -0.003263 0.007597 0.000247 0.000000 0.000000 0.000000
# 3 -0.003291 0.000247 0.015408 0.000000 0.000000 0.000000
# 4 0.000000 0.000000 0.000000 -0.443973 0.000000 0.000000
# 5 0.000000 0.000000 0.000000 0.000000 0.318050 0.000000
# 6 0.000000 0.000000 0.000000 0.000000 0.000000 0.026468
#
#
# Mechanical properties :
#
#
# Convention : Reuss Voigt Hill
#
# Bulk Modulus (GPa) = 50.76741 62.09385 56.43063
# Shear Modulus (GPa) = -104.24994 25.62486 -39.31254
#
# Velocity S-wave (km/s) = -6.79925 3.37096 -4.17531
# Velocity P-wave (km/s) = 6.25515 6.53352 1.33416
#
# Compressibility (1/GPa) = 0.01969768
#
# Stress axis : x y z
#
# Youngs Moduli (GPa) = 107.44203 131.62936 64.90273
#
# Poissons Ratio (x) = 0.42948 0.21362
# Poissons Ratio (y) = 0.35056 -0.01603
# Poissons Ratio (z) = 0.35364 -0.03251
#
# Static dielectric constant tensor:
#      x y z
#    x 1.879500 0.000000 0.000000 
#    y 0.000000 1.871590 0.000000 
#    z 0.000000 0.000000 1.834890 
# 
# From -- ./inp_files/20318.got.cif
#   From: 2010.05.17/outbox.cif.g08.bks.cpg/sg46_11_cif.got.tgz:20318.got - 2010.06.03 19:58:25.
