data_PCOD9380144
_publ_section_title
;
Structure prediction by ZEFSAII (Michael W. Deem and Ramdas Pophale) SiO2 
 PCOD9380144
Probable space group: I M A 2
;
_chemical_formula_sum "Si O2"
_cell_formula_units_Z 64
_cell_length_a 18.424220
_cell_length_b 5.829012
_cell_length_c 26.951457
_cell_angle_alpha 90.000000
_cell_angle_beta 90.000000
_cell_angle_gamma 90.000000
_cell_volume 2894.451710
_symmetry_space_group_name_H-M "I M A 2"
_symmetry_group_IT_number 46
_symmetry_cell_setting 'orthorhombic'
loop_
_space_group_symop_operation_xyz
x,y,z
-x,-y,z
1/2-x,y,z
1/2+x,-y,z
1/2+x,1/2+y,1/2+z
1/2-x,1/2-y,1/2+z
-x,1/2+y,1/2+z
x,1/2-y,1/2+z
loop_
_atom_site_type_symbol
_atom_site_label
_atom_site_fract_x
_atom_site_fract_y
_atom_site_fract_z
Si Si1 0.413605 0.005566 0.487320
Si Si2 0.162268 0.679441 0.082996
Si Si3 0.578354 0.618779 0.424233
Si Si4 0.077101 0.016617 0.220438
Si Si5 0.934281 0.817103 0.815502
Si Si6 0.834335 0.196724 0.783838
Si Si7 0.665884 0.300774 0.894170
Si Si8 0.662965 0.819163 0.131183
O O1 0.373498 0.866626 0.529551
O O2 0.398048 0.273028 0.476704
O O3 0.500000 0.000000 0.492650
O O4 0.385543 0.916533 0.434396
O O5 0.250000 0.680873 0.079880
O O6 0.141665 0.435755 0.110610
O O7 0.141166 0.933040 0.104940
O O8 0.500000 0.500000 0.432996
O O9 0.563251 0.758079 0.372670
O O10 0.643825 0.460475 0.405598
O O11 0.057965 0.141372 0.271570
O O12 0.131403 0.157039 0.186193
O O13 0.117360 0.787071 0.238581
O O14 0.000000 0.000000 0.192962
O O15 0.860530 0.948044 0.800643
O O16 0.000000 0.000000 0.811826
O O17 0.750000 0.206619 0.771078
O O18 0.845662 0.340104 0.835350
O O19 0.750000 0.350425 0.904567
O O20 0.750000 0.821046 0.130943
#
# Coordination Sequence:
#
# PCOD9380144 Si02
#       8
#     8   8   8   8   8   8   8   8
#     4  12  24  38  66  97 130 171 222 273 341 409
#     4  10  25  48  71  97 132 175 225 287 352 412
#     4  10  21  38  61  93 135 178 220 271 334 402
#     4  12  24  38  66  97 130 171 222 273 341 409
#     4  10  21  38  61  93 135 178 220 271 334 402
#     4  10  22  39  60  92 133 174 219 269 323 394
#     4  10  22  39  60  92 133 174 219 269 323 394
#     4  10  25  48  71  97 132 175 225 287 352 412
#
# _framework density 22.111269
#
# number of rings (size 3 to 8) (size 9 to 14) (size 15 to 20)
#    0.000    1.500    2.500    1.500    3.500    4.000 
#    0.000    2.500    0.000    0.000    0.000    0.000 
#    0.000    0.000    0.000    0.000    0.000    0.000 
#
# Total GULP energy -178178.443219 kJ/mol
# GULP energy per Si atom -5568.076351 kJ/mol
# Density = 2.206094 g / cm^3
# Si number density = 22.111269 Si / 1000 Ang^3
#
#
#
# Elastic Constant Matrix: (Units=GPa)
#
#
# Indices 1 2 3 4 5 6 
#
# 1 38.7406 22.2962 17.6319 0.0000 0.0000 0.0000
# 2 22.2962 67.4517 27.2331 0.0000 0.0000 0.0000
# 3 17.6319 27.2331 55.2545 0.0000 0.0000 0.0000
# 4 0.0000 0.0000 0.0000 13.1717 0.0000 0.0000
# 5 0.0000 0.0000 0.0000 0.0000 26.2235 0.0000
# 6 0.0000 0.0000 0.0000 0.0000 0.0000 3.0580
#
#
#
# Elastic Compliance Matrix: (Units=1/GPa)
#
#
# Indices 1 2 3 4 5 6 
#
# 1 0.033684 -0.008482 -0.006568 0.000000 0.000000 0.000000
# 2 -0.008482 0.020645 -0.007468 0.000000 0.000000 0.000000
# 3 -0.006568 -0.007468 0.023875 0.000000 0.000000 0.000000
# 4 0.000000 0.000000 0.000000 0.075920 0.000000 0.000000
# 5 0.000000 0.000000 0.000000 0.000000 0.038134 0.000000
# 6 0.000000 0.000000 0.000000 0.000000 0.000000 0.327009
#
#
# Mechanical properties :
#
#
# Convention : Reuss Voigt Hill
#
# Bulk Modulus (GPa) = 30.15141 32.86325 31.50733
# Shear Modulus (GPa) = 8.69023 14.77636 11.73330
#
# Velocity S-wave (km/s) = 1.98463 2.58790 2.30608
# Velocity P-wave (km/s) = 4.34943 4.88104 4.62288
#
# Compressibility (1/GPa) = 0.03316595
#
# Stress axis : x y z
#
# Youngs Moduli (GPa) = 29.68780 48.43900 41.88529
#
# Poissons Ratio (x) = 0.41088 0.27510
# Poissons Ratio (y) = 0.25183 0.31281
# Poissons Ratio (z) = 0.19499 0.36175
#
# Static dielectric constant tensor:
#      x y z
#    x 1.840130 0.000000 0.000000 
#    y 0.000000 1.775040 0.000000 
#    z 0.000000 0.000000 1.792070 
# 
# From -- ./inp_files/24725.got.cif
#   From: 2010.05.17/outbox.cif.g08.bks.cpg/sg46_13_cif.got.tgz:24725.got - 2010.06.03 19:58:25.
