data_PCOD9380319
_publ_section_title
;
Structure prediction by ZEFSAII (Michael W. Deem and Ramdas Pophale) SiO2 
 PCOD9380319
Probable space group: I M A 2
;
_chemical_formula_sum "Si O2"
_cell_formula_units_Z 32
_cell_length_a 14.955364
_cell_length_b 11.504953
_cell_length_c 8.873660
_cell_angle_alpha 90.000000
_cell_angle_beta 90.000000
_cell_angle_gamma 90.000000
_cell_volume 1526.808683
_symmetry_space_group_name_H-M "I M A 2"
_symmetry_group_IT_number 46
_symmetry_cell_setting 'orthorhombic'
loop_
_space_group_symop_operation_xyz
x,y,z
-x,-y,z
1/2-x,y,z
1/2+x,-y,z
1/2+x,1/2+y,1/2+z
1/2-x,1/2-y,1/2+z
-x,1/2+y,1/2+z
x,1/2-y,1/2+z
loop_
_atom_site_type_symbol
_atom_site_label
_atom_site_fract_x
_atom_site_fract_y
_atom_site_fract_z
Si Si1 0.648149 0.877737 0.343390
Si Si2 0.250000 0.601322 0.795207
Si Si3 0.750000 0.352185 0.441430
Si Si4 0.444314 0.608796 0.392995
Si Si5 0.464150 0.275119 0.112908
O O1 0.750000 0.829463 0.344402
O O2 0.594065 0.819005 0.206826
O O3 0.598563 0.844865 0.497325
O O4 0.665325 0.015906 0.325316
O O5 0.250000 0.635499 0.620918
O O6 0.250000 0.717603 0.891949
O O7 0.660455 0.411666 0.379808
O O8 0.500000 0.500000 0.450704
O O9 0.487951 0.645589 0.235709
O O10 0.461845 0.711327 0.511725
#
# Coordination Sequence:
#
# PCOD9380319 Si02
#       5
#     8   4   4   8   8
#     4   9  20  39  66 101 130 177 213 275 324 378
#     4  10  24  38  68  96 132 180 214 266 326 394
#     4  12  24  46  62  96 134 176 224 264 336 388
#     4  11  25  43  67  96 129 178 213 279 320 395
#     4  10  21  41  65  97 133 166 231 264 321 391
#
# _framework density 20.958749000000001
#
# number of rings (size 3 to 8) (size 9 to 14) (size 15 to 20)
#    0.750    1.000    0.000    3.750    0.000    4.000 
#   11.250    5.000    0.000    0.000    0.000    0.000 
#    0.000    0.000    0.000    0.000    0.000    0.000 
#
# Total GULP energy -89413.608436 kJ/mol
# GULP energy per Si atom -5588.350527 kJ/mol
# Density = 2.091105 g / cm^3
# Si number density = 20.958749 Si / 1000 Ang^3
#
#
#
# Elastic Constant Matrix: (Units=GPa)
#
#
# Indices 1 2 3 4 5 6 
#
# 1 142.4337 22.6583 23.1411 0.0000 0.0000 0.0000
# 2 22.6583 74.2651 19.9844 0.0000 0.0000 0.0000
# 3 23.1411 19.9844 106.5730 0.0000 0.0000 0.0000
# 4 0.0000 0.0000 0.0000 -63.0489 0.0000 0.0000
# 5 0.0000 0.0000 0.0000 0.0000 -17.9431 0.0000
# 6 0.0000 0.0000 0.0000 0.0000 0.0000 -2.3260
#
#
#
# Elastic Compliance Matrix: (Units=1/GPa)
#
#
# Indices 1 2 3 4 5 6 
#
# 1 0.007539 -0.001958 -0.001270 0.000000 0.000000 0.000000
# 2 -0.001958 0.014690 -0.002329 0.000000 0.000000 0.000000
# 3 -0.001270 -0.002329 0.010096 0.000000 0.000000 0.000000
# 4 0.000000 0.000000 0.000000 -0.015861 0.000000 0.000000
# 5 0.000000 0.000000 0.000000 0.000000 -0.055732 0.000000
# 6 0.000000 0.000000 0.000000 0.000000 0.000000 -0.429917
#
#
# Mechanical properties :
#
#
# Convention : Reuss Voigt Hill
#
# Bulk Modulus (GPa) = 47.14944 50.53771 48.84357
# Shear Modulus (GPa) = -11.08644 0.50226 -5.29209
#
# Velocity S-wave (km/s) = -2.30242 0.49006 -1.59075
# Velocity P-wave (km/s) = 3.93408 4.94828 4.47004
#
# Compressibility (1/GPa) = 0.02120916
#
# Stress axis : x y z
#
# Youngs Moduli (GPa) = 132.65007 68.07548 99.05181
#
# Poissons Ratio (x) = 0.13332 0.12577
# Poissons Ratio (y) = 0.25978 0.23072
# Poissons Ratio (z) = 0.16843 0.15857
#
# Static dielectric constant tensor:
#      x y z
#    x 1.757680 0.000000 0.000000 
#    y 0.000000 1.935880 0.000000 
#    z 0.000000 0.000000 1.697740 
# 
# From -- ./inp_files/4295.got.cif
#   From: 2010.05.17/outbox.cif.g08.bks.cpg/sg46_3_cif.got.tgz:4295.got - 2010.06.03 19:58:25.
