data_PCOD9380948
_publ_section_title
;
Structure prediction by ZEFSAII (Michael W. Deem and Ramdas Pophale) SiO2 
 PCOD9380948
Probable space group: I M A 2
;
_chemical_formula_sum "Si O2"
_cell_formula_units_Z 40
_cell_length_a 13.325760
_cell_length_b 14.620436
_cell_length_c 9.204625
_cell_angle_alpha 90.000000
_cell_angle_beta 90.000000
_cell_angle_gamma 90.000000
_cell_volume 1793.322557
_symmetry_space_group_name_H-M "I M A 2"
_symmetry_group_IT_number 46
_symmetry_cell_setting 'orthorhombic'
loop_
_space_group_symop_operation_xyz
x,y,z
-x,-y,z
1/2-x,y,z
1/2+x,-y,z
1/2+x,1/2+y,1/2+z
1/2-x,1/2-y,1/2+z
-x,1/2+y,1/2+z
x,1/2-y,1/2+z
loop_
_atom_site_type_symbol
_atom_site_label
_atom_site_fract_x
_atom_site_fract_y
_atom_site_fract_z
Si Si1 0.250000 0.663174 0.240500
Si Si2 0.358240 0.109560 0.478840
Si Si3 0.640070 0.822062 0.912944
Si Si4 0.977476 0.403319 0.217023
Si Si5 0.613268 0.974056 0.161236
Si Si6 0.250000 0.858718 0.084757
O O1 0.140983 0.617561 0.199824
O O2 0.250000 0.765026 0.174123
O O3 0.250000 0.664937 0.415067
O O4 0.250000 0.079229 0.542933
O O5 0.358715 0.219207 0.470070
O O6 0.457266 0.087787 0.570196
O O7 0.360303 0.066502 0.318645
O O8 0.750000 0.835920 0.839465
O O9 0.542076 0.831804 0.811840
O O10 0.635407 0.896631 0.041281
O O11 0.000000 0.500000 0.294862
O O12 0.500000 0.000000 0.165222
O O13 0.661560 0.071570 0.122756
#
# Coordination Sequence:
#
# PCOD9380948 Si02
#       6
#     4   8   8   8   8   4
#     4  12  32  50  76 116 152 220 258 336 409 473
#     4  11  25  46  73 111 148 195 264 323 384 454
#     4  11  23  45  76 106 147 198 260 318 387 457
#     4  12  28  47  75 104 151 195 258 322 391 468
#     4  12  25  46  76 111 151 208 252 325 401 477
#     4  12  28  52  76 110 164 200 270 326 399 495
#
# _framework density 22.304967000000001
#
# number of rings (size 3 to 8) (size 9 to 14) (size 15 to 20)
#    0.000    0.400    2.000    5.400   11.200    4.800 
#    0.000    0.000    0.000    0.000    0.000    0.000 
#    0.000    0.000    0.000    0.000    0.000    0.000 
#
# Total GULP energy -111698.670238 kJ/mol
# GULP energy per Si atom -5584.933512 kJ/mol
# Density = 2.225420 g / cm^3
# Si number density = 22.304967 Si / 1000 Ang^3
#
#
#
# Elastic Constant Matrix: (Units=GPa)
#
#
# Indices 1 2 3 4 5 6 
#
# 1 244.0807 69.2292 59.9086 0.0000 0.0000 0.0000
# 2 69.2292 133.8611 42.0894 0.0000 0.0000 0.0000
# 3 59.9086 42.0894 123.6933 0.0000 0.0000 0.0000
# 4 0.0000 0.0000 0.0000 35.5236 0.0000 0.0000
# 5 0.0000 0.0000 0.0000 0.0000 35.2398 0.0000
# 6 0.0000 0.0000 0.0000 0.0000 0.0000 42.7859
#
#
#
# Elastic Compliance Matrix: (Units=1/GPa)
#
#
# Indices 1 2 3 4 5 6 
#
# 1 0.005125 -0.002094 -0.001770 0.000000 0.000000 0.000000
# 2 -0.002094 0.009221 -0.002123 0.000000 0.000000 0.000000
# 3 -0.001770 -0.002123 0.009664 0.000000 0.000000 0.000000
# 4 0.000000 0.000000 0.000000 0.028150 0.000000 0.000000
# 5 0.000000 0.000000 0.000000 0.000000 0.028377 0.000000
# 6 0.000000 0.000000 0.000000 0.000000 0.000000 0.023372
#
#
# Mechanical properties :
#
#
# Convention : Reuss Voigt Hill
#
# Bulk Modulus (GPa) = 83.08459 93.78771 88.43615
# Shear Modulus (GPa) = 41.70243 44.73705 43.21974
#
# Velocity S-wave (km/s) = 4.32863 4.48336 4.40668
# Velocity P-wave (km/s) = 7.89386 8.30301 8.10101
#
# Compressibility (1/GPa) = 0.01203593
#
# Stress axis : x y z
#
# Youngs Moduli (GPa) = 195.10726 108.44618 103.47463
#
# Poissons Ratio (x) = 0.22711 0.18313
# Poissons Ratio (y) = 0.40860 0.21972
# Poissons Ratio (z) = 0.34530 0.23027
#
# Static dielectric constant tensor:
#      x y z
#    x 1.854460 0.000000 0.000000 
#    y 0.000000 1.813080 0.000000 
#    z 0.000000 0.000000 1.858690 
# 
# From -- ./inp_files/5455.got.cif
#   From: 2010.05.17/outbox.cif.g08.bks.cpg/sg46_3_cif.got.tgz:5455.got - 2010.06.03 19:58:25.
