data_PCOD9380214
_publ_section_title
;
Structure prediction by ZEFSAII (Michael W. Deem and Ramdas Pophale) SiO2 
 PCOD9380214
Probable space group: I M A 2
;
_chemical_formula_sum "Si O2"
_cell_formula_units_Z 48
_cell_length_a 17.140669
_cell_length_b 12.388885
_cell_length_c 11.322153
_cell_angle_alpha 90.000000
_cell_angle_beta 90.000000
_cell_angle_gamma 90.000000
_cell_volume 2404.301954
_symmetry_space_group_name_H-M "I M A 2"
_symmetry_group_IT_number 46
_symmetry_cell_setting 'orthorhombic'
loop_
_space_group_symop_operation_xyz
x,y,z
-x,-y,z
1/2-x,y,z
1/2+x,-y,z
1/2+x,1/2+y,1/2+z
1/2-x,1/2-y,1/2+z
-x,1/2+y,1/2+z
x,1/2-y,1/2+z
loop_
_atom_site_type_symbol
_atom_site_label
_atom_site_fract_x
_atom_site_fract_y
_atom_site_fract_z
Si Si1 0.936667 0.262524 0.489230
Si Si2 0.838620 0.083984 0.164409
Si Si3 0.968862 0.611029 0.305037
Si Si4 0.894918 0.678590 0.071879
Si Si5 0.907701 0.029490 0.419533
Si Si6 0.832282 0.892641 0.982235
O O1 0.892953 0.336195 0.585698
O O2 0.894089 0.148134 0.474037
O O3 0.959563 0.322259 0.364640
O O4 0.021347 0.224595 0.531475
O O5 0.750000 0.128081 0.178708
O O6 0.873399 0.045653 0.288998
O O7 0.832856 0.975930 0.088293
O O8 0.912123 0.666867 0.210550
O O9 0.909764 0.581849 0.409441
O O10 0.000000 0.500000 0.248938
O O11 0.876828 0.567388 0.002774
O O12 0.837254 0.772117 0.032580
O O13 0.000000 0.000000 0.408427
O O14 0.750000 0.906705 0.915380
#
# Coordination Sequence:
#
# PCOD9380214 Si02
#       6
#     8   8   8   8   8   8
#     4  10  21  39  62  92 123 158 210 264 309 365
#     4  11  24  41  62  90 127 170 211 254 313 378
#     4  11  20  37  64  91 121 161 208 259 314 370
#     4  10  23  38  63  96 122 162 207 260 313 369
#     4  10  23  40  65  94 127 162 208 262 316 369
#     4  10  24  40  58  90 126 165 207 254 313 375
#
# _framework density 19.964214999999999
#
# number of rings (size 3 to 8) (size 9 to 14) (size 15 to 20)
#    0.000    1.667    1.667    2.500   11.667    2.000 
#    0.000    0.000    0.000    0.000    0.000    0.000 
#    0.000    0.000    0.000    0.000    0.000    0.000 
#
# Total GULP energy -133655.900662 kJ/mol
# GULP energy per Si atom -5568.995861 kJ/mol
# Density = 1.991878 g / cm^3
# Si number density = 19.964215 Si / 1000 Ang^3
#
#
#
# Elastic Constant Matrix: (Units=GPa)
#
#
# Indices 1 2 3 4 5 6 
#
# 1 39.9295 28.2586 1.1589 0.0000 0.0000 0.0000
# 2 28.2586 114.6335 26.9751 0.0000 0.0000 0.0000
# 3 1.1589 26.9751 63.6315 0.0000 0.0000 0.0000
# 4 0.0000 0.0000 0.0000 6.5693 0.0000 0.0000
# 5 0.0000 0.0000 0.0000 0.0000 2399.1886 0.0000
# 6 0.0000 0.0000 0.0000 0.0000 0.0000 9.8882
#
#
#
# Elastic Compliance Matrix: (Units=1/GPa)
#
#
# Indices 1 2 3 4 5 6 
#
# 1 0.030829 -0.008295 0.002955 0.000000 0.000000 0.000000
# 2 -0.008295 0.011922 -0.004903 0.000000 0.000000 0.000000
# 3 0.002955 -0.004903 0.017740 0.000000 0.000000 0.000000
# 4 0.000000 0.000000 0.000000 0.152223 0.000000 0.000000
# 5 0.000000 0.000000 0.000000 0.000000 0.000417 0.000000
# 6 0.000000 0.000000 0.000000 0.000000 0.000000 0.101131
#
#
# Mechanical properties :
#
#
# Convention : Reuss Voigt Hill
#
# Bulk Modulus (GPa) = 24.99685 36.77554 30.88619
# Shear Modulus (GPa) = 14.36442 493.91600 254.14021
#
# Velocity S-wave (km/s) = 2.68528 15.74604 11.29488
# Velocity P-wave (km/s) = 4.70768 18.68273 13.62363
#
# Compressibility (1/GPa) = 0.04000504
#
# Stress axis : x y z
#
# Youngs Moduli (GPa) = 32.43704 83.87817 56.36920
#
# Poissons Ratio (x) = 0.69578 -0.16657
# Poissons Ratio (y) = 0.26907 0.27638
# Poissons Ratio (z) = -0.09585 0.41125
#
# Static dielectric constant tensor:
#      x y z
#    x -3.275480 0.000000 0.000000 
#    y 0.000000 1.742040 0.000000 
#    z 0.000000 0.000000 1.790930 
# 
# From -- ./inp_files/11782.got.cif
#   From: 2010.05.17/outbox.cif.g08.bks.cpg/sg46_6_cif.got.tgz:11782.got - 2010.06.03 19:58:25.
