data_PCOD9380857
_publ_section_title
;
Structure prediction by ZEFSAII (Michael W. Deem and Ramdas Pophale) SiO2 
 PCOD9380857
Probable space group: I M A 2
;
_chemical_formula_sum "Si O2"
_cell_formula_units_Z 60
_cell_length_a 17.220776
_cell_length_b 8.213322
_cell_length_c 19.760262
_cell_angle_alpha 90.000000
_cell_angle_beta 90.000000
_cell_angle_gamma 90.000000
_cell_volume 2794.887078
_symmetry_space_group_name_H-M "I M A 2"
_symmetry_group_IT_number 46
_symmetry_cell_setting 'orthorhombic'
loop_
_space_group_symop_operation_xyz
x,y,z
-x,-y,z
1/2-x,y,z
1/2+x,-y,z
1/2+x,1/2+y,1/2+z
1/2-x,1/2-y,1/2+z
-x,1/2+y,1/2+z
x,1/2-y,1/2+z
loop_
_atom_site_type_symbol
_atom_site_label
_atom_site_fract_x
_atom_site_fract_y
_atom_site_fract_z
Si Si1 0.159663 0.331729 0.706090
Si Si2 0.964442 0.829084 0.616975
Si Si3 0.887441 0.104000 0.940035
Si Si4 0.410880 0.046439 0.337393
Si Si5 0.622516 0.304022 0.654344
Si Si6 0.250000 0.767727 0.037176
Si Si7 0.658581 0.296550 0.300805
Si Si8 0.943294 0.751387 0.966618
O O1 0.250000 0.293218 0.708172
O O2 0.110224 0.213950 0.659868
O O3 0.122639 0.335718 0.780258
O O4 0.148373 0.513569 0.675181
O O5 0.941622 0.832240 0.538864
O O6 0.034263 0.700354 0.627933
O O7 0.000000 0.000000 0.637296
O O8 0.873360 0.087135 0.859390
O O9 0.967805 0.202018 0.949013
O O10 0.898396 0.922832 0.969566
O O11 0.818171 0.191293 0.979847
O O12 0.410484 0.132646 0.409498
O O13 0.500000 0.000000 0.320960
O O14 0.361153 0.882254 0.331323
O O15 0.681402 0.245730 0.596397
O O16 0.625442 0.203483 0.724839
O O17 0.750000 0.317607 0.294668
#
# Coordination Sequence:
#
# PCOD9380857 Si02
#       8
#     8   8   8   8   8   4   8   8
#     4  11  24  46  71 104 136 180 235 292 351 429
#     4  12  27  45  68 101 141 186 231 290 356 422
#     4  11  24  40  67  97 133 175 228 284 337 412
#     4  11  21  41  69  96 135 180 227 280 344 414
#     4  11  22  43  74 100 136 181 235 285 349 428
#     4  12  20  40  68 102 130 176 228 284 344 404
#     4  11  22  42  66 103 129 170 225 285 342 412
#     4  11  25  43  64  93 133 181 226 277 342 415
#
# _framework density 21.467772
#
# number of rings (size 3 to 8) (size 9 to 14) (size 15 to 20)
#    0.000    0.800    4.667    4.400    1.867    1.067 
#    3.600    1.333    0.000    0.000    0.000    0.000 
#    0.000    0.000    0.000    0.000    0.000    0.000 
#
# Total GULP energy -167336.611140 kJ/mol
# GULP energy per Si atom -5577.887038 kJ/mol
# Density = 2.141891 g / cm^3
# Si number density = 21.467772 Si / 1000 Ang^3
#
#
#
# Elastic Constant Matrix: (Units=GPa)
#
#
# Indices 1 2 3 4 5 6 
#
# 1 65.3858 16.9788 77.2018 0.0000 0.0000 0.0000
# 2 16.9788 26.0456 10.2061 0.0000 0.0000 0.0000
# 3 77.2018 10.2061 130.2446 0.0000 0.0000 0.0000
# 4 0.0000 0.0000 0.0000 14.5631 0.0000 0.0000
# 5 0.0000 0.0000 0.0000 0.0000 83.3498 0.0000
# 6 0.0000 0.0000 0.0000 0.0000 0.0000 9.4059
#
#
#
# Elastic Compliance Matrix: (Units=1/GPa)
#
#
# Indices 1 2 3 4 5 6 
#
# 1 0.067144 -0.029067 -0.037521 0.000000 0.000000 0.000000
# 2 -0.029067 0.052194 0.013139 0.000000 0.000000 0.000000
# 3 -0.037521 0.013139 0.028889 0.000000 0.000000 0.000000
# 4 0.000000 0.000000 0.000000 0.068667 0.000000 0.000000
# 5 0.000000 0.000000 0.000000 0.000000 0.011998 0.000000
# 6 0.000000 0.000000 0.000000 0.000000 0.000000 0.106316
#
#
# Mechanical properties :
#
#
# Convention : Reuss Voigt Hill
#
# Bulk Modulus (GPa) = 24.19648 47.82771 36.01210
# Shear Modulus (GPa) = 10.96779 29.28306 20.12542
#
# Velocity S-wave (km/s) = 2.26275 3.69731 3.06514
# Velocity P-wave (km/s) = 4.25703 6.36820 5.41647
#
# Compressibility (1/GPa) = 0.04132833
#
# Stress axis : x y z
#
# Youngs Moduli (GPa) = 14.89347 19.15929 34.61556
#
# Poissons Ratio (x) = 0.55691 1.29882
# Poissons Ratio (y) = 0.43291 -0.45483
# Poissons Ratio (z) = 0.55882 -0.25174
#
# Static dielectric constant tensor:
#      x y z
#    x 1.737520 0.000000 0.000000 
#    y 0.000000 1.825270 0.000000 
#    z 0.000000 0.000000 1.789730 
# 
# From -- ./inp_files/19979.got.cif
#   From: 2010.05.17/outbox.cif.g08.bks.cpg/sg46_10_cif.got.tgz:19979.got - 2010.06.03 19:58:25.
