data_PCOD9380425
_publ_section_title
;
Structure prediction by ZEFSAII (Michael W. Deem and Ramdas Pophale) SiO2 
 PCOD9380425
Probable space group: I M A 2
;
_chemical_formula_sum "Si O2"
_cell_formula_units_Z 40
_cell_length_a 10.859327
_cell_length_b 16.449799
_cell_length_c 10.002681
_cell_angle_alpha 90.000000
_cell_angle_beta 90.000000
_cell_angle_gamma 90.000000
_cell_volume 1786.816381
_symmetry_space_group_name_H-M "I M A 2"
_symmetry_group_IT_number 46
_symmetry_cell_setting 'orthorhombic'
loop_
_space_group_symop_operation_xyz
x,y,z
-x,-y,z
1/2-x,y,z
1/2+x,-y,z
1/2+x,1/2+y,1/2+z
1/2-x,1/2-y,1/2+z
-x,1/2+y,1/2+z
x,1/2-y,1/2+z
loop_
_atom_site_type_symbol
_atom_site_label
_atom_site_fract_x
_atom_site_fract_y
_atom_site_fract_z
Si Si1 0.889809 0.796610 0.096620
Si Si2 0.109396 0.062658 0.304777
Si Si3 0.750000 0.341089 0.041669
Si Si4 0.250000 0.687184 0.349863
Si Si5 0.015228 0.379871 0.076943
Si Si6 0.995613 0.908427 0.879361
O O1 0.750000 0.767273 0.107118
O O2 0.915991 0.854387 0.222467
O O3 0.973122 0.717636 0.085891
O O4 0.907218 0.852635 0.967075
O O5 0.250000 0.036489 0.271806
O O6 0.098758 0.085242 0.460526
O O7 0.000000 0.000000 0.272734
O O8 0.750000 0.301127 0.189817
O O9 0.626635 0.394464 0.035955
O O10 0.750000 0.271673 0.929308
O O11 0.371118 0.634728 0.383786
O O12 0.043542 0.411636 0.224369
O O13 0.000000 0.000000 0.932246
#
# Coordination Sequence:
#
# PCOD9380425 Si02
#       6
#     8   8   4   4   8   8
#     4  11  24  43  66  95 127 172 221 269 325 389
#     4  11  26  47  68  99 136 176 219 273 337 398
#     4  10  22  38  66 102 128 166 220 278 332 380
#     4  10  22  42  64  98 128 166 216 268 330 388
#     4  11  23  43  68  97 130 172 223 273 323 391
#     4  11  24  42  64  96 131 169 213 266 327 386
#
# _framework density 22.386182999999999
#
# number of rings (size 3 to 8) (size 9 to 14) (size 15 to 20)
#    0.000    1.200    2.000    3.000    5.600    3.200 
#    7.200    0.000    0.000    0.000    0.000    0.000 
#    0.000    0.000    0.000    0.000    0.000    0.000 
#
# Total GULP energy -111955.659631 kJ/mol
# GULP energy per Si atom -5597.782982 kJ/mol
# Density = 2.233523 g / cm^3
# Si number density = 22.386183 Si / 1000 Ang^3
#
#
#
# Elastic Constant Matrix: (Units=GPa)
#
#
# Indices 1 2 3 4 5 6 
#
# 1 86.4558 20.4016 12.4083 0.0000 -0.0008 0.0000
# 2 20.4016 87.8358 21.3721 0.0000 0.0020 0.0000
# 3 12.4083 21.3721 76.5916 0.0001 0.0098 -0.0001
# 4 0.0000 0.0000 0.0001 17.5713 0.0033 0.0000
# 5 -0.0008 0.0020 0.0098 0.0033 664.4364 -0.0009
# 6 0.0000 0.0000 -0.0001 0.0000 -0.0009 16.9051
#
#
#
# Elastic Compliance Matrix: (Units=1/GPa)
#
#
# Indices 1 2 3 4 5 6 
#
# 1 0.012355 -0.002556 -0.001288 0.000000 0.000000 0.000000
# 2 -0.002556 0.012743 -0.003142 0.000000 0.000000 0.000000
# 3 -0.001288 -0.003142 0.014142 0.000000 0.000000 0.000000
# 4 0.000000 0.000000 0.000000 0.056911 0.000000 0.000000
# 5 0.000000 0.000000 0.000000 0.000000 0.001505 0.000000
# 6 0.000000 0.000000 0.000000 0.000000 0.000000 0.059154
#
#
# Mechanical properties :
#
#
# Convention : Reuss Voigt Hill
#
# Bulk Modulus (GPa) = 39.57715 39.91635 39.74675
# Shear Modulus (GPa) = 27.90119 152.89597 90.39858
#
# Velocity S-wave (km/s) = 3.53421 8.27330 6.36153
# Velocity P-wave (km/s) = 5.86275 10.44667 8.47068
#
# Compressibility (1/GPa) = 0.02526711
#
# Stress axis : x y z
#
# Youngs Moduli (GPa) = 80.94088 78.47426 70.71318
#
# Poissons Ratio (x) = 0.20059 0.09110
# Poissons Ratio (y) = 0.20690 0.22216
# Poissons Ratio (z) = 0.10427 0.24654
#
# Static dielectric constant tensor:
#      x y z
#    x 1.171610 0.000000 0.000000 
#    y 0.000000 1.766320 0.000000 
#    z 0.000000 0.000000 1.813490 
# 
# From -- ./inp_files/4470.got.cif
#   From: 2010.05.17/outbox.cif.g08.bks.cpg/sg46_3_cif.got.tgz:4470.got - 2010.06.03 19:58:25.
