data_PCOD9380493
_publ_section_title
;
Structure prediction by ZEFSAII (Michael W. Deem and Ramdas Pophale) SiO2 
 PCOD9380493
Probable space group: I M A 2
;
_chemical_formula_sum "Si O2"
_cell_formula_units_Z 16
_cell_length_a 10.989335
_cell_length_b 9.180752
_cell_length_c 4.995349
_cell_angle_alpha 90.000000
_cell_angle_beta 90.000000
_cell_angle_gamma 90.000000
_cell_volume 503.982555
_symmetry_space_group_name_H-M "I M A 2"
_symmetry_group_IT_number 46
_symmetry_cell_setting 'orthorhombic'
loop_
_space_group_symop_operation_xyz
x,y,z
-x,-y,z
1/2-x,y,z
1/2+x,-y,z
1/2+x,1/2+y,1/2+z
1/2-x,1/2-y,1/2+z
-x,1/2+y,1/2+z
x,1/2-y,1/2+z
loop_
_atom_site_type_symbol
_atom_site_label
_atom_site_fract_x
_atom_site_fract_y
_atom_site_fract_z
Si Si1 0.000000 0.000000 0.076401
Si Si2 0.397331 0.269370 0.072171
Si Si3 0.750000 0.330447 0.466506
O O1 0.870681 0.094248 0.064644
O O2 0.063963 0.132212 0.306095
O O3 0.250000 0.274263 0.072191
O O4 0.434345 0.133162 0.839581
O O5 0.750000 0.316963 0.146028
#
# Coordination Sequence:
#
# PCOD9380493 Si02
#       3
#     4   8   4
#     4  12  24  50  72 108 148 202 236 326 380 438
#     4  10  22  40  64  95 129 175 234 283 351 438
#     4  12  30  50  76 118 154 198 266 316 378 474
#
# _framework density 31.747129999999999
#
# number of rings (size 3 to 8) (size 9 to 14) (size 15 to 20)
#    0.000    1.000    2.500    3.000    0.000    8.000 
#    0.000    0.000    0.000    0.000    0.000    0.000 
#    0.000    0.000    0.000    0.000    0.000    0.000 
#
# Total GULP energy -44636.701344 kJ/mol
# GULP energy per Si atom -5579.587668 kJ/mol
# Density = 3.167487 g / cm^3
# Si number density = 31.747130 Si / 1000 Ang^3
#
#
#
# Elastic Constant Matrix: (Units=GPa)
#
#
# Indices 1 2 3 4 5 6 
#
# 1 440.0389 81.2431 83.2527 0.0000 0.0000 0.0000
# 2 81.2431 198.2432 56.6701 0.0000 0.0000 0.0000
# 3 83.2527 56.6701 547.3104 0.0000 0.0000 0.0000
# 4 0.0000 0.0000 0.0000 80.6467 0.0000 0.0000
# 5 0.0000 0.0000 0.0000 0.0000 65.1972 0.0000
# 6 0.0000 0.0000 0.0000 0.0000 0.0000-2523.4922
#
#
#
# Elastic Compliance Matrix: (Units=1/GPa)
#
#
# Indices 1 2 3 4 5 6 
#
# 1 0.002500 -0.000944 -0.000283 0.000000 0.000000 0.000000
# 2 -0.000944 0.005554 -0.000432 0.000000 0.000000 0.000000
# 3 -0.000283 -0.000432 0.001915 0.000000 0.000000 0.000000
# 4 0.000000 0.000000 0.000000 0.012400 0.000000 0.000000
# 5 0.000000 0.000000 0.000000 0.000000 0.015338 0.000000
# 6 0.000000 0.000000 0.000000 0.000000 0.000000 -0.000396
#
#
# Mechanical properties :
#
#
# Convention : Reuss Voigt Hill
#
# Bulk Modulus (GPa) = 150.29652 180.88049 165.58850
# Shear Modulus (GPa) = 116.69990 -411.23455 -147.26732
#
# Velocity S-wave (km/s) = 6.06951 -11.39367 -6.81823
# Velocity P-wave (km/s) = 9.82666 10.76979 3.11650
#
# Compressibility (1/GPa) = 0.00665351
#
# Stress axis : x y z
#
# Youngs Moduli (GPa) = 399.95957 180.03473 522.25149
#
# Poissons Ratio (x) = 0.16993 0.14758
# Poissons Ratio (y) = 0.37751 0.22538
# Poissons Ratio (z) = 0.11302 0.07769
#
# Static dielectric constant tensor:
#      x y z
#    x 2.142040 0.000000 0.000000 
#    y 0.000000 2.623330 0.000000 
#    z 0.000000 0.000000 2.582850 
# 
# From -- ./inp_files/480.got.cif
#   From: 2010.05.17/outbox.cif.g08.bks.cpg/sg46_1_cif.got.tgz:480.got - 2010.06.03 19:58:25.
