data_PCOD9380176
_publ_section_title
;
Structure prediction by ZEFSAII (Michael W. Deem and Ramdas Pophale) SiO2 
 PCOD9380176
Probable space group: I M A 2
;
_chemical_formula_sum "Si O2"
_cell_formula_units_Z 40
_cell_length_a 10.172031
_cell_length_b 10.890181
_cell_length_c 18.961145
_cell_angle_alpha 90.000000
_cell_angle_beta 90.000000
_cell_angle_gamma 90.000000
_cell_volume 2100.425743
_symmetry_space_group_name_H-M "I M A 2"
_symmetry_group_IT_number 46
_symmetry_cell_setting 'orthorhombic'
loop_
_space_group_symop_operation_xyz
x,y,z
-x,-y,z
1/2-x,y,z
1/2+x,-y,z
1/2+x,1/2+y,1/2+z
1/2-x,1/2-y,1/2+z
-x,1/2+y,1/2+z
x,1/2-y,1/2+z
loop_
_atom_site_type_symbol
_atom_site_label
_atom_site_fract_x
_atom_site_fract_y
_atom_site_fract_z
Si Si1 0.750000 0.119895 0.960871
Si Si2 0.000000 0.500000 0.396277
Si Si3 0.250000 0.803389 0.587284
Si Si4 0.250000 0.087163 0.542900
Si Si5 0.250000 0.817950 0.335877
Si Si6 0.025281 0.358064 0.152465
Si Si7 0.250000 0.398301 0.876793
Si Si8 0.965448 0.761110 0.799848
O O1 0.621942 0.039773 0.944371
O O2 0.750000 0.229302 0.903581
O O3 0.750000 0.189090 0.034715
O O4 0.036396 0.385842 0.345888
O O5 0.384560 0.803639 0.631082
O O6 0.250000 0.938025 0.549052
O O7 0.376601 0.136116 0.585917
O O8 0.250000 0.121886 0.461051
O O9 0.384354 0.785368 0.296011
O O10 0.250000 0.957860 0.360366
O O11 0.000000 0.500000 0.173374
O O12 0.081286 0.289939 0.220776
O O13 0.123762 0.335833 0.840861
#
# Coordination Sequence:
#
# PCOD9380176 Si02
#       8
#     4   4   4   4   4   8   4   8
#     4  10  21  39  61  91 126 156 203 253 302 369
#     4  10  22  38  62  96 122 160 206 248 314 354
#     4  10  21  38  66  84 125 161 197 255 313 353
#     4  10  23  36  60  97 125 151 205 255 307 355
#     4  10  23  37  62  92 126 159 206 246 309 369
#     4  10  21  39  63  92 122 157 208 258 305 351
#     4  12  24  38  63  96 126 161 203 253 309 366
#     4  11  22  40  66  90 125 160 206 260 302 363
#
# _framework density 19.043759999999999
#
# number of rings (size 3 to 8) (size 9 to 14) (size 15 to 20)
#    0.000    1.600    2.000    2.400    5.600    1.600 
#    0.000    0.000    8.800    0.000    0.000    0.000 
#    0.000    0.000    0.000    0.000    0.000    0.000 
#
# Total GULP energy -111722.452395 kJ/mol
# GULP energy per Si atom -5586.122620 kJ/mol
# Density = 1.900042 g / cm^3
# Si number density = 19.043760 Si / 1000 Ang^3
#
#
#
# Elastic Constant Matrix: (Units=GPa)
#
#
# Indices 1 2 3 4 5 6 
#
# 1 127.5103 67.4643 61.0155 0.0000 0.0000 0.0000
# 2 67.4643 93.3440 53.0656 0.0000 0.0000 0.0000
# 3 61.0155 53.0656 142.8016 0.0000 0.0000 0.0000
# 4 0.0000 0.0000 0.0000 14.4284 0.0000 0.0000
# 5 0.0000 0.0000 0.0000 0.0000 -2.5788 0.0000
# 6 0.0000 0.0000 0.0000 0.0000 0.0000 36.3671
#
#
#
# Elastic Compliance Matrix: (Units=1/GPa)
#
#
# Indices 1 2 3 4 5 6 
#
# 1 0.013479 -0.008200 -0.002712 0.000000 0.000000 0.000000
# 2 -0.008200 0.018571 -0.003397 0.000000 0.000000 0.000000
# 3 -0.002712 -0.003397 0.009424 0.000000 0.000000 0.000000
# 4 0.000000 0.000000 0.000000 0.069308 0.000000 0.000000
# 5 0.000000 0.000000 0.000000 0.000000 -0.387784 0.000000
# 6 0.000000 0.000000 0.000000 0.000000 0.000000 0.027497
#
#
# Mechanical properties :
#
#
# Convention : Reuss Voigt Hill
#
# Bulk Modulus (GPa) = 77.79098 80.74964 79.27031
# Shear Modulus (GPa) = -23.08391 21.78404 -0.64994
#
# Velocity S-wave (km/s) = -3.48537 3.38582 -0.58483
# Velocity P-wave (km/s) = 4.97394 7.60127 6.42337
#
# Compressibility (1/GPa) = 0.01285496
#
# Stress axis : x y z
#
# Youngs Moduli (GPa) = 74.19070 53.84730 106.11243
#
# Poissons Ratio (x) = 0.44155 0.28777
# Poissons Ratio (y) = 0.60837 0.36051
# Poissons Ratio (z) = 0.20120 0.18294
#
# Static dielectric constant tensor:
#      x y z
#    x 1.588250 0.000000 0.000000 
#    y 0.000000 1.632810 0.000000 
#    z 0.000000 0.000000 1.636870 
# 
# From -- ./inp_files/18820.got.cif
#   From: 2010.05.17/outbox.cif.g08.bks.cpg/sg46_10_cif.got.tgz:18820.got - 2010.06.03 19:58:25.
