data_PCOD9380935
_publ_section_title
;
Structure prediction by ZEFSAII (Michael W. Deem and Ramdas Pophale) SiO2 
 PCOD9380935
Probable space group: I M A 2
;
_chemical_formula_sum "Si O2"
_cell_formula_units_Z 24
_cell_length_a 8.744620
_cell_length_b 19.150853
_cell_length_c 7.631655
_cell_angle_alpha 90.000000
_cell_angle_beta 90.000000
_cell_angle_gamma 90.000000
_cell_volume 1278.049850
_symmetry_space_group_name_H-M "I M A 2"
_symmetry_group_IT_number 46
_symmetry_cell_setting 'orthorhombic'
loop_
_space_group_symop_operation_xyz
x,y,z
-x,-y,z
1/2-x,y,z
1/2+x,-y,z
1/2+x,1/2+y,1/2+z
1/2-x,1/2-y,1/2+z
-x,1/2+y,1/2+z
x,1/2-y,1/2+z
loop_
_atom_site_type_symbol
_atom_site_label
_atom_site_fract_x
_atom_site_fract_y
_atom_site_fract_z
Si Si1 0.432605 0.576224 0.621200
Si Si2 0.067324 0.332198 0.314780
Si Si3 0.567207 0.183874 0.436107
O O1 0.500000 0.500000 0.654906
O O2 0.250000 0.572472 0.598990
O O3 0.507091 0.609662 0.448552
O O4 0.464183 0.628222 0.783238
O O5 0.250000 0.332746 0.307445
O O6 0.009308 0.257379 0.386142
O O7 0.997641 0.340984 0.121724
O O8 0.750000 0.194218 0.449064
#
# Coordination Sequence:
#
# PCOD9380935 Si02
#       3
#     8   8   8
#     4  11  25  44  67  94 132 172 214 268 327 385
#     4  12  24  39  66  98 130 168 218 268 319 384
#     4  11  23  41  66  94 129 172 217 265 323 382
#
# _framework density 18.778611999999999
#
# number of rings (size 3 to 8) (size 9 to 14) (size 15 to 20)
#    0.000    0.667    3.333    5.000    0.000    5.333 
#    0.000    3.333    0.000    0.000    0.000    0.000 
#    0.000    0.000    0.000    0.000    0.000    0.000 
#
# Total GULP energy -67170.073601 kJ/mol
# GULP energy per Si atom -5597.506133 kJ/mol
# Density = 1.873587 g / cm^3
# Si number density = 18.778612 Si / 1000 Ang^3
#
#
#
# Elastic Constant Matrix: (Units=GPa)
#
#
# Indices 1 2 3 4 5 6 
#
# 1 71.7254 14.3507 30.9058 0.0001 0.0003 0.0000
# 2 14.3507 56.0838 -14.2143 0.0002 0.0001 0.0000
# 3 30.9058 -14.2143 95.9781 0.0004 0.0005 0.0000
# 4 0.0001 0.0002 0.0004 23.8207 0.0000 0.0000
# 5 0.0003 0.0001 0.0005 0.0000 20.5203 0.0000
# 6 0.0000 0.0000 0.0000 0.0000 0.0000 34.9470
#
#
#
# Elastic Compliance Matrix: (Units=1/GPa)
#
#
# Indices 1 2 3 4 5 6 
#
# 1 0.018137 -0.006360 -0.006782 0.000000 0.000000 0.000000
# 2 -0.006360 0.020756 0.005122 0.000000 0.000000 0.000000
# 3 -0.006782 0.005122 0.013361 0.000000 0.000000 0.000000
# 4 0.000000 0.000000 0.000000 0.041980 0.000000 0.000000
# 5 0.000000 0.000000 0.000000 0.000000 0.048732 0.000000
# 6 0.000000 0.000000 0.000000 0.000000 0.000000 0.028615
#
#
# Mechanical properties :
#
#
# Convention : Reuss Voigt Hill
#
# Bulk Modulus (GPa) = 27.61347 31.76352 29.68850
# Shear Modulus (GPa) = 25.03844 28.70728 26.87286
#
# Velocity S-wave (km/s) = 3.65547 3.91413 3.78701
# Velocity P-wave (km/s) = 5.70555 6.11381 5.91320
#
# Compressibility (1/GPa) = 0.03621420
#
# Stress axis : x y z
#
# Youngs Moduli (GPa) = 55.13636 48.17905 74.84193
#
# Poissons Ratio (x) = 0.30641 0.50759
# Poissons Ratio (y) = 0.35065 -0.38333
# Poissons Ratio (z) = 0.37394 -0.24677
#
# Static dielectric constant tensor:
#      x y z
#    x 1.624660 0.000000 0.000000 
#    y 0.000000 1.613800 0.000000 
#    z 0.000000 0.000000 1.629090 
# 
# From -- ./inp_files/290.got.cif
#   From: 2010.05.17/outbox.cif.g08.bks.cpg/sg46_1_cif.got.tgz:290.got - 2010.06.03 19:58:25.
