data_PCOD9380242
_publ_section_title
;
Structure prediction by ZEFSAII (Michael W. Deem and Ramdas Pophale) SiO2 
 PCOD9380242
Probable space group: I M A 2
;
_chemical_formula_sum "Si O2"
_cell_formula_units_Z 56
_cell_length_a 22.664683
_cell_length_b 8.825940
_cell_length_c 14.205219
_cell_angle_alpha 90.000000
_cell_angle_beta 90.000000
_cell_angle_gamma 90.000000
_cell_volume 2841.571272
_symmetry_space_group_name_H-M "I M A 2"
_symmetry_group_IT_number 46
_symmetry_cell_setting 'orthorhombic'
loop_
_space_group_symop_operation_xyz
x,y,z
-x,-y,z
1/2-x,y,z
1/2+x,-y,z
1/2+x,1/2+y,1/2+z
1/2-x,1/2-y,1/2+z
-x,1/2+y,1/2+z
x,1/2-y,1/2+z
loop_
_atom_site_type_symbol
_atom_site_label
_atom_site_fract_x
_atom_site_fract_y
_atom_site_fract_z
Si Si1 0.391782 0.619754 0.000000
Si Si2 0.683032 0.902787 0.386473
Si Si3 0.893215 0.628663 0.363857
Si Si4 0.184118 0.634823 0.715081
Si Si5 0.507846 0.321899 0.847679
Si Si6 0.180211 0.575950 0.507042
Si Si7 0.418657 0.873883 0.713352
O O1 0.421279 0.599701 0.102003
O O2 0.360057 0.466496 0.966683
O O3 0.440932 0.674238 0.926016
O O4 0.341346 0.749674 0.000035
O O5 0.750000 0.885688 0.420017
O O6 0.658257 0.748522 0.343780
O O7 0.680876 0.026975 0.304335
O O8 0.864778 0.523769 0.445439
O O9 0.910531 0.521886 0.276834
O O10 0.950574 0.732451 0.385755
O O11 0.250000 0.697977 0.706994
O O12 0.173213 0.543310 0.618459
O O13 0.138861 0.769654 0.726565
O O14 0.500000 0.500000 0.823972
O O15 0.529350 0.227300 0.757283
O O16 0.250000 0.559602 0.481670
#
# Coordination Sequence:
#
# PCOD9380242 Si02
#       7
#     8   8   8   8   8   8   8
#     4  11  23  44  68  97 129 176 220 270 331 396
#     4  11  22  41  66  95 133 176 214 268 335 396
#     4  12  24  41  65  94 137 168 219 275 323 389
#     4   9  19  39  66  93 130 172 214 264 328 398
#     4  12  24  47  65  90 132 177 224 273 330 392
#     4  10  21  39  66  99 130 167 218 271 328 395
#     4  11  24  42  66 100 128 168 227 272 330 386
#
# _framework density 19.707405999999999
#
# number of rings (size 3 to 8) (size 9 to 14) (size 15 to 20)
#    0.000    1.143    4.286    1.286    0.000    5.143 
#    7.714    1.429    0.000    0.000    0.000    0.000 
#    0.000    0.000    0.000    0.000    0.000    0.000 
#
# Total GULP energy -156301.419484 kJ/mol
# GULP energy per Si atom -5582.193553 kJ/mol
# Density = 1.966255 g / cm^3
# Si number density = 19.707406 Si / 1000 Ang^3
#
#
#
# Elastic Constant Matrix: (Units=GPa)
#
#
# Indices 1 2 3 4 5 6 
#
# 1 107.2523 43.6249 48.9249 0.0000 0.0000 0.0000
# 2 43.6249 85.2003 30.0004 0.0000 0.0000 0.0000
# 3 48.9249 30.0004 92.5103 0.0000 0.0000 0.0000
# 4 0.0000 0.0000 0.0000 -3.1985 0.0000 0.0000
# 5 0.0000 0.0000 0.0000 0.0000 25.5001 0.0000
# 6 0.0000 0.0000 0.0000 0.0000 0.0000 28.6934
#
#
#
# Elastic Compliance Matrix: (Units=1/GPa)
#
#
# Indices 1 2 3 4 5 6 
#
# 1 0.014051 -0.005168 -0.005755 0.000000 0.000000 0.000000
# 2 -0.005168 0.015151 -0.002180 0.000000 0.000000 0.000000
# 3 -0.005755 -0.002180 0.014560 0.000000 0.000000 0.000000
# 4 0.000000 0.000000 0.000000 -0.312642 0.000000 0.000000
# 5 0.000000 0.000000 0.000000 0.000000 0.039216 0.000000
# 6 0.000000 0.000000 0.000000 0.000000 0.000000 0.034851
#
#
# Mechanical properties :
#
#
# Convention : Reuss Voigt Hill
#
# Bulk Modulus (GPa) = 56.96173 58.89592 57.92883
# Shear Modulus (GPa) = -30.72123 21.02651 -4.84736
#
# Velocity S-wave (km/s) = -3.95253 3.26994 -1.57003
# Velocity P-wave (km/s) = 2.85245 6.64881 5.11582
#
# Compressibility (1/GPa) = 0.01755565
#
# Stress axis : x y z
#
# Youngs Moduli (GPa) = 71.16798 66.00248 68.68017
#
# Poissons Ratio (x) = 0.34111 0.39526
# Poissons Ratio (y) = 0.36781 0.14973
# Poissons Ratio (z) = 0.40958 0.14389
#
# Static dielectric constant tensor:
#      x y z
#    x 1.709700 0.000000 0.000000 
#    y 0.000000 1.693960 0.000000 
#    z 0.000000 0.000000 1.698470 
# 
# From -- ./inp_files/17090.got.cif
#   From: 2010.05.17/outbox.cif.g08.bks.cpg/sg46_9_cif.got.tgz:17090.got - 2010.06.03 19:58:25.
