data_PCOD9380746
_publ_section_title
;
Structure prediction by ZEFSAII (Michael W. Deem and Ramdas Pophale) SiO2 
 PCOD9380746
Probable space group: I M A 2
;
_chemical_formula_sum "Si O2"
_cell_formula_units_Z 60
_cell_length_a 24.613431
_cell_length_b 11.417805
_cell_length_c 9.075629
_cell_angle_alpha 90.000000
_cell_angle_beta 90.000000
_cell_angle_gamma 90.000000
_cell_volume 2550.536320
_symmetry_space_group_name_H-M "I M A 2"
_symmetry_group_IT_number 46
_symmetry_cell_setting 'orthorhombic'
loop_
_space_group_symop_operation_xyz
x,y,z
-x,-y,z
1/2-x,y,z
1/2+x,-y,z
1/2+x,1/2+y,1/2+z
1/2-x,1/2-y,1/2+z
-x,1/2+y,1/2+z
x,1/2-y,1/2+z
loop_
_atom_site_type_symbol
_atom_site_label
_atom_site_fract_x
_atom_site_fract_y
_atom_site_fract_z
Si Si1 0.750000 0.188500 0.122540
Si Si2 0.572844 0.886049 0.235933
Si Si3 0.310136 0.206558 0.261624
Si Si4 0.032298 0.334132 0.412027
Si Si5 0.690192 0.587421 0.062381
Si Si6 0.592104 0.076370 0.454078
Si Si7 0.665993 0.211300 0.863226
Si Si8 0.429662 0.933484 0.767106
O O1 0.796790 0.223205 0.245031
O O2 0.702640 0.168582 0.997000
O O3 0.637280 0.863561 0.206743
O O4 0.553097 0.791237 0.357033
O O5 0.567150 0.012897 0.311595
O O6 0.542990 0.860942 0.082894
O O7 0.250000 0.163603 0.210452
O O8 0.315366 0.340426 0.211760
O O9 0.309404 0.188134 0.436649
O O10 0.063144 0.433133 0.316187
O O11 0.970166 0.358318 0.368752
O O12 0.750000 0.526911 0.058186
O O13 0.641063 0.507522 0.012274
O O14 0.621543 0.195787 0.417375
O O15 0.554240 0.086522 0.596808
O O16 0.631605 0.108069 0.790376
#
# Coordination Sequence:
#
# PCOD9380746 Si02
#       8
#     4   8   8   8   8   8   8   8
#     4  10  24  44  74 106 148 196 248 308 360 450
#     4  11  23  44  71 103 144 183 234 299 362 437
#     4   9  17  33  56  89 130 174 217 260 328 408
#     4  11  26  46  72 104 142 183 247 301 375 443
#     4   9  18  31  57  90 131 176 223 272 331 407
#     4  11  24  42  70 100 139 189 240 297 363 430
#     4  11  24  46  73 107 149 192 249 300 373 434
#     4  11  26  48  70 101 143 188 246 309 364 443
#
# _framework density 23.524463000000001
#
# number of rings (size 3 to 8) (size 9 to 14) (size 15 to 20)
#    0.000    1.600    1.333    3.200    5.600    0.000 
#    2.400    0.000    1.467    0.000    0.000    0.000 
#    0.000    0.000    0.000    0.000    0.000    0.000 
#
# Total GULP energy -167293.111239 kJ/mol
# GULP energy per Si atom -5576.437041 kJ/mol
# Density = 2.347092 g / cm^3
# Si number density = 23.524463 Si / 1000 Ang^3
#
#
#
# Elastic Constant Matrix: (Units=GPa)
#
#
# Indices 1 2 3 4 5 6 
#
# 1 88.4695 9.9649 44.8506 0.0000 0.0000 0.0000
# 2 9.9649 44.8367 2.0956 0.0000 0.0000 0.0000
# 3 44.8506 2.0956 111.3062 0.0000 0.0000 0.0000
# 4 0.0000 0.0000 0.0000 16.0018 0.0000 0.0000
# 5 0.0000 0.0000 0.0000 0.0000 90.0519 0.0000
# 6 0.0000 0.0000 0.0000 0.0000 0.0000 4.7784
#
#
#
# Elastic Compliance Matrix: (Units=1/GPa)
#
#
# Indices 1 2 3 4 5 6 
#
# 1 0.014590 -0.002970 -0.005823 0.000000 0.000000 0.000000
# 2 -0.002970 0.022928 0.000765 0.000000 0.000000 0.000000
# 3 -0.005823 0.000765 0.011316 0.000000 0.000000 0.000000
# 4 0.000000 0.000000 0.000000 0.062493 0.000000 0.000000
# 5 0.000000 0.000000 0.000000 0.000000 0.011105 0.000000
# 6 0.000000 0.000000 0.000000 0.000000 0.000000 0.209274
#
#
# Mechanical properties :
#
#
# Convention : Reuss Voigt Hill
#
# Bulk Modulus (GPa) = 30.50895 39.82608 35.16751
# Shear Modulus (GPa) = 13.93971 34.67983 24.30977
#
# Velocity S-wave (km/s) = 2.43690 3.84370 3.21811
# Velocity P-wave (km/s) = 4.57331 6.05517 5.36564
#
# Compressibility (1/GPa) = 0.03277727
#
# Stress axis : x y z
#
# Youngs Moduli (GPa) = 68.54008 43.61557 88.36873
#
# Poissons Ratio (x) = 0.12956 0.51458
# Poissons Ratio (y) = 0.20360 -0.06763
# Poissons Ratio (z) = 0.39912 -0.03338
#
# Static dielectric constant tensor:
#      x y z
#    x 1.907870 0.000000 0.000000 
#    y 0.000000 1.960490 0.000000 
#    z 0.000000 0.000000 1.884340 
# 
# From -- ./inp_files/8214.got.cif
#   From: 2010.05.17/outbox.cif.g08.bks.cpg/sg46_5_cif.got.tgz:8214.got - 2010.06.03 19:58:25.
