data_PCOD9380860
_publ_section_title
;
Structure prediction by ZEFSAII (Michael W. Deem and Ramdas Pophale) SiO2 
 PCOD9380860
Probable space group: I M A 2
;
_chemical_formula_sum "Si O2"
_cell_formula_units_Z 36
_cell_length_a 20.074055
_cell_length_b 6.909482
_cell_length_c 9.686294
_cell_angle_alpha 90.000000
_cell_angle_beta 90.000000
_cell_angle_gamma 90.000000
_cell_volume 1343.501780
_symmetry_space_group_name_H-M "I M A 2"
_symmetry_group_IT_number 46
_symmetry_cell_setting 'orthorhombic'
loop_
_space_group_symop_operation_xyz
x,y,z
-x,-y,z
1/2-x,y,z
1/2+x,-y,z
1/2+x,1/2+y,1/2+z
1/2-x,1/2-y,1/2+z
-x,1/2+y,1/2+z
x,1/2-y,1/2+z
loop_
_atom_site_type_symbol
_atom_site_label
_atom_site_fract_x
_atom_site_fract_y
_atom_site_fract_z
Si Si1 0.612132 0.208000 0.185880
Si Si2 0.822351 0.706211 0.344433
Si Si3 0.531153 0.187706 0.941178
Si Si4 0.750000 0.184414 0.786581
Si Si5 0.402791 0.151850 0.592579
O O1 0.568855 0.190821 0.324756
O O2 0.689607 0.187183 0.218889
O O3 0.601987 0.423956 0.122093
O O4 0.580248 0.095267 0.057117
O O5 0.750000 0.784862 0.300968
O O6 0.807167 0.474695 0.342925
O O7 0.843236 0.794249 0.488544
O O8 0.881402 0.747740 0.237361
O O9 0.500000 0.000000 0.866053
O O10 0.472041 0.292581 0.023107
#
# Coordination Sequence:
#
# PCOD9380860 Si02
#       5
#     8   8   8   4   8
#     4  11  25  45  69  97 138 183 229 299 345 420
#     4   9  19  35  68 101 132 169 224 278 346 413
#     4  12  25  42  66  97 136 182 235 280 356 408
#     4   8  20  42  68  92 138 168 222 268 358 400
#     4  11  21  42  69 102 136 176 229 294 347 415
#
# _framework density 26.795645
#
# number of rings (size 3 to 8) (size 9 to 14) (size 15 to 20)
#    0.667    0.889    0.000    6.667    1.556    4.444 
#    0.000    0.000    4.889    0.000    0.000    0.000 
#    0.000    0.000    0.000    0.000    0.000    0.000 
#
# Total GULP energy -100286.926923 kJ/mol
# GULP energy per Si atom -5571.495940 kJ/mol
# Density = 2.673466 g / cm^3
# Si number density = 26.795645 Si / 1000 Ang^3
#
#
#
# Elastic Constant Matrix: (Units=GPa)
#
#
# Indices 1 2 3 4 5 6 
#
# 1 193.1938 22.2300 44.3025 0.0000 0.0000 0.0000
# 2 22.2300 62.8044 2.7418 0.0000 0.0000 0.0000
# 3 44.3025 2.7418 125.8669 0.0000 0.0000 0.0000
# 4 0.0000 0.0000 0.0000 33.2641 0.0000 0.0000
# 5 0.0000 0.0000 0.0000 0.0000 55.7249 0.0000
# 6 0.0000 0.0000 0.0000 0.0000 0.0000 60.8477
#
#
#
# Elastic Compliance Matrix: (Units=1/GPa)
#
#
# Indices 1 2 3 4 5 6 
#
# 1 0.005869 -0.001989 -0.002022 0.000000 0.000000 0.000000
# 2 -0.001989 0.016612 0.000338 0.000000 0.000000 0.000000
# 3 -0.002022 0.000338 0.008649 0.000000 0.000000 0.000000
# 4 0.000000 0.000000 0.000000 0.030062 0.000000 0.000000
# 5 0.000000 0.000000 0.000000 0.000000 0.017945 0.000000
# 6 0.000000 0.000000 0.000000 0.000000 0.000000 0.016434
#
#
# Mechanical properties :
#
#
# Convention : Reuss Voigt Hill
#
# Bulk Modulus (GPa) = 42.04580 57.82375 49.93478
# Shear Modulus (GPa) = 45.10757 50.80673 47.95715
#
# Velocity S-wave (km/s) = 4.10737 4.35913 4.23512
# Velocity P-wave (km/s) = 6.18218 6.85291 6.52616
#
# Compressibility (1/GPa) = 0.02378359
#
# Stress axis : x y z
#
# Youngs Moduli (GPa) = 170.39328 60.19851 115.61544
#
# Poissons Ratio (x) = 0.11974 0.23382
# Poissons Ratio (y) = 0.33891 -0.03911
# Poissons Ratio (z) = 0.34460 -0.02036
#
# Static dielectric constant tensor:
#      x y z
#    x 2.067350 0.000000 0.000000 
#    y 0.000000 2.250060 0.000000 
#    z 0.000000 0.000000 2.071630 
# 
# From -- ./inp_files/7165.got.cif
#   From: 2010.05.17/outbox.cif.g08.bks.cpg/sg46_4_cif.got.tgz:7165.got - 2010.06.03 19:58:25.
