data_PCOD9380733
_publ_section_title
;
Structure prediction by ZEFSAII (Michael W. Deem and Ramdas Pophale) SiO2 
 PCOD9380733
Probable space group: I M A 2
;
_chemical_formula_sum "Si O2"
_cell_formula_units_Z 40
_cell_length_a 11.690184
_cell_length_b 27.665465
_cell_length_c 5.239616
_cell_angle_alpha 90.000000
_cell_angle_beta 90.000000
_cell_angle_gamma 90.000000
_cell_volume 1694.567141
_symmetry_space_group_name_H-M "I M A 2"
_symmetry_group_IT_number 46
_symmetry_cell_setting 'orthorhombic'
loop_
_space_group_symop_operation_xyz
x,y,z
-x,-y,z
1/2-x,y,z
1/2+x,-y,z
1/2+x,1/2+y,1/2+z
1/2-x,1/2-y,1/2+z
-x,1/2+y,1/2+z
x,1/2-y,1/2+z
loop_
_atom_site_type_symbol
_atom_site_label
_atom_site_fract_x
_atom_site_fract_y
_atom_site_fract_z
Si Si1 0.458765 0.550835 0.944300
Si Si2 0.577574 0.136626 0.830535
Si Si3 0.611201 0.722349 0.990378
Si Si4 0.885219 0.626570 0.698361
Si Si5 0.750000 0.082478 0.168531
Si Si6 0.250000 0.782987 0.666374
O O1 0.500000 0.500000 0.053870
O O2 0.564245 0.576766 0.802845
O O3 0.352234 0.545295 0.755051
O O4 0.412428 0.589253 0.152103
O O5 0.641088 0.181322 0.699110
O O6 0.450044 0.140527 0.938643
O O7 0.651605 0.122144 0.079374
O O8 0.750000 0.724903 0.000288
O O9 0.570655 0.755913 0.756550
O O10 0.584113 0.668184 0.903192
O O11 0.750000 0.626043 0.661522
O O12 0.250000 0.755137 0.398898
#
# Coordination Sequence:
#
# PCOD9380733 Si02
#       6
#     8   8   8   8   4   4
#     4  11  25  45  71 102 138 194 250 315 388 454
#     4  10  24  44  73 103 150 191 248 322 382 463
#     4   9  19  36  61  90 131 183 225 273 349 425
#     4  10  24  43  66 103 148 187 242 305 372 462
#     4   9  21  46  70  92 136 180 238 310 383 443
#     4  11  27  46  82 120 150 206 266 326 393 467
#
# _framework density 23.604845999999998
#
# number of rings (size 3 to 8) (size 9 to 14) (size 15 to 20)
#    0.000    2.000    0.000    1.200   12.600    5.600 
#    0.000    0.000    0.000    0.000    0.000    0.000 
#    0.000    0.000    0.000    0.000    0.000    0.000 
#
# Total GULP energy -111390.326364 kJ/mol
# GULP energy per Si atom -5569.516318 kJ/mol
# Density = 2.355112 g / cm^3
# Si number density = 23.604846 Si / 1000 Ang^3
#
#
#
# Elastic Constant Matrix: (Units=GPa)
#
#
# Indices 1 2 3 4 5 6 
#
# 1 136.7175 45.0538 -1.8106 -0.0211 0.0121 0.0549
# 2 45.0538 143.5115 25.4038 -0.0063 0.0186 0.0219
# 3 -1.8106 25.4038 48.9424 -0.0731 0.4379 0.2734
# 4 -0.0211 -0.0063 -0.0731 29.1650 -0.1197 0.0504
# 5 0.0121 0.0186 0.4379 -0.1197 -65.7798 -0.2016
# 6 0.0549 0.0219 0.2734 0.0504 -0.2016 7.9417
#
#
#
# Elastic Compliance Matrix: (Units=1/GPa)
#
#
# Indices 1 2 3 4 5 6 
#
# 1 0.008304 -0.002931 0.001829 0.000010 0.000013 -0.000112
# 2 -0.002931 0.008708 -0.004629 -0.000012 -0.000029 0.000155
# 3 0.001829 -0.004629 0.022905 0.000060 0.000154 -0.000785
# 4 0.000010 -0.000012 0.000060 0.034288 -0.000061 -0.000221
# 5 0.000013 -0.000029 0.000154 -0.000061 -0.015200 -0.000391
# 6 -0.000112 0.000155 -0.000785 -0.000221 -0.000391 0.125937
#
#
# Mechanical properties :
#
#
# Convention : Reuss Voigt Hill
#
# Bulk Modulus (GPa) = 35.14153 51.82948 43.48550
# Shear Modulus (GPa) = 24.28492 11.63368 17.95930
#
# Velocity S-wave (km/s) = 3.21099 2.22243 2.76131
# Velocity P-wave (km/s) = 5.35416 5.34700 5.35058
#
# Compressibility (1/GPa) = 0.02845636
#
# Stress axis : x y z
#
# Youngs Moduli (GPa) = 120.41744 114.84327 43.65765
#
# Poissons Ratio (x) = 0.33659 -0.07985
# Poissons Ratio (y) = 0.35292 0.20208
# Poissons Ratio (z) = -0.22024 0.53158
#
# Static dielectric constant tensor:
#      x y z
#    x 2.023010 0.000000 0.000070 
#    y 0.000000 1.882170 0.000010 
#    z 0.000070 0.000010 2.006170 
# 
# From -- ./inp_files/860.got.cif
#   From: 2010.05.17/outbox.cif.g08.bks.cpg/sg46_1_cif.got.tgz:860.got - 2010.06.03 19:58:25.
