data_PCOD9380949
_publ_section_title
;
Structure prediction by ZEFSAII (Michael W. Deem and Ramdas Pophale) SiO2 
 PCOD9380949
Probable space group: I M A 2
;
_chemical_formula_sum "Si O2"
_cell_formula_units_Z 40
_cell_length_a 19.502849
_cell_length_b 5.159391
_cell_length_c 16.623863
_cell_angle_alpha 90.000000
_cell_angle_beta 90.000000
_cell_angle_gamma 90.000000
_cell_volume 1672.740034
_symmetry_space_group_name_H-M "I M A 2"
_symmetry_group_IT_number 46
_symmetry_cell_setting 'orthorhombic'
loop_
_space_group_symop_operation_xyz
x,y,z
-x,-y,z
1/2-x,y,z
1/2+x,-y,z
1/2+x,1/2+y,1/2+z
1/2-x,1/2-y,1/2+z
-x,1/2+y,1/2+z
x,1/2-y,1/2+z
loop_
_atom_site_type_symbol
_atom_site_label
_atom_site_fract_x
_atom_site_fract_y
_atom_site_fract_z
Si Si1 0.358302 0.448026 0.326610
Si Si2 0.072817 0.983861 0.087918
Si Si3 0.060367 0.800527 0.423249
Si Si4 0.672824 0.059662 0.225259
Si Si5 0.827621 0.672232 0.984013
O O1 0.428846 0.575782 0.358331
O O2 0.358996 0.189544 0.271995
O O3 0.323113 0.378689 0.411429
O O4 0.324874 0.683890 0.279030
O O5 0.127349 0.866002 0.148801
O O6 0.049619 0.814422 0.011715
O O7 0.000000 0.000000 0.133619
O O8 0.117519 0.221380 0.049664
O O9 0.133107 0.942902 0.437885
O O10 0.000000 0.000000 0.403533
O O11 0.750000 0.984471 0.202215
O O12 0.750000 0.615960 0.012704
#
# Coordination Sequence:
#
# PCOD9380949 Si02
#       5
#     8   8   8   8   8
#     4  11  26  46  74 107 148 188 246 307 372 441
#     4  11  26  46  69 106 151 194 245 304 372 446
#     4  11  24  47  78 107 149 193 251 312 377 444
#     4  12  26  47  72 107 152 197 245 304 371 447
#     4  11  23  45  77 108 139 188 247 306 366 440
#
# _framework density 23.912863999999999
#
# number of rings (size 3 to 8) (size 9 to 14) (size 15 to 20)
#    0.000    0.800    4.000    2.400    2.800    5.600 
#    3.600    0.000    0.000    0.000    0.000    0.000 
#    0.000    0.000    0.000    0.000    0.000    0.000 
#
# Total GULP energy -111615.104376 kJ/mol
# GULP energy per Si atom -5580.755219 kJ/mol
# Density = 2.385844 g / cm^3
# Si number density = 23.912864 Si / 1000 Ang^3
#
#
#
# Elastic Constant Matrix: (Units=GPa)
#
#
# Indices 1 2 3 4 5 6 
#
# 1 167.3491 35.0687 24.9177 0.0000 0.0000 0.0000
# 2 35.0687 109.5477 6.2768 0.0000 0.0000 0.0000
# 3 24.9177 6.2768 52.6537 0.0000 0.0000 0.0000
# 4 0.0000 0.0000 0.0000 13.2992 0.0000 0.0000
# 5 0.0000 0.0000 0.0000 0.0000 -31.8097 0.0000
# 6 0.0000 0.0000 0.0000 0.0000 0.0000 14.0000
#
#
#
# Elastic Compliance Matrix: (Units=1/GPa)
#
#
# Indices 1 2 3 4 5 6 
#
# 1 0.006845 -0.002019 -0.002999 0.000000 0.000000 0.000000
# 2 -0.002019 0.009787 -0.000211 0.000000 0.000000 0.000000
# 3 -0.002999 -0.000211 0.020436 0.000000 0.000000 0.000000
# 4 0.000000 0.000000 0.000000 0.075193 0.000000 0.000000
# 5 0.000000 0.000000 0.000000 0.000000 -0.031437 0.000000
# 6 0.000000 0.000000 0.000000 0.000000 0.000000 0.071429
#
#
# Mechanical properties :
#
#
# Convention : Reuss Voigt Hill
#
# Bulk Modulus (GPa) = 37.57962 51.34188 44.46075
# Shear Modulus (GPa) = 29.14071 16.65038 22.89554
#
# Velocity S-wave (km/s) = 3.49466 2.64160 3.09764
# Velocity P-wave (km/s) = 5.65976 5.55167 5.60598
#
# Compressibility (1/GPa) = 0.02661017
#
# Stress axis : x y z
#
# Youngs Moduli (GPa) = 146.08743 102.17622 48.93261
#
# Poissons Ratio (x) = 0.20634 0.14673
# Poissons Ratio (y) = 0.29502 0.01032
# Poissons Ratio (z) = 0.43807 0.02156
#
# Static dielectric constant tensor:
#      x y z
#    x 1.994250 0.000000 0.000000 
#    y 0.000000 2.044100 0.000000 
#    z 0.000000 0.000000 1.939390 
# 
# From -- ./inp_files/20104.got.cif
#   From: 2010.05.17/outbox.cif.g08.bks.cpg/sg46_11_cif.got.tgz:20104.got - 2010.06.03 19:58:25.
