data_PCOD9380177
_publ_section_title
;
Structure prediction by ZEFSAII (Michael W. Deem and Ramdas Pophale) SiO2 
 PCOD9380177
Probable space group: I M A 2
;
_chemical_formula_sum "Si O2"
_cell_formula_units_Z 64
_cell_length_a 30.768040
_cell_length_b 9.140189
_cell_length_c 10.500930
_cell_angle_alpha 90.000000
_cell_angle_beta 90.000000
_cell_angle_gamma 90.000000
_cell_volume 2953.131398
_symmetry_space_group_name_H-M "I M A 2"
_symmetry_group_IT_number 46
_symmetry_cell_setting 'orthorhombic'
loop_
_space_group_symop_operation_xyz
x,y,z
-x,-y,z
1/2-x,y,z
1/2+x,-y,z
1/2+x,1/2+y,1/2+z
1/2-x,1/2-y,1/2+z
-x,1/2+y,1/2+z
x,1/2-y,1/2+z
loop_
_atom_site_type_symbol
_atom_site_label
_atom_site_fract_x
_atom_site_fract_y
_atom_site_fract_z
Si Si1 0.988421 0.167044 0.802460
Si Si2 0.378410 0.330011 0.952397
Si Si3 0.199545 0.903875 0.000332
Si Si4 0.607105 0.169070 0.683310
Si Si5 0.477184 0.341351 0.041248
Si Si6 0.299711 0.307187 0.618279
Si Si7 0.639723 0.162013 0.422136
Si Si8 0.154083 0.100317 0.787007
O O1 0.939460 0.164734 0.749663
O O2 0.015782 0.225042 0.681355
O O3 0.000000 0.000000 0.831164
O O4 0.998775 0.257958 0.927579
O O5 0.426040 0.346781 0.011795
O O6 0.339768 0.257417 0.035911
O O7 0.361824 0.488432 0.909783
O O8 0.382090 0.211365 0.839114
O O9 0.250000 0.602792 0.469876
O O10 0.180839 0.740386 0.990644
O O11 0.195195 0.015796 0.120561
O O12 0.173230 0.993758 0.894072
O O13 0.604648 0.206894 0.533297
O O14 0.632003 0.012988 0.689665
O O15 0.632757 0.274442 0.780988
O O16 0.500000 0.500000 0.047732
O O17 0.250000 0.282265 0.572143
O O18 0.307509 0.208766 0.742549
#
# Coordination Sequence:
#
# PCOD9380177 Si02
#       8
#     8   8   8   8   8   8   8   8
#     4  11  23  41  66  91 131 169 218 270 328 387
#     4  11  23  40  65  92 130 171 224 269 331 396
#     4   9  21  40  58  91 131 166 215 276 332 395
#     4  11  22  42  63  95 130 175 216 274 331 393
#     4  11  25  42  64  98 133 174 216 276 324 391
#     4  10  21  39  65  93 126 167 218 276 330 390
#     4  11  23  40  65  94 130 173 214 268 333 397
#     4  10  21  38  67  90 127 175 222 273 328 394
#
# _framework density 21.671911000000001
#
# number of rings (size 3 to 8) (size 9 to 14) (size 15 to 20)
#    0.000    1.500    1.250    4.125    3.500    1.500 
#    0.000    3.125    0.000    0.000    0.000    0.000 
#    0.000    0.000    0.000    0.000    0.000    0.000 
#
# Total GULP energy -178353.561387 kJ/mol
# GULP energy per Si atom -5573.548793 kJ/mol
# Density = 2.162258 g / cm^3
# Si number density = 21.671911 Si / 1000 Ang^3
#
#
#
# Elastic Constant Matrix: (Units=GPa)
#
#
# Indices 1 2 3 4 5 6 
#
# 1 106.9052 20.7205 -3.9353 0.0000 0.0000 0.0000
# 2 20.7205 75.1842 14.2295 0.0000 0.0000 0.0000
# 3 -3.9353 14.2295 76.1919 0.0000 0.0000 0.0000
# 4 0.0000 0.0000 0.0000 26.3260 0.0000 0.0000
# 5 0.0000 0.0000 0.0000 0.0000 24.4162 0.0000
# 6 0.0000 0.0000 0.0000 0.0000 0.0000 24.1832
#
#
#
# Elastic Compliance Matrix: (Units=1/GPa)
#
#
# Indices 1 2 3 4 5 6 
#
# 1 0.009965 -0.002948 0.001065 0.000000 0.000000 0.000000
# 2 -0.002948 0.014660 -0.002890 0.000000 0.000000 0.000000
# 3 0.001065 -0.002890 0.013720 0.000000 0.000000 0.000000
# 4 0.000000 0.000000 0.000000 0.037985 0.000000 0.000000
# 5 0.000000 0.000000 0.000000 0.000000 0.040956 0.000000
# 6 0.000000 0.000000 0.000000 0.000000 0.000000 0.041351
#
#
# Mechanical properties :
#
#
# Convention : Reuss Voigt Hill
#
# Bulk Modulus (GPa) = 34.72378 35.59007 35.15693
# Shear Modulus (GPa) = 28.12431 30.13618 29.13025
#
# Velocity S-wave (km/s) = 3.60631 3.73307 3.67024
# Velocity P-wave (km/s) = 5.77909 5.91937 5.84965
#
# Compressibility (1/GPa) = 0.02879871
#
# Stress axis : x y z
#
# Youngs Moduli (GPa) = 100.35484 68.21247 72.88880
#
# Poissons Ratio (x) = 0.20108 -0.07764
# Poissons Ratio (y) = 0.29583 0.21066
# Poissons Ratio (z) = -0.10690 0.19714
#
# Static dielectric constant tensor:
#      x y z
#    x 1.825610 0.000000 0.000000 
#    y 0.000000 1.798250 0.000000 
#    z 0.000000 0.000000 1.932480 
# 
# From -- ./inp_files/13207.got.cif
#   From: 2010.05.17/outbox.cif.g08.bks.cpg/sg46_7_cif.got.tgz:13207.got - 2010.06.03 19:58:25.
