data_PCOD9380635
_publ_section_title
;
Structure prediction by ZEFSAII (Michael W. Deem and Ramdas Pophale) SiO2 
 PCOD9380635
Probable space group: I M A 2
;
_chemical_formula_sum "Si O2"
_cell_formula_units_Z 64
_cell_length_a 16.596570
_cell_length_b 13.238992
_cell_length_c 14.761478
_cell_angle_alpha 90.000000
_cell_angle_beta 90.000000
_cell_angle_gamma 90.000000
_cell_volume 3243.419365
_symmetry_space_group_name_H-M "I M A 2"
_symmetry_group_IT_number 46
_symmetry_cell_setting 'orthorhombic'
loop_
_space_group_symop_operation_xyz
x,y,z
-x,-y,z
1/2-x,y,z
1/2+x,-y,z
1/2+x,1/2+y,1/2+z
1/2-x,1/2-y,1/2+z
-x,1/2+y,1/2+z
x,1/2-y,1/2+z
loop_
_atom_site_type_symbol
_atom_site_label
_atom_site_fract_x
_atom_site_fract_y
_atom_site_fract_z
Si Si1 0.558007 0.919679 0.801700
Si Si2 0.497477 0.381504 0.860521
Si Si3 0.842235 0.197840 0.261401
Si Si4 0.845267 0.723677 0.759924
Si Si5 0.158584 0.109860 0.068988
Si Si6 0.887622 0.120191 0.069891
Si Si7 0.341077 0.898741 0.869528
Si Si8 0.974210 0.703719 0.472297
O O1 0.614081 0.835777 0.754872
O O2 0.508949 0.856490 0.878474
O O3 0.500000 0.000000 0.749184
O O4 0.610533 0.998682 0.857888
O O5 0.500000 0.500000 0.873755
O O6 0.579037 0.355993 0.804284
O O7 0.412987 0.341324 0.815810
O O8 0.499261 0.317160 0.953062
O O9 0.750000 0.167958 0.290465
O O10 0.848026 0.175178 0.154633
O O11 0.853036 0.313367 0.293072
O O12 0.750000 0.726521 0.791171
O O13 0.843298 0.670649 0.662492
O O14 0.250000 0.086916 0.044125
O O15 0.117795 0.000256 0.080328
O O16 0.117842 0.180802 0.994106
O O17 0.851950 0.145622 0.970730
O O18 0.978906 0.156650 0.056716
O O19 0.250000 0.930844 0.860301
#
# Coordination Sequence:
#
# PCOD9380635 Si02
#       8
#     8   8   8   8   8   8   8   8
#     4  11  19  37  62  91 127 167 210 261 320 382
#     4  11  23  42  62  87 125 171 216 262 328 396
#     4  11  24  40  62  95 129 164 214 271 325 386
#     4  10  23  40  63  96 133 168 214 272 327 387
#     4  11  22  37  60  94 125 159 211 268 322 384
#     4  12  21  38  63  91 126 163 212 267 321 380
#     4  11  21  36  60  91 125 163 207 257 314 379
#     4  11  22  38  60  91 123 159 213 270 315 378
#
# _framework density 19.732261000000001
#
# number of rings (size 3 to 8) (size 9 to 14) (size 15 to 20)
#    0.000    1.000    3.750    4.125    0.000    3.500 
#    0.000    1.875    0.000    0.000    0.000    0.000 
#    0.000    0.000    0.000    0.000    0.000    0.000 
#
# Total GULP energy -178272.908536 kJ/mol
# GULP energy per Si atom -5571.028392 kJ/mol
# Density = 1.968735 g / cm^3
# Si number density = 19.732261 Si / 1000 Ang^3
#
#
#
# Elastic Constant Matrix: (Units=GPa)
#
#
# Indices 1 2 3 4 5 6 
#
# 1 121.4707 58.2161 25.3423 0.0000 0.0000 0.0000
# 2 58.2161 136.7861 42.1738 0.0000 0.0000 0.0000
# 3 25.3423 42.1738 59.1711 0.0000 0.0000 0.0000
# 4 0.0000 0.0000 0.0000 27.5217 0.0000 0.0000
# 5 0.0000 0.0000 0.0000 0.0000 30.6146 0.0000
# 6 0.0000 0.0000 0.0000 0.0000 0.0000 14.4237
#
#
#
# Elastic Compliance Matrix: (Units=1/GPa)
#
#
# Indices 1 2 3 4 5 6 
#
# 1 0.010470 -0.003939 -0.001677 0.000000 0.000000 0.000000
# 2 -0.003939 0.010852 -0.006047 0.000000 0.000000 0.000000
# 3 -0.001677 -0.006047 0.021928 0.000000 0.000000 0.000000
# 4 0.000000 0.000000 0.000000 0.036335 0.000000 0.000000
# 5 0.000000 0.000000 0.000000 0.000000 0.032664 0.000000
# 6 0.000000 0.000000 0.000000 0.000000 0.000000 0.069330
#
#
# Mechanical properties :
#
#
# Convention : Reuss Voigt Hill
#
# Bulk Modulus (GPa) = 50.19088 63.21026 56.70057
# Shear Modulus (GPa) = 23.63536 27.29172 25.46354
#
# Velocity S-wave (km/s) = 3.46468 3.72304 3.59618
# Velocity P-wave (km/s) = 6.44178 7.11231 6.78533
#
# Compressibility (1/GPa) = 0.01992394
#
# Stress axis : x y z
#
# Youngs Moduli (GPa) = 95.51009 92.15153 45.60288
#
# Poissons Ratio (x) = 0.36300 0.07646
# Poissons Ratio (y) = 0.37623 0.27578
# Poissons Ratio (z) = 0.16014 0.55727
#
# Static dielectric constant tensor:
#      x y z
#    x 1.824600 0.000000 0.000000 
#    y 0.000000 1.671880 0.000000 
#    z 0.000000 0.000000 1.698200 
# 
# From -- ./inp_files/16804.got.cif
#   From: 2010.05.17/outbox.cif.g08.bks.cpg/sg46_9_cif.got.tgz:16804.got - 2010.06.03 19:58:25.
