data_PCOD9380706
_publ_section_title
;
Structure prediction by ZEFSAII (Michael W. Deem and Ramdas Pophale) SiO2 
 PCOD9380706
Probable space group: I M A 2
;
_chemical_formula_sum "Si O2"
_cell_formula_units_Z 56
_cell_length_a 20.583817
_cell_length_b 15.888399
_cell_length_c 7.674292
_cell_angle_alpha 90.000000
_cell_angle_beta 90.000000
_cell_angle_gamma 90.000000
_cell_volume 2509.830366
_symmetry_space_group_name_H-M "I M A 2"
_symmetry_group_IT_number 46
_symmetry_cell_setting 'orthorhombic'
loop_
_space_group_symop_operation_xyz
x,y,z
-x,-y,z
1/2-x,y,z
1/2+x,-y,z
1/2+x,1/2+y,1/2+z
1/2-x,1/2-y,1/2+z
-x,1/2+y,1/2+z
x,1/2-y,1/2+z
loop_
_atom_site_type_symbol
_atom_site_label
_atom_site_fract_x
_atom_site_fract_y
_atom_site_fract_z
Si Si1 0.933901 0.043150 0.527730
Si Si2 0.887478 0.634017 0.360296
Si Si3 0.176662 0.261062 0.072988
Si Si4 0.324430 0.519070 0.538860
Si Si5 0.532419 0.172762 0.798787
Si Si6 0.678871 0.929132 0.410417
Si Si7 0.575535 0.143655 0.179026
O O1 0.925237 0.116463 0.667554
O O2 0.942955 0.079898 0.332952
O O3 0.876500 0.976773 0.515549
O O4 0.000000 0.000000 0.581993
O O5 0.834191 0.675200 0.232946
O O6 0.876977 0.690775 0.534143
O O7 0.870436 0.537966 0.413083
O O8 0.955614 0.657610 0.268224
O O9 0.250000 0.226442 0.075670
O O10 0.170657 0.329282 0.915361
O O11 0.250000 0.527627 0.474159
O O12 0.322103 0.465062 0.716456
O O13 0.355527 0.607967 0.603425
O O14 0.561118 0.265943 0.767548
O O15 0.536246 0.145420 0.999851
O O16 0.750000 0.948146 0.485026
#
# Coordination Sequence:
#
# PCOD9380706 Si02
#       7
#     8   8   8   8   8   8   8
#     4  11  25  42  70 100 139 178 232 294 353 429
#     4  12  25  39  65  98 139 181 230 285 352 430
#     4  11  22  38  61  94 136 181 223 276 345 429
#     4  10  23  45  69  98 134 179 235 295 356 423
#     4  12  26  45  67 101 139 181 233 287 360 427
#     4   9  21  41  65  94 134 180 229 285 352 421
#     4  11  26  46  70  98 138 182 229 295 354 427
#
# _framework density 22.312266000000001
#
# number of rings (size 3 to 8) (size 9 to 14) (size 15 to 20)
#    0.000    1.143    1.429    3.857   10.000    1.143 
#    0.000    1.429    0.000    0.000    0.000    0.000 
#    0.000    0.000    0.000    0.000    0.000    0.000 
#
# Total GULP energy -156266.667023 kJ/mol
# GULP energy per Si atom -5580.952394 kJ/mol
# Density = 2.226148 g / cm^3
# Si number density = 22.312266 Si / 1000 Ang^3
#
#
#
# Elastic Constant Matrix: (Units=GPa)
#
#
# Indices 1 2 3 4 5 6 
#
# 1 93.8049 65.3604 -7.2942 0.0000 0.0000 0.0000
# 2 65.3604 114.5849 6.3463 0.0000 0.0000 0.0000
# 3 -7.2942 6.3463 72.0235 0.0000 0.0000 0.0000
# 4 0.0000 0.0000 0.0000 37.0266 0.0000 0.0000
# 5 0.0000 0.0000 0.0000 0.0000 24.1984 0.0000
# 6 0.0000 0.0000 0.0000 0.0000 0.0000 24.9623
#
#
#
# Elastic Compliance Matrix: (Units=1/GPa)
#
#
# Indices 1 2 3 4 5 6 
#
# 1 0.018228 -0.010551 0.002776 0.000000 0.000000 0.000000
# 2 -0.010551 0.014877 -0.002379 0.000000 0.000000 0.000000
# 3 0.002776 -0.002379 0.014375 0.000000 0.000000 0.000000
# 4 0.000000 0.000000 0.000000 0.027008 0.000000 0.000000
# 5 0.000000 0.000000 0.000000 0.000000 0.041325 0.000000
# 6 0.000000 0.000000 0.000000 0.000000 0.000000 0.040060
#
#
# Mechanical properties :
#
#
# Convention : Reuss Voigt Hill
#
# Bulk Modulus (GPa) = 36.80425 45.47091 41.13758
# Shear Modulus (GPa) = 26.99195 31.63751 29.31473
#
# Velocity S-wave (km/s) = 3.48190 3.76964 3.62862
# Velocity P-wave (km/s) = 5.71802 6.27459 6.00276
#
# Compressibility (1/GPa) = 0.02717078
#
# Stress axis : x y z
#
# Youngs Moduli (GPa) = 54.86067 67.21593 69.56453
#
# Poissons Ratio (x) = 0.70921 -0.19309
# Poissons Ratio (y) = 0.57884 0.16553
# Poissons Ratio (z) = -0.15228 0.15994
#
# Static dielectric constant tensor:
#      x y z
#    x 1.803240 0.000000 0.000000 
#    y 0.000000 1.847850 0.000000 
#    z 0.000000 0.000000 1.939290 
# 
# From -- ./inp_files/7430.got.cif
#   From: 2010.05.17/outbox.cif.g08.bks.cpg/sg46_4_cif.got.tgz:7430.got - 2010.06.03 19:58:25.
