data_PCOD9380845
_publ_section_title
;
Structure prediction by ZEFSAII (Michael W. Deem and Ramdas Pophale) SiO2 
 PCOD9380845
Probable space group: I M A 2
;
_chemical_formula_sum "Si O2"
_cell_formula_units_Z 48
_cell_length_a 10.217836
_cell_length_b 7.786054
_cell_length_c 29.990721
_cell_angle_alpha 90.000000
_cell_angle_beta 90.000000
_cell_angle_gamma 90.000000
_cell_volume 2385.960480
_symmetry_space_group_name_H-M "I M A 2"
_symmetry_group_IT_number 46
_symmetry_cell_setting 'orthorhombic'
loop_
_space_group_symop_operation_xyz
x,y,z
-x,-y,z
1/2-x,y,z
1/2+x,-y,z
1/2+x,1/2+y,1/2+z
1/2-x,1/2-y,1/2+z
-x,1/2+y,1/2+z
x,1/2-y,1/2+z
loop_
_atom_site_type_symbol
_atom_site_label
_atom_site_fract_x
_atom_site_fract_y
_atom_site_fract_z
Si Si1 0.250000 0.702288 0.358860
Si Si2 0.750000 0.215902 0.755822
Si Si3 0.995754 0.703410 0.915353
Si Si4 0.250000 0.203168 0.856417
Si Si5 0.906566 0.668877 0.007896
Si Si6 0.502995 0.710780 0.200118
Si Si7 0.750000 0.705120 0.257056
Si Si8 0.906702 0.831179 0.606839
O O1 0.250000 0.774739 0.307857
O O2 0.374622 0.744424 0.389298
O O3 0.250000 0.500020 0.352097
O O4 0.625608 0.267437 0.726206
O O5 0.750000 0.005168 0.757401
O O6 0.000000 0.500000 0.920549
O O7 0.876310 0.745762 0.883577
O O8 0.962865 0.770956 0.965177
O O9 0.250000 0.274511 0.806820
O O10 0.750000 0.629556 0.000044
O O11 0.000000 0.500000 0.010745
O O12 0.913906 0.749931 0.057387
O O13 0.500000 0.500000 0.198671
O O14 0.623389 0.761541 0.230709
O O15 0.534369 0.766679 0.149568
O O16 0.750000 0.869948 0.615009
O O17 0.000000 0.000000 0.604457
#
# Coordination Sequence:
#
# PCOD9380845 Si02
#       8
#     4   4   8   4   8   8   4   8
#     4  11  23  37  56  79 111 147 185 229 274 325
#     4   9  18  29  42  65  99 135 169 211 266 315
#     4  11  22  37  56  80 109 146 184 229 275 325
#     4  11  21  37  56  79 109 145 185 227 270 327
#     4   9  18  31  48  71 102 139 177 221 273 327
#     4   9  15  24  39  63  94 133 166 205 258 323
#     4   9  16  27  44  65  95 131 171 209 260 315
#     4   9  16  25  40  65  97 134 172 210 261 325
#
# _framework density 20.117685000000002
#
# number of rings (size 3 to 8) (size 9 to 14) (size 15 to 20)
#    0.000    2.333    1.667    2.000    7.000    2.667 
#    0.000    0.000    0.000    0.000    0.000    0.000 
#    0.000   26.667    0.000    0.000    0.000    0.000 
#
# Total GULP energy -133632.136787 kJ/mol
# GULP energy per Si atom -5568.005699 kJ/mol
# Density = 2.007190 g / cm^3
# Si number density = 20.117685 Si / 1000 Ang^3
#
#
#
# Elastic Constant Matrix: (Units=GPa)
#
#
# Indices 1 2 3 4 5 6 
#
# 1 193.6051 2.9479 112.4850 0.0000 0.0000 0.0000
# 2 2.9479 19.2952 9.6560 0.0000 0.0000 0.0000
# 3 112.4850 9.6560 261.2705 0.0000 0.0000 0.0000
# 4 0.0000 0.0000 0.0000 16.2676 0.0000 0.0000
# 5 0.0000 0.0000 0.0000 0.0000 38.9668 0.0000
# 6 0.0000 0.0000 0.0000 0.0000 0.0000 14.9690
#
#
#
# Elastic Compliance Matrix: (Units=1/GPa)
#
#
# Indices 1 2 3 4 5 6 
#
# 1 0.006892 0.000440 -0.002983 0.000000 0.000000 0.000000
# 2 0.000440 0.052831 -0.002142 0.000000 0.000000 0.000000
# 3 -0.002983 -0.002142 0.005191 0.000000 0.000000 0.000000
# 4 0.000000 0.000000 0.000000 0.061472 0.000000 0.000000
# 5 0.000000 0.000000 0.000000 0.000000 0.025663 0.000000
# 6 0.000000 0.000000 0.000000 0.000000 0.000000 0.066805
#
#
# Mechanical properties :
#
#
# Convention : Reuss Voigt Hill
#
# Bulk Modulus (GPa) = 18.00398 80.48318 49.24358
# Shear Modulus (GPa) = 20.26439 37.31281 28.78860
#
# Velocity S-wave (km/s) = 3.17723 4.31133 3.78697
# Velocity P-wave (km/s) = 4.73587 8.05459 6.60700
#
# Compressibility (1/GPa) = 0.05554328
#
# Stress axis : x y z
#
# Youngs Moduli (GPa) = 145.09956 18.92827 192.63879
#
# Poissons Ratio (x) = -0.00833 0.57472
# Poissons Ratio (y) = -0.06386 0.41263
# Poissons Ratio (z) = 0.43289 0.04054
#
# Static dielectric constant tensor:
#      x y z
#    x 1.402560 0.000000 0.000000 
#    y 0.000000 1.955540 0.000000 
#    z 0.000000 0.000000 1.782670 
# 
# From -- ./inp_files/25100.got.cif
#   From: 2010.05.17/outbox.cif.g08.bks.cpg/sg46_13_cif.got.tgz:25100.got - 2010.06.03 19:58:25.
