data_PCOD9380401
_publ_section_title
;
Structure prediction by ZEFSAII (Michael W. Deem and Ramdas Pophale) SiO2 
 PCOD9380401
Probable space group: I M A 2
;
_chemical_formula_sum "Si O2"
_cell_formula_units_Z 40
_cell_length_a 18.090463
_cell_length_b 19.229060
_cell_length_c 5.033359
_cell_angle_alpha 90.000000
_cell_angle_beta 90.000000
_cell_angle_gamma 90.000000
_cell_volume 1750.917341
_symmetry_space_group_name_H-M "I M A 2"
_symmetry_group_IT_number 46
_symmetry_cell_setting 'orthorhombic'
loop_
_space_group_symop_operation_xyz
x,y,z
-x,-y,z
1/2-x,y,z
1/2+x,-y,z
1/2+x,1/2+y,1/2+z
1/2-x,1/2-y,1/2+z
-x,1/2+y,1/2+z
x,1/2-y,1/2+z
loop_
_atom_site_type_symbol
_atom_site_label
_atom_site_fract_x
_atom_site_fract_y
_atom_site_fract_z
Si Si1 0.333242 0.622175 0.537400
Si Si2 0.107485 0.946996 0.542543
Si Si3 0.983925 0.201144 0.025669
Si Si4 0.834594 0.796076 0.668211
Si Si5 0.052145 0.098582 0.413452
O O1 0.250000 0.646340 0.485642
O O2 0.355526 0.561300 0.328850
O O3 0.397735 0.679362 0.515322
O O4 0.341528 0.592351 0.832517
O O5 0.027720 0.908811 0.554244
O O6 0.088029 0.022320 0.423847
O O7 0.998859 0.258046 0.255312
O O8 0.029514 0.133545 0.131041
O O9 0.750000 0.820582 0.636210
O O10 0.843321 0.769369 0.968057
O O11 0.890438 0.853557 0.567570
#
# Coordination Sequence:
#
# PCOD9380401 Si02
#       5
#     8   8   8   8   8
#     4  11  24  43  63  92 131 166 213 269 318 386
#     4  10  24  40  64  93 121 168 214 259 326 381
#     4  11  23  39  64  95 124 167 215 261 328 389
#     4  10  22  38  58  87 121 158 199 249 311 374
#     4  10  22  41  64  91 127 161 211 268 316 387
#
# _framework density 22.845165999999999
#
# number of rings (size 3 to 8) (size 9 to 14) (size 15 to 20)
#    0.000    1.600    0.000    4.200    0.000   15.200 
#    0.000    2.000    0.000    0.000    0.000    0.000 
#    0.000    0.000    0.000    0.000    0.000    0.000 
#
# Total GULP energy -111879.634320 kJ/mol
# GULP energy per Si atom -5593.981716 kJ/mol
# Density = 2.279317 g / cm^3
# Si number density = 22.845166 Si / 1000 Ang^3
#
#
#
# Elastic Constant Matrix: (Units=GPa)
#
#
# Indices 1 2 3 4 5 6 
#
# 1 133.2134 40.6634 25.3025 0.0000 0.0000 0.0000
# 2 40.6634 82.7196 19.4262 0.0000 0.0000 0.0000
# 3 25.3025 19.4262 103.1395 0.0000 0.0000 0.0000
# 4 0.0000 0.0000 0.0000 24.6116 0.0000 0.0000
# 5 0.0000 0.0000 0.0000 0.0000 27.7289 0.0000
# 6 0.0000 0.0000 0.0000 0.0000 0.0000 26.4568
#
#
#
# Elastic Compliance Matrix: (Units=1/GPa)
#
#
# Indices 1 2 3 4 5 6 
#
# 1 0.009033 -0.004101 -0.001443 0.000000 0.000000 0.000000
# 2 -0.004101 0.014511 -0.001727 0.000000 0.000000 0.000000
# 3 -0.001443 -0.001727 0.010375 0.000000 0.000000 0.000000
# 4 0.000000 0.000000 0.000000 0.040631 0.000000 0.000000
# 5 0.000000 0.000000 0.000000 0.000000 0.036063 0.000000
# 6 0.000000 0.000000 0.000000 0.000000 0.000000 0.037797
#
#
# Mechanical properties :
#
#
# Convention : Reuss Voigt Hill
#
# Bulk Modulus (GPa) = 51.61282 54.42852 53.02067
# Shear Modulus (GPa) = 29.51373 31.33816 30.42595
#
# Velocity S-wave (km/s) = 3.59820 3.70775 3.65339
# Velocity P-wave (km/s) = 6.31698 6.49666 6.40745
#
# Compressibility (1/GPa) = 0.01937503
#
# Stress axis : x y z
#
# Youngs Moduli (GPa) = 110.70666 68.91444 96.38564
#
# Poissons Ratio (x) = 0.28265 0.13913
# Poissons Ratio (y) = 0.45405 0.16645
# Poissons Ratio (z) = 0.15980 0.11901
#
# Static dielectric constant tensor:
#      x y z
#    x 1.879050 0.000000 0.000000 
#    y 0.000000 1.853660 0.000000 
#    z 0.000000 0.000000 1.848260 
# 
# From -- ./inp_files/1590.got.cif
#   From: 2010.05.17/outbox.cif.g08.bks.cpg/sg46_1_cif.got.tgz:1590.got - 2010.06.03 19:58:25.
