data_PCOD9380236
_publ_section_title
;
Structure prediction by ZEFSAII (Michael W. Deem and Ramdas Pophale) SiO2 
 PCOD9380236
Probable space group: I M A 2
;
_chemical_formula_sum "Si O2"
_cell_formula_units_Z 64
_cell_length_a 11.484960
_cell_length_b 18.384975
_cell_length_c 14.228096
_cell_angle_alpha 90.000000
_cell_angle_beta 90.000000
_cell_angle_gamma 90.000000
_cell_volume 3004.272465
_symmetry_space_group_name_H-M "I M A 2"
_symmetry_group_IT_number 46
_symmetry_cell_setting 'orthorhombic'
loop_
_space_group_symop_operation_xyz
x,y,z
-x,-y,z
1/2-x,y,z
1/2+x,-y,z
1/2+x,1/2+y,1/2+z
1/2-x,1/2-y,1/2+z
-x,1/2+y,1/2+z
x,1/2-y,1/2+z
loop_
_atom_site_type_symbol
_atom_site_label
_atom_site_fract_x
_atom_site_fract_y
_atom_site_fract_z
Si Si1 0.986171 0.915599 0.620590
Si Si2 0.960773 0.677943 0.824066
Si Si3 0.876348 0.492732 0.647474
Si Si4 0.882923 0.954947 0.945393
Si Si5 0.615090 0.302442 0.008008
Si Si6 0.883191 0.171123 0.140267
Si Si7 0.378231 0.045852 0.433140
Si Si8 0.620650 0.662840 0.293755
O O1 0.890183 0.917473 0.536866
O O2 0.960575 0.869069 0.712753
O O3 0.092969 0.875096 0.569136
O O4 0.000000 0.000000 0.646936
O O5 0.886570 0.608286 0.854483
O O6 0.891368 0.751820 0.807843
O O7 0.036912 0.666622 0.731359
O O8 0.045648 0.690654 0.912135
O O9 0.750000 0.499823 0.695942
O O10 0.880489 0.546856 0.558778
O O11 0.877008 0.411420 0.603173
O O12 0.000000 0.500000 0.699874
O O13 0.750000 0.982399 0.919694
O O14 0.896821 0.879006 0.891854
O O15 0.000000 0.000000 0.919860
O O16 0.750000 0.292822 0.987845
O O17 0.574902 0.232089 0.067784
O O18 0.750000 0.191468 0.166584
O O19 0.250000 0.009273 0.427272
O O20 0.500000 0.000000 0.426126
O O21 0.750000 0.644630 0.260731
#
# Coordination Sequence:
#
# PCOD9380236 Si02
#       8
#     8   8   8   8   8   8   8   8
#     4  10  21  39  65  93 126 167 216 269 329 388
#     4  11  23  39  65  93 130 170 217 266 329 390
#     4   9  19  36  60  86 122 164 208 256 309 372
#     4   9  19  35  56  85 122 166 206 249 304 369
#     4  10  22  40  63  93 127 169 219 272 326 385
#     4  10  21  40  62  90 130 170 216 267 317 385
#     4  10  23  43  69  96 127 169 223 278 332 389
#     4  11  22  38  60  90 132 169 210 263 321 394
#
# _framework density 21.302994000000002
#
# number of rings (size 3 to 8) (size 9 to 14) (size 15 to 20)
#    0.000    2.000    1.250    1.500    3.500    6.000 
#    0.000    3.750    0.000    0.000    0.000    0.000 
#    0.000    0.000    0.000    0.000    0.000    0.000 
#
# Total GULP energy -178399.264720 kJ/mol
# GULP energy per Si atom -5574.977023 kJ/mol
# Density = 2.125451 g / cm^3
# Si number density = 21.302994 Si / 1000 Ang^3
#
#
#
# Elastic Constant Matrix: (Units=GPa)
#
#
# Indices 1 2 3 4 5 6 
#
# 1 136.1213 19.4521 20.0341 0.0000 0.0000 0.0000
# 2 19.4521 53.8907 16.3199 -0.0002 0.0000 0.0000
# 3 20.0341 16.3199 81.0770 -0.0003 0.0000 0.0000
# 4 0.0000 -0.0002 -0.0003 35.1832 0.0000 0.0000
# 5 0.0000 0.0000 0.0000 0.0000 14.5860 0.0000
# 6 0.0000 0.0000 0.0000 0.0000 0.0000 29.8387
#
#
#
# Elastic Compliance Matrix: (Units=1/GPa)
#
#
# Indices 1 2 3 4 5 6 
#
# 1 0.007907 -0.002409 -0.001469 0.000000 0.000000 0.000000
# 2 -0.002409 0.020495 -0.003530 0.000000 0.000000 0.000000
# 3 -0.001469 -0.003530 0.013407 0.000000 0.000000 0.000000
# 4 0.000000 0.000000 0.000000 0.028423 0.000000 0.000000
# 5 0.000000 0.000000 0.000000 0.000000 0.068559 0.000000
# 6 0.000000 0.000000 0.000000 0.000000 0.000000 0.033513
#
#
# Mechanical properties :
#
#
# Convention : Reuss Voigt Hill
#
# Bulk Modulus (GPa) = 37.04682 42.52234 39.78458
# Shear Modulus (GPa) = 25.49487 30.27378 27.88433
#
# Velocity S-wave (km/s) = 3.46320 3.77384 3.62185
# Velocity P-wave (km/s) = 5.78099 6.24446 6.01719
#
# Compressibility (1/GPa) = 0.02699287
#
# Stress axis : x y z
#
# Youngs Moduli (GPa) = 126.47257 48.79308 74.58537
#
# Poissons Ratio (x) = 0.11755 0.10955
# Poissons Ratio (y) = 0.30470 0.26329
# Poissons Ratio (z) = 0.18577 0.17224
#
# Static dielectric constant tensor:
#      x y z
#    x 1.807920 0.000000 0.000000 
#    y 0.000000 1.788160 0.000000 
#    z 0.000000 0.000000 1.739000 
# 
# From -- ./inp_files/15350.got.cif
#   From: 2010.05.17/outbox.cif.g08.bks.cpg/sg46_8_cif.got.tgz:15350.got - 2010.06.03 19:58:25.
