data_PCOD9380962
_publ_section_title
;
Structure prediction by ZEFSAII (Michael W. Deem and Ramdas Pophale) SiO2 
 PCOD9380962
Probable space group: I M A 2
;
_chemical_formula_sum "Si O2"
_cell_formula_units_Z 40
_cell_length_a 10.191082
_cell_length_b 7.582583
_cell_length_c 25.208339
_cell_angle_alpha 90.000000
_cell_angle_beta 90.000000
_cell_angle_gamma 90.000000
_cell_volume 1947.967467
_symmetry_space_group_name_H-M "I M A 2"
_symmetry_group_IT_number 46
_symmetry_cell_setting 'orthorhombic'
loop_
_space_group_symop_operation_xyz
x,y,z
-x,-y,z
1/2-x,y,z
1/2+x,-y,z
1/2+x,1/2+y,1/2+z
1/2-x,1/2-y,1/2+z
-x,1/2+y,1/2+z
x,1/2-y,1/2+z
loop_
_atom_site_type_symbol
_atom_site_label
_atom_site_fract_x
_atom_site_fract_y
_atom_site_fract_z
Si Si1 0.250000 0.976222 0.533250
Si Si2 0.500000 0.500000 0.102461
Si Si3 0.250000 0.312890 0.469288
Si Si4 0.597282 0.657532 0.665582
Si Si5 0.400872 0.158680 0.774796
Si Si6 0.250000 0.803484 0.941268
Si Si7 0.482704 0.209907 0.390382
O O1 0.380488 0.934767 0.565895
O O2 0.250000 0.867693 0.478666
O O3 0.250000 0.184525 0.519462
O O4 0.445435 0.338604 0.137128
O O5 0.250000 0.521939 0.477353
O O6 0.376833 0.265877 0.434116
O O7 0.500000 0.500000 0.650515
O O8 0.750000 0.618633 0.653701
O O9 0.586148 0.696970 0.728527
O O10 0.250000 0.095915 0.773919
O O11 0.433759 0.234459 0.832544
O O12 0.500000 0.000000 0.763663
O O13 0.378989 0.798894 0.904959
O O14 0.500000 0.000000 0.392315
#
# Coordination Sequence:
#
# PCOD9380962 Si02
#       7
#     4   4   4   8   8   4   8
#     4  12  26  46  74 102 138 190 244 300 362 410
#     4  12  26  48  76 102 142 192 242 300 362 414
#     4  12  24  46  67  99 141 178 238 291 348 423
#     4  11  26  48  75 109 145 185 238 298 357 431
#     4  11  24  42  69 106 143 186 234 282 351 429
#     4  12  26  44  73  99 139 190 234 297 348 417
#     4  12  23  43  67 102 142 187 230 286 352 422
#
# _framework density 20.534223000000001
#
# number of rings (size 3 to 8) (size 9 to 14) (size 15 to 20)
#    0.000    0.400    5.000    3.600    2.800    2.400 
#    0.000    0.000    0.000    0.000    0.000    0.000 
#    0.000    0.000    0.000    0.000    0.000    0.000 
#
# Total GULP energy -111960.605124 kJ/mol
# GULP energy per Si atom -5598.030256 kJ/mol
# Density = 2.048749 g / cm^3
# Si number density = 20.534223 Si / 1000 Ang^3
#
#
#
# Elastic Constant Matrix: (Units=GPa)
#
#
# Indices 1 2 3 4 5 6 
#
# 1 171.2330 33.0773 27.1559 0.0000 0.0000 0.0000
# 2 33.0773 100.8058 -9.0395 0.0000 0.0000 0.0000
# 3 27.1559 -9.0395 61.8074 0.0000 0.0000 0.0000
# 4 0.0000 0.0000 0.0000 14.4768 0.0000 0.0000
# 5 0.0000 0.0000 0.0000 0.0000 32.2781 0.0000
# 6 0.0000 0.0000 0.0000 0.0000 0.0000 468.9018
#
#
#
# Elastic Compliance Matrix: (Units=1/GPa)
#
#
# Indices 1 2 3 4 5 6 
#
# 1 0.006873 -0.002559 -0.003394 0.000000 0.000000 0.000000
# 2 -0.002559 0.011005 0.002734 0.000000 0.000000 0.000000
# 3 -0.003394 0.002734 0.018070 0.000000 0.000000 0.000000
# 4 0.000000 0.000000 0.000000 0.069076 0.000000 0.000000
# 5 0.000000 0.000000 0.000000 0.000000 0.030981 0.000000
# 6 0.000000 0.000000 0.000000 0.000000 0.000000 0.002133
#
#
# Mechanical properties :
#
#
# Convention : Reuss Voigt Hill
#
# Bulk Modulus (GPa) = 33.88755 48.47042 41.17899
# Shear Modulus (GPa) = 32.38082 121.97486 77.17784
#
# Velocity S-wave (km/s) = 3.97535 7.71555 6.13731
# Velocity P-wave (km/s) = 6.13270 10.15032 8.38567
#
# Compressibility (1/GPa) = 0.02950937
#
# Stress axis : x y z
#
# Youngs Moduli (GPa) = 145.50420 90.86722 55.33940
#
# Poissons Ratio (x) = 0.23257 0.18782
# Poissons Ratio (y) = 0.37241 -0.15130
# Poissons Ratio (z) = 0.49383 -0.24844
#
# Static dielectric constant tensor:
#      x y z
#    x 1.700790 0.000000 0.000000 
#    y 0.000000 1.712250 0.000000 
#    z 0.000000 0.000000 1.704910 
# 
# From -- ./inp_files/22811.got.cif
#   From: 2010.05.17/outbox.cif.g08.bks.cpg/sg46_12_cif.got.tgz:22811.got - 2010.06.03 19:58:25.
