data_PCOD9380833
_publ_section_title
;
Structure prediction by ZEFSAII (Michael W. Deem and Ramdas Pophale) SiO2 
 PCOD9380833
Probable space group: I M A 2
;
_chemical_formula_sum "Si O2"
_cell_formula_units_Z 32
_cell_length_a 17.828349
_cell_length_b 8.160704
_cell_length_c 11.462579
_cell_angle_alpha 90.000000
_cell_angle_beta 90.000000
_cell_angle_gamma 90.000000
_cell_volume 1667.712157
_symmetry_space_group_name_H-M "I M A 2"
_symmetry_group_IT_number 46
_symmetry_cell_setting 'orthorhombic'
loop_
_space_group_symop_operation_xyz
x,y,z
-x,-y,z
1/2-x,y,z
1/2+x,-y,z
1/2+x,1/2+y,1/2+z
1/2-x,1/2-y,1/2+z
-x,1/2+y,1/2+z
x,1/2-y,1/2+z
loop_
_atom_site_type_symbol
_atom_site_label
_atom_site_fract_x
_atom_site_fract_y
_atom_site_fract_z
Si Si1 0.549282 0.358123 0.136580
Si Si2 0.438173 0.381547 0.512232
Si Si3 0.082540 0.454218 0.895844
Si Si4 0.837551 0.405556 0.683061
O O1 0.500000 0.500000 0.194885
O O2 0.488389 0.218736 0.105973
O O3 0.618382 0.266865 0.194389
O O4 0.580673 0.440445 0.016211
O O5 0.500000 0.500000 0.455707
O O6 0.410981 0.236869 0.428162
O O7 0.375750 0.488459 0.578574
O O8 0.144826 0.503604 0.804061
O O9 0.000000 0.500000 0.844921
O O10 0.750000 0.384546 0.662689
#
# Coordination Sequence:
#
# PCOD9380833 Si02
#       4
#     8   8   8   8
#     4   8  17  36  58  76  98 139 190 228 258 313
#     4   8  16  34  56  78 103 139 186 224 257 313
#     4   9  18  35  58  78 101 142 190 227 261 313
#     4  11  21  33  53  82 116 144 170 221 282 325
#
# _framework density 19.187961999999999
#
# number of rings (size 3 to 8) (size 9 to 14) (size 15 to 20)
#    0.000    3.500    0.000    2.250    0.000    2.000 
#    0.000   33.750    0.000    0.000    0.000    0.000 
#    0.000    0.000    0.000    0.000    0.000    0.000 
#
# Total GULP energy -89113.306695 kJ/mol
# GULP energy per Si atom -5569.581668 kJ/mol
# Density = 1.914429 g / cm^3
# Si number density = 19.187962 Si / 1000 Ang^3
#
#
#
# Elastic Constant Matrix: (Units=GPa)
#
#
# Indices 1 2 3 4 5 6 
#
# 1 135.2836 62.6616 32.4521 0.0000 0.0000 0.0000
# 2 62.6616 126.0738 38.0910 0.0000 0.0000 0.0000
# 3 32.4521 38.0910 66.0036 0.0000 0.0000 0.0000
# 4 0.0000 0.0000 0.0000 17.7102 0.0000 0.0000
# 5 0.0000 0.0000 0.0000 0.0000 14.7435 0.0000
# 6 0.0000 0.0000 0.0000 0.0000 0.0000 19.9906
#
#
#
# Elastic Compliance Matrix: (Units=1/GPa)
#
#
# Indices 1 2 3 4 5 6 
#
# 1 0.009922 -0.004188 -0.002462 0.000000 0.000000 0.000000
# 2 -0.004188 0.011374 -0.004505 0.000000 0.000000 0.000000
# 3 -0.002462 -0.004505 0.018961 0.000000 0.000000 0.000000
# 4 0.000000 0.000000 0.000000 0.056465 0.000000 0.000000
# 5 0.000000 0.000000 0.000000 0.000000 0.067826 0.000000
# 6 0.000000 0.000000 0.000000 0.000000 0.000000 0.050024
#
#
# Mechanical properties :
#
#
# Convention : Reuss Voigt Hill
#
# Bulk Modulus (GPa) = 55.71572 65.97450 60.84511
# Shear Modulus (GPa) = 20.58764 23.43262 22.01013
#
# Velocity S-wave (km/s) = 3.27914 3.49838 3.39053
# Velocity P-wave (km/s) = 6.59066 7.12574 6.86342
#
# Compressibility (1/GPa) = 0.01794826
#
# Stress axis : x y z
#
# Youngs Moduli (GPa) = 100.78504 87.91623 52.73984
#
# Poissons Ratio (x) = 0.36817 0.12983
# Poissons Ratio (y) = 0.42207 0.23761
# Poissons Ratio (z) = 0.24810 0.39608
#
# Static dielectric constant tensor:
#      x y z
#    x 1.658030 0.000000 0.000000 
#    y 0.000000 1.732550 0.000000 
#    z 0.000000 0.000000 1.723340 
# 
# From -- ./inp_files/10799.got.cif
#   From: 2010.05.17/outbox.cif.g08.bks.cpg/sg46_6_cif.got.tgz:10799.got - 2010.06.03 19:58:25.
