data_PCOD9380377
_publ_section_title
;
Structure prediction by ZEFSAII (Michael W. Deem and Ramdas Pophale) SiO2 
 PCOD9380377
Probable space group: I M A 2
;
_chemical_formula_sum "Si O2"
_cell_formula_units_Z 64
_cell_length_a 23.135278
_cell_length_b 15.007795
_cell_length_c 9.277361
_cell_angle_alpha 90.000000
_cell_angle_beta 90.000000
_cell_angle_gamma 90.000000
_cell_volume 3221.187962
_symmetry_space_group_name_H-M "I M A 2"
_symmetry_group_IT_number 46
_symmetry_cell_setting 'orthorhombic'
loop_
_space_group_symop_operation_xyz
x,y,z
-x,-y,z
1/2-x,y,z
1/2+x,-y,z
1/2+x,1/2+y,1/2+z
1/2-x,1/2-y,1/2+z
-x,1/2+y,1/2+z
x,1/2-y,1/2+z
loop_
_atom_site_type_symbol
_atom_site_label
_atom_site_fract_x
_atom_site_fract_y
_atom_site_fract_z
Si Si1 0.126026 0.636574 0.565370
Si Si2 0.398682 0.114589 0.297636
Si Si3 0.611492 0.822426 0.856111
Si Si4 0.181911 0.446936 0.559418
Si Si5 0.105851 0.725479 0.848559
Si Si6 0.578288 0.937725 0.610394
Si Si7 0.490872 0.398389 0.542821
Si Si8 0.551877 0.366293 0.126946
O O1 0.150648 0.540590 0.524495
O O2 0.138276 0.664680 0.730558
O O3 0.144621 0.710899 0.450022
O O4 0.055683 0.636336 0.558960
O O5 0.388798 0.217533 0.335816
O O6 0.343228 0.078113 0.214952
O O7 0.408387 0.061079 0.442648
O O8 0.454090 0.104625 0.191249
O O9 0.617202 0.872370 0.704157
O O10 0.658890 0.867081 0.958774
O O11 0.550047 0.848139 0.930251
O O12 0.250000 0.456175 0.553446
O O13 0.068293 0.792986 0.747079
O O14 0.070648 0.668050 0.967577
O O15 0.515076 0.892768 0.622742
O O16 0.581083 0.038927 0.665205
O O17 0.500000 0.500000 0.495547
#
# Coordination Sequence:
#
# PCOD9380377 Si02
#       8
#     8   8   8   8   8   8   8   8
#     4  11  21  39  60  95 124 165 208 248 318 378
#     4  11  24  39  61  97 127 163 206 256 313 377
#     4  11  24  39  61  97 127 163 206 256 313 377
#     4  11  25  48  70  83 116 174 225 267 309 362
#     4  10  22  34  57  86 126 160 199 246 304 380
#     4  11  22  34  54  85 127 155 199 245 302 368
#     4  11  22  36  60  89 135 168 201 240 312 386
#     4  10  22  32  51  85 124 171 193 224 300 376
#
# _framework density 19.868445000000001
#
# number of rings (size 3 to 8) (size 9 to 14) (size 15 to 20)
#    0.000    1.250    2.500    4.500   14.000    0.500 
#    0.000    1.250    0.000    0.000    0.000    0.000 
#    0.000    0.000    0.000    0.000    0.000    0.000 
#
# Total GULP energy -178763.432771 kJ/mol
# GULP energy per Si atom -5586.357274 kJ/mol
# Density = 1.982322 g / cm^3
# Si number density = 19.868445 Si / 1000 Ang^3
#
#
#
# Elastic Constant Matrix: (Units=GPa)
#
#
# Indices 1 2 3 4 5 6 
#
# 1 78.1695 14.1745 10.8901 0.0000 0.0000 0.0000
# 2 14.1745 93.8277 -5.1019 0.0000 0.0000 0.0000
# 3 10.8901 -5.1019 76.0989 0.0000 0.0000 0.0000
# 4 0.0000 0.0000 0.0000 30.5434 0.0000 0.0000
# 5 0.0000 0.0000 0.0000 0.0000 17.8552 0.0000
# 6 0.0000 0.0000 0.0000 0.0000 0.0000 -5.4746
#
#
#
# Elastic Compliance Matrix: (Units=1/GPa)
#
#
# Indices 1 2 3 4 5 6 
#
# 1 0.013471 -0.002148 -0.002072 0.000000 0.000000 0.000000
# 2 -0.002148 0.011039 0.001047 0.000000 0.000000 0.000000
# 3 -0.002072 0.001047 0.013507 0.000000 0.000000 0.000000
# 4 0.000000 0.000000 0.000000 0.032740 0.000000 0.000000
# 5 0.000000 0.000000 0.000000 0.000000 0.056006 0.000000
# 6 0.000000 0.000000 0.000000 0.000000 0.000000 -0.182662
#
#
# Mechanical properties :
#
#
# Convention : Reuss Voigt Hill
#
# Bulk Modulus (GPa) = 31.57204 32.00240 31.78722
# Shear Modulus (GPa) = -128.21601 23.79369 -52.21116
#
# Velocity S-wave (km/s) = -8.04193 3.46433 -5.13181
# Velocity P-wave (km/s) = 8.38481 5.66959 4.36811
#
# Compressibility (1/GPa) = 0.03167360
#
# Stress axis : x y z
#
# Youngs Moduli (GPa) = 74.23484 90.58593 74.03299
#
# Poissons Ratio (x) = 0.19455 0.15338
# Poissons Ratio (y) = 0.15943 -0.07755
# Poissons Ratio (z) = 0.15379 -0.09488
#
# Static dielectric constant tensor:
#      x y z
#    x 1.665840 0.000000 0.000000 
#    y 0.000000 1.719700 0.000000 
#    z 0.000000 0.000000 1.749100 
# 
# From -- ./inp_files/7948.got.cif
#   From: 2010.05.17/outbox.cif.g08.bks.cpg/sg46_4_cif.got.tgz:7948.got - 2010.06.03 19:58:25.
