data_PCOD9380685
_publ_section_title
;
Structure prediction by ZEFSAII (Michael W. Deem and Ramdas Pophale) SiO2 
 PCOD9380685
Probable space group: I M A 2
;
_chemical_formula_sum "Si O2"
_cell_formula_units_Z 48
_cell_length_a 15.369382
_cell_length_b 8.530867
_cell_length_c 14.690970
_cell_angle_alpha 90.000000
_cell_angle_beta 90.000000
_cell_angle_gamma 90.000000
_cell_volume 1926.194099
_symmetry_space_group_name_H-M "I M A 2"
_symmetry_group_IT_number 46
_symmetry_cell_setting 'orthorhombic'
loop_
_space_group_symop_operation_xyz
x,y,z
-x,-y,z
1/2-x,y,z
1/2+x,-y,z
1/2+x,1/2+y,1/2+z
1/2-x,1/2-y,1/2+z
-x,1/2+y,1/2+z
x,1/2-y,1/2+z
loop_
_atom_site_type_symbol
_atom_site_label
_atom_site_fract_x
_atom_site_fract_y
_atom_site_fract_z
Si Si1 0.887208 0.835052 0.346340
Si Si2 0.091669 0.096258 0.996745
Si Si3 0.088578 0.833387 0.398471
Si Si4 0.848605 0.213657 0.076748
Si Si5 0.852857 0.119488 0.749104
Si Si6 0.352586 0.198567 0.655840
O O1 0.866893 0.682875 0.408957
O O2 0.859055 0.810902 0.243412
O O3 0.991075 0.841113 0.361282
O O4 0.859041 0.008103 0.377254
O O5 0.091195 0.234084 0.072877
O O6 0.149142 0.964360 0.045008
O O7 0.000000 0.000000 0.981346
O O8 0.093869 0.809766 0.505843
O O9 0.123120 0.677668 0.348742
O O10 0.750000 0.273779 0.068443
O O11 0.876108 0.238964 0.180384
O O12 0.750000 0.096450 0.751540
O O13 0.887237 0.964268 0.699498
O O14 0.250000 0.183667 0.628777
#
# Coordination Sequence:
#
# PCOD9380685 Si02
#       6
#     8   8   8   8   8   8
#     4  11  26  42  67  99 138 177 230 285 350 411
#     4  12  25  45  68 104 141 186 230 291 354 420
#     4  11  23  42  65  97 134 178 225 280 343 415
#     4  11  23  41  67  95 131 178 226 278 340 416
#     4  10  23  43  67  97 134 179 230 283 347 415
#     4  11  26  45  70 103 138 183 235 293 354 419
#
# _framework density 24.919606999999999
#
# number of rings (size 3 to 8) (size 9 to 14) (size 15 to 20)
#    0.000    1.000    1.667    4.000    4.667    5.333 
#    0.000    0.000    0.000    0.000    0.000    0.000 
#    0.000    0.000    0.000    0.000    0.000    0.000 
#
# Total GULP energy -134127.757798 kJ/mol
# GULP energy per Si atom -5588.656575 kJ/mol
# Density = 2.486289 g / cm^3
# Si number density = 24.919607 Si / 1000 Ang^3
#
#
#
# Elastic Constant Matrix: (Units=GPa)
#
#
# Indices 1 2 3 4 5 6 
#
# 1 70.6298 -0.7356 6.9226 0.0000 0.0000 0.0000
# 2 -0.7356 98.8547 -2.7090 0.0000 0.0000 0.0000
# 3 6.9226 -2.7090 92.4045 0.0000 0.0000 0.0000
# 4 0.0000 0.0000 0.0000 46.3786 0.0000 0.0000
# 5 0.0000 0.0000 0.0000 0.0000 -3.9803 0.0000
# 6 0.0000 0.0000 0.0000 0.0000 0.0000 18.9110
#
#
#
# Elastic Compliance Matrix: (Units=1/GPa)
#
#
# Indices 1 2 3 4 5 6 
#
# 1 0.014264 0.000077 -0.001066 0.000000 0.000000 0.000000
# 2 0.000077 0.010124 0.000291 0.000000 0.000000 0.000000
# 3 -0.001066 0.000291 0.010910 0.000000 0.000000 0.000000
# 4 0.000000 0.000000 0.000000 0.021562 0.000000 0.000000
# 5 0.000000 0.000000 0.000000 0.000000 -0.251240 0.000000
# 6 0.000000 0.000000 0.000000 0.000000 0.000000 0.052879
#
#
# Mechanical properties :
#
#
# Convention : Reuss Voigt Hill
#
# Bulk Modulus (GPa) = 29.49703 29.87168 29.68435
# Shear Modulus (GPa) = -38.81901 29.48926 -4.66487
#
# Velocity S-wave (km/s) = -3.95114 3.44376 -1.36968
# Velocity P-wave (km/s) = 2.99212 5.27502 3.07189
#
# Compressibility (1/GPa) = 0.03390172
#
# Stress axis : x y z
#
# Youngs Moduli (GPa) = 70.10834 98.77127 91.65565
#
# Poissons Ratio (x) = -0.00760 0.09774
# Poissons Ratio (y) = -0.00539 -0.02668
# Poissons Ratio (z) = 0.07476 -0.02875
#
# Static dielectric constant tensor:
#      x y z
#    x 2.009960 0.000000 0.000000 
#    y 0.000000 2.097630 0.000000 
#    z 0.000000 0.000000 1.925610 
# 
# From -- ./inp_files/16563.got.cif
#   From: 2010.05.17/outbox.cif.g08.bks.cpg/sg46_9_cif.got.tgz:16563.got - 2010.06.03 19:58:25.
