data_PCOD9380335
_publ_section_title
;
Structure prediction by ZEFSAII (Michael W. Deem and Ramdas Pophale) SiO2 
 PCOD9380335
Probable space group: I M A 2
;
_chemical_formula_sum "Si O2"
_cell_formula_units_Z 56
_cell_length_a 13.867484
_cell_length_b 19.136823
_cell_length_c 9.623431
_cell_angle_alpha 90.000000
_cell_angle_beta 90.000000
_cell_angle_gamma 90.000000
_cell_volume 2553.862142
_symmetry_space_group_name_H-M "I M A 2"
_symmetry_group_IT_number 46
_symmetry_cell_setting 'orthorhombic'
loop_
_space_group_symop_operation_xyz
x,y,z
-x,-y,z
1/2-x,y,z
1/2+x,-y,z
1/2+x,1/2+y,1/2+z
1/2-x,1/2-y,1/2+z
-x,1/2+y,1/2+z
x,1/2-y,1/2+z
loop_
_atom_site_type_symbol
_atom_site_label
_atom_site_fract_x
_atom_site_fract_y
_atom_site_fract_z
Si Si1 0.635593 0.598095 0.533460
Si Si2 0.981698 0.787484 0.478149
Si Si3 0.637209 0.166438 0.021281
Si Si4 0.028436 0.918985 0.809404
Si Si5 0.360146 0.542164 0.701544
Si Si6 0.063923 0.931781 0.488958
Si Si7 0.638770 0.740657 0.713020
O O1 0.750000 0.590685 0.494753
O O2 0.565875 0.608692 0.399244
O O3 0.604257 0.529195 0.625422
O O4 0.630352 0.666083 0.633005
O O5 0.926228 0.792818 0.623726
O O6 0.904407 0.763462 0.365353
O O7 0.070778 0.734327 0.498492
O O8 0.016284 0.862408 0.429118
O O9 0.750000 0.185518 0.035235
O O10 0.600775 0.116543 0.146313
O O11 0.616687 0.113667 0.895077
O O12 0.068918 0.910825 0.651510
O O13 0.000000 0.000000 0.817910
O O14 0.250000 0.544646 0.655311
O O15 0.361899 0.544686 0.868776
O O16 0.000000 0.000000 0.493451
O O17 0.750000 0.761014 0.715412
#
# Coordination Sequence:
#
# PCOD9380335 Si02
#       7
#     8   8   8   8   8   8   8
#     4  10  21  41  73 104 131 174 229 283 341 408
#     4  12  24  43  66  95 138 180 221 282 347 409
#     4  11  24  42  69 101 135 186 236 278 335 417
#     4  11  22  40  67  98 140 181 224 279 343 404
#     4  10  22  42  70  99 130 173 229 284 334 400
#     4  11  26  42  63  98 131 173 219 279 347 401
#     4  11  24  42  69 101 132 173 225 280 347 414
#
# _framework density 21.927574
#
# number of rings (size 3 to 8) (size 9 to 14) (size 15 to 20)
#    0.000    1.143    2.857    3.000    2.000    1.143 
#    0.000    7.143    0.000    0.000    0.000    0.000 
#    0.000    0.000    0.000    0.000    0.000    0.000 
#
# Total GULP energy -155901.610765 kJ/mol
# GULP energy per Si atom -5567.914670 kJ/mol
# Density = 2.187767 g / cm^3
# Si number density = 21.927574 Si / 1000 Ang^3
#
#
#
# Elastic Constant Matrix: (Units=GPa)
#
#
# Indices 1 2 3 4 5 6 
#
# 1 82.9526 16.2078 15.9822 0.0000 0.0000 0.0000
# 2 16.2078 74.9333 6.5399 0.0000 0.0000 0.0000
# 3 15.9822 6.5399 105.7757 0.0000 0.0000 0.0000
# 4 0.0000 0.0000 0.0000 -8.5892 0.0000 0.0000
# 5 0.0000 0.0000 0.0000 0.0000 47.9027 0.0000
# 6 0.0000 0.0000 0.0000 0.0000 0.0000 23.0824
#
#
#
# Elastic Compliance Matrix: (Units=1/GPa)
#
#
# Indices 1 2 3 4 5 6 
#
# 1 0.012915 -0.002637 -0.001788 0.000000 0.000000 0.000000
# 2 -0.002637 0.013956 -0.000464 0.000000 0.000000 0.000000
# 3 -0.001788 -0.000464 0.009753 0.000000 0.000000 0.000000
# 4 0.000000 0.000000 0.000000 -0.116425 0.000000 0.000000
# 5 0.000000 0.000000 0.000000 0.000000 0.020876 0.000000
# 6 0.000000 0.000000 0.000000 0.000000 0.000000 0.043323
#
#
# Mechanical properties :
#
#
# Convention : Reuss Voigt Hill
#
# Bulk Modulus (GPa) = 37.25249 37.90236 37.57743
# Shear Modulus (GPa) = 1599.42245 27.47461 813.44853
#
# Velocity S-wave (km/s) = 27.03692 3.54357 19.28149
# Velocity P-wave (km/s) = 31.49104 5.83655 22.64676
#
# Compressibility (1/GPa) = 0.02684385
#
# Stress axis : x y z
#
# Youngs Moduli (GPa) = 77.42970 71.65276 102.53375
#
# Poissons Ratio (x) = 0.18898 0.18336
# Poissons Ratio (y) = 0.20421 0.04761
# Poissons Ratio (z) = 0.13847 0.03327
#
# Static dielectric constant tensor:
#      x y z
#    x 1.746490 0.000000 0.000000 
#    y 0.000000 1.852440 0.000000 
#    z 0.000000 0.000000 1.923730 
# 
# From -- ./inp_files/5934.got.cif
#   From: 2010.05.17/outbox.cif.g08.bks.cpg/sg46_3_cif.got.tgz:5934.got - 2010.06.03 19:58:25.
