data_PCOD9380528
_publ_section_title
;
Structure prediction by ZEFSAII (Michael W. Deem and Ramdas Pophale) SiO2 
 PCOD9380528
Probable space group: I M A 2
;
_chemical_formula_sum "Si O2"
_cell_formula_units_Z 52
_cell_length_a 26.191533
_cell_length_b 10.115220
_cell_length_c 8.992242
_cell_angle_alpha 90.000000
_cell_angle_beta 90.000000
_cell_angle_gamma 90.000000
_cell_volume 2382.342715
_symmetry_space_group_name_H-M "I M A 2"
_symmetry_group_IT_number 46
_symmetry_cell_setting 'orthorhombic'
loop_
_space_group_symop_operation_xyz
x,y,z
-x,-y,z
1/2-x,y,z
1/2+x,-y,z
1/2+x,1/2+y,1/2+z
1/2-x,1/2-y,1/2+z
-x,1/2+y,1/2+z
x,1/2-y,1/2+z
loop_
_atom_site_type_symbol
_atom_site_label
_atom_site_fract_x
_atom_site_fract_y
_atom_site_fract_z
Si Si1 0.644322 0.804786 0.607890
Si Si2 0.250000 0.783477 0.324109
Si Si3 0.000000 0.500000 0.652196
Si Si4 0.865061 0.207586 0.241154
Si Si5 0.402107 0.417982 0.827876
Si Si6 0.167336 0.412253 0.398825
Si Si7 0.750000 0.086887 0.055216
Si Si8 0.914628 0.112348 0.956623
O O1 0.621582 0.695859 0.721794
O O2 0.603863 0.877415 0.500327
O O3 0.676711 0.723341 0.487467
O O4 0.673834 0.899244 0.722292
O O5 0.192268 0.741489 0.272341
O O6 0.250000 0.738366 0.495033
O O7 0.250000 0.921971 0.233154
O O8 0.958428 0.564304 0.761137
O O9 0.967765 0.405468 0.541460
O O10 0.877739 0.192012 0.068736
O O11 0.908022 0.304167 0.308273
O O12 0.873588 0.058803 0.304504
O O13 0.203014 0.515019 0.480406
O O14 0.109957 0.467589 0.427489
#
# Coordination Sequence:
#
# PCOD9380528 Si02
#       8
#     8   4   4   8   8   8   4   8
#     4  10  22  42  67  83 132 173 215 273 328 385
#     4  12  20  38  64  94 136 182 206 277 349 401
#     4  10  22  44  68  96 132 174 222 278 348 398
#     4  11  22  39  64  97 132 169 222 279 336 405
#     4  10  22  41  65  94 124 171 221 273 329 400
#     4  11  22  43  62  96 128 176 219 274 329 402
#     4  12  24  38  68  96 138 176 226 263 343 411
#     4  11  23  42  63  95 134 168 219 284 334 399
#
# _framework density 21.827254
#
# number of rings (size 3 to 8) (size 9 to 14) (size 15 to 20)
#    0.000    1.231    6.154    0.000    2.154    4.308 
#    0.000    3.846    0.000    0.000    0.000    0.000 
#    0.000    0.000    0.000    0.000    0.000    0.000 
#
# Total GULP energy -144739.968693 kJ/mol
# GULP energy per Si atom -5566.921873 kJ/mol
# Density = 2.177757 g / cm^3
# Si number density = 21.827254 Si / 1000 Ang^3
#
#
#
# Elastic Constant Matrix: (Units=GPa)
#
#
# Indices 1 2 3 4 5 6 
#
# 1 89.1645 9.0768 18.4270 0.0000 0.0000 0.0000
# 2 9.0768 48.9336 21.0151 0.0000 0.0000 0.0000
# 3 18.4270 21.0151 114.0653 0.0000 0.0000 0.0000
# 4 0.0000 0.0000 0.0000 47.2279 0.0000 0.0000
# 5 0.0000 0.0000 0.0000 0.0000 17.3747 0.0000
# 6 0.0000 0.0000 0.0000 0.0000 0.0000 22.1040
#
#
#
# Elastic Compliance Matrix: (Units=1/GPa)
#
#
# Indices 1 2 3 4 5 6 
#
# 1 0.011700 -0.001475 -0.001618 0.000000 0.000000 0.000000
# 2 -0.001475 0.022378 -0.003884 0.000000 0.000000 0.000000
# 3 -0.001618 -0.003884 0.009744 0.000000 0.000000 0.000000
# 4 0.000000 0.000000 0.000000 0.021174 0.000000 0.000000
# 5 0.000000 0.000000 0.000000 0.000000 0.057555 0.000000
# 6 0.000000 0.000000 0.000000 0.000000 0.000000 0.045241
#
#
# Mechanical properties :
#
#
# Convention : Reuss Voigt Hill
#
# Bulk Modulus (GPa) = 33.48338 38.80012 36.14175
# Shear Modulus (GPa) = 26.08211 30.91762 28.49987
#
# Velocity S-wave (km/s) = 3.46053 3.76768 3.61737
# Velocity P-wave (km/s) = 5.59826 6.06150 5.83448
#
# Compressibility (1/GPa) = 0.02986556
#
# Stress axis : x y z
#
# Youngs Moduli (GPa) = 85.47125 44.68726 102.62723
#
# Poissons Ratio (x) = 0.06592 0.16608
# Poissons Ratio (y) = 0.12609 0.39865
# Poissons Ratio (z) = 0.13832 0.17359
#
# Static dielectric constant tensor:
#      x y z
#    x 1.834380 0.000000 0.000000 
#    y 0.000000 1.883790 0.000000 
#    z 0.000000 0.000000 1.801660 
# 
# From -- ./inp_files/8200.got.cif
#   From: 2010.05.17/outbox.cif.g08.bks.cpg/sg46_5_cif.got.tgz:8200.got - 2010.06.03 19:58:25.
