data_PCOD9380278
_publ_section_title
;
Structure prediction by ZEFSAII (Michael W. Deem and Ramdas Pophale) SiO2 
 PCOD9380278
Probable space group: I M A 2
;
_chemical_formula_sum "Si O2"
_cell_formula_units_Z 60
_cell_length_a 21.805072
_cell_length_b 19.929595
_cell_length_c 5.434648
_cell_angle_alpha 90.000000
_cell_angle_beta 90.000000
_cell_angle_gamma 90.000000
_cell_volume 2361.714623
_symmetry_space_group_name_H-M "I M A 2"
_symmetry_group_IT_number 46
_symmetry_cell_setting 'orthorhombic'
loop_
_space_group_symop_operation_xyz
x,y,z
-x,-y,z
1/2-x,y,z
1/2+x,-y,z
1/2+x,1/2+y,1/2+z
1/2-x,1/2-y,1/2+z
-x,1/2+y,1/2+z
x,1/2-y,1/2+z
loop_
_atom_site_type_symbol
_atom_site_label
_atom_site_fract_x
_atom_site_fract_y
_atom_site_fract_z
Si Si1 0.532448 0.910556 0.079980
Si Si2 0.679467 0.959182 0.558735
Si Si3 0.250000 0.287745 0.670984
Si Si4 0.175763 0.785614 0.517617
Si Si5 0.818314 0.092522 0.834976
Si Si6 0.407566 0.537307 0.674815
Si Si7 0.021328 0.273204 0.419296
Si Si8 0.873343 0.832075 0.414469
O O1 0.472306 0.929049 0.238723
O O2 0.578085 0.873479 0.261459
O O3 0.565663 0.978377 0.993991
O O4 0.521668 0.853088 0.878218
O O5 0.750000 0.951837 0.464679
O O6 0.652530 0.885200 0.615778
O O7 0.684339 0.013583 0.773882
O O8 0.634831 0.997816 0.367145
O O9 0.250000 0.271373 0.381621
O O10 0.313600 0.321360 0.746494
O O11 0.250000 0.781553 0.505007
O O12 0.154972 0.758055 0.254531
O O13 0.163242 0.862137 0.602691
O O14 0.750000 0.114251 0.914196
O O15 0.868174 0.094220 0.044429
O O16 0.991122 0.260158 0.683254
O O17 0.088018 0.235520 0.473978
#
# Coordination Sequence:
#
# PCOD9380278 Si02
#       8
#     8   8   4   8   8   8   8   8
#     4   9  21  42  63  93 130 179 243 286 351 418
#     4  10  21  40  64  98 140 179 233 295 357 429
#     4  12  24  42  68 104 144 194 246 288 360 436
#     4   9  19  36  61  88 123 167 209 259 330 404
#     4  10  22  38  62 100 131 170 225 289 357 423
#     4  10  21  41  65  91 130 182 232 288 355 429
#     4  10  21  40  66  93 133 181 226 287 347 402
#     4  10  21  41  65  99 139 188 234 299 354 423
#
# _framework density 25.405270999999999
#
# number of rings (size 3 to 8) (size 9 to 14) (size 15 to 20)
#    0.000    2.133    0.667    2.000    3.733    0.000 
#    7.200    4.000    0.000    0.000    0.000    0.000 
#    0.000    0.000    0.000    0.000    0.000    0.000 
#
# Total GULP energy -167282.838313 kJ/mol
# GULP energy per Si atom -5576.094610 kJ/mol
# Density = 2.534745 g / cm^3
# Si number density = 25.405271 Si / 1000 Ang^3
#
#
#
# Elastic Constant Matrix: (Units=GPa)
#
#
# Indices 1 2 3 4 5 6 
#
# 1 142.9402 24.4422 1.9732 0.0000 0.0000 0.0000
# 2 24.4422 75.5526 24.8828 0.0000 0.0000 0.0000
# 3 1.9732 24.8828 49.3432 0.0000 0.0000 0.0000
# 4 0.0000 0.0000 0.0000 37.1818 0.0000 0.0000
# 5 0.0000 0.0000 0.0000 0.0000 -20.6805 0.0000
# 6 0.0000 0.0000 0.0000 0.0000 0.0000 34.9723
#
#
#
# Elastic Compliance Matrix: (Units=1/GPa)
#
#
# Indices 1 2 3 4 5 6 
#
# 1 0.007455 -0.002774 0.001101 0.000000 0.000000 0.000000
# 2 -0.002774 0.016904 -0.008414 0.000000 0.000000 0.000000
# 3 0.001101 -0.008414 0.024465 0.000000 0.000000 0.000000
# 4 0.000000 0.000000 0.000000 0.026895 0.000000 0.000000
# 5 0.000000 0.000000 0.000000 0.000000 -0.048355 0.000000
# 6 0.000000 0.000000 0.000000 0.000000 0.000000 0.028594
#
#
# Mechanical properties :
#
#
# Convention : Reuss Voigt Hill
#
# Bulk Modulus (GPa) = 34.90352 41.15916 38.03134
# Shear Modulus (GPa) = 58.35459 24.73056 41.54258
#
# Velocity S-wave (km/s) = 4.79785 3.12339 4.04814
# Velocity P-wave (km/s) = 6.66791 5.40774 6.07061
#
# Compressibility (1/GPa) = 0.02865041
#
# Stress axis : x y z
#
# Youngs Moduli (GPa) = 134.13545 59.15643 40.87469
#
# Poissons Ratio (x) = 0.16413 -0.04500
# Poissons Ratio (y) = 0.37215 0.34390
# Poissons Ratio (z) = -0.14768 0.49772
#
# Static dielectric constant tensor:
#      x y z
#    x 2.099260 0.000000 0.000000 
#    y 0.000000 2.116930 0.000000 
#    z 0.000000 0.000000 2.025300 
# 
# From -- ./inp_files/2407.got.cif
#   From: 2010.05.17/outbox.cif.g08.bks.cpg/sg46_2_cif.got.tgz:2407.got - 2010.06.03 19:58:25.
