data_PCOD9380434
_publ_section_title
;
Structure prediction by ZEFSAII (Michael W. Deem and Ramdas Pophale) SiO2 
 PCOD9380434
Probable space group: I M A 2
;
_chemical_formula_sum "Si O2"
_cell_formula_units_Z 64
_cell_length_a 18.354108
_cell_length_b 8.424698
_cell_length_c 21.308683
_cell_angle_alpha 90.000000
_cell_angle_beta 90.000000
_cell_angle_gamma 90.000000
_cell_volume 3294.915135
_symmetry_space_group_name_H-M "I M A 2"
_symmetry_group_IT_number 46
_symmetry_cell_setting 'orthorhombic'
loop_
_space_group_symop_operation_xyz
x,y,z
-x,-y,z
1/2-x,y,z
1/2+x,-y,z
1/2+x,1/2+y,1/2+z
1/2-x,1/2-y,1/2+z
-x,1/2+y,1/2+z
x,1/2-y,1/2+z
loop_
_atom_site_type_symbol
_atom_site_label
_atom_site_fract_x
_atom_site_fract_y
_atom_site_fract_z
Si Si1 0.166944 0.562988 0.919090
Si Si2 0.663121 0.383222 0.054470
Si Si3 0.084765 0.548715 0.551878
Si Si4 0.833332 0.564147 0.675997
Si Si5 0.168341 0.442479 0.185640
Si Si6 0.918397 0.061646 0.297044
Si Si7 0.166262 0.549504 0.425415
Si Si8 0.581155 0.058261 0.802791
O O1 0.250000 0.517521 0.904221
O O2 0.115297 0.505533 0.863520
O O3 0.164536 0.756619 0.922696
O O4 0.149505 0.517172 0.990768
O O5 0.750000 0.332327 0.051045
O O6 0.607716 0.235144 0.055689
O O7 0.654432 0.483240 0.117476
O O8 0.122694 0.477407 0.613388
O O9 0.121168 0.495644 0.486135
O O10 0.000000 0.500000 0.551848
O O11 0.750000 0.505639 0.670552
O O12 0.832475 0.753458 0.682029
O O13 0.870537 0.492653 0.737912
O O14 0.250000 0.494800 0.205163
O O15 0.111365 0.497476 0.236999
O O16 0.917923 0.251692 0.300209
O O17 0.000000 0.000000 0.289253
O O18 0.250000 0.500550 0.431014
O O19 0.131078 0.497977 0.359985
O O20 0.500000 0.000000 0.813910
#
# Coordination Sequence:
#
# PCOD9380434 Si02
#       8
#     8   8   8   8   8   8   8   8
#     4   8  16  33  58  84 108 142 189 234 276 333
#     4   9  18  37  62  84 110 149 193 232 276 336
#     4  11  21  35  57  87 118 148 186 231 284 339
#     4  11  23  39  58  83 115 150 192 239 283 334
#     4  10  22  39  58  82 112 149 195 241 282 331
#     4  11  22  37  57  84 116 149 187 232 287 343
#     4   9  18  35  59  84 110 145 191 236 278 332
#     4  11  22  37  58  84 116 150 188 235 287 340
#
# _framework density 19.423867999999999
#
# number of rings (size 3 to 8) (size 9 to 14) (size 15 to 20)
#    0.000    2.000    0.000    4.875    0.000    3.500 
#    0.000    6.875    0.000    6.000    0.000    0.000 
#    0.000    0.000    0.000    0.000    0.000    0.000 
#
# Total GULP energy -178654.892306 kJ/mol
# GULP energy per Si atom -5582.965385 kJ/mol
# Density = 1.937966 g / cm^3
# Si number density = 19.423868 Si / 1000 Ang^3
#
#
#
# Elastic Constant Matrix: (Units=GPa)
#
#
# Indices 1 2 3 4 5 6 
#
# 1 166.7442 31.0358 95.6848 0.0000 0.0000 0.0000
# 2 31.0358 37.9017 25.9743 0.0000 0.0000 0.0000
# 3 95.6848 25.9743 161.9548 0.0000 0.0000 0.0000
# 4 0.0000 0.0000 0.0000 -10.1942 0.0000 0.0000
# 5 0.0000 0.0000 0.0000 0.0000 52.4239 0.0000
# 6 0.0000 0.0000 0.0000 0.0000 0.0000 16.6020
#
#
#
# Elastic Compliance Matrix: (Units=1/GPa)
#
#
# Indices 1 2 3 4 5 6 
#
# 1 0.009717 -0.004519 -0.005016 0.000000 0.000000 0.000000
# 2 -0.004519 0.031744 -0.002421 0.000000 0.000000 0.000000
# 3 -0.005016 -0.002421 0.009526 0.000000 0.000000 0.000000
# 4 0.000000 0.000000 0.000000 -0.098095 0.000000 0.000000
# 5 0.000000 0.000000 0.000000 0.000000 0.019075 0.000000
# 6 0.000000 0.000000 0.000000 0.000000 0.000000 0.060234
#
#
# Mechanical properties :
#
#
# Convention : Reuss Voigt Hill
#
# Bulk Modulus (GPa) = 36.93520 74.66562 55.80041
# Shear Modulus (GPa) = 76.75958 26.02671 51.39314
#
# Velocity S-wave (km/s) = 6.29317 3.66448 5.14939
# Velocity P-wave (km/s) = 8.47714 7.51187 8.00906
#
# Compressibility (1/GPa) = 0.02707444
#
# Stress axis : x y z
#
# Youngs Moduli (GPa) = 102.91551 31.50227 104.97185
#
# Poissons Ratio (x) = 0.14236 0.52654
# Poissons Ratio (y) = 0.46508 0.25415
# Poissons Ratio (z) = 0.51622 0.07627
#
# Static dielectric constant tensor:
#      x y z
#    x 1.654020 0.000000 0.000000 
#    y 0.000000 1.648420 0.000000 
#    z 0.000000 0.000000 1.670620 
# 
# From -- ./inp_files/22233.got.cif
#   From: 2010.05.17/outbox.cif.g08.bks.cpg/sg46_12_cif.got.tgz:22233.got - 2010.06.03 19:58:25.
