data_PCOD9380709
_publ_section_title
;
Structure prediction by ZEFSAII (Michael W. Deem and Ramdas Pophale) SiO2 
 PCOD9380709
Probable space group: I M A 2
;
_chemical_formula_sum "Si O2"
_cell_formula_units_Z 32
_cell_length_a 12.163328
_cell_length_b 5.533519
_cell_length_c 19.110970
_cell_angle_alpha 90.000000
_cell_angle_beta 90.000000
_cell_angle_gamma 90.000000
_cell_volume 1286.283073
_symmetry_space_group_name_H-M "I M A 2"
_symmetry_group_IT_number 46
_symmetry_cell_setting 'orthorhombic'
loop_
_space_group_symop_operation_xyz
x,y,z
-x,-y,z
1/2-x,y,z
1/2+x,-y,z
1/2+x,1/2+y,1/2+z
1/2-x,1/2-y,1/2+z
-x,1/2+y,1/2+z
x,1/2-y,1/2+z
loop_
_atom_site_type_symbol
_atom_site_label
_atom_site_fract_x
_atom_site_fract_y
_atom_site_fract_z
Si Si1 0.619843 0.857088 0.806800
Si Si2 0.250000 0.719900 0.165095
Si Si3 0.250000 0.280143 0.575710
Si Si4 0.510594 0.243889 0.176419
Si Si5 0.065776 0.246899 0.459313
O O1 0.750000 0.934769 0.799949
O O2 0.583539 0.720190 0.735492
O O3 0.619082 0.724867 0.881659
O O4 0.500000 0.000000 0.812122
O O5 0.250000 0.462958 0.123672
O O6 0.365416 0.733369 0.205511
O O7 0.250000 0.961612 0.116213
O O8 0.149373 0.266394 0.522683
O O9 0.500000 0.500000 0.138961
O O10 0.500000 0.000000 0.133394
O O11 0.000000 0.500000 0.459293
O O12 0.000000 0.000000 0.468579
#
# Coordination Sequence:
#
# PCOD9380709 Si02
#       5
#     8   4   4   8   8
#     4  10  23  45  78 116 155 194 249 320 390 455
#     4  12  28  46  72 110 150 206 254 302 374 450
#     4  12  26  48  76 106 150 198 256 312 364 458
#     4  11  26  45  73 104 150 198 246 310 370 449
#     4  11  24  46  74 112 147 195 249 314 385 446
#
# _framework density 24.877884999999999
#
# number of rings (size 3 to 8) (size 9 to 14) (size 15 to 20)
#    0.000    1.000    1.250    3.750    8.750    6.000 
#    2.250    0.000    0.000    0.000    0.000    0.000 
#    0.000    0.000    0.000    0.000    0.000    0.000 
#
# Total GULP energy -89094.502383 kJ/mol
# GULP energy per Si atom -5568.406399 kJ/mol
# Density = 2.482126 g / cm^3
# Si number density = 24.877885 Si / 1000 Ang^3
#
#
#
# Elastic Constant Matrix: (Units=GPa)
#
#
# Indices 1 2 3 4 5 6 
#
# 1 220.3987 64.2509 66.0599 0.0000 0.0000 0.0000
# 2 64.2509 220.5255 49.0674 0.0000 0.0000 0.0000
# 3 66.0599 49.0674 119.8933 0.0000 0.0000 0.0000
# 4 0.0000 0.0000 0.0000 28.2170 0.0000 0.0000
# 5 0.0000 0.0000 0.0000 0.0000 59.1654 0.0000
# 6 0.0000 0.0000 0.0000 0.0000 0.0000 27.8993
#
#
#
# Elastic Compliance Matrix: (Units=1/GPa)
#
#
# Indices 1 2 3 4 5 6 
#
# 1 0.005647 -0.001048 -0.002682 0.000000 0.000000 0.000000
# 2 -0.001048 0.005184 -0.001544 0.000000 0.000000 0.000000
# 3 -0.002682 -0.001544 0.010450 0.000000 0.000000 0.000000
# 4 0.000000 0.000000 0.000000 0.035440 0.000000 0.000000
# 5 0.000000 0.000000 0.000000 0.000000 0.016902 0.000000
# 6 0.000000 0.000000 0.000000 0.000000 0.000000 0.035843
#
#
# Mechanical properties :
#
#
# Convention : Reuss Voigt Hill
#
# Bulk Modulus (GPa) = 93.17957 102.17488 97.67722
# Shear Modulus (GPa) = 40.45584 48.48564 44.47074
#
# Velocity S-wave (km/s) = 4.03696 4.41948 4.23254
# Velocity P-wave (km/s) = 7.69841 8.19769 7.95197
#
# Compressibility (1/GPa) = 0.01073197
#
# Stress axis : x y z
#
# Youngs Moduli (GPa) = 177.09092 192.91719 95.68977
#
# Poissons Ratio (x) = 0.20226 0.25666
# Poissons Ratio (y) = 0.18566 0.14772
# Poissons Ratio (z) = 0.47500 0.29782
#
# Static dielectric constant tensor:
#      x y z
#    x 2.054110 0.000000 0.000000 
#    y 0.000000 2.052300 0.000000 
#    z 0.000000 0.000000 1.965480 
# 
# From -- ./inp_files/21578.got.cif
#   From: 2010.05.17/outbox.cif.g08.bks.cpg/sg46_11_cif.got.tgz:21578.got - 2010.06.03 19:58:25.
