data_PCOD9380339
_publ_section_title
;
Structure prediction by ZEFSAII (Michael W. Deem and Ramdas Pophale) SiO2 
 PCOD9380339
Probable space group: I M A 2
;
_chemical_formula_sum "Si O2"
_cell_formula_units_Z 48
_cell_length_a 15.889285
_cell_length_b 9.271781
_cell_length_c 15.941619
_cell_angle_alpha 90.000000
_cell_angle_beta 90.000000
_cell_angle_gamma 90.000000
_cell_volume 2348.550728
_symmetry_space_group_name_H-M "I M A 2"
_symmetry_group_IT_number 46
_symmetry_cell_setting 'orthorhombic'
loop_
_space_group_symop_operation_xyz
x,y,z
-x,-y,z
1/2-x,y,z
1/2+x,-y,z
1/2+x,1/2+y,1/2+z
1/2-x,1/2-y,1/2+z
-x,1/2+y,1/2+z
x,1/2-y,1/2+z
loop_
_atom_site_type_symbol
_atom_site_label
_atom_site_fract_x
_atom_site_fract_y
_atom_site_fract_z
Si Si1 0.848393 0.385175 0.122530
Si Si2 0.149830 0.410515 0.468273
Si Si3 0.848393 0.385175 0.814015
Si Si4 0.409460 0.568394 0.300545
Si Si5 0.147533 0.084883 0.468273
Si Si6 0.590540 0.431606 0.636000
O O1 0.750000 0.344717 0.108084
O O2 0.856106 0.451577 0.215417
O O3 0.903968 0.240338 0.120300
O O4 0.875716 0.496193 0.051163
O O5 0.250000 0.403194 0.468273
O O6 0.122959 0.492228 0.384299
O O7 0.114868 0.247602 0.468273
O O8 0.122959 0.492228 0.552246
O O9 0.750000 0.344717 0.828461
O O10 0.903968 0.240338 0.816245
O O11 0.875716 0.496193 0.885382
O O12 0.856106 0.451577 0.721128
O O13 0.500000 0.500000 0.283219
O O14 0.250000 0.091616 0.468273
O O15 0.500000 0.500000 0.653326
#
# Coordination Sequence:
#
# PCOD9380339 Si02
#       6
#     8   8   8   8   8   8
#     4  10  21  42  65  86 117 165 206 237 290 368
#     4  11  22  39  61  88 119 157 200 249 299 353
#     4  10  21  42  65  86 117 165 206 237 290 368
#     4  11  23  38  59  90 120 152 199 253 301 350
#     4   9  21  37  60  88 114 149 200 247 288 341
#     4  11  23  38  59  90 120 152 199 253 301 350
#
# _framework density 20.438134999999999
#
# number of rings (size 3 to 8) (size 9 to 14) (size 15 to 20)
#    0.000    1.667    0.000    5.500    0.000    8.000 
#    0.000    7.500    0.000    0.000    0.000    0.000 
#    0.000    0.000    0.000    0.000    0.000    0.000 
#
# Total GULP energy -134070.009730 kJ/mol
# GULP energy per Si atom -5586.250405 kJ/mol
# Density = 2.039162 g / cm^3
# Si number density = 20.438135 Si / 1000 Ang^3
#
#
#
# Elastic Constant Matrix: (Units=GPa)
#
#
# Indices 1 2 3 4 5 6 
#
# 1 53.5072 27.4967 -5.3041 0.0000 0.0000 0.0000
# 2 27.4967 134.1482 99.5501 0.0000 0.0000 0.0000
# 3 -5.3041 99.5501 180.5640 0.0000 0.0000 0.0000
# 4 0.0000 0.0000 0.0000 23.5782 0.0000 0.0000
# 5 0.0000 0.0000 0.0000 0.0000 -221.5718 0.0000
# 6 0.0000 0.0000 0.0000 0.0000 0.0000 65.5767
#
#
#
# Elastic Compliance Matrix: (Units=1/GPa)
#
#
# Indices 1 2 3 4 5 6 
#
# 1 0.023995 -0.009209 0.005782 0.000000 0.000000 0.000000
# 2 -0.009209 0.016151 -0.009175 0.000000 0.000000 0.000000
# 3 0.005782 -0.009175 0.010766 0.000000 0.000000 0.000000
# 4 0.000000 0.000000 0.000000 0.042412 0.000000 0.000000
# 5 0.000000 0.000000 0.000000 0.000000 -0.004513 0.000000
# 6 0.000000 0.000000 0.000000 0.000000 0.000000 0.015249
#
#
# Mechanical properties :
#
#
# Convention : Reuss Voigt Hill
#
# Bulk Modulus (GPa) = 38.89835 67.96721 53.43278
# Shear Modulus (GPa) = 36.27589 -10.05159 13.11215
#
# Velocity S-wave (km/s) = 4.21754 -2.22007 2.53564
# Velocity P-wave (km/s) = 6.54144 5.17259 5.89687
#
# Compressibility (1/GPa) = 0.02570803
#
# Stress axis : x y z
#
# Youngs Moduli (GPa) = 41.67596 61.91739 92.88184
#
# Poissons Ratio (x) = 0.57020 -0.53705
# Poissons Ratio (y) = 0.38380 0.85217
# Poissons Ratio (z) = -0.24097 0.56808
#
# Static dielectric constant tensor:
#      x y z
#    x 1.753050 0.000000 0.000000 
#    y 0.000000 1.706270 0.000000 
#    z 0.000000 0.000000 1.738930 
# 
# From -- ./inp_files/19426.got.cif
#   From: 2010.05.17/outbox.cif.g08.bks.cpg/sg46_10_cif.got.tgz:19426.got - 2010.06.03 19:58:25.
