data_PCOD9380761
_publ_section_title
;
Structure prediction by ZEFSAII (Michael W. Deem and Ramdas Pophale) SiO2 
 PCOD9380761
Probable space group: I M A 2
;
_chemical_formula_sum "Si O2"
_cell_formula_units_Z 36
_cell_length_a 20.465001
_cell_length_b 8.148210
_cell_length_c 8.565803
_cell_angle_alpha 90.000000
_cell_angle_beta 90.000000
_cell_angle_gamma 90.000000
_cell_volume 1428.374425
_symmetry_space_group_name_H-M "I M A 2"
_symmetry_group_IT_number 46
_symmetry_cell_setting 'orthorhombic'
loop_
_space_group_symop_operation_xyz
x,y,z
-x,-y,z
1/2-x,y,z
1/2+x,-y,z
1/2+x,1/2+y,1/2+z
1/2-x,1/2-y,1/2+z
-x,1/2+y,1/2+z
x,1/2-y,1/2+z
loop_
_atom_site_type_symbol
_atom_site_label
_atom_site_fract_x
_atom_site_fract_y
_atom_site_fract_z
Si Si1 0.095127 0.094943 0.141530
Si Si2 0.750000 0.384054 0.932783
Si Si3 0.679785 0.599715 0.176350
Si Si4 0.991015 0.667286 0.938646
Si Si5 0.375410 0.841451 0.895976
O O1 0.156309 0.217045 0.151516
O O2 0.057420 0.103957 0.303880
O O3 0.044338 0.185436 0.026650
O O4 0.118474 0.924442 0.067959
O O5 0.694222 0.505366 0.015354
O O6 0.691436 0.259373 0.876519
O O7 0.750000 0.602110 0.261676
O O8 0.629871 0.492985 0.276341
O O9 0.000000 0.500000 0.038800
O O10 0.059156 0.737751 0.877019
#
# Coordination Sequence:
#
# PCOD9380761 Si02
#       5
#     8   4   8   8   8
#     4  12  27  48  74 107 149 198 243 318 366 450
#     4  10  24  46  76 100 148 196 232 308 368 446
#     4  10  25  46  71 106 148 195 245 303 369 439
#     4  12  28  44  76 108 147 194 249 305 383 442
#     4  12  25  50  73 111 149 190 257 307 377 441
#
# _framework density 25.203475000000001
#
# number of rings (size 3 to 8) (size 9 to 14) (size 15 to 20)
#    0.667    0.000    3.333    3.333   10.889    0.000 
#    4.000    0.000    0.000    0.000    0.000    0.000 
#    0.000    0.000    0.000    0.000    0.000    0.000 
#
# Total GULP energy -100302.694130 kJ/mol
# GULP energy per Si atom -5572.371896 kJ/mol
# Density = 2.514611 g / cm^3
# Si number density = 25.203475 Si / 1000 Ang^3
#
#
#
# Elastic Constant Matrix: (Units=GPa)
#
#
# Indices 1 2 3 4 5 6 
#
# 1 125.5785 17.0892 14.0341 0.0000 0.0000 0.0000
# 2 17.0892 70.9889 16.0183 0.0000 0.0000 0.0000
# 3 14.0341 16.0183 40.9100 0.0000 0.0000 0.0000
# 4 0.0000 0.0000 0.0000 28.2299 0.0000 0.0000
# 5 0.0000 0.0000 0.0000 0.0000 28.0402 0.0000
# 6 0.0000 0.0000 0.0000 0.0000 0.0000 47.9416
#
#
#
# Elastic Compliance Matrix: (Units=1/GPa)
#
#
# Indices 1 2 3 4 5 6 
#
# 1 0.008426 -0.001509 -0.002299 0.000000 0.000000 0.000000
# 2 -0.001509 0.015722 -0.005638 0.000000 0.000000 0.000000
# 3 -0.002299 -0.005638 0.027440 0.000000 0.000000 0.000000
# 4 0.000000 0.000000 0.000000 0.035423 0.000000 0.000000
# 5 0.000000 0.000000 0.000000 0.000000 0.035663 0.000000
# 6 0.000000 0.000000 0.000000 0.000000 0.000000 0.020859
#
#
# Mechanical properties :
#
#
# Convention : Reuss Voigt Hill
#
# Bulk Modulus (GPa) = 30.58656 36.86230 33.72443
# Shear Modulus (GPa) = 28.84745 33.53140 31.18942
#
# Velocity S-wave (km/s) = 3.38684 3.65146 3.52164
# Velocity P-wave (km/s) = 5.23989 5.69519 5.47228
#
# Compressibility (1/GPa) = 0.03269410
#
# Stress axis : x y z
#
# Youngs Moduli (GPa) = 118.68701 63.60380 36.44268
#
# Poissons Ratio (x) = 0.09601 0.08379
# Poissons Ratio (y) = 0.17915 0.20547
# Poissons Ratio (z) = 0.27290 0.35862
#
# Static dielectric constant tensor:
#      x y z
#    x 1.944590 0.000000 0.000000 
#    y 0.000000 2.061040 0.000000 
#    z 0.000000 0.000000 2.103920 
# 
# From -- ./inp_files/7142.got.cif
#   From: 2010.05.17/outbox.cif.g08.bks.cpg/sg46_4_cif.got.tgz:7142.got - 2010.06.03 19:58:25.
