data_PCOD9380205
_publ_section_title
;
Structure prediction by ZEFSAII (Michael W. Deem and Ramdas Pophale) SiO2 
 PCOD9380205
Probable space group: I M A 2
;
_chemical_formula_sum "Si O2"
_cell_formula_units_Z 48
_cell_length_a 27.902842
_cell_length_b 15.703543
_cell_length_c 4.807091
_cell_angle_alpha 90.000000
_cell_angle_beta 90.000000
_cell_angle_gamma 90.000000
_cell_volume 2106.339788
_symmetry_space_group_name_H-M "I M A 2"
_symmetry_group_IT_number 46
_symmetry_cell_setting 'orthorhombic'
loop_
_space_group_symop_operation_xyz
x,y,z
-x,-y,z
1/2-x,y,z
1/2+x,-y,z
1/2+x,1/2+y,1/2+z
1/2-x,1/2-y,1/2+z
-x,1/2+y,1/2+z
x,1/2-y,1/2+z
loop_
_atom_site_type_symbol
_atom_site_label
_atom_site_fract_x
_atom_site_fract_y
_atom_site_fract_z
Si Si1 0.375177 0.557269 0.715970
Si Si2 0.056743 0.693864 0.439632
Si Si3 0.693213 0.806150 0.443747
Si Si4 0.693213 0.193850 0.488601
Si Si5 0.124823 0.057269 0.716375
Si Si6 0.443257 0.193864 0.992715
O O1 0.413961 0.616103 0.562110
O O2 0.336241 0.616043 0.868365
O O3 0.353985 0.500000 0.466172
O O4 0.396319 0.500000 0.966172
O O5 0.067673 0.722355 0.126758
O O6 1.000000 0.677655 0.466174
O O7 0.750000 0.822397 0.468317
O O8 0.682254 0.777485 0.130998
O O9 0.663759 0.883957 0.563982
O O10 0.750000 0.177603 0.464032
O O11 0.682254 0.222515 0.801350
O O12 0.086039 0.116103 0.870237
O O13 0.432327 0.277645 0.805589
#
# Coordination Sequence:
#
# PCOD9380205 Si02
#       6
#     8   8   8   8   8   8
#     4  12  24  37  58  90 125 155 189 245 309 358
#     4  10  21  40  63  83 109 152 201 242 285 348
#     4  10  21  39  62  85 115 160 207 245 285 347
#     4  10  21  39  62  85 115 160 207 245 285 347
#     4  12  24  37  58  90 125 155 189 245 309 358
#     4  10  21  40  63  83 109 152 201 242 285 348
#
# _framework density 22.788346000000001
#
# number of rings (size 3 to 8) (size 9 to 14) (size 15 to 20)
#    0.000    1.333    0.000    6.000    0.000    2.000 
#    0.000    1.667    0.000    0.000    0.000    0.000 
#    0.000    0.000    0.000    0.000    0.000    0.000 
#
# Total GULP energy -134439.023878 kJ/mol
# GULP energy per Si atom -5601.625995 kJ/mol
# Density = 2.273648 g / cm^3
# Si number density = 22.788346 Si / 1000 Ang^3
#
#
#
# Elastic Constant Matrix: (Units=GPa)
#
#
# Indices 1 2 3 4 5 6 
#
# 1 69.9414 29.7613 4.1762 0.0000 0.0000 0.0000
# 2 29.7613 84.5944 16.1335 0.0000 0.0000 0.0000
# 3 4.1762 16.1335 100.6110 -0.0001 -0.0001 0.0000
# 4 0.0000 0.0000 -0.0001 41.4703 0.0000 0.0000
# 5 0.0000 0.0000 -0.0001 0.0000 25.9491 0.0000
# 6 0.0000 0.0000 0.0000 0.0000 0.0000 0.6811
#
#
#
# Elastic Compliance Matrix: (Units=1/GPa)
#
#
# Indices 1 2 3 4 5 6 
#
# 1 0.016821 -0.005967 0.000259 0.000000 0.000000 0.000000
# 2 -0.005967 0.014311 -0.002047 0.000000 0.000000 0.000000
# 3 0.000259 -0.002047 0.010257 0.000000 0.000000 0.000000
# 4 0.000000 0.000000 0.000000 0.024114 0.000000 0.000000
# 5 0.000000 0.000000 0.000000 0.000000 0.038537 0.000000
# 6 0.000000 0.000000 0.000000 0.000000 0.000000 1.468109
#
#
# Mechanical properties :
#
#
# Convention : Reuss Voigt Hill
#
# Bulk Modulus (GPa) = 38.64352 39.47655 39.06004
# Shear Modulus (GPa) = 3.13227 27.29182 15.21205
#
# Velocity S-wave (km/s) = 1.17367 3.46442 2.58648
# Velocity P-wave (km/s) = 4.33948 5.77613 5.10856
#
# Compressibility (1/GPa) = 0.02587756
#
# Stress axis : x y z
#
# Youngs Moduli (GPa) = 59.44791 69.87675 97.49627
#
# Poissons Ratio (x) = 0.41698 -0.02522
# Poissons Ratio (y) = 0.35474 0.19959
# Poissons Ratio (z) = -0.01538 0.14305
#
# Static dielectric constant tensor:
#      x y z
#    x 1.827150 0.000000 0.000000 
#    y 0.000000 1.857700 0.000000 
#    z 0.000000 0.000000 1.818200 
# 
# From -- ./inp_files/2705.got.cif
#   From: 2010.05.17/outbox.cif.g08.bks.cpg/sg46_2_cif.got.tgz:2705.got - 2010.06.03 19:58:25.
