data_PCOD9380361
_publ_section_title
;
Structure prediction by ZEFSAII (Michael W. Deem and Ramdas Pophale) SiO2 
 PCOD9380361
Probable space group: I M A 2
;
_chemical_formula_sum "Si O2"
_cell_formula_units_Z 40
_cell_length_a 26.099533
_cell_length_b 4.887047
_cell_length_c 13.503642
_cell_angle_alpha 90.000000
_cell_angle_beta 90.000000
_cell_angle_gamma 90.000000
_cell_volume 1722.384736
_symmetry_space_group_name_H-M "I M A 2"
_symmetry_group_IT_number 46
_symmetry_cell_setting 'orthorhombic'
loop_
_space_group_symop_operation_xyz
x,y,z
-x,-y,z
1/2-x,y,z
1/2+x,-y,z
1/2+x,1/2+y,1/2+z
1/2-x,1/2-y,1/2+z
-x,1/2+y,1/2+z
x,1/2-y,1/2+z
loop_
_atom_site_type_symbol
_atom_site_label
_atom_site_fract_x
_atom_site_fract_y
_atom_site_fract_z
Si Si1 0.047837 0.288200 0.750000
Si Si2 0.750000 0.652202 0.220003
Si Si3 0.500000 0.500000 0.071803
Si Si4 0.250000 0.864183 0.103789
Si Si5 0.653616 0.925830 0.327741
Si Si6 0.189425 0.545789 0.434245
Si Si7 0.500000 0.500000 0.428617
O O1 0.102027 0.428591 0.765128
O O2 0.000000 0.500000 0.749450
O O3 0.042301 0.113948 0.649357
O O4 0.041720 0.106011 0.849511
O O5 0.750000 0.331869 0.197458
O O6 0.698728 0.781339 0.265874
O O7 0.750000 0.808361 0.114491
O O8 0.484301 0.749257 0.999764
O O9 0.301537 0.815564 0.040725
O O10 0.655493 0.724264 0.423722
O O11 0.667509 0.226589 0.362007
O O12 0.250000 0.489337 0.407985
#
# Coordination Sequence:
#
# PCOD9380361 Si02
#       7
#     8   4   4   4   8   8   4
#     4  11  27  48  73 107 146 184 249 302 357 440
#     4  12  20  42  60 100 132 176 220 282 348 410
#     4  11  24  49  72 102 144 183 240 305 360 432
#     4  10  22  40  62  94 144 162 230 280 328 408
#     4  12  24  42  71  95 134 185 224 279 359 413
#     4  10  21  43  63  91 133 178 220 274 330 413
#     4  11  24  49  74  98 140 193 236 297 370 434
#
# _framework density 23.223616
#
# number of rings (size 3 to 8) (size 9 to 14) (size 15 to 20)
#    0.600    0.400    4.000    2.400    5.600    0.000 
#   10.800    0.000    0.000    0.000    0.000    0.000 
#    0.000    0.000    0.000    0.000    0.000    0.000 
#
# Total GULP energy -111552.069778 kJ/mol
# GULP energy per Si atom -5577.603489 kJ/mol
# Density = 2.317076 g / cm^3
# Si number density = 23.223616 Si / 1000 Ang^3
#
#
#
# Elastic Constant Matrix: (Units=GPa)
#
#
# Indices 1 2 3 4 5 6 
#
# 1 63.2543 4.0333 2.1750 0.0000 0.0000 0.0000
# 2 4.0333 118.9565 22.7800 0.0000 0.0000 0.0000
# 3 2.1750 22.7800 95.9019 0.0000 0.0000 0.0000
# 4 0.0000 0.0000 0.0000 44.8424 0.0000 0.0000
# 5 0.0000 0.0000 0.0000 0.0000 -2.7873 0.0000
# 6 0.0000 0.0000 0.0000 0.0000 0.0000 26.9647
#
#
#
# Elastic Compliance Matrix: (Units=1/GPa)
#
#
# Indices 1 2 3 4 5 6 
#
# 1 0.015849 -0.000491 -0.000243 0.000000 0.000000 0.000000
# 2 -0.000491 0.008822 -0.002084 0.000000 0.000000 0.000000
# 3 -0.000243 -0.002084 0.010928 0.000000 0.000000 0.000000
# 4 0.000000 0.000000 0.000000 0.022300 0.000000 0.000000
# 5 0.000000 0.000000 0.000000 0.000000 -0.358764 0.000000
# 6 0.000000 0.000000 0.000000 0.000000 0.000000 0.037085
#
#
# Mechanical properties :
#
#
# Convention : Reuss Voigt Hill
#
# Bulk Modulus (GPa) = 33.37480 37.34326 35.35903
# Shear Modulus (GPa) = -20.14869 30.41224 5.13178
#
# Velocity S-wave (km/s) = -2.94869 3.62268 1.48813
# Velocity P-wave (km/s) = 1.67607 5.79769 4.26746
#
# Compressibility (1/GPa) = 0.02996273
#
# Stress axis : x y z
#
# Youngs Moduli (GPa) = 63.09605 113.34983 91.50835
#
# Poissons Ratio (x) = 0.05564 0.02222
# Poissons Ratio (y) = 0.03097 0.19074
# Poissons Ratio (z) = 0.01532 0.23627
#
# Static dielectric constant tensor:
#      x y z
#    x 1.866100 0.000000 0.000000 
#    y 0.000000 1.929980 0.000000 
#    z 0.000000 0.000000 2.261440 
# 
# From -- ./inp_files/12971.got.cif
#   From: 2010.05.17/outbox.cif.g08.bks.cpg/sg46_7_cif.got.tgz:12971.got - 2010.06.03 19:58:25.
