data_PCOD9380750
_publ_section_title
;
Structure prediction by ZEFSAII (Michael W. Deem and Ramdas Pophale) SiO2 
 PCOD9380750
Probable space group: I M A 2
;
_chemical_formula_sum "Si O2"
_cell_formula_units_Z 40
_cell_length_a 27.788445
_cell_length_b 4.980978
_cell_length_c 10.922446
_cell_angle_alpha 90.000000
_cell_angle_beta 90.000000
_cell_angle_gamma 90.000000
_cell_volume 1511.815434
_symmetry_space_group_name_H-M "I M A 2"
_symmetry_group_IT_number 46
_symmetry_cell_setting 'orthorhombic'
loop_
_space_group_symop_operation_xyz
x,y,z
-x,-y,z
1/2-x,y,z
1/2+x,-y,z
1/2+x,1/2+y,1/2+z
1/2-x,1/2-y,1/2+z
-x,1/2+y,1/2+z
x,1/2-y,1/2+z
loop_
_atom_site_type_symbol
_atom_site_label
_atom_site_fract_x
_atom_site_fract_y
_atom_site_fract_z
Si Si1 0.872150 0.111947 0.965260
Si Si2 0.804403 0.201632 0.655758
Si Si3 0.306109 0.198040 0.326273
Si Si4 0.056693 0.467764 0.888188
Si Si5 0.446823 0.361985 0.629778
O O1 0.909665 0.272073 0.879992
O O2 0.845176 0.845807 0.914514
O O3 0.831160 0.290721 0.026968
O O4 0.905684 0.058973 0.083446
O O5 0.750000 0.281138 0.628738
O O6 0.818771 0.413278 0.763259
O O7 0.806129 0.908733 0.713484
O O8 0.250000 0.190083 0.372972
O O9 0.065487 0.283779 0.768495
O O10 0.000000 0.500000 0.874072
O O11 0.059280 0.359920 0.025709
O O12 0.500000 0.500000 0.619072
#
# Coordination Sequence:
#
# PCOD9380750 Si02
#       5
#     8   8   8   8   8
#     4  12  25  42  73 105 142 203 260 320 392 485
#     4  10  24  45  70 105 150 196 251 321 390 469
#     4  10  24  45  69 105 150 195 251 321 392 468
#     4  11  26  48  69 107 152 204 267 331 411 475
#     4  11  26  46  71 104 150 204 256 337 398 485
#
# _framework density 26.458255999999999
#
# number of rings (size 3 to 8) (size 9 to 14) (size 15 to 20)
#    0.000    1.200    2.000    1.800    8.400    2.400 
#    0.000    6.000    0.000    0.000    0.000    0.000 
#    0.000    0.000    0.000    0.000    0.000    0.000 
#
# Total GULP energy -111771.481255 kJ/mol
# GULP energy per Si atom -5588.574063 kJ/mol
# Density = 2.639804 g / cm^3
# Si number density = 26.458256 Si / 1000 Ang^3
#
#
#
# Elastic Constant Matrix: (Units=GPa)
#
#
# Indices 1 2 3 4 5 6 
#
# 1 164.7179 16.1785 47.2374 0.0000 0.0000 0.0000
# 2 16.1785 80.5135 40.6419 0.0000 0.0000 0.0000
# 3 47.2374 40.6419 136.1733 0.0000 0.0000 0.0000
# 4 0.0000 0.0000 0.0000 122.9674 0.0000 0.0000
# 5 0.0000 0.0000 0.0000 0.0000 3.3957 0.0000
# 6 0.0000 0.0000 0.0000 0.0000 0.0000 30.9974
#
#
#
# Elastic Compliance Matrix: (Units=1/GPa)
#
#
# Indices 1 2 3 4 5 6 
#
# 1 0.006745 -0.000205 -0.002278 0.000000 0.000000 0.000000
# 2 -0.000205 0.014630 -0.004295 0.000000 0.000000 0.000000
# 3 -0.002278 -0.004295 0.009416 0.000000 0.000000 0.000000
# 4 0.000000 0.000000 0.000000 0.008132 0.000000 0.000000
# 5 0.000000 0.000000 0.000000 0.000000 0.294490 0.000000
# 6 0.000000 0.000000 0.000000 0.000000 0.000000 0.032261
#
#
# Mechanical properties :
#
#
# Convention : Reuss Voigt Hill
#
# Bulk Modulus (GPa) = 58.02950 65.50224 61.76587
# Shear Modulus (GPa) = 12.98787 49.96190 31.47488
#
# Velocity S-wave (km/s) = 2.21799 4.35021 3.45281
# Velocity P-wave (km/s) = 5.34223 7.07410 6.26827
#
# Compressibility (1/GPa) = 0.01723261
#
# Stress axis : x y z
#
# Youngs Moduli (GPa) = 148.26838 68.35445 106.20386
#
# Poissons Ratio (x) = 0.01402 0.24197
# Poissons Ratio (y) = 0.03042 0.45616
# Poissons Ratio (z) = 0.33781 0.29359
#
# Static dielectric constant tensor:
#      x y z
#    x 2.350080 0.000000 0.000000 
#    y 0.000000 2.149140 0.000000 
#    z 0.000000 0.000000 2.075160 
# 
# From -- ./inp_files/12915.got.cif
#   From: 2010.05.17/outbox.cif.g08.bks.cpg/sg46_7_cif.got.tgz:12915.got - 2010.06.03 19:58:25.
