data_PCOD9380518
_publ_section_title
;
Structure prediction by ZEFSAII (Michael W. Deem and Ramdas Pophale) SiO2 
 PCOD9380518
Probable space group: I M A 2
;
_chemical_formula_sum "Si O2"
_cell_formula_units_Z 64
_cell_length_a 14.656703
_cell_length_b 12.607159
_cell_length_c 16.009063
_cell_angle_alpha 90.000000
_cell_angle_beta 90.000000
_cell_angle_gamma 90.000000
_cell_volume 2958.144818
_symmetry_space_group_name_H-M "I M A 2"
_symmetry_group_IT_number 46
_symmetry_cell_setting 'orthorhombic'
loop_
_space_group_symop_operation_xyz
x,y,z
-x,-y,z
1/2-x,y,z
1/2+x,-y,z
1/2+x,1/2+y,1/2+z
1/2-x,1/2-y,1/2+z
-x,1/2+y,1/2+z
x,1/2-y,1/2+z
loop_
_atom_site_type_symbol
_atom_site_label
_atom_site_fract_x
_atom_site_fract_y
_atom_site_fract_z
Si Si1 0.895299 0.461394 0.428910
Si Si2 0.645356 0.053248 0.564935
Si Si3 0.859959 0.206822 0.073864
Si Si4 0.143161 0.246578 0.297445
Si Si5 0.351451 0.372738 0.557287
Si Si6 0.891572 0.990360 0.752809
Si Si7 0.860745 0.657949 0.980403
Si Si8 0.508142 0.608898 0.689836
O O1 0.880792 0.364645 0.492325
O O2 0.847241 0.562743 0.471205
O O3 0.865173 0.439733 0.333954
O O4 0.000000 0.500000 0.424475
O O5 0.750000 0.063420 0.535922
O O6 0.607647 0.172172 0.558876
O O7 0.646567 0.020328 0.662547
O O8 0.604411 0.955620 0.511903
O O9 0.750000 0.204164 0.088600
O O10 0.916915 0.159849 0.151929
O O11 0.250000 0.218467 0.283663
O O12 0.134228 0.371872 0.281442
O O13 0.116792 0.202298 0.388995
O O14 0.070744 0.192947 0.236489
O O15 0.250000 0.373551 0.593922
O O16 0.384234 0.253077 0.543265
O O17 0.426225 0.427537 0.613643
O O18 0.000000 0.000000 0.742164
O O19 0.750000 0.653788 0.983249
O O20 0.500000 0.500000 0.741676
#
# Coordination Sequence:
#
# PCOD9380518 Si02
#       8
#     8   8   8   8   8   8   8   8
#     4  11  21  39  65  96 130 167 216 275 323 397
#     4  10  22  41  62  90 129 172 219 268 323 398
#     4  11  23  41  65  89 126 179 222 265 334 412
#     4  11  23  41  67  98 132 173 224 281 339 400
#     4  11  19  35  65  94 122 162 208 267 332 388
#     4  11  23  40  65  99 134 171 218 278 331 394
#     4   9  20  39  64  95 127 165 217 274 332 393
#     4  12  24  40  60  92 133 166 220 275 331 401
#
# _framework density 21.635182
#
# number of rings (size 3 to 8) (size 9 to 14) (size 15 to 20)
#    0.000    1.250    3.750    2.625    0.000    3.000 
#    0.000    5.625    0.000    3.000    0.000    0.000 
#    0.000    0.000    0.000    0.000    0.000    0.000 
#
# Total GULP energy -178656.762694 kJ/mol
# GULP energy per Si atom -5583.023834 kJ/mol
# Density = 2.158594 g / cm^3
# Si number density = 21.635182 Si / 1000 Ang^3
#
#
#
# Elastic Constant Matrix: (Units=GPa)
#
#
# Indices 1 2 3 4 5 6 
#
# 1 98.2626 22.9656 15.9437 0.0000 0.0000 0.0000
# 2 22.9656 165.9709 44.7664 0.0000 0.0000 0.0000
# 3 15.9437 44.7664 79.6487 0.0000 0.0000 0.0000
# 4 0.0000 0.0000 0.0000 30.9833 0.0000 0.0000
# 5 0.0000 0.0000 0.0000 0.0000 15.6469 0.0000
# 6 0.0000 0.0000 0.0000 0.0000 0.0000 27.4142
#
#
#
# Elastic Compliance Matrix: (Units=1/GPa)
#
#
# Indices 1 2 3 4 5 6 
#
# 1 0.010675 -0.001062 -0.001540 0.000000 0.000000 0.000000
# 2 -0.001062 0.007207 -0.003838 0.000000 0.000000 0.000000
# 3 -0.001540 -0.003838 0.015021 0.000000 0.000000 0.000000
# 4 0.000000 0.000000 0.000000 0.032275 0.000000 0.000000
# 5 0.000000 0.000000 0.000000 0.000000 0.063910 0.000000
# 6 0.000000 0.000000 0.000000 0.000000 0.000000 0.036477
#
#
# Mechanical properties :
#
#
# Convention : Reuss Voigt Hill
#
# Bulk Modulus (GPa) = 49.94348 56.80374 53.37361
# Shear Modulus (GPa) = 27.00941 32.15599 29.58270
#
# Velocity S-wave (km/s) = 3.53711 3.85942 3.70177
# Velocity P-wave (km/s) = 6.30999 6.79503 6.55700
#
# Compressibility (1/GPa) = 0.02002263
#
# Stress axis : x y z
#
# Youngs Moduli (GPa) = 93.67823 138.74702 66.57449
#
# Poissons Ratio (x) = 0.14730 0.10253
# Poissons Ratio (y) = 0.09946 0.25554
# Poissons Ratio (z) = 0.14428 0.53256
#
# Static dielectric constant tensor:
#      x y z
#    x 1.817110 0.000000 0.000000 
#    y 0.000000 1.825600 0.000000 
#    z 0.000000 0.000000 1.811740 
# 
# From -- ./inp_files/19655.got.cif
#   From: 2010.05.17/outbox.cif.g08.bks.cpg/sg46_10_cif.got.tgz:19655.got - 2010.06.03 19:58:25.
