data_PCOD9380901
_publ_section_title
;
Structure prediction by ZEFSAII (Michael W. Deem and Ramdas Pophale) SiO2 
 PCOD9380901
Probable space group: I M A 2
;
_chemical_formula_sum "Si O2"
_cell_formula_units_Z 48
_cell_length_a 8.602412
_cell_length_b 14.172874
_cell_length_c 18.623301
_cell_angle_alpha 90.000000
_cell_angle_beta 90.000000
_cell_angle_gamma 90.000000
_cell_volume 2270.569644
_symmetry_space_group_name_H-M "I M A 2"
_symmetry_group_IT_number 46
_symmetry_cell_setting 'orthorhombic'
loop_
_space_group_symop_operation_xyz
x,y,z
-x,-y,z
1/2-x,y,z
1/2+x,-y,z
1/2+x,1/2+y,1/2+z
1/2-x,1/2-y,1/2+z
-x,1/2+y,1/2+z
x,1/2-y,1/2+z
loop_
_atom_site_type_symbol
_atom_site_label
_atom_site_fract_x
_atom_site_fract_y
_atom_site_fract_z
Si Si1 0.437411 0.746535 0.885460
Si Si2 0.072990 0.900674 0.612015
Si Si3 0.435963 0.105853 0.281663
Si Si4 0.074016 0.595137 0.284602
Si Si5 0.438773 0.692137 0.633971
Si Si6 0.063801 0.102103 0.996677
O O1 0.250000 0.735997 0.888875
O O2 0.508440 0.648232 0.858667
O O3 0.496223 0.813751 0.820120
O O4 0.494383 0.808586 0.952597
O O5 0.250000 0.898781 0.585366
O O6 0.073355 0.905548 0.698979
O O7 0.004848 0.795312 0.604167
O O8 0.000000 0.000000 0.586818
O O9 0.250000 0.107513 0.277553
O O10 0.504946 0.164605 0.213590
O O11 0.500000 0.000000 0.274559
O O12 0.250000 0.595163 0.309217
O O13 0.000000 0.500000 0.310280
O O14 0.250000 0.694811 0.634722
O O15 0.504299 0.617212 0.577802
O O16 0.250000 0.102922 0.992178
O O17 0.000000 0.000000 0.972078
#
# Coordination Sequence:
#
# PCOD9380901 Si02
#       6
#     8   8   8   8   8   8
#     4  11  22  41  64  91 126 165 210 263 319 383
#     4   9  18  33  55  86 122 158 200 250 306 365
#     4  12  25  42  66  96 128 168 215 270 327 389
#     4   9  17  30  51  82 117 153 192 241 297 357
#     4  11  22  42  66  93 130 173 218 270 326 386
#     4  12  26  44  65  96 131 171 217 266 327 394
#
# _framework density 21.140070999999999
#
# number of rings (size 3 to 8) (size 9 to 14) (size 15 to 20)
#    0.000    1.333    1.667    5.000    0.000    4.000 
#    0.000    0.833    0.000    2.000    0.000    0.000 
#    0.000    0.000    0.000    0.000    0.000    0.000 
#
# Total GULP energy -133813.312816 kJ/mol
# GULP energy per Si atom -5575.554701 kJ/mol
# Density = 2.109196 g / cm^3
# Si number density = 21.140071 Si / 1000 Ang^3
#
#
#
# Elastic Constant Matrix: (Units=GPa)
#
#
# Indices 1 2 3 4 5 6 
#
# 1 96.9066 32.1690 25.8387 0.0000 0.0000 0.0000
# 2 32.1690 129.6304 31.1944 0.0000 0.0000 0.0000
# 3 25.8387 31.1944 72.9009 0.0000 0.0000 0.0000
# 4 0.0000 0.0000 0.0000 30.5927 0.0000 0.0000
# 5 0.0000 0.0000 0.0000 0.0000 22.9321 0.0000
# 6 0.0000 0.0000 0.0000 0.0000 0.0000 32.8466
#
#
#
# Elastic Compliance Matrix: (Units=1/GPa)
#
#
# Indices 1 2 3 4 5 6 
#
# 1 0.011917 -0.002164 -0.003298 0.000000 0.000000 0.000000
# 2 -0.002164 0.008993 -0.003081 0.000000 0.000000 0.000000
# 3 -0.003298 -0.003081 0.016205 0.000000 0.000000 0.000000
# 4 0.000000 0.000000 0.000000 0.032688 0.000000 0.000000
# 5 0.000000 0.000000 0.000000 0.000000 0.043607 0.000000
# 6 0.000000 0.000000 0.000000 0.000000 0.000000 0.030445
#
#
# Mechanical properties :
#
#
# Convention : Reuss Voigt Hill
#
# Bulk Modulus (GPa) = 49.92842 53.09356 51.51099
# Shear Modulus (GPa) = 29.83034 31.29000 30.56017
#
# Velocity S-wave (km/s) = 3.76051 3.85142 3.80623
# Velocity P-wave (km/s) = 6.52108 6.70429 6.61332
#
# Compressibility (1/GPa) = 0.02002867
#
# Stress axis : x y z
#
# Youngs Moduli (GPa) = 83.91515 111.20251 61.71104
#
# Poissons Ratio (x) = 0.24060 0.20352
# Poissons Ratio (y) = 0.18156 0.19014
# Poissons Ratio (z) = 0.27675 0.34262
#
# Static dielectric constant tensor:
#      x y z
#    x 1.725130 0.000000 0.000000 
#    y 0.000000 1.791800 0.000000 
#    z 0.000000 0.000000 1.778420 
# 
# From -- ./inp_files/18169.got.cif
#   From: 2010.05.17/outbox.cif.g08.bks.cpg/sg46_10_cif.got.tgz:18169.got - 2010.06.03 19:58:25.
