data_PCOD9380208
_publ_section_title
;
Structure prediction by ZEFSAII (Michael W. Deem and Ramdas Pophale) SiO2 
 PCOD9380208
Probable space group: I M A 2
;
_chemical_formula_sum "Si O2"
_cell_formula_units_Z 64
_cell_length_a 14.082447
_cell_length_b 25.993884
_cell_length_c 8.665401
_cell_angle_alpha 90.000000
_cell_angle_beta 90.000000
_cell_angle_gamma 90.000000
_cell_volume 3172.034972
_symmetry_space_group_name_H-M "I M A 2"
_symmetry_group_IT_number 46
_symmetry_cell_setting 'orthorhombic'
loop_
_space_group_symop_operation_xyz
x,y,z
-x,-y,z
1/2-x,y,z
1/2+x,-y,z
1/2+x,1/2+y,1/2+z
1/2-x,1/2-y,1/2+z
-x,1/2+y,1/2+z
x,1/2-y,1/2+z
loop_
_atom_site_type_symbol
_atom_site_label
_atom_site_fract_x
_atom_site_fract_y
_atom_site_fract_z
Si Si1 0.983152 0.939589 0.303950
Si Si2 0.141893 0.803656 0.050586
Si Si3 0.143025 0.576811 0.573236
Si Si4 0.968353 0.227627 0.352041
Si Si5 0.982179 0.637251 0.074621
Si Si6 0.138487 0.403334 0.512885
Si Si7 0.515967 0.445861 0.295986
Si Si8 0.137911 0.196039 0.827629
O O1 0.951827 0.905321 0.448702
O O2 0.909885 0.925233 0.166786
O O3 0.084822 0.923351 0.231922
O O4 0.000000 0.000000 0.332516
O O5 0.250000 0.788408 0.090157
O O6 0.142522 0.864145 0.019504
O O7 0.069818 0.792925 0.190410
O O8 0.102506 0.772212 0.906889
O O9 0.250000 0.558260 0.592132
O O10 0.086731 0.546833 0.440119
O O11 0.968316 0.182531 0.478776
O O12 0.072194 0.253729 0.342235
O O13 0.044676 0.602210 0.190239
O O14 0.901696 0.664779 0.178574
O O15 0.250000 0.412755 0.512596
O O16 0.083952 0.430164 0.372242
O O17 0.123491 0.342424 0.474665
O O18 0.500000 0.500000 0.212895
O O19 0.250000 0.206658 0.813857
#
# Coordination Sequence:
#
# PCOD9380208 Si02
#       8
#     8   8   8   8   8   8   8   8
#     4  11  22  37  61  91 123 160 202 251 310 362
#     4  11  23  39  63  92 122 161 204 246 306 372
#     4  10  21  39  62  90 121 155 201 253 298 358
#     4  12  22  41  63  88 125 163 198 253 305 367
#     4  11  23  40  61  85 128 159 198 249 307 355
#     4   9  19  37  63  90 120 157 202 251 301 363
#     4  10  21  39  62  86 116 160 208 249 298 359
#     4  10  23  42  65  92 122 163 210 251 304 374
#
# _framework density 20.176323
#
# number of rings (size 3 to 8) (size 9 to 14) (size 15 to 20)
#    0.000    1.500    2.500    4.500    0.000    3.000 
#    0.000    1.250    0.000    3.000    0.000    0.000 
#    0.000    0.000    0.000    0.000    0.000    0.000 
#
# Total GULP energy -178561.035324 kJ/mol
# GULP energy per Si atom -5580.032354 kJ/mol
# Density = 2.013040 g / cm^3
# Si number density = 20.176323 Si / 1000 Ang^3
#
#
#
# Elastic Constant Matrix: (Units=GPa)
#
#
# Indices 1 2 3 4 5 6 
#
# 1 97.8722 15.4693 5.7058 0.0004 -0.0001 -0.0002
# 2 15.4693 76.1830 9.3560 -0.0003 0.0001 -0.0003
# 3 5.7058 9.3560 62.3850 0.0006 -0.0012 -0.0012
# 4 0.0004 -0.0003 0.0006 33.8401 -0.0002 0.0001
# 5 -0.0001 0.0001 -0.0012 -0.0002 11.4603 -0.0002
# 6 -0.0002 -0.0003 -0.0012 0.0001 -0.0002 11.9663
#
#
#
# Elastic Compliance Matrix: (Units=1/GPa)
#
#
# Indices 1 2 3 4 5 6 
#
# 1 0.010583 -0.002068 -0.000658 0.000000 0.000000 0.000000
# 2 -0.002068 0.013777 -0.001877 0.000000 0.000000 0.000000
# 3 -0.000658 -0.001877 0.016371 0.000000 0.000002 0.000002
# 4 0.000000 0.000000 0.000000 0.029551 0.000000 0.000000
# 5 0.000000 0.000000 0.000002 0.000000 0.087258 0.000001
# 6 0.000000 0.000000 0.000002 0.000000 0.000001 0.083568
#
#
# Mechanical properties :
#
#
# Convention : Reuss Voigt Hill
#
# Bulk Modulus (GPa) = 31.72094 33.05583 32.38838
# Shear Modulus (GPa) = 19.17021 25.18060 22.17541
#
# Velocity S-wave (km/s) = 3.08577 3.53658 3.31884
# Velocity P-wave (km/s) = 5.33404 5.75287 5.54741
#
# Compressibility (1/GPa) = 0.03152492
#
# Stress axis : x y z
#
# Youngs Moduli (GPa) = 94.49455 72.58621 61.08306
#
# Poissons Ratio (x) = 0.15011 0.04018
# Poissons Ratio (y) = 0.19542 0.11465
# Poissons Ratio (z) = 0.06215 0.13624
#
# Static dielectric constant tensor:
#      x y z
#    x 1.690930 0.000000 0.000000 
#    y 0.000000 1.756320 0.000000 
#    z 0.000000 0.000000 1.727420 
# 
# From -- ./inp_files/6098.got.cif
#   From: 2010.05.17/outbox.cif.g08.bks.cpg/sg46_4_cif.got.tgz:6098.got - 2010.06.03 19:58:25.
