data_PCOD9380608
_publ_section_title
;
Structure prediction by ZEFSAII (Michael W. Deem and Ramdas Pophale) SiO2 
 PCOD9380608
Probable space group: I M A 2
;
_chemical_formula_sum "Si O2"
_cell_formula_units_Z 28
_cell_length_a 24.118482
_cell_length_b 5.192240
_cell_length_c 8.776751
_cell_angle_alpha 90.000000
_cell_angle_beta 90.000000
_cell_angle_gamma 90.000000
_cell_volume 1099.103286
_symmetry_space_group_name_H-M "I M A 2"
_symmetry_group_IT_number 46
_symmetry_cell_setting 'orthorhombic'
loop_
_space_group_symop_operation_xyz
x,y,z
-x,-y,z
1/2-x,y,z
1/2+x,-y,z
1/2+x,1/2+y,1/2+z
1/2-x,1/2-y,1/2+z
-x,1/2+y,1/2+z
x,1/2-y,1/2+z
loop_
_atom_site_type_symbol
_atom_site_label
_atom_site_fract_x
_atom_site_fract_y
_atom_site_fract_z
Si Si1 0.000000 0.000000 0.205621
Si Si2 0.581099 0.770424 0.945108
Si Si3 0.750000 0.780778 0.364750
Si Si4 0.250000 0.719500 0.573316
Si Si5 0.345846 0.018781 0.698663
O O1 0.045034 0.088121 0.336953
O O2 0.042070 0.105406 0.071654
O O3 0.608787 0.985467 0.833643
O O4 0.625671 0.608997 0.042897
O O5 0.750000 0.543740 0.483054
O O6 0.803202 0.732112 0.260380
O O7 0.750000 0.045524 0.452977
O O8 0.306331 0.775733 0.667487
#
# Coordination Sequence:
#
# PCOD9380608 Si02
#       5
#     4   8   4   4   8
#     4  10  24  44  70  98 148 188 260 312 386 428
#     4  10  22  49  70 110 146 199 246 330 372 464
#     4  11  24  46  71 115 152 195 247 310 372 475
#     4  11  24  46  71 115 152 195 247 310 372 475
#     4  10  22  44  75 102 155 193 248 298 397 442
#
# _framework density 25.475315999999999
#
# number of rings (size 3 to 8) (size 9 to 14) (size 15 to 20)
#    0.000    1.714    2.857    0.000    0.000    9.143 
#   15.429    0.000    0.000    0.000    0.000    0.000 
#    0.000    0.000    0.000    0.000    0.000    0.000 
#
# Total GULP energy -77953.170247 kJ/mol
# GULP energy per Si atom -5568.083589 kJ/mol
# Density = 2.541733 g / cm^3
# Si number density = 25.475316 Si / 1000 Ang^3
#
#
#
# Elastic Constant Matrix: (Units=GPa)
#
#
# Indices 1 2 3 4 5 6 
#
# 1 170.2033 49.5515 118.0168 0.0000 0.0000 0.0000
# 2 49.5515 125.1419 79.4030 0.0000 0.0000 0.0000
# 3 118.0168 79.4030 257.3552 0.0000 0.0000 0.0000
# 4 0.0000 0.0000 0.0000 35.1466 0.0000 0.0000
# 5 0.0000 0.0000 0.0000 0.0000 -57.7776 0.0000
# 6 0.0000 0.0000 0.0000 0.0000 0.0000 -9.7879
#
#
#
# Elastic Compliance Matrix: (Units=1/GPa)
#
#
# Indices 1 2 3 4 5 6 
#
# 1 0.008744 -0.001142 -0.003657 0.000000 0.000000 0.000000
# 2 -0.001142 0.010085 -0.002588 0.000000 0.000000 0.000000
# 3 -0.003657 -0.002588 0.006361 0.000000 0.000000 0.000000
# 4 0.000000 0.000000 0.000000 0.028452 0.000000 0.000000
# 5 0.000000 0.000000 0.000000 0.000000 -0.017308 0.000000
# 6 0.000000 0.000000 0.000000 0.000000 0.000000 -0.102167
#
#
# Mechanical properties :
#
#
# Convention : Reuss Voigt Hill
#
# Bulk Modulus (GPa) = 96.00581 116.29367 106.14974
# Shear Modulus (GPa) = -105.07295 13.89816 -45.58740
#
# Velocity S-wave (km/s) = -6.42919 2.33824 -4.23481
# Velocity P-wave (km/s) = 4.16474 7.28275 4.22454
#
# Compressibility (1/GPa) = 0.01041604
#
# Stress axis : x y z
#
# Youngs Moduli (GPa) = 114.36831 99.15608 157.19742
#
# Poissons Ratio (x) = 0.11319 0.57494
# Poissons Ratio (y) = 0.13055 0.40685
# Poissons Ratio (z) = 0.41830 0.25663
#
# Static dielectric constant tensor:
#      x y z
#    x 2.066190 0.000000 0.000000 
#    y 0.000000 2.026710 0.000000 
#    z 0.000000 0.000000 2.001910 
# 
# From -- ./inp_files/8054.got.cif
#   From: 2010.05.17/outbox.cif.g08.bks.cpg/sg46_5_cif.got.tgz:8054.got - 2010.06.03 19:58:25.
