data_PCOD9380697
_publ_section_title
;
Structure prediction by ZEFSAII (Michael W. Deem and Ramdas Pophale) SiO2 
 PCOD9380697
Probable space group: I M A 2
;
_chemical_formula_sum "Si O2"
_cell_formula_units_Z 56
_cell_length_a 21.094089
_cell_length_b 8.871354
_cell_length_c 13.972948
_cell_angle_alpha 90.000000
_cell_angle_beta 90.000000
_cell_angle_gamma 90.000000
_cell_volume 2614.801506
_symmetry_space_group_name_H-M "I M A 2"
_symmetry_group_IT_number 46
_symmetry_cell_setting 'orthorhombic'
loop_
_space_group_symop_operation_xyz
x,y,z
-x,-y,z
1/2-x,y,z
1/2+x,-y,z
1/2+x,1/2+y,1/2+z
1/2-x,1/2-y,1/2+z
-x,1/2+y,1/2+z
x,1/2-y,1/2+z
loop_
_atom_site_type_symbol
_atom_site_label
_atom_site_fract_x
_atom_site_fract_y
_atom_site_fract_z
Si Si1 0.320842 0.424857 0.369610
Si Si2 0.180531 0.553519 0.155640
Si Si3 0.607697 0.870375 0.337310
Si Si4 0.425237 0.481601 0.512804
Si Si5 0.073529 0.367586 0.045067
Si Si6 0.997250 0.831104 0.731677
Si Si7 0.381980 0.646804 0.703421
O O1 0.250000 0.449971 0.408961
O O2 0.321860 0.479955 0.260549
O O3 0.337491 0.246986 0.366511
O O4 0.375667 0.511727 0.427767
O O5 0.250000 0.525342 0.112979
O O6 0.125082 0.474429 0.095514
O O7 0.169913 0.731206 0.172692
O O8 0.570678 0.917332 0.434411
O O9 0.559138 0.769048 0.274676
O O10 0.632446 0.010698 0.275761
O O11 0.500000 0.500000 0.490133
O O12 0.408818 0.308568 0.538149
O O13 0.410144 0.576970 0.606440
O O14 0.014485 0.352267 0.117664
O O15 0.061746 0.744547 0.749749
O O16 0.000000 0.000000 0.771523
#
# Coordination Sequence:
#
# PCOD9380697 Si02
#       7
#     8   8   8   8   8   8   8
#     4  10  23  44  68  96 135 184 234 279 346 418
#     4  11  25  46  67  93 134 187 235 282 344 416
#     4  11  24  41  68 103 132 176 233 282 346 407
#     4  11  22  40  70 104 139 174 229 288 342 416
#     4  11  23  43  66  99 135 183 223 282 341 416
#     4  12  22  43  66  98 141 182 221 276 355 417
#     4  12  23  42  67  99 142 175 225 293 347 409
#
# _framework density 21.416540000000001
#
# number of rings (size 3 to 8) (size 9 to 14) (size 15 to 20)
#    0.000    0.857    5.714    0.429    0.000   10.286 
#    0.000    1.429    0.000    0.000    0.000    0.000 
#    0.000    0.000    0.000    0.000    0.000    0.000 
#
# Total GULP energy -156356.634541 kJ/mol
# GULP energy per Si atom -5584.165519 kJ/mol
# Density = 2.136779 g / cm^3
# Si number density = 21.416540 Si / 1000 Ang^3
#
#
#
# Elastic Constant Matrix: (Units=GPa)
#
#
# Indices 1 2 3 4 5 6 
#
# 1 94.5779 27.3141 22.7162 0.0000 0.0000 0.0000
# 2 27.3141 111.9694 29.1409 0.0000 0.0000 0.0000
# 3 22.7162 29.1409 95.2308 0.0000 0.0000 0.0000
# 4 0.0000 0.0000 0.0000 -2.5502 0.0000 0.0000
# 5 0.0000 0.0000 0.0000 0.0000 9.8822 0.0000
# 6 0.0000 0.0000 0.0000 0.0000 0.0000 12.7965
#
#
#
# Elastic Compliance Matrix: (Units=1/GPa)
#
#
# Indices 1 2 3 4 5 6 
#
# 1 0.011746 -0.002321 -0.002092 0.000000 0.000000 0.000000
# 2 -0.002321 0.010162 -0.002556 0.000000 0.000000 0.000000
# 3 -0.002092 -0.002556 0.011782 0.000000 0.000000 0.000000
# 4 0.000000 0.000000 0.000000 -0.392123 0.000000 0.000000
# 5 0.000000 0.000000 0.000000 0.000000 0.101192 0.000000
# 6 0.000000 0.000000 0.000000 0.000000 0.000000 0.078146
#
#
# Mechanical properties :
#
#
# Convention : Reuss Voigt Hill
#
# Bulk Modulus (GPa) = 50.62548 51.12451 50.87499
# Shear Modulus (GPa) = -31.53120 18.86616 -6.33252
#
# Velocity S-wave (km/s) = -3.84120 2.97124 -1.72141
# Velocity P-wave (km/s) = 2.00419 5.97448 4.45596
#
# Compressibility (1/GPa) = 0.01975290
#
# Stress axis : x y z
#
# Youngs Moduli (GPa) = 85.13550 98.40156 84.87578
#
# Poissons Ratio (x) = 0.22839 0.17753
# Poissons Ratio (y) = 0.19760 0.21695
# Poissons Ratio (z) = 0.17807 0.25152
#
# Static dielectric constant tensor:
#      x y z
#    x 1.818650 0.000000 0.000000 
#    y 0.000000 1.801470 0.000000 
#    z 0.000000 0.000000 1.802330 
# 
# From -- ./inp_files/17095.got.cif
#   From: 2010.05.17/outbox.cif.g08.bks.cpg/sg46_9_cif.got.tgz:17095.got - 2010.06.03 19:58:25.
