data_PCOD9380791
_publ_section_title
;
Structure prediction by ZEFSAII (Michael W. Deem and Ramdas Pophale) SiO2 
 PCOD9380791
Probable space group: I M A 2
;
_chemical_formula_sum "Si O2"
_cell_formula_units_Z 40
_cell_length_a 21.143298
_cell_length_b 8.177838
_cell_length_c 8.937986
_cell_angle_alpha 90.000000
_cell_angle_beta 90.000000
_cell_angle_gamma 90.000000
_cell_volume 1545.435571
_symmetry_space_group_name_H-M "I M A 2"
_symmetry_group_IT_number 46
_symmetry_cell_setting 'orthorhombic'
loop_
_space_group_symop_operation_xyz
x,y,z
-x,-y,z
1/2-x,y,z
1/2+x,-y,z
1/2+x,1/2+y,1/2+z
1/2-x,1/2-y,1/2+z
-x,1/2+y,1/2+z
x,1/2-y,1/2+z
loop_
_atom_site_type_symbol
_atom_site_label
_atom_site_fract_x
_atom_site_fract_y
_atom_site_fract_z
Si Si1 0.978951 0.249004 0.849940
Si Si2 0.626519 0.070315 0.510292
Si Si3 0.750000 0.561439 0.848444
Si Si4 0.622690 0.429466 0.518824
Si Si5 0.250000 0.424315 0.485463
Si Si6 0.930827 0.753456 0.600242
O O1 0.001078 0.242740 0.680433
O O2 0.865313 0.248804 0.587813
O O3 0.047154 0.252051 0.928021
O O4 0.935958 0.100426 0.906864
O O5 0.688068 0.028652 0.413556
O O6 0.565526 0.103173 0.403141
O O7 0.610398 0.916009 0.614843
O O8 0.750000 0.571910 0.668077
O O9 0.750000 0.743218 0.919077
O O10 0.686715 0.482603 0.437921
O O11 0.604557 0.582817 0.622657
#
# Coordination Sequence:
#
# PCOD9380791 Si02
#       6
#     8   8   4   8   4   8
#     4  10  28  45  77 116 157 208 265 324 408 495
#     4  10  26  49  79 120 156 214 277 335 408 492
#     4  12  27  54  82 117 171 214 286 352 415 489
#     4  10  26  49  79 116 156 215 274 329 417 480
#     4  12  27  54  84 117 167 222 276 362 407 491
#     4  12  24  51  74 114 167 201 261 337 407 484
#
# _framework density 25.882670999999998
#
# number of rings (size 3 to 8) (size 9 to 14) (size 15 to 20)
#    1.200    0.000    2.000    1.800    5.600    4.800 
#   10.800    2.000    0.000    0.000    0.000    0.000 
#    0.000    0.000    0.000    0.000    0.000    0.000 
#
# Total GULP energy -111874.733982 kJ/mol
# GULP energy per Si atom -5593.736699 kJ/mol
# Density = 2.582376 g / cm^3
# Si number density = 25.882671 Si / 1000 Ang^3
#
#
#
# Elastic Constant Matrix: (Units=GPa)
#
#
# Indices 1 2 3 4 5 6 
#
# 1 132.4022 59.7484 7.8378 0.0000 0.0000 0.0000
# 2 59.7484 248.8029 33.3401 0.0000 0.0000 0.0000
# 3 7.8378 33.3401 48.5185 0.0000 0.0000 0.0000
# 4 0.0000 0.0000 0.0000 23.1625 0.0000 0.0000
# 5 0.0000 0.0000 0.0000 0.0000 37.6877 0.0000
# 6 0.0000 0.0000 0.0000 0.0000 0.0000 54.5831
#
#
#
# Elastic Compliance Matrix: (Units=1/GPa)
#
#
# Indices 1 2 3 4 5 6 
#
# 1 0.008471 -0.002039 0.000032 0.000000 0.000000 0.000000
# 2 -0.002039 0.004917 -0.003050 0.000000 0.000000 0.000000
# 3 0.000032 -0.003050 0.022701 0.000000 0.000000 0.000000
# 4 0.000000 0.000000 0.000000 0.043173 0.000000 0.000000
# 5 0.000000 0.000000 0.000000 0.000000 0.026534 0.000000
# 6 0.000000 0.000000 0.000000 0.000000 0.000000 0.018321
#
#
# Mechanical properties :
#
#
# Convention : Reuss Voigt Hill
#
# Bulk Modulus (GPa) = 38.49479 70.17512 54.33495
# Shear Modulus (GPa) = 34.99240 45.00647 39.99943
#
# Velocity S-wave (km/s) = 3.68089 4.17449 3.93544
# Velocity P-wave (km/s) = 5.74198 7.09978 6.45667
#
# Compressibility (1/GPa) = 0.02597754
#
# Stress axis : x y z
#
# Youngs Moduli (GPa) = 118.05334 203.35682 44.05065
#
# Poissons Ratio (x) = 0.41455 -0.00143
# Poissons Ratio (y) = 0.24066 0.13434
# Poissons Ratio (z) = -0.00383 0.62019
#
# Static dielectric constant tensor:
#      x y z
#    x 1.972900 0.000000 0.000000 
#    y 0.000000 2.058660 0.000000 
#    z 0.000000 0.000000 1.985410 
# 
# From -- ./inp_files/7277.got.cif
#   From: 2010.05.17/outbox.cif.g08.bks.cpg/sg46_4_cif.got.tgz:7277.got - 2010.06.03 19:58:25.
