data_PCOD9380259
_publ_section_title
;
Structure prediction by ZEFSAII (Michael W. Deem and Ramdas Pophale) SiO2 
 PCOD9380259
Probable space group: I M A 2
;
_chemical_formula_sum "Si O2"
_cell_formula_units_Z 48
_cell_length_a 15.733017
_cell_length_b 4.871150
_cell_length_c 27.596376
_cell_angle_alpha 90.000000
_cell_angle_beta 90.000000
_cell_angle_gamma 90.000000
_cell_volume 2114.927911
_symmetry_space_group_name_H-M "I M A 2"
_symmetry_group_IT_number 46
_symmetry_cell_setting 'orthorhombic'
loop_
_space_group_symop_operation_xyz
x,y,z
-x,-y,z
1/2-x,y,z
1/2+x,-y,z
1/2+x,1/2+y,1/2+z
1/2-x,1/2-y,1/2+z
-x,1/2+y,1/2+z
x,1/2-y,1/2+z
loop_
_atom_site_type_symbol
_atom_site_label
_atom_site_fract_x
_atom_site_fract_y
_atom_site_fract_z
Si Si1 0.750000 0.041590 0.835480
Si Si2 0.404770 0.438822 0.694862
Si Si3 0.160222 0.659570 0.597828
Si Si4 0.437015 0.226938 0.442957
Si Si5 0.750000 0.931756 0.398625
Si Si6 0.404645 0.930123 0.762568
Si Si7 0.581430 0.661851 0.057360
O O1 0.750000 0.245483 0.882776
O O2 0.750000 0.722769 0.848233
O O3 0.665652 0.069004 0.803598
O O4 0.500000 0.500000 0.675522
O O5 0.345855 0.561964 0.653188
O O6 0.390581 0.134048 0.715849
O O7 0.400651 0.626074 0.741871
O O8 0.250000 0.570334 0.576677
O O9 0.091768 0.476563 0.570423
O O10 0.151069 0.978742 0.585396
O O11 0.500000 0.500000 0.440959
O O12 0.340106 0.179913 0.421988
O O13 0.420578 0.154010 0.499491
O O14 0.500000 0.000000 0.420560
O O15 0.500000 0.000000 0.779934
O O16 0.500000 0.500000 0.076346
#
# Coordination Sequence:
#
# PCOD9380259 Si02
#       7
#     4   8   8   8   4   8   8
#     4  12  26  44  70 101 134 175 220 292 362 418
#     4  10  21  40  62  90 128 180 222 273 328 396
#     4  12  25  36  63 101 135 176 228 281 332 391
#     4  11  25  48  74 103 140 187 233 288 356 426
#     4  12  28  46  74 107 136 177 228 294 364 432
#     4  10  23  41  66  93 131 176 225 273 341 412
#     4  11  23  44  64  92 134 184 226 276 336 406
#
# _framework density 22.695809000000001
#
# number of rings (size 3 to 8) (size 9 to 14) (size 15 to 20)
#    0.000    1.000    0.000    7.000    4.667    3.333 
#    0.000    0.000    0.000    0.000    0.000    0.000 
#    0.000    0.000    0.000    0.000    0.000    0.000 
#
# Total GULP energy -133650.453066 kJ/mol
# GULP energy per Si atom -5568.768878 kJ/mol
# Density = 2.264415 g / cm^3
# Si number density = 22.695809 Si / 1000 Ang^3
#
#
#
# Elastic Constant Matrix: (Units=GPa)
#
#
# Indices 1 2 3 4 5 6 
#
# 1 146.2914 20.8985 39.3517 0.0000 0.0000 0.0000
# 2 20.8985 98.8025 -5.3400 0.0000 0.0000 0.0000
# 3 39.3517 -5.3400 42.4356 0.0000 0.0000 0.0000
# 4 0.0000 0.0000 0.0000 19.4508 0.0000 0.0000
# 5 0.0000 0.0000 0.0000 0.0000 68.7888 0.0000
# 6 0.0000 0.0000 0.0000 0.0000 0.0000 25.0061
#
#
#
# Elastic Compliance Matrix: (Units=1/GPa)
#
#
# Indices 1 2 3 4 5 6 
#
# 1 0.009710 -0.002558 -0.009326 0.000000 0.000000 0.000000
# 2 -0.002558 0.010864 0.003739 0.000000 0.000000 0.000000
# 3 -0.009326 0.003739 0.032684 0.000000 0.000000 0.000000
# 4 0.000000 0.000000 0.000000 0.051412 0.000000 0.000000
# 5 0.000000 0.000000 0.000000 0.000000 0.014537 0.000000
# 6 0.000000 0.000000 0.000000 0.000000 0.000000 0.039990
#
#
# Mechanical properties :
#
#
# Convention : Reuss Voigt Hill
#
# Bulk Modulus (GPa) = 27.05006 44.14997 35.60001
# Shear Modulus (GPa) = 26.62276 38.15711 32.38993
#
# Velocity S-wave (km/s) = 3.42866 4.10474 3.78184
# Velocity P-wave (km/s) = 5.25535 6.47768 5.89826
#
# Compressibility (1/GPa) = 0.03696850
#
# Stress axis : x y z
#
# Youngs Moduli (GPa) = 102.98974 92.04450 30.59617
#
# Poissons Ratio (x) = 0.23543 0.28534
# Poissons Ratio (y) = 0.26343 -0.11440
# Poissons Ratio (z) = 0.96048 -0.34416
#
# Static dielectric constant tensor:
#      x y z
#    x 2.064530 0.000000 0.000000 
#    y 0.000000 1.815960 0.000000 
#    z 0.000000 0.000000 1.814750 
# 
# From -- ./inp_files/24602.got.cif
#   From: 2010.05.17/outbox.cif.g08.bks.cpg/sg46_13_cif.got.tgz:24602.got - 2010.06.03 19:58:25.
