data_PCOD9380893
_publ_section_title
;
Structure prediction by ZEFSAII (Michael W. Deem and Ramdas Pophale) SiO2 
 PCOD9380893
Probable space group: I M A 2
;
_chemical_formula_sum "Si O2"
_cell_formula_units_Z 52
_cell_length_a 7.620274
_cell_length_b 24.774877
_cell_length_c 14.587523
_cell_angle_alpha 90.000000
_cell_angle_beta 90.000000
_cell_angle_gamma 90.000000
_cell_volume 2753.998176
_symmetry_space_group_name_H-M "I M A 2"
_symmetry_group_IT_number 46
_symmetry_cell_setting 'orthorhombic'
loop_
_space_group_symop_operation_xyz
x,y,z
-x,-y,z
1/2-x,y,z
1/2+x,-y,z
1/2+x,1/2+y,1/2+z
1/2-x,1/2-y,1/2+z
-x,1/2+y,1/2+z
x,1/2-y,1/2+z
loop_
_atom_site_type_symbol
_atom_site_label
_atom_site_fract_x
_atom_site_fract_y
_atom_site_fract_z
Si Si1 0.750000 0.757364 0.495191
Si Si2 0.036788 0.906198 0.834100
Si Si3 0.540103 0.061111 0.035662
Si Si4 0.750000 0.856610 0.104740
Si Si5 0.444017 0.794893 0.772925
Si Si6 0.945930 0.167773 0.565937
Si Si7 0.750000 0.714262 0.779504
Si Si8 0.960251 0.439985 0.133676
O O1 0.750000 0.696303 0.536651
O O2 0.576034 0.786857 0.532084
O O3 0.750000 0.776833 0.389266
O O4 0.250000 0.905963 0.830212
O O5 0.984079 0.842905 0.837078
O O6 0.972041 0.931961 0.738601
O O7 0.987320 0.935102 0.927657
O O8 0.750000 0.071477 0.043227
O O9 0.420197 0.106025 0.084580
O O10 0.500000 0.000000 0.067088
O O11 0.750000 0.836518 0.210923
O O12 0.250000 0.778212 0.804358
O O13 0.427978 0.823442 0.674852
O O14 0.574002 0.746641 0.756043
O O15 0.750000 0.171254 0.524958
O O16 0.021771 0.107030 0.564920
O O17 0.750000 0.433748 0.136866
O O18 0.000000 0.500000 0.103062
#
# Coordination Sequence:
#
# PCOD9380893 Si02
#       8
#     4   8   8   4   8   8   4   8
#     4  12  24  40  64  90 124 164 205 259 310 367
#     4   8  16  30  52  85 123 159 200 234 301 372
#     4  11  22  40  62  87 125 164 200 262 313 369
#     4  12  26  42  62  98 122 160 219 245 316 390
#     4   9  17  35  57  81 123 165 188 241 301 358
#     4   9  19  36  57  81 122 161 196 244 304 358
#     4  12  24  38  60  92 122 148 214 252 288 373
#     4   9  17  29  48  82 117 159 201 241 295 373
#
# _framework density 18.881639
#
# number of rings (size 3 to 8) (size 9 to 14) (size 15 to 20)
#    0.000    2.154    2.308    3.231    1.077    1.846 
#    2.769    0.000    0.000    0.923    0.000    0.000 
#    0.000    0.000    0.000    0.000    0.000    0.000 
#
# Total GULP energy -144767.222078 kJ/mol
# GULP energy per Si atom -5567.970080 kJ/mol
# Density = 1.883866 g / cm^3
# Si number density = 18.881639 Si / 1000 Ang^3
#
#
#
# Elastic Constant Matrix: (Units=GPa)
#
#
# Indices 1 2 3 4 5 6 
#
# 1 91.5686 56.6611 14.7952 0.0000 0.0001 0.0000
# 2 56.6611 138.2716 32.8905 0.0000 0.0002 0.0000
# 3 14.7952 32.8905 54.0951 0.0001 0.0010 0.0000
# 4 0.0000 0.0000 0.0001 23.9956 0.0003 0.0000
# 5 0.0001 0.0002 0.0010 0.0003 -47.7142 0.0000
# 6 0.0000 0.0000 0.0000 0.0000 0.0000 32.9936
#
#
#
# Elastic Compliance Matrix: (Units=1/GPa)
#
#
# Indices 1 2 3 4 5 6 
#
# 1 0.014639 -0.005900 -0.000417 0.000000 0.000000 0.000000
# 2 -0.005900 0.010833 -0.004973 0.000000 0.000000 0.000000
# 3 -0.000417 -0.004973 0.021623 0.000000 0.000000 0.000000
# 4 0.000000 0.000000 0.000000 0.041674 0.000000 0.000000
# 5 0.000000 0.000000 0.000000 0.000000 -0.020958 0.000000
# 6 0.000000 0.000000 0.000000 0.000000 0.000000 0.030309
#
#
# Mechanical properties :
#
#
# Convention : Reuss Voigt Hill
#
# Bulk Modulus (GPa) = 40.78876 54.73655 47.76266
# Shear Modulus (GPa) = 38.79882 13.82756 26.31319
#
# Velocity S-wave (km/s) = 4.53796 2.70909 3.73713
# Velocity P-wave (km/s) = 7.00761 6.23200 6.63116
#
# Compressibility (1/GPa) = 0.02451656
#
# Stress axis : x y z
#
# Youngs Moduli (GPa) = 68.31247 92.31459 46.24609
#
# Poissons Ratio (x) = 0.54461 0.01927
# Poissons Ratio (y) = 0.40301 0.22997
# Poissons Ratio (z) = 0.02847 0.45906
#
# Static dielectric constant tensor:
#      x y z
#    x 1.710900 0.000000 0.000000 
#    y 0.000000 1.717570 0.000000 
#    z 0.000000 0.000000 1.700590 
# 
# From -- ./inp_files/14114.got.cif
#   From: 2010.05.17/outbox.cif.g08.bks.cpg/sg46_8_cif.got.tgz:14114.got - 2010.06.03 19:58:25.
