data_PCOD9380320
_publ_section_title
;
Structure prediction by ZEFSAII (Michael W. Deem and Ramdas Pophale) SiO2 
 PCOD9380320
Probable space group: I M A 2
;
_chemical_formula_sum "Si O2"
_cell_formula_units_Z 56
_cell_length_a 13.968898
_cell_length_b 6.501313
_cell_length_c 27.057795
_cell_angle_alpha 90.000000
_cell_angle_beta 90.000000
_cell_angle_gamma 90.000000
_cell_volume 2457.285531
_symmetry_space_group_name_H-M "I M A 2"
_symmetry_group_IT_number 46
_symmetry_cell_setting 'orthorhombic'
loop_
_space_group_symop_operation_xyz
x,y,z
-x,-y,z
1/2-x,y,z
1/2+x,-y,z
1/2+x,1/2+y,1/2+z
1/2-x,1/2-y,1/2+z
-x,1/2+y,1/2+z
x,1/2-y,1/2+z
loop_
_atom_site_type_symbol
_atom_site_label
_atom_site_fract_x
_atom_site_fract_y
_atom_site_fract_z
Si Si1 0.000000 0.000000 0.989640
Si Si2 0.646217 0.423211 0.153365
Si Si3 0.594347 0.368367 0.046050
Si Si4 0.638222 0.347462 0.865719
Si Si5 0.142578 0.156423 0.455276
Si Si6 0.538209 0.698237 0.676564
Si Si7 0.500000 0.000000 0.834729
Si Si8 0.363717 0.177257 0.280030
O O1 0.931302 0.842087 0.960856
O O2 0.065733 0.847931 0.022175
O O3 0.750000 0.399203 0.176598
O O4 0.646436 0.338683 0.097849
O O5 0.560450 0.323118 0.184303
O O6 0.614689 0.660660 0.149146
O O7 0.500000 0.500000 0.059533
O O8 0.641023 0.513183 0.004262
O O9 0.750000 0.283454 0.869507
O O10 0.618392 0.504616 0.910317
O O11 0.565935 0.158578 0.864818
O O12 0.626215 0.480511 0.815738
O O13 0.250000 0.235980 0.447142
O O14 0.500000 0.500000 0.647971
O O15 0.590318 0.634529 0.726809
O O16 0.425324 0.135790 0.802786
O O17 0.250000 0.225025 0.276716
#
# Coordination Sequence:
#
# PCOD9380320 Si02
#       8
#     4   8   8   8   8   8   4   8
#     4  10  24  41  72 100 132 184 232 276 341 412
#     4  11  24  42  66  97 135 175 226 288 349 418
#     4  10  21  41  65  97 136 175 224 285 346 414
#     4  10  24  44  67 102 143 182 232 288 347 417
#     4  10  23  43  67 101 144 183 230 289 345 414
#     4  11  24  43  66  93 134 177 226 278 344 413
#     4  12  22  41  74 100 132 184 228 280 345 406
#     4  11  25  44  67  99 137 179 230 288 345 413
#
# _framework density 22.789373000000001
#
# number of rings (size 3 to 8) (size 9 to 14) (size 15 to 20)
#    0.000    1.429    1.429    3.429    1.000    8.000 
#    0.000    5.000    0.000    1.714    0.000    0.000 
#    0.000    0.000    0.000    0.000    0.000    0.000 
#
# Total GULP energy -156624.159368 kJ/mol
# GULP energy per Si atom -5593.719977 kJ/mol
# Density = 2.273750 g / cm^3
# Si number density = 22.789373 Si / 1000 Ang^3
#
#
#
# Elastic Constant Matrix: (Units=GPa)
#
#
# Indices 1 2 3 4 5 6 
#
# 1 173.5147 67.8265 38.9208 0.0000 0.0000 0.0000
# 2 67.8265 125.8980 32.3294 0.0000 0.0000 0.0000
# 3 38.9208 32.3294 93.9053 0.0000 0.0000 0.0000
# 4 0.0000 0.0000 0.0000 2.4948 0.0000 0.0000
# 5 0.0000 0.0000 0.0000 0.0000 28.1899 0.0000
# 6 0.0000 0.0000 0.0000 0.0000 0.0000 30.0676
#
#
#
# Elastic Compliance Matrix: (Units=1/GPa)
#
#
# Indices 1 2 3 4 5 6 
#
# 1 0.007600 -0.003604 -0.001909 0.000000 0.000000 0.000000
# 2 -0.003604 0.010423 -0.002094 0.000000 0.000000 0.000000
# 3 -0.001909 -0.002094 0.012161 0.000000 0.000000 0.000000
# 4 0.000000 0.000000 0.000000 0.400842 0.000000 0.000000
# 5 0.000000 0.000000 0.000000 0.000000 0.035474 0.000000
# 6 0.000000 0.000000 0.000000 0.000000 0.000000 0.033258
#
#
# Mechanical properties :
#
#
# Convention : Reuss Voigt Hill
#
# Bulk Modulus (GPa) = 66.80719 74.60792 70.70755
# Shear Modulus (GPa) = 9.61606 29.09986 19.35796
#
# Velocity S-wave (km/s) = 2.05638 3.57726 2.91766
# Velocity P-wave (km/s) = 5.91751 7.06197 6.51492
#
# Compressibility (1/GPa) = 0.01496845
#
# Stress axis : x y z
#
# Youngs Moduli (GPa) = 131.57197 95.94554 82.22761
#
# Poissons Ratio (x) = 0.34582 0.15699
# Poissons Ratio (y) = 0.47424 0.17221
# Poissons Ratio (z) = 0.25120 0.20094
#
# Static dielectric constant tensor:
#      x y z
#    x 1.870430 0.000000 0.000000 
#    y 0.000000 1.874370 0.000000 
#    z 0.000000 0.000000 1.854640 
# 
# From -- ./inp_files/25436.got.cif
#   From: 2010.05.17/outbox.cif.g08.bks.cpg/sg46_13_cif.got.tgz:25436.got - 2010.06.03 19:58:25.
