data_PCOD9380331
_publ_section_title
;
Structure prediction by ZEFSAII (Michael W. Deem and Ramdas Pophale) SiO2 
 PCOD9380331
Probable space group: I M A 2
;
_chemical_formula_sum "Si O2"
_cell_formula_units_Z 48
_cell_length_a 26.477626
_cell_length_b 5.008119
_cell_length_c 17.648693
_cell_angle_alpha 90.000000
_cell_angle_beta 90.000000
_cell_angle_gamma 90.000000
_cell_volume 2340.271435
_symmetry_space_group_name_H-M "I M A 2"
_symmetry_group_IT_number 46
_symmetry_cell_setting 'orthorhombic'
loop_
_space_group_symop_operation_xyz
x,y,z
-x,-y,z
1/2-x,y,z
1/2+x,-y,z
1/2+x,1/2+y,1/2+z
1/2-x,1/2-y,1/2+z
-x,1/2+y,1/2+z
x,1/2-y,1/2+z
loop_
_atom_site_type_symbol
_atom_site_label
_atom_site_fract_x
_atom_site_fract_y
_atom_site_fract_z
Si Si1 0.688803 0.568718 0.313770
Si Si2 0.345927 0.742242 0.956484
Si Si3 0.555470 0.024058 0.503303
Si Si4 0.750000 0.544737 0.013619
Si Si5 0.906898 0.005849 0.085940
Si Si6 0.341868 0.555116 0.723988
Si Si7 0.250000 0.960481 0.113516
O O1 0.750000 0.578942 0.313106
O O2 0.669642 0.449095 0.392690
O O3 0.668887 0.355009 0.251537
O O4 0.665253 0.854436 0.293789
O O5 0.400068 0.599448 0.944519
O O6 0.300175 0.537509 0.968545
O O7 0.358521 0.893196 0.035820
O O8 0.575135 0.771310 0.550744
O O9 0.500000 0.000000 0.469198
O O10 0.552993 0.268717 0.562870
O O11 0.750000 0.346171 0.086317
O O12 0.750000 0.846889 0.040920
O O13 0.891638 0.013232 0.173447
O O14 0.297189 0.477717 0.666639
#
# Coordination Sequence:
#
# PCOD9380331 Si02
#       7
#     8   8   8   4   8   8   4
#     4  12  24  38  54  88 132 181 203 249 303 387
#     4  10  25  37  62  91 129 163 210 258 316 363
#     4  10  21  41  69  96 116 154 213 274 322 361
#     4  12  22  34  60  88 128 153 209 256 304 364
#     4  10  22  39  64  94 113 160 209 270 311 365
#     4  12  23  38  57  85 129 165 215 241 316 370
#     4  12  20  34  54  82 114 169 203 250 292 358
#
# _framework density 20.510439999999999
#
# number of rings (size 3 to 8) (size 9 to 14) (size 15 to 20)
#    1.000    0.000    4.167    3.500    2.333    0.000 
#    0.000    0.000    0.000    4.000    0.000    0.000 
#    0.000    0.000    0.000    0.000    0.000    0.000 
#
# Total GULP energy -134011.993782 kJ/mol
# GULP energy per Si atom -5583.833074 kJ/mol
# Density = 2.046376 g / cm^3
# Si number density = 20.510440 Si / 1000 Ang^3
#
#
#
# Elastic Constant Matrix: (Units=GPa)
#
#
# Indices 1 2 3 4 5 6 
#
# 1 91.4963 1.0513 17.1375 0.0000 0.0000 0.0000
# 2 1.0513 78.5245 -4.5585 0.0000 0.0000 0.0000
# 3 17.1375 -4.5585 51.5455 0.0000 0.0000 0.0000
# 4 0.0000 0.0000 0.0000 34.3367 0.0000 0.0000
# 5 0.0000 0.0000 0.0000 0.0000 12.6867 0.0000
# 6 0.0000 0.0000 0.0000 0.0000 0.0000 15.5322
#
#
#
# Elastic Compliance Matrix: (Units=1/GPa)
#
#
# Indices 1 2 3 4 5 6 
#
# 1 0.011667 -0.000383 -0.003913 0.000000 0.000000 0.000000
# 2 -0.000383 0.012813 0.001261 0.000000 0.000000 0.000000
# 3 -0.003913 0.001261 0.020813 0.000000 0.000000 0.000000
# 4 0.000000 0.000000 0.000000 0.029123 0.000000 0.000000
# 5 0.000000 0.000000 0.000000 0.000000 0.078823 0.000000
# 6 0.000000 0.000000 0.000000 0.000000 0.000000 0.064382
#
#
# Mechanical properties :
#
#
# Convention : Reuss Voigt Hill
#
# Bulk Modulus (GPa) = 25.49615 27.64742 26.57178
# Shear Modulus (GPa) = 21.11793 26.37354 23.74573
#
# Velocity S-wave (km/s) = 3.21225 3.58978 3.40625
# Velocity P-wave (km/s) = 5.12014 5.53994 5.33417
#
# Compressibility (1/GPa) = 0.03922161
#
# Stress axis : x y z
#
# Youngs Moduli (GPa) = 85.71426 78.04452 48.04759
#
# Poissons Ratio (x) = 0.02992 0.18800
# Poissons Ratio (y) = 0.03286 -0.06057
# Poissons Ratio (z) = 0.33538 -0.09838
#
# Static dielectric constant tensor:
#      x y z
#    x 1.763520 0.000000 0.000000 
#    y 0.000000 1.742640 0.000000 
#    z 0.000000 0.000000 1.744100 
# 
# From -- ./inp_files/20434.got.cif
#   From: 2010.05.17/outbox.cif.g08.bks.cpg/sg46_11_cif.got.tgz:20434.got - 2010.06.03 19:58:25.
