data_PCOD9380460
_publ_section_title
;
Structure prediction by ZEFSAII (Michael W. Deem and Ramdas Pophale) SiO2 
 PCOD9380460
Probable space group: I M A 2
;
_chemical_formula_sum "Si O2"
_cell_formula_units_Z 40
_cell_length_a 18.399446
_cell_length_b 16.200319
_cell_length_c 5.519220
_cell_angle_alpha 90.000000
_cell_angle_beta 90.000000
_cell_angle_gamma 90.000000
_cell_volume 1645.151958
_symmetry_space_group_name_H-M "I M A 2"
_symmetry_group_IT_number 46
_symmetry_cell_setting 'orthorhombic'
loop_
_space_group_symop_operation_xyz
x,y,z
-x,-y,z
1/2-x,y,z
1/2+x,-y,z
1/2+x,1/2+y,1/2+z
1/2-x,1/2-y,1/2+z
-x,1/2+y,1/2+z
x,1/2-y,1/2+z
loop_
_atom_site_type_symbol
_atom_site_label
_atom_site_fract_x
_atom_site_fract_y
_atom_site_fract_z
Si Si1 0.163984 0.922832 0.218920
Si Si2 0.436209 0.442505 0.975110
Si Si3 0.169767 0.060136 0.865970
Si Si4 0.166586 0.219049 0.150801
Si Si5 0.465876 0.698186 0.767847
O O1 0.250000 0.913558 0.271765
O O2 0.114936 0.842113 0.250245
O O3 0.122484 0.992035 0.375341
O O4 0.158415 0.966577 0.954015
O O5 0.500000 0.500000 0.078319
O O6 0.477585 0.379263 0.795543
O O7 0.392689 0.404901 0.197585
O O8 0.250000 0.065248 0.752868
O O9 0.171088 0.122281 0.094621
O O10 0.250000 0.250335 0.169278
O O11 0.134371 0.259413 0.909584
O O12 0.474044 0.749439 0.517600
#
# Coordination Sequence:
#
# PCOD9380460 Si02
#       5
#     8   8   8   8   8
#     4  10  24  46  75 110 148 195 254 319 385 454
#     4  10  24  43  71 100 143 196 249 310 371 458
#     4  10  22  39  69 103 141 192 250 312 381 452
#     4   9  19  34  53  85 130 173 214 268 339 419
#     4  11  28  50  76 110 150 203 256 312 381 455
#
# _framework density 24.313866000000001
#
# number of rings (size 3 to 8) (size 9 to 14) (size 15 to 20)
#    0.000    2.000    0.000    0.600   11.200    3.200 
#    0.000    0.000    0.000    2.400    0.000    0.000 
#    0.000    0.000    0.000    0.000    0.000    0.000 
#
# Total GULP energy -111697.742678 kJ/mol
# GULP energy per Si atom -5584.887134 kJ/mol
# Density = 2.425853 g / cm^3
# Si number density = 24.313866 Si / 1000 Ang^3
#
#
#
# Elastic Constant Matrix: (Units=GPa)
#
#
# Indices 1 2 3 4 5 6 
#
# 1 205.6326 53.7344 66.5827 0.0000 0.0000 0.0000
# 2 53.7344 91.0916 61.3233 0.0000 0.0000 0.0000
# 3 66.5827 61.3233 136.2510 0.0000 0.0000 0.0000
# 4 0.0000 0.0000 0.0000 36.5474 0.0000 0.0000
# 5 0.0000 0.0000 0.0000 0.0000 35.1837 0.0000
# 6 0.0000 0.0000 0.0000 0.0000 0.0000 40.4622
#
#
#
# Elastic Compliance Matrix: (Units=1/GPa)
#
#
# Indices 1 2 3 4 5 6 
#
# 1 0.006090 -0.002280 -0.001950 0.000000 0.000000 0.000000
# 2 -0.002280 0.016604 -0.006359 0.000000 0.000000 0.000000
# 3 -0.001950 -0.006359 0.011154 0.000000 0.000000 0.000000
# 4 0.000000 0.000000 0.000000 0.027362 0.000000 0.000000
# 5 0.000000 0.000000 0.000000 0.000000 0.028422 0.000000
# 6 0.000000 0.000000 0.000000 0.000000 0.000000 0.024714
#
#
# Mechanical properties :
#
#
# Convention : Reuss Voigt Hill
#
# Bulk Modulus (GPa) = 78.92177 88.47290 83.69733
# Shear Modulus (GPa) = 35.77886 39.19431 37.48659
#
# Velocity S-wave (km/s) = 3.84023 4.01935 3.93081
# Velocity P-wave (km/s) = 7.22449 7.61623 7.42294
#
# Compressibility (1/GPa) = 0.01267078
#
# Stress axis : x y z
#
# Youngs Moduli (GPa) = 164.19827 60.22805 89.65161
#
# Poissons Ratio (x) = 0.13731 0.17483
# Poissons Ratio (y) = 0.37434 0.57008
# Poissons Ratio (z) = 0.32020 0.38298
#
# Static dielectric constant tensor:
#      x y z
#    x 1.951910 0.000000 0.000000 
#    y 0.000000 1.967270 0.000000 
#    z 0.000000 0.000000 2.038060 
# 
# From -- ./inp_files/1578.got.cif
#   From: 2010.05.17/outbox.cif.g08.bks.cpg/sg46_1_cif.got.tgz:1578.got - 2010.06.03 19:58:25.
