data_PCOD9380568
_publ_section_title
;
Structure prediction by ZEFSAII (Michael W. Deem and Ramdas Pophale) SiO2 
 PCOD9380568
Probable space group: I M A 2
;
_chemical_formula_sum "Si O2"
_cell_formula_units_Z 40
_cell_length_a 14.251920
_cell_length_b 8.365752
_cell_length_c 15.429648
_cell_angle_alpha 90.000000
_cell_angle_beta 90.000000
_cell_angle_gamma 90.000000
_cell_volume 1839.646508
_symmetry_space_group_name_H-M "I M A 2"
_symmetry_group_IT_number 46
_symmetry_cell_setting 'orthorhombic'
loop_
_space_group_symop_operation_xyz
x,y,z
-x,-y,z
1/2-x,y,z
1/2+x,-y,z
1/2+x,1/2+y,1/2+z
1/2-x,1/2-y,1/2+z
-x,1/2+y,1/2+z
x,1/2-y,1/2+z
loop_
_atom_site_type_symbol
_atom_site_label
_atom_site_fract_x
_atom_site_fract_y
_atom_site_fract_z
Si Si1 0.947235 0.733586 0.105110
Si Si2 0.143566 0.357895 0.765347
Si Si3 0.466511 0.317918 0.415677
Si Si4 0.147116 0.715429 0.838649
Si Si5 0.139889 0.608620 0.157627
O O1 0.914149 0.857344 0.177021
O O2 0.895635 0.570277 0.136245
O O3 0.059696 0.713214 0.110944
O O4 0.920756 0.780129 0.007915
O O5 0.250000 0.304931 0.748745
O O6 0.096738 0.241680 0.836108
O O7 0.145912 0.537459 0.800603
O O8 0.500000 0.500000 0.409867
O O9 0.563526 0.222232 0.405894
O O10 0.250000 0.748057 0.876155
O O11 0.131806 0.839342 0.758954
O O12 0.250000 0.629708 0.134412
#
# Coordination Sequence:
#
# PCOD9380568 Si02
#       5
#     8   8   8   8   8
#     4  11  25  42  69 100 137 181 224 285 342 413
#     4  11  25  46  71  99 136 179 231 291 347 411
#     4  12  27  43  67 102 139 185 230 283 348 412
#     4  10  23  45  73  99 134 181 229 287 350 413
#     4  10  22  42  69  98 132 178 226 276 342 408
#
# _framework density 21.743307000000001
#
# number of rings (size 3 to 8) (size 9 to 14) (size 15 to 20)
#    0.000    1.200    2.000    2.400    8.400    4.800 
#    0.000    0.000    0.000    0.000    0.000    0.000 
#    0.000    0.000    0.000    0.000    0.000    0.000 
#
# Total GULP energy -111799.442178 kJ/mol
# GULP energy per Si atom -5589.972109 kJ/mol
# Density = 2.169382 g / cm^3
# Si number density = 21.743307 Si / 1000 Ang^3
#
#
#
# Elastic Constant Matrix: (Units=GPa)
#
#
# Indices 1 2 3 4 5 6 
#
# 1 135.9517 24.6171 44.1607 0.0000 0.0000 0.0000
# 2 24.6171 78.4588 29.9173 0.0000 0.0000 0.0000
# 3 44.1607 29.9173 123.2454 0.0000 0.0000 0.0000
# 4 0.0000 0.0000 0.0000 10.8463 0.0000 0.0000
# 5 0.0000 0.0000 0.0000 0.0000 -49.2177 0.0000
# 6 0.0000 0.0000 0.0000 0.0000 0.0000 29.5861
#
#
#
# Elastic Compliance Matrix: (Units=1/GPa)
#
#
# Indices 1 2 3 4 5 6 
#
# 1 0.008517 -0.001662 -0.002648 0.000000 0.000000 0.000000
# 2 -0.001662 0.014370 -0.002893 0.000000 0.000000 0.000000
# 3 -0.002648 -0.002893 0.009765 0.000000 0.000000 0.000000
# 4 0.000000 0.000000 0.000000 0.092197 0.000000 0.000000
# 5 0.000000 0.000000 0.000000 0.000000 -0.020318 0.000000
# 6 0.000000 0.000000 0.000000 0.000000 0.000000 0.033800
#
#
# Mechanical properties :
#
#
# Convention : Reuss Voigt Hill
#
# Bulk Modulus (GPa) = 54.80818 59.44958 57.12888
# Shear Modulus (GPa) = 31.48241 14.17366 22.82804
#
# Velocity S-wave (km/s) = 3.80927 2.55593 3.24371
# Velocity P-wave (km/s) = 6.67900 6.00927 6.35297
#
# Compressibility (1/GPa) = 0.01824545
#
# Stress axis : x y z
#
# Youngs Moduli (GPa) = 117.41552 69.58872 102.40724
#
# Poissons Ratio (x) = 0.11569 0.27119
# Poissons Ratio (y) = 0.19520 0.29623
# Poissons Ratio (z) = 0.31093 0.20129
#
# Static dielectric constant tensor:
#      x y z
#    x 1.814900 0.000000 0.000000 
#    y 0.000000 1.848880 0.000000 
#    z 0.000000 0.000000 1.779270 
# 
# From -- ./inp_files/15672.got.cif
#   From: 2010.05.17/outbox.cif.g08.bks.cpg/sg46_8_cif.got.tgz:15672.got - 2010.06.03 19:58:25.
