data_PCOD9380974
_publ_section_title
;
Structure prediction by ZEFSAII (Michael W. Deem and Ramdas Pophale) SiO2 
 PCOD9380974
Probable space group: I M A 2
;
_chemical_formula_sum "Si O2"
_cell_formula_units_Z 56
_cell_length_a 14.944156
_cell_length_b 10.985192
_cell_length_c 15.128733
_cell_angle_alpha 90.000000
_cell_angle_beta 90.000000
_cell_angle_gamma 90.000000
_cell_volume 2483.599723
_symmetry_space_group_name_H-M "I M A 2"
_symmetry_group_IT_number 46
_symmetry_cell_setting 'orthorhombic'
loop_
_space_group_symop_operation_xyz
x,y,z
-x,-y,z
1/2-x,y,z
1/2+x,-y,z
1/2+x,1/2+y,1/2+z
1/2-x,1/2-y,1/2+z
-x,1/2+y,1/2+z
x,1/2-y,1/2+z
loop_
_atom_site_type_symbol
_atom_site_label
_atom_site_fract_x
_atom_site_fract_y
_atom_site_fract_z
Si Si1 0.897234 0.853570 0.584730
Si Si2 0.595236 0.187634 0.206665
Si Si3 0.574326 0.720587 0.282873
Si Si4 0.250000 0.725748 0.079568
Si Si5 0.403380 0.898282 0.511990
Si Si6 0.500000 0.000000 0.080719
Si Si7 0.147593 0.482910 0.837697
Si Si8 0.352857 0.125145 0.964804
O O1 0.888299 0.820599 0.687498
O O2 0.856104 0.753410 0.519160
O O3 0.001855 0.862208 0.553828
O O4 0.862037 0.990461 0.569782
O O5 0.532493 0.270905 0.268149
O O6 0.670307 0.257962 0.153514
O O7 0.527853 0.114376 0.141071
O O8 0.642291 0.080157 0.260085
O O9 0.608106 0.856310 0.304528
O O10 0.606366 0.643824 0.367150
O O11 0.169981 0.705739 0.006173
O O12 0.409018 0.959691 0.416651
O O13 0.415448 0.035949 0.021192
O O14 0.250000 0.463797 0.866400
O O15 0.250000 0.084857 0.960596
#
# Coordination Sequence:
#
# PCOD9380974 Si02
#       8
#     8   8   8   4   8   4   8   8
#     4  11  24  45  73 101 150 190 239 305 377 437
#     4  12  24  43  72 106 146 192 241 307 370 447
#     4  12  24  45  71 106 142 188 241 302 367 431
#     4  12  24  44  70 108 140 190 250 296 388 438
#     4  11  24  44  71 106 144 195 240 309 373 435
#     4  12  26  50  70 106 154 200 240 304 384 442
#     4  12  23  40  70 107 139 183 255 308 351 437
#     4  12  27  47  74 110 143 196 251 309 369 450
#
# _framework density 22.547917999999999
#
# number of rings (size 3 to 8) (size 9 to 14) (size 15 to 20)
#    0.000    0.286    7.143    1.286    4.000    3.429 
#    0.000    0.000    0.000    0.000    0.000    0.000 
#    0.000    0.000    0.000    0.000    0.000    0.000 
#
# Total GULP energy -156144.122838 kJ/mol
# GULP energy per Si atom -5576.575816 kJ/mol
# Density = 2.249660 g / cm^3
# Si number density = 22.547918 Si / 1000 Ang^3
#
#
#
# Elastic Constant Matrix: (Units=GPa)
#
#
# Indices 1 2 3 4 5 6 
#
# 1 159.9128 2.4482 35.6964 0.0000 0.0000 0.0000
# 2 2.4482 27.8102 16.4442 0.0000 0.0000 0.0000
# 3 35.6964 16.4442 130.1193 0.0000 0.0000 0.0000
# 4 0.0000 0.0000 0.0000 36.8272 0.0000 0.0000
# 5 0.0000 0.0000 0.0000 0.0000 29.0435 0.0000
# 6 0.0000 0.0000 0.0000 0.0000 0.0000 10.9059
#
#
#
# Elastic Compliance Matrix: (Units=1/GPa)
#
#
# Indices 1 2 3 4 5 6 
#
# 1 0.006669 0.000535 -0.001897 0.000000 0.000000 0.000000
# 2 0.000535 0.038905 -0.005063 0.000000 0.000000 0.000000
# 3 -0.001897 -0.005063 0.008846 0.000000 0.000000 0.000000
# 4 0.000000 0.000000 0.000000 0.027154 0.000000 0.000000
# 5 0.000000 0.000000 0.000000 0.000000 0.034431 0.000000
# 6 0.000000 0.000000 0.000000 0.000000 0.000000 0.091694
#
#
# Mechanical properties :
#
#
# Convention : Reuss Voigt Hill
#
# Bulk Modulus (GPa) = 24.05714 47.44666 35.75190
# Shear Modulus (GPa) = 21.33056 32.90555 27.11805
#
# Velocity S-wave (km/s) = 3.07906 3.82430 3.47174
# Velocity P-wave (km/s) = 4.83046 6.37092 5.65341
#
# Compressibility (1/GPa) = 0.04156769
#
# Stress axis : x y z
#
# Youngs Moduli (GPa) = 149.95466 25.70363 113.05078
#
# Poissons Ratio (x) = -0.01374 0.21446
# Poissons Ratio (y) = -0.08017 0.57242
# Poissons Ratio (z) = 0.28447 0.13015
#
# Static dielectric constant tensor:
#      x y z
#    x 1.827320 0.000000 0.000000 
#    y 0.000000 1.907810 0.000000 
#    z 0.000000 0.000000 1.839150 
# 
# From -- ./inp_files/16015.got.cif
#   From: 2010.05.17/outbox.cif.g08.bks.cpg/sg46_9_cif.got.tgz:16015.got - 2010.06.03 19:58:25.
