data_PCOD9380982
_publ_section_title
;
Structure prediction by ZEFSAII (Michael W. Deem and Ramdas Pophale) SiO2 
 PCOD9380982
Probable space group: I M A 2
;
_chemical_formula_sum "Si O2"
_cell_formula_units_Z 32
_cell_length_a 10.023398
_cell_length_b 10.314202
_cell_length_c 14.641423
_cell_angle_alpha 90.000000
_cell_angle_beta 90.000000
_cell_angle_gamma 90.000000
_cell_volume 1513.679383
_symmetry_space_group_name_H-M "I M A 2"
_symmetry_group_IT_number 46
_symmetry_cell_setting 'orthorhombic'
loop_
_space_group_symop_operation_xyz
x,y,z
-x,-y,z
1/2-x,y,z
1/2+x,-y,z
1/2+x,1/2+y,1/2+z
1/2-x,1/2-y,1/2+z
-x,1/2+y,1/2+z
x,1/2-y,1/2+z
loop_
_atom_site_type_symbol
_atom_site_label
_atom_site_fract_x
_atom_site_fract_y
_atom_site_fract_z
Si Si1 0.964908 0.197220 0.458510
Si Si2 0.250000 0.147664 0.696119
Si Si3 0.750000 0.087098 0.993803
Si Si4 0.000000 0.500000 0.116174
Si Si5 0.000000 0.000000 0.302333
Si Si6 0.250000 0.194705 0.910360
Si Si7 0.750000 0.568898 0.678137
O O1 0.876561 0.324698 0.468657
O O2 0.118907 0.235105 0.447428
O O3 0.943101 0.109460 0.547779
O O4 0.938078 0.109222 0.369358
O O5 0.250000 0.192912 0.800749
O O6 0.250000 0.283704 0.640942
O O7 0.381372 0.064536 0.673528
O O8 0.750000 0.954749 0.938303
O O9 0.750000 0.038422 0.098494
O O10 0.882111 0.947929 0.238828
#
# Coordination Sequence:
#
# PCOD9380982 Si02
#       7
#     8   4   4   4   4   4   4
#     4  11  24  49  71 102 140 191 237 280 362 433
#     4  12  27  46  71 108 144 183 242 299 351 419
#     4  12  28  40  71 105 142 181 238 297 355 415
#     4  11  26  46  75 102 142 188 233 296 358 423
#     4  11  24  48  77  98 142 194 237 290 354 429
#     4  12  26  44  69  99 148 188 229 297 356 417
#     4  12  27  46  73 110 142 184 241 301 350 417
#
# _framework density 21.140542
#
# number of rings (size 3 to 8) (size 9 to 14) (size 15 to 20)
#    0.000    0.500    2.500    4.500   10.500    4.000 
#    4.500    0.000    0.000    0.000    0.000    0.000 
#    0.000    0.000    0.000    0.000    0.000    0.000 
#
# Total GULP energy -89583.589523 kJ/mol
# GULP energy per Si atom -5598.974345 kJ/mol
# Density = 2.109243 g / cm^3
# Si number density = 21.140542 Si / 1000 Ang^3
#
#
#
# Elastic Constant Matrix: (Units=GPa)
#
#
# Indices 1 2 3 4 5 6 
#
# 1 124.9958 39.4019 34.5640 0.0000 0.0000 0.0000
# 2 39.4019 124.1215 30.1675 0.0000 0.0000 0.0000
# 3 34.5640 30.1675 102.3194 0.0000 0.0000 0.0000
# 4 0.0000 0.0000 0.0000 31.2800 0.0000 0.0000
# 5 0.0000 0.0000 0.0000 0.0000 21.0646 0.0000
# 6 0.0000 0.0000 0.0000 0.0000 0.0000 51.9212
#
#
#
# Elastic Compliance Matrix: (Units=1/GPa)
#
#
# Indices 1 2 3 4 5 6 
#
# 1 0.009442 -0.002394 -0.002484 0.000000 0.000000 0.000000
# 2 -0.002394 0.009285 -0.001929 0.000000 0.000000 0.000000
# 3 -0.002484 -0.001929 0.011181 0.000000 0.000000 0.000000
# 4 0.000000 0.000000 0.000000 0.031969 0.000000 0.000000
# 5 0.000000 0.000000 0.000000 0.000000 0.047473 0.000000
# 6 0.000000 0.000000 0.000000 0.000000 0.000000 0.019260
#
#
# Mechanical properties :
#
#
# Convention : Reuss Voigt Hill
#
# Bulk Modulus (GPa) = 61.36741 62.18927 61.77834
# Shear Modulus (GPa) = 33.86279 37.34004 35.60142
#
# Velocity S-wave (km/s) = 4.00658 4.20727 4.10815
# Velocity P-wave (km/s) = 7.10598 7.28577 7.19643
#
# Compressibility (1/GPa) = 0.01629529
#
# Stress axis : x y z
#
# Youngs Moduli (GPa) = 105.91452 107.69710 89.43663
#
# Poissons Ratio (x) = 0.25778 0.22213
# Poissons Ratio (y) = 0.25351 0.17253
# Poissons Ratio (z) = 0.26306 0.20776
#
# Static dielectric constant tensor:
#      x y z
#    x 1.716980 0.000000 0.000000 
#    y 0.000000 1.742630 0.000000 
#    z 0.000000 0.000000 1.770970 
# 
# From -- ./inp_files/13521.got.cif
#   From: 2010.05.17/outbox.cif.g08.bks.cpg/sg46_7_cif.got.tgz:13521.got - 2010.06.03 19:58:25.
