data_PCOD9380135
_publ_section_title
;
Structure prediction by ZEFSAII (Michael W. Deem and Ramdas Pophale) SiO2 
 PCOD9380135
Probable space group: I M A 2
;
_chemical_formula_sum "Si O2"
_cell_formula_units_Z 40
_cell_length_a 12.459872
_cell_length_b 12.244849
_cell_length_c 11.619662
_cell_angle_alpha 90.000000
_cell_angle_beta 90.000000
_cell_angle_gamma 90.000000
_cell_volume 1772.803131
_symmetry_space_group_name_H-M "I M A 2"
_symmetry_group_IT_number 46
_symmetry_cell_setting 'orthorhombic'
loop_
_space_group_symop_operation_xyz
x,y,z
-x,-y,z
1/2-x,y,z
1/2+x,-y,z
1/2+x,1/2+y,1/2+z
1/2-x,1/2-y,1/2+z
-x,1/2+y,1/2+z
x,1/2-y,1/2+z
loop_
_atom_site_type_symbol
_atom_site_label
_atom_site_fract_x
_atom_site_fract_y
_atom_site_fract_z
Si Si1 0.128097 0.153235 0.480360
Si Si2 0.250000 0.065802 0.838972
Si Si3 0.750000 0.163093 0.937754
Si Si4 0.750000 0.658719 0.584617
Si Si5 0.045600 0.390259 0.208783
Si Si6 0.250000 0.562958 0.696303
Si Si7 0.429782 0.799691 0.319065
O O1 0.250000 0.126831 0.442367
O O2 0.148216 0.262580 0.560469
O O3 0.085439 0.077011 0.581820
O O4 0.038328 0.162751 0.383528
O O5 0.250000 0.934227 0.840059
O O6 0.348881 0.128146 0.783310
O O7 0.250000 0.086336 0.972040
O O8 0.854529 0.236046 0.910590
O O9 0.750000 0.119900 0.069012
O O10 0.750000 0.568797 0.683248
O O11 0.000000 0.500000 0.264462
O O12 0.964826 0.290556 0.224338
O O13 0.144227 0.606991 0.762671
#
# Coordination Sequence:
#
# PCOD9380135 Si02
#       7
#     8   4   4   4   8   4   8
#     4  10  22  41  69 100 135 180 238 283 344 427
#     4  11  18  38  65  96 128 166 233 285 335 392
#     4  10  21  38  61 101 137 171 233 287 345 417
#     4   9  20  42  71  98 133 180 226 291 341 413
#     4  12  22  38  67 101 129 179 226 289 342 408
#     4  10  23  42  69 101 138 185 234 295 353 418
#     4  11  22  40  65 102 140 180 228 291 356 415
#
# _framework density 22.563137000000001
#
# number of rings (size 3 to 8) (size 9 to 14) (size 15 to 20)
#    0.600    0.800    5.000    1.200    0.000    0.000 
#    0.000    6.000    0.000    0.000    5.200    0.000 
#    0.000    0.000    0.000    0.000    0.000    0.000 
#
# Total GULP energy -111443.957641 kJ/mol
# GULP energy per Si atom -5572.197882 kJ/mol
# Density = 2.251178 g / cm^3
# Si number density = 22.563137 Si / 1000 Ang^3
#
#
#
# Elastic Constant Matrix: (Units=GPa)
#
#
# Indices 1 2 3 4 5 6 
#
# 1 158.5656 32.7329 42.5480 0.0000 0.0000 0.0000
# 2 32.7329 42.8999 8.1406 0.0000 0.0000 0.0000
# 3 42.5480 8.1406 91.1916 0.0000 0.0000 0.0000
# 4 0.0000 0.0000 0.0000 29.3849 0.0000 0.0000
# 5 0.0000 0.0000 0.0000 0.0000 32.2760 0.0000
# 6 0.0000 0.0000 0.0000 0.0000 0.0000 34.5051
#
#
#
# Elastic Compliance Matrix: (Units=1/GPa)
#
#
# Indices 1 2 3 4 5 6 
#
# 1 0.008413 -0.005772 -0.003410 0.000000 0.000000 0.000000
# 2 -0.005772 0.027672 0.000223 0.000000 0.000000 0.000000
# 3 -0.003410 0.000223 0.012537 0.000000 0.000000 0.000000
# 4 0.000000 0.000000 0.000000 0.034031 0.000000 0.000000
# 5 0.000000 0.000000 0.000000 0.000000 0.030983 0.000000
# 6 0.000000 0.000000 0.000000 0.000000 0.000000 0.028981
#
#
# Mechanical properties :
#
#
# Convention : Reuss Voigt Hill
#
# Bulk Modulus (GPa) = 32.56956 51.05556 41.81256
# Shear Modulus (GPa) = 29.27905 33.18224 31.23065
#
# Velocity S-wave (km/s) = 3.60620 3.83905 3.72445
# Velocity P-wave (km/s) = 5.63966 6.50600 6.08826
#
# Compressibility (1/GPa) = 0.03070351
#
# Stress axis : x y z
#
# Youngs Moduli (GPa) = 118.86173 36.13762 79.76317
#
# Poissons Ratio (x) = 0.20859 0.27200
# Poissons Ratio (y) = 0.68609 -0.01778
# Poissons Ratio (z) = 0.40533 -0.00806
#
# Static dielectric constant tensor:
#      x y z
#    x 1.862300 0.000000 0.000000 
#    y 0.000000 1.978040 0.000000 
#    z 0.000000 0.000000 1.824680 
# 
# From -- ./inp_files/10178.got.cif
#   From: 2010.05.17/outbox.cif.g08.bks.cpg/sg46_6_cif.got.tgz:10178.got - 2010.06.03 19:58:25.
