data_PCOD9380217
_publ_section_title
;
Structure prediction by ZEFSAII (Michael W. Deem and Ramdas Pophale) SiO2 
 PCOD9380217
Probable space group: I M A 2
;
_chemical_formula_sum "Si O2"
_cell_formula_units_Z 52
_cell_length_a 14.921262
_cell_length_b 8.527719
_cell_length_c 19.309189
_cell_angle_alpha 90.000000
_cell_angle_beta 90.000000
_cell_angle_gamma 90.000000
_cell_volume 2456.984807
_symmetry_space_group_name_H-M "I M A 2"
_symmetry_group_IT_number 46
_symmetry_cell_setting 'orthorhombic'
loop_
_space_group_symop_operation_xyz
x,y,z
-x,-y,z
1/2-x,y,z
1/2+x,-y,z
1/2+x,1/2+y,1/2+z
1/2-x,1/2-y,1/2+z
-x,1/2+y,1/2+z
x,1/2-y,1/2+z
loop_
_atom_site_type_symbol
_atom_site_label
_atom_site_fract_x
_atom_site_fract_y
_atom_site_fract_z
Si Si1 0.847235 0.676678 0.965250
Si Si2 0.601425 0.464841 0.484389
Si Si3 0.034047 0.653320 0.630619
Si Si4 0.353391 0.896953 0.716950
Si Si5 0.852945 0.251923 0.357753
Si Si6 0.150026 0.176166 0.615558
Si Si7 0.000000 0.500000 0.882349
O O1 0.750000 0.644291 0.931745
O O2 0.933643 0.613342 0.925957
O O3 0.851706 0.865072 0.978358
O O4 0.846341 0.593105 0.040651
O O5 0.500000 0.500000 0.461466
O O6 0.590868 0.397835 0.562687
O O7 0.639263 0.334462 0.432514
O O8 0.085961 0.773588 0.677309
O O9 0.000000 0.500000 0.670815
O O10 0.939481 0.724757 0.607508
O O11 0.250000 0.854352 0.704394
O O12 0.368989 0.883395 0.798634
O O13 0.365490 0.063892 0.680695
O O14 0.750000 0.195616 0.349236
O O15 0.927677 0.117343 0.347508
O O16 0.250000 0.250121 0.623791
#
# Coordination Sequence:
#
# PCOD9380217 Si02
#       7
#     8   8   8   8   8   8   4
#     4  11  23  40  66 100 134 171 217 271 328 390
#     4  11  21  42  66  97 133 173 219 269 321 395
#     4  11  22  39  66  96 127 167 215 270 331 379
#     4  10  25  43  62  92 130 174 223 266 324 396
#     4  11  25  45  68  96 133 178 221 269 332 396
#     4  10  21  39  62  92 129 168 215 267 316 383
#     4  12  24  42  68  94 138 164 218 274 334 388
#
# _framework density 21.164152000000001
#
# number of rings (size 3 to 8) (size 9 to 14) (size 15 to 20)
#    0.000    1.231    4.615    1.385    5.385    3.077 
#    0.000    0.000    0.000    0.000    0.000    0.000 
#    0.000    0.000    0.000    0.000    0.000    0.000 
#
# Total GULP energy -144913.262865 kJ/mol
# GULP energy per Si atom -5573.587033 kJ/mol
# Density = 2.111598 g / cm^3
# Si number density = 21.164152 Si / 1000 Ang^3
#
#
#
# Elastic Constant Matrix: (Units=GPa)
#
#
# Indices 1 2 3 4 5 6 
#
# 1 77.0232 9.6204 17.0727 0.0000 0.0000 0.0000
# 2 9.6204 33.9493 14.6334 0.0000 0.0000 0.0000
# 3 17.0727 14.6334 56.1402 0.0000 0.0000 0.0000
# 4 0.0000 0.0000 0.0000 18.6330 0.0000 0.0000
# 5 0.0000 0.0000 0.0000 0.0000 15.2825 0.0000
# 6 0.0000 0.0000 0.0000 0.0000 0.0000 19.5540
#
#
#
# Elastic Compliance Matrix: (Units=1/GPa)
#
#
# Indices 1 2 3 4 5 6 
#
# 1 0.014096 -0.002418 -0.003656 0.000000 0.000000 0.000000
# 2 -0.002418 0.033599 -0.008022 0.000000 0.000000 0.000000
# 3 -0.003656 -0.008022 0.021016 0.000000 0.000000 0.000000
# 4 0.000000 0.000000 0.000000 0.053668 0.000000 0.000000
# 5 0.000000 0.000000 0.000000 0.000000 0.065434 0.000000
# 6 0.000000 0.000000 0.000000 0.000000 0.000000 0.051140
#
#
# Mechanical properties :
#
#
# Convention : Reuss Voigt Hill
#
# Bulk Modulus (GPa) = 24.68156 27.75175 26.21665
# Shear Modulus (GPa) = 17.81564 19.07966 18.44765
#
# Velocity S-wave (km/s) = 2.90450 3.00577 2.95557
# Velocity P-wave (km/s) = 4.78909 5.01869 4.90524
#
# Compressibility (1/GPa) = 0.04051608
#
# Stress axis : x y z
#
# Youngs Moduli (GPa) = 70.94422 29.76281 47.58386
#
# Poissons Ratio (x) = 0.07198 0.17398
# Poissons Ratio (y) = 0.17157 0.38174
# Poissons Ratio (z) = 0.25939 0.23877
#
# Static dielectric constant tensor:
#      x y z
#    x 1.821580 0.000000 0.000000 
#    y 0.000000 1.827770 0.000000 
#    z 0.000000 0.000000 1.768570 
# 
# From -- ./inp_files/21958.got.cif
#   From: 2010.05.17/outbox.cif.g08.bks.cpg/sg46_11_cif.got.tgz:21958.got - 2010.06.03 19:58:25.
