data_PCOD9380647
_publ_section_title
;
Structure prediction by ZEFSAII (Michael W. Deem and Ramdas Pophale) SiO2 
 PCOD9380647
Probable space group: I M A 2
;
_chemical_formula_sum "Si O2"
_cell_formula_units_Z 36
_cell_length_a 14.375237
_cell_length_b 5.294191
_cell_length_c 19.436151
_cell_angle_alpha 90.000000
_cell_angle_beta 90.000000
_cell_angle_gamma 90.000000
_cell_volume 1479.193138
_symmetry_space_group_name_H-M "I M A 2"
_symmetry_group_IT_number 46
_symmetry_cell_setting 'orthorhombic'
loop_
_space_group_symop_operation_xyz
x,y,z
-x,-y,z
1/2-x,y,z
1/2+x,-y,z
1/2+x,1/2+y,1/2+z
1/2-x,1/2-y,1/2+z
-x,1/2+y,1/2+z
x,1/2-y,1/2+z
loop_
_atom_site_type_symbol
_atom_site_label
_atom_site_fract_x
_atom_site_fract_y
_atom_site_fract_z
Si Si1 0.612396 0.996156 0.237400
Si Si2 0.250000 0.250001 0.566195
Si Si3 0.388401 0.506240 0.479058
Si Si4 0.612396 0.503843 0.894990
Si Si5 0.388401 0.993758 0.653333
O O1 0.639482 0.737710 0.199842
O O2 0.500000 0.000000 0.239256
O O3 0.644317 0.005071 0.316195
O O4 0.638441 0.243051 0.194564
O O5 0.331746 0.457682 0.547534
O O6 0.331746 0.042319 0.584857
O O7 0.500000 0.500000 0.489729
O O8 0.361559 0.756946 0.437825
O O9 0.360518 0.262287 0.432549
O O10 0.500000 0.500000 0.893134
O O11 0.500000 0.000000 0.642662
#
# Coordination Sequence:
#
# PCOD9380647 Si02
#       5
#     8   4   8   8   8
#     4   9  18  38  67  96 127 165 213 275 345 404
#     4  12  28  46  66  96 140 186 236 280 332 412
#     4  10  23  41  65  95 130 174 220 274 335 399
#     4   9  18  38  67  96 127 165 213 275 345 404
#     4  10  23  41  65  95 130 174 220 274 335 399
#
# _framework density 24.337589999999999
#
# number of rings (size 3 to 8) (size 9 to 14) (size 15 to 20)
#    0.000    2.222    0.000    1.333    0.000   16.000 
#    0.000    6.667    0.000    0.000    0.000    0.000 
#    0.000    0.000    0.000    0.000    0.000    0.000 
#
# Total GULP energy -100290.451117 kJ/mol
# GULP energy per Si atom -5571.691729 kJ/mol
# Density = 2.428220 g / cm^3
# Si number density = 24.337590 Si / 1000 Ang^3
#
#
#
# Elastic Constant Matrix: (Units=GPa)
#
#
# Indices 1 2 3 4 5 6 
#
# 1 161.1825 33.3742 17.9807 0.0000 0.0000 0.0000
# 2 33.3742 234.6335 76.3138 0.0000 0.0000 0.0000
# 3 17.9807 76.3138 87.6011 0.0000 0.0000 0.0000
# 4 0.0000 0.0000 0.0000 48.2794 0.0000 0.0000
# 5 0.0000 0.0000 0.0000 0.0000 -10.4968 0.0000
# 6 0.0000 0.0000 0.0000 0.0000 0.0000 9.4888
#
#
#
# Elastic Compliance Matrix: (Units=1/GPa)
#
#
# Indices 1 2 3 4 5 6 
#
# 1 0.006426 -0.000677 -0.000729 0.000000 0.000000 0.000000
# 2 -0.000677 0.006018 -0.005104 0.000000 0.000000 0.000000
# 3 -0.000729 -0.005104 0.016011 0.000000 0.000000 0.000000
# 4 0.000000 0.000000 0.000000 0.020713 0.000000 0.000000
# 5 0.000000 0.000000 0.000000 0.000000 -0.095267 0.000000
# 6 0.000000 0.000000 0.000000 0.000000 0.000000 0.105387
#
#
# Mechanical properties :
#
#
# Convention : Reuss Voigt Hill
#
# Bulk Modulus (GPa) = 64.78682 82.08382 73.43532
# Shear Modulus (GPa) = 64.55539 33.17086 48.86312
#
# Velocity S-wave (km/s) = 5.15583 3.69582 4.48562
# Velocity P-wave (km/s) = 7.88170 7.21197 7.55426
#
# Compressibility (1/GPa) = 0.01543524
#
# Stress axis : x y z
#
# Youngs Moduli (GPa) = 155.62659 166.16116 62.45572
#
# Poissons Ratio (x) = 0.11245 0.04555
# Poissons Ratio (y) = 0.10532 0.31877
# Poissons Ratio (z) = 0.11350 0.84807
#
# Static dielectric constant tensor:
#      x y z
#    x 2.143270 0.000000 0.000000 
#    y 0.000000 1.905460 0.000000 
#    z 0.000000 0.000000 2.041640 
# 
# From -- ./inp_files/21838.got.cif
#   From: 2010.05.17/outbox.cif.g08.bks.cpg/sg46_11_cif.got.tgz:21838.got - 2010.06.03 19:58:25.
