data_PCOD9380165
_publ_section_title
;
Structure prediction by ZEFSAII (Michael W. Deem and Ramdas Pophale) SiO2 
 PCOD9380165
Probable space group: I M A 2
;
_chemical_formula_sum "Si O2"
_cell_formula_units_Z 64
_cell_length_a 30.164044
_cell_length_b 7.468672
_cell_length_c 11.993325
_cell_angle_alpha 90.000000
_cell_angle_beta 90.000000
_cell_angle_gamma 90.000000
_cell_volume 2701.920430
_symmetry_space_group_name_H-M "I M A 2"
_symmetry_group_IT_number 46
_symmetry_cell_setting 'orthorhombic'
loop_
_space_group_symop_operation_xyz
x,y,z
-x,-y,z
1/2-x,y,z
1/2+x,-y,z
1/2+x,1/2+y,1/2+z
1/2-x,1/2-y,1/2+z
-x,1/2+y,1/2+z
x,1/2-y,1/2+z
loop_
_atom_site_type_symbol
_atom_site_label
_atom_site_fract_x
_atom_site_fract_y
_atom_site_fract_z
Si Si1 0.886600 0.919611 0.465360
Si Si2 0.448774 0.474661 0.623974
Si Si3 0.075923 0.409817 0.383751
Si Si4 0.201505 0.862726 0.060012
Si Si5 0.328165 0.508584 0.324168
Si Si6 0.450279 0.049660 0.642844
Si Si7 0.700735 0.568595 0.087448
Si Si8 0.632473 0.119163 0.242114
O O1 0.927613 0.799020 0.416784
O O2 0.912889 0.031449 0.561307
O O3 0.843047 0.847420 0.531638
O O4 0.866482 0.016985 0.358876
O O5 0.500000 0.500000 0.648012
O O6 0.438479 0.513466 0.494123
O O7 0.439473 0.263523 0.642376
O O8 0.417152 0.595272 0.698210
O O9 0.128507 0.404726 0.363191
O O10 0.054324 0.489981 0.274072
O O11 0.250000 0.903927 0.107333
O O12 0.197863 0.645281 0.058428
O O13 0.164166 0.942428 0.141052
O O14 0.197812 0.935629 0.934670
O O15 0.303123 0.416772 0.221771
O O16 0.349654 0.686283 0.271158
O O17 0.500000 0.000000 0.607446
O O18 0.750000 0.630951 0.051626
#
# Coordination Sequence:
#
# PCOD9380165 Si02
#       8
#     8   8   8   8   8   8   8   8
#     4  11  23  43  66  90 133 174 209 263 329 390
#     4  11  25  43  63  95 130 163 218 272 323 393
#     4  11  23  43  67  89 129 170 210 265 327 390
#     4  10  21  38  65 100 130 165 218 275 324 382
#     4  11  21  38  69  93 126 171 219 267 325 389
#     4  11  25  43  68  95 127 171 215 268 331 390
#     4  10  21  38  63  96 129 169 217 269 323 387
#     4  11  23  40  65  96 129 174 214 266 330 385
#
# _framework density 23.686858000000001
#
# number of rings (size 3 to 8) (size 9 to 14) (size 15 to 20)
#    0.000    1.250    5.000    0.750    1.750    2.500 
#    0.000    1.250    0.000    0.000    0.000    0.000 
#    0.000    0.000    0.000    0.000    0.000    0.000 
#
# Total GULP energy -178683.166510 kJ/mol
# GULP energy per Si atom -5583.848953 kJ/mol
# Density = 2.363295 g / cm^3
# Si number density = 23.686858 Si / 1000 Ang^3
#
#
#
# Elastic Constant Matrix: (Units=GPa)
#
#
# Indices 1 2 3 4 5 6 
#
# 1 154.7250 -2.2158 56.7343 0.0000 0.0000 0.0000
# 2 -2.2158 40.1314 9.6926 0.0000 0.0000 0.0000
# 3 56.7343 9.6926 145.3939 0.0000 0.0000 0.0000
# 4 0.0000 0.0000 0.0000 23.8927 0.0000 0.0000
# 5 0.0000 0.0000 0.0000 0.0000 -1.2502 0.0000
# 6 0.0000 0.0000 0.0000 0.0000 0.0000 15.1374
#
#
#
# Elastic Compliance Matrix: (Units=1/GPa)
#
#
# Indices 1 2 3 4 5 6 
#
# 1 0.007594 0.001154 -0.003040 0.000000 0.000000 0.000000
# 2 0.001154 0.025501 -0.002150 0.000000 0.000000 0.000000
# 3 -0.003040 -0.002150 0.008208 0.000000 0.000000 0.000000
# 4 0.000000 0.000000 0.000000 0.041854 0.000000 0.000000
# 5 0.000000 0.000000 0.000000 0.000000 -0.799843 0.000000
# 6 0.000000 0.000000 0.000000 0.000000 0.000000 0.066061
#
#
# Mechanical properties :
#
#
# Convention : Reuss Voigt Hill
#
# Bulk Modulus (GPa) = 30.09389 52.07474 41.08431
# Shear Modulus (GPa) = -7.91798 25.95860 9.02031
#
# Velocity S-wave (km/s) = -1.83031 3.31404 1.95356
# Velocity P-wave (km/s) = 2.87502 6.05609 4.74036
#
# Compressibility (1/GPa) = 0.03322934
#
# Stress axis : x y z
#
# Youngs Moduli (GPa) = 131.67552 39.21395 121.83862
#
# Poissons Ratio (x) = -0.04524 0.37043
# Poissons Ratio (y) = -0.15190 0.26197
# Poissons Ratio (z) = 0.40034 0.08432
#
# Static dielectric constant tensor:
#      x y z
#    x 1.865790 0.000000 0.000000 
#    y 0.000000 2.098270 0.000000 
#    z 0.000000 0.000000 1.963370 
# 
# From -- ./inp_files/13195.got.cif
#   From: 2010.05.17/outbox.cif.g08.bks.cpg/sg46_7_cif.got.tgz:13195.got - 2010.06.03 19:58:25.
