data_PCOD9380682
_publ_section_title
;
Structure prediction by ZEFSAII (Michael W. Deem and Ramdas Pophale) SiO2 
 PCOD9380682
Probable space group: I M A 2
;
_chemical_formula_sum "Si O2"
_cell_formula_units_Z 56
_cell_length_a 20.824604
_cell_length_b 14.598093
_cell_length_c 8.868795
_cell_angle_alpha 90.000000
_cell_angle_beta 90.000000
_cell_angle_gamma 90.000000
_cell_volume 2696.109298
_symmetry_space_group_name_H-M "I M A 2"
_symmetry_group_IT_number 46
_symmetry_cell_setting 'orthorhombic'
loop_
_space_group_symop_operation_xyz
x,y,z
-x,-y,z
1/2-x,y,z
1/2+x,-y,z
1/2+x,1/2+y,1/2+z
1/2-x,1/2-y,1/2+z
-x,1/2+y,1/2+z
x,1/2-y,1/2+z
loop_
_atom_site_type_symbol
_atom_site_label
_atom_site_fract_x
_atom_site_fract_y
_atom_site_fract_z
Si Si1 0.562684 0.953459 0.869020
Si Si2 0.112810 0.301322 0.594137
Si Si3 0.322986 0.928243 0.457930
Si Si4 0.176838 0.902373 0.815236
Si Si5 0.993002 0.304721 0.205856
Si Si6 0.826286 0.637031 0.903521
Si Si7 0.399923 0.764152 0.440831
O O1 0.529697 0.901189 0.726327
O O2 0.500000 0.000000 0.944881
O O3 0.618934 0.025446 0.836877
O O4 0.596452 0.877080 0.970535
O O5 0.154739 0.340031 0.731694
O O6 0.143598 0.213490 0.512217
O O7 0.046262 0.268225 0.664435
O O8 0.250000 0.923991 0.397675
O O9 0.319409 0.894799 0.632539
O O10 0.369886 0.857548 0.374907
O O11 0.345566 0.033179 0.446597
O O12 0.250000 0.929330 0.861503
O O13 0.154555 0.812894 0.910815
O O14 0.962452 0.278107 0.363800
O O15 0.931581 0.295318 0.098252
O O16 0.750000 0.641733 0.921132
#
# Coordination Sequence:
#
# PCOD9380682 Si02
#       7
#     8   8   8   8   8   8   8
#     4  12  23  43  69 101 141 181 241 293 356 430
#     4  12  24  44  67 102 136 175 235 293 355 421
#     4  10  23  43  67 100 139 181 234 290 355 431
#     4  11  24  43  70 103 142 193 238 295 367 432
#     4  12  23  41  69  97 138 181 231 291 351 417
#     4  11  25  45  70  99 138 186 235 291 359 430
#     4  12  22  44  68 102 137 182 235 288 357 423
#
# _framework density 20.770672999999999
#
# number of rings (size 3 to 8) (size 9 to 14) (size 15 to 20)
#    0.000    0.571    5.714    1.714    0.000    3.429 
#    0.000    2.857    0.000    0.000    0.000    0.000 
#    0.000    0.000    0.000    0.000    0.000    0.000 
#
# Total GULP energy -156140.556700 kJ/mol
# GULP energy per Si atom -5576.448454 kJ/mol
# Density = 2.072340 g / cm^3
# Si number density = 20.770673 Si / 1000 Ang^3
#
#
#
# Elastic Constant Matrix: (Units=GPa)
#
#
# Indices 1 2 3 4 5 6 
#
# 1 114.8274 52.7679 11.2469 0.0000 0.0000 0.0000
# 2 52.7679 120.3860 18.6792 0.0000 0.0000 0.0000
# 3 11.2469 18.6792 40.0615 0.0000 0.0000 0.0000
# 4 0.0000 0.0000 0.0000 15.7153 0.0000 0.0000
# 5 0.0000 0.0000 0.0000 0.0000 26.7470 0.0000
# 6 0.0000 0.0000 0.0000 0.0000 0.0000 30.3585
#
#
#
# Elastic Compliance Matrix: (Units=1/GPa)
#
#
# Indices 1 2 3 4 5 6 
#
# 1 0.010935 -0.004654 -0.000900 0.000000 0.000000 0.000000
# 2 -0.004654 0.010935 -0.003792 0.000000 0.000000 0.000000
# 3 -0.000900 -0.003792 0.026982 0.000000 0.000000 0.000000
# 4 0.000000 0.000000 0.000000 0.063632 0.000000 0.000000
# 5 0.000000 0.000000 0.000000 0.000000 0.037387 0.000000
# 6 0.000000 0.000000 0.000000 0.000000 0.000000 0.032940
#
#
# Mechanical properties :
#
#
# Convention : Reuss Voigt Hill
#
# Bulk Modulus (GPa) = 33.15547 48.96255 41.05901
# Shear Modulus (GPa) = 23.63428 27.40290 25.51859
#
# Velocity S-wave (km/s) = 3.37689 3.63617 3.50892
# Velocity P-wave (km/s) = 5.58586 6.42285 6.01892
#
# Compressibility (1/GPa) = 0.03016094
#
# Stress axis : x y z
#
# Youngs Moduli (GPa) = 91.44621 91.45160 37.06119
#
# Poissons Ratio (x) = 0.42557 0.03336
# Poissons Ratio (y) = 0.42555 0.14054
# Poissons Ratio (z) = 0.08232 0.34679
#
# Static dielectric constant tensor:
#      x y z
#    x 1.742210 0.000000 0.000000 
#    y 0.000000 1.776420 0.000000 
#    z 0.000000 0.000000 1.822240 
# 
# From -- ./inp_files/7393.got.cif
#   From: 2010.05.17/outbox.cif.g08.bks.cpg/sg46_4_cif.got.tgz:7393.got - 2010.06.03 19:58:25.
