data_PCOD9380848
_publ_section_title
;
Structure prediction by ZEFSAII (Michael W. Deem and Ramdas Pophale) SiO2 
 PCOD9380848
Probable space group: I M A 2
;
_chemical_formula_sum "Si O2"
_cell_formula_units_Z 48
_cell_length_a 8.580362
_cell_length_b 27.852337
_cell_length_c 9.752787
_cell_angle_alpha 90.000000
_cell_angle_beta 90.000000
_cell_angle_gamma 90.000000
_cell_volume 2330.751603
_symmetry_space_group_name_H-M "I M A 2"
_symmetry_group_IT_number 46
_symmetry_cell_setting 'orthorhombic'
loop_
_space_group_symop_operation_xyz
x,y,z
-x,-y,z
1/2-x,y,z
1/2+x,-y,z
1/2+x,1/2+y,1/2+z
1/2-x,1/2-y,1/2+z
-x,1/2+y,1/2+z
x,1/2-y,1/2+z
loop_
_atom_site_type_symbol
_atom_site_label
_atom_site_fract_x
_atom_site_fract_y
_atom_site_fract_z
Si Si1 0.438144 0.223567 0.201980
Si Si2 0.068487 0.047392 0.284121
Si Si3 0.066164 0.586146 0.057298
Si Si4 0.934994 0.552521 0.341140
Si Si5 0.433514 0.371672 0.556751
Si Si6 0.436968 0.697202 0.002953
O O1 0.250000 0.222626 0.206430
O O2 0.496754 0.179545 0.105109
O O3 0.495303 0.271574 0.127713
O O4 0.498466 0.215471 0.356432
O O5 0.250000 0.040614 0.315752
O O6 0.054975 0.093163 0.186669
O O7 0.972783 0.056683 0.421324
O O8 0.000000 0.000000 0.214180
O O9 0.250000 0.584022 0.087257
O O10 0.021732 0.641371 0.026386
O O11 0.973668 0.564750 0.184737
O O12 0.750000 0.550707 0.364033
O O13 0.000116 0.596864 0.432159
O O14 0.000000 0.500000 0.375492
O O15 0.250000 0.363469 0.526020
O O16 0.250000 0.701049 0.001042
#
# Coordination Sequence:
#
# PCOD9380848 Si02
#       6
#     8   8   8   8   8   8
#     4  11  23  43  69  97 126 167 216 259 314 383
#     4  11  21  38  63  91 123 159 204 256 310 371
#     4  11  24  42  62  89 125 166 209 254 311 374
#     4  11  23  41  63  91 127 166 211 260 312 372
#     4   9  21  40  63  92 124 159 205 256 307 369
#     4  11  25  44  65  96 132 166 208 264 325 380
#
# _framework density 20.594214000000001
#
# number of rings (size 3 to 8) (size 9 to 14) (size 15 to 20)
#    0.000    1.333    1.667    3.500    2.333    2.000 
#    0.000    5.000    0.000    0.000    0.000    0.000 
#    0.000    0.000    0.000    0.000    0.000    0.000 
#
# Total GULP energy -134149.718751 kJ/mol
# GULP energy per Si atom -5589.571615 kJ/mol
# Density = 2.054734 g / cm^3
# Si number density = 20.594214 Si / 1000 Ang^3
#
#
#
# Elastic Constant Matrix: (Units=GPa)
#
#
# Indices 1 2 3 4 5 6 
#
# 1 42.1219 24.6258 7.4386 0.0002 -0.0018 0.0001
# 2 24.6258 80.5865 -10.7424 0.0009 -0.0037 0.0000
# 3 7.4386 -10.7424 48.4268 -0.0001 -0.0199 0.0006
# 4 0.0002 0.0009 -0.0001 56.3940 -0.0196 -0.0002
# 5 -0.0018 -0.0037 -0.0199 -0.0196 190.6434 0.0021
# 6 0.0001 0.0000 0.0006 -0.0002 0.0021 26.2174
#
#
#
# Elastic Compliance Matrix: (Units=1/GPa)
#
#
# Indices 1 2 3 4 5 6 
#
# 1 0.031103 -0.010451 -0.007096 0.000000 -0.000001 0.000000
# 2 -0.010451 0.016298 0.005221 0.000000 0.000001 0.000000
# 3 -0.007096 0.005221 0.022898 0.000000 0.000002 0.000000
# 4 0.000000 0.000000 0.000000 0.017732 0.000002 0.000000
# 5 -0.000001 0.000001 0.000002 0.000002 0.005245 0.000000
# 6 0.000000 0.000000 0.000000 0.000000 0.000000 0.038143
#
#
# Mechanical properties :
#
#
# Convention : Reuss Voigt Hill
#
# Bulk Modulus (GPa) = 21.90663 23.75324 22.82993
# Shear Modulus (GPa) = 29.19066 64.63851 46.91458
#
# Velocity S-wave (km/s) = 3.76895 5.60846 4.77807
# Velocity P-wave (km/s) = 5.44062 7.31429 6.44590
#
# Compressibility (1/GPa) = 0.04564829
#
# Stress axis : x y z
#
# Youngs Moduli (GPa) = 32.15078 61.35542 43.67233
#
# Poissons Ratio (x) = 0.64120 0.30989
# Poissons Ratio (y) = 0.33599 -0.22800
# Poissons Ratio (z) = 0.22814 -0.32032
#
# Static dielectric constant tensor:
#      x y z
#    x 1.617610 0.000040 0.000000 
#    y 0.000040 1.432380 0.000000 
#    z 0.000000 0.000000 1.703760 
# 
# From -- ./inp_files/3884.got.cif
#   From: 2010.05.17/outbox.cif.g08.bks.cpg/sg46_2_cif.got.tgz:3884.got - 2010.06.03 19:58:25.
