data_PCOD9380451
_publ_section_title
;
Structure prediction by ZEFSAII (Michael W. Deem and Ramdas Pophale) SiO2 
 PCOD9380451
Probable space group: I M A 2
;
_chemical_formula_sum "Si O2"
_cell_formula_units_Z 64
_cell_length_a 16.605214
_cell_length_b 19.859773
_cell_length_c 8.950717
_cell_angle_alpha 90.000000
_cell_angle_beta 90.000000
_cell_angle_gamma 90.000000
_cell_volume 2951.729686
_symmetry_space_group_name_H-M "I M A 2"
_symmetry_group_IT_number 46
_symmetry_cell_setting 'orthorhombic'
loop_
_space_group_symop_operation_xyz
x,y,z
-x,-y,z
1/2-x,y,z
1/2+x,-y,z
1/2+x,1/2+y,1/2+z
1/2-x,1/2-y,1/2+z
-x,1/2+y,1/2+z
x,1/2-y,1/2+z
loop_
_atom_site_type_symbol
_atom_site_label
_atom_site_fract_x
_atom_site_fract_y
_atom_site_fract_z
Si Si1 0.846471 0.074561 0.298650
Si Si2 0.341997 0.001297 0.759343
Si Si3 0.053262 0.933982 0.008726
Si Si4 0.835554 0.670602 0.741761
Si Si5 0.456873 0.841386 0.492035
Si Si6 0.113116 0.128231 0.948846
Si Si7 0.896342 0.560293 0.945476
Si Si8 0.970038 0.767432 0.774416
O O1 0.750000 0.072885 0.286778
O O2 0.874007 0.125851 0.431245
O O3 0.880105 0.999347 0.329611
O O4 0.890184 0.091965 0.141751
O O5 0.250000 0.977961 0.749442
O O6 0.349767 0.071483 0.845271
O O7 0.374197 0.022311 0.597668
O O8 0.396367 0.951805 0.859637
O O9 0.982332 0.883460 0.970954
O O10 0.000000 0.000000 0.051453
O O11 0.750000 0.706765 0.745336
O O12 0.837611 0.621683 0.599815
O O13 0.846188 0.625704 0.890027
O O14 0.915176 0.711360 0.694486
O O15 0.516920 0.904629 0.460125
O O16 0.480184 0.813934 0.658256
O O17 0.476365 0.776939 0.386939
O O18 0.105455 0.196936 0.858608
#
# Coordination Sequence:
#
# PCOD9380451 Si02
#       8
#     8   8   8   8   8   8   8   8
#     4  12  25  43  69 100 131 168 219 283 346 398
#     4  11  22  36  59  97 137 169 216 278 332 386
#     4  10  22  39  63  91 130 178 223 259 333 405
#     4  11  23  40  63  93 135 177 217 271 335 400
#     4  11  24  44  71  92 129 178 224 273 328 405
#     4  11  22  40  60  90 119 177 221 264 320 398
#     4  11  23  41  65 100 135 175 215 270 344 409
#     4  11  23  43  62  91 125 172 229 268 322 396
#
# _framework density 21.682203000000001
#
# number of rings (size 3 to 8) (size 9 to 14) (size 15 to 20)
#    0.000    1.000    2.500    6.000    1.750    2.000 
#    0.000    0.625    0.000    0.000    0.000    0.000 
#    0.000    0.000    0.000    0.000    0.000    0.000 
#
# Total GULP energy -178318.309074 kJ/mol
# GULP energy per Si atom -5572.447159 kJ/mol
# Density = 2.163285 g / cm^3
# Si number density = 21.682203 Si / 1000 Ang^3
#
#
#
# Elastic Constant Matrix: (Units=GPa)
#
#
# Indices 1 2 3 4 5 6 
#
# 1 94.4569 6.5527 30.3104 0.0000 0.0000 0.0000
# 2 6.5527 29.8706 -6.9818 0.0000 0.0000 0.0000
# 3 30.3104 -6.9818 85.6497 0.0000 0.0000 0.0000
# 4 0.0000 0.0000 0.0000 32.9098 0.0000 0.0000
# 5 0.0000 0.0000 0.0000 0.0000 103.7275 0.0000
# 6 0.0000 0.0000 0.0000 0.0000 0.0000 14.1438
#
#
#
# Elastic Compliance Matrix: (Units=1/GPa)
#
#
# Indices 1 2 3 4 5 6 
#
# 1 0.012353 -0.003804 -0.004682 0.000000 0.000000 0.000000
# 2 -0.003804 0.035299 0.004224 0.000000 0.000000 0.000000
# 3 -0.004682 0.004224 0.013677 0.000000 0.000000 0.000000
# 4 0.000000 0.000000 0.000000 0.030386 0.000000 0.000000
# 5 0.000000 0.000000 0.000000 0.000000 0.009641 0.000000
# 6 0.000000 0.000000 0.000000 0.000000 0.000000 0.070702
#
#
# Mechanical properties :
#
#
# Convention : Reuss Voigt Hill
#
# Bulk Modulus (GPa) = 18.93769 29.97109 24.45439
# Shear Modulus (GPa) = 25.22911 42.16262 33.69586
#
# Velocity S-wave (km/s) = 3.41484 4.41451 3.94646
# Velocity P-wave (km/s) = 4.92964 6.31164 5.66296
#
# Compressibility (1/GPa) = 0.05280474
#
# Stress axis : x y z
#
# Youngs Moduli (GPa) = 80.95159 28.32906 73.11781
#
# Poissons Ratio (x) = 0.10777 0.34232
# Poissons Ratio (y) = 0.30795 -0.30883
# Poissons Ratio (z) = 0.37899 -0.11965
#
# Static dielectric constant tensor:
#      x y z
#    x 1.805780 0.000000 0.000000 
#    y 0.000000 1.974770 0.000000 
#    z 0.000000 0.000000 1.873800 
# 
# From -- ./inp_files/6099.got.cif
#   From: 2010.05.17/outbox.cif.g08.bks.cpg/sg46_4_cif.got.tgz:6099.got - 2010.06.03 19:58:25.
