data_PCOD9380500
_publ_section_title
;
Structure prediction by ZEFSAII (Michael W. Deem and Ramdas Pophale) SiO2 
 PCOD9380500
Probable space group: I M A 2
;
_chemical_formula_sum "Si O2"
_cell_formula_units_Z 64
_cell_length_a 19.573913
_cell_length_b 11.120964
_cell_length_c 14.518585
_cell_angle_alpha 90.000000
_cell_angle_beta 90.000000
_cell_angle_gamma 90.000000
_cell_volume 3160.416934
_symmetry_space_group_name_H-M "I M A 2"
_symmetry_group_IT_number 46
_symmetry_cell_setting 'orthorhombic'
loop_
_space_group_symop_operation_xyz
x,y,z
-x,-y,z
1/2-x,y,z
1/2+x,-y,z
1/2+x,1/2+y,1/2+z
1/2-x,1/2-y,1/2+z
-x,1/2+y,1/2+z
x,1/2-y,1/2+z
loop_
_atom_site_type_symbol
_atom_site_label
_atom_site_fract_x
_atom_site_fract_y
_atom_site_fract_z
Si Si1 0.328011 0.537154 0.575980
Si Si2 0.329896 0.066441 0.271269
Si Si3 0.670079 0.275985 0.185073
Si Si4 0.050435 0.326527 0.078472
Si Si5 0.436661 0.084460 0.959951
Si Si6 0.437805 0.240072 0.790360
Si Si7 0.911464 0.168227 0.337477
Si Si8 0.099589 0.917540 0.541950
O O1 0.250000 0.556472 0.549291
O O2 0.330517 0.441035 0.659830
O O3 0.352724 0.661484 0.622278
O O4 0.371371 0.489286 0.492257
O O5 0.250000 0.056093 0.299487
O O6 0.370330 0.180829 0.308553
O O7 0.376376 0.953414 0.300255
O O8 0.750000 0.259916 0.206205
O O9 0.626791 0.271662 0.278919
O O10 0.656055 0.386524 0.117807
O O11 0.066146 0.295336 0.183780
O O12 0.058421 0.208266 0.016949
O O13 0.091975 0.438499 0.034605
O O14 0.972235 0.369747 0.080397
O O15 0.438190 0.123467 0.854369
O O16 0.500000 0.000000 0.983180
O O17 0.507722 0.314296 0.815922
O O18 0.895204 0.154352 0.445611
#
# Coordination Sequence:
#
# PCOD9380500 Si02
#       8
#     8   8   8   8   8   8   8   8
#     4   9  20  40  64  90 126 167 217 276 329 391
#     4  10  22  40  65  95 130 174 225 278 331 397
#     4  10  22  42  67  98 131 172 223 278 339 396
#     4  11  24  42  62  97 131 175 212 281 335 395
#     4  12  25  39  66 102 125 170 230 272 330 404
#     4  12  24  39  65  96 133 174 221 282 341 399
#     4  11  22  38  68  98 127 177 233 280 321 400
#     4  11  23  42  65  90 140 172 221 275 339 397
#
# _framework density 20.250492999999999
#
# number of rings (size 3 to 8) (size 9 to 14) (size 15 to 20)
#    0.000    1.250    3.750    3.000    5.250    1.500 
#    0.000    1.250    0.000    0.000    0.000    0.000 
#    0.000    0.000    0.000    0.000    0.000    0.000 
#
# Total GULP energy -178582.105701 kJ/mol
# GULP energy per Si atom -5580.690803 kJ/mol
# Density = 2.020440 g / cm^3
# Si number density = 20.250493 Si / 1000 Ang^3
#
#
#
# Elastic Constant Matrix: (Units=GPa)
#
#
# Indices 1 2 3 4 5 6 
#
# 1 78.4868 19.8365 17.8368 0.0000 0.0000 0.0000
# 2 19.8365 62.1479 15.3062 0.0000 0.0000 0.0000
# 3 17.8368 15.3062 88.0569 0.0000 0.0000 0.0000
# 4 0.0000 0.0000 0.0000 25.1203 0.0000 0.0000
# 5 0.0000 0.0000 0.0000 0.0000 0.9453 0.0000
# 6 0.0000 0.0000 0.0000 0.0000 0.0000 19.8744
#
#
#
# Elastic Compliance Matrix: (Units=1/GPa)
#
#
# Indices 1 2 3 4 5 6 
#
# 1 0.014252 -0.004010 -0.002190 0.000000 0.000000 0.000000
# 2 -0.004010 0.017938 -0.002306 0.000000 0.000000 0.000000
# 3 -0.002190 -0.002306 0.012201 0.000000 0.000000 0.000000
# 4 0.000000 0.000000 0.000000 0.039808 0.000000 0.000000
# 5 0.000000 0.000000 0.000000 0.000000 1.057856 0.000000
# 6 0.000000 0.000000 0.000000 0.000000 0.000000 0.050316
#
#
# Mechanical properties :
#
#
# Convention : Reuss Voigt Hill
#
# Bulk Modulus (GPa) = 36.52275 37.18339 36.85307
# Shear Modulus (GPa) = 4.10338 20.90214 12.50276
#
# Velocity S-wave (km/s) = 1.42503 3.21624 2.48746
# Velocity P-wave (km/s) = 4.55876 5.67396 5.14665
#
# Compressibility (1/GPa) = 0.02738020
#
# Stress axis : x y z
#
# Youngs Moduli (GPa) = 70.16524 55.74647 81.96249
#
# Poissons Ratio (x) = 0.22352 0.17949
# Poissons Ratio (y) = 0.28134 0.18900
# Poissons Ratio (z) = 0.15366 0.12854
#
# Static dielectric constant tensor:
#      x y z
#    x 1.728240 0.000000 0.000000 
#    y 0.000000 1.754630 0.000000 
#    z 0.000000 0.000000 1.763140 
# 
# From -- ./inp_files/16794.got.cif
#   From: 2010.05.17/outbox.cif.g08.bks.cpg/sg46_9_cif.got.tgz:16794.got - 2010.06.03 19:58:25.
