data_PCOD9380865
_publ_section_title
;
Structure prediction by ZEFSAII (Michael W. Deem and Ramdas Pophale) SiO2 
 PCOD9380865
Probable space group: I M A 2
;
_chemical_formula_sum "Si O2"
_cell_formula_units_Z 52
_cell_length_a 19.206656
_cell_length_b 6.744397
_cell_length_c 18.402980
_cell_angle_alpha 90.000000
_cell_angle_beta 90.000000
_cell_angle_gamma 90.000000
_cell_volume 2383.872582
_symmetry_space_group_name_H-M "I M A 2"
_symmetry_group_IT_number 46
_symmetry_cell_setting 'orthorhombic'
loop_
_space_group_symop_operation_xyz
x,y,z
-x,-y,z
1/2-x,y,z
1/2+x,-y,z
1/2+x,1/2+y,1/2+z
1/2-x,1/2-y,1/2+z
-x,1/2+y,1/2+z
x,1/2-y,1/2+z
loop_
_atom_site_type_symbol
_atom_site_label
_atom_site_fract_x
_atom_site_fract_y
_atom_site_fract_z
Si Si1 0.670098 0.766923 0.658660
Si Si2 0.358092 0.195681 0.997514
Si Si3 0.068842 0.627406 0.169805
Si Si4 0.750000 0.090081 0.916290
Si Si5 0.484643 0.763701 0.522649
Si Si6 0.582129 0.482165 0.762330
Si Si7 0.871827 0.397838 0.918373
O O1 0.750000 0.796896 0.681495
O O2 0.668500 0.665702 0.579645
O O3 0.627475 0.637031 0.716571
O O4 0.628008 0.971300 0.648229
O O5 0.442060 0.162748 0.003703
O O6 0.349652 0.424944 0.972606
O O7 0.311686 0.064108 0.944623
O O8 0.047629 0.771755 0.102516
O O9 0.097795 0.760943 0.234403
O O10 0.000000 0.500000 0.190199
O O11 0.809611 0.256647 0.897300
O O12 0.429163 0.764038 0.458855
O O13 0.500000 0.000000 0.529651
O O14 0.500000 0.500000 0.748338
O O15 0.596449 0.500672 0.847350
#
# Coordination Sequence:
#
# PCOD9380865 Si02
#       7
#     8   8   8   4   8   8   8
#     4  12  26  44  73 109 145 191 235 304 376 430
#     4  11  22  46  72 102 140 181 244 295 349 422
#     4  11  21  45  74 103 142 184 239 304 363 424
#     4  12  28  42  68 106 140 190 230 284 370 440
#     4   9  18  41  74  98 130 182 235 297 347 404
#     4  12  26  46  75 106 144 192 249 293 360 447
#     4  11  26  47  71 101 144 186 232 302 362 414
#
# _framework density 21.813244999999998
#
# number of rings (size 3 to 8) (size 9 to 14) (size 15 to 20)
#    0.000    0.923    6.923    1.846    3.231    2.462 
#    5.538    0.000    0.000    0.000    0.000    0.000 
#    0.000    0.000    0.000    0.000    0.000    0.000 
#
# Total GULP energy -144795.315587 kJ/mol
# GULP energy per Si atom -5569.050600 kJ/mol
# Density = 2.176360 g / cm^3
# Si number density = 21.813245 Si / 1000 Ang^3
#
#
#
# Elastic Constant Matrix: (Units=GPa)
#
#
# Indices 1 2 3 4 5 6 
#
# 1 165.7206 26.0891 17.8813 0.0000 0.0000 0.0000
# 2 26.0891 59.9193 14.9341 0.0000 0.0000 0.0000
# 3 17.8813 14.9341 67.9063 0.0000 0.0000 0.0000
# 4 0.0000 0.0000 0.0000 18.5258 0.0000 0.0000
# 5 0.0000 0.0000 0.0000 0.0000 14.1721 0.0000
# 6 0.0000 0.0000 0.0000 0.0000 0.0000 64.9642
#
#
#
# Elastic Compliance Matrix: (Units=1/GPa)
#
#
# Indices 1 2 3 4 5 6 
#
# 1 0.006564 -0.002568 -0.001164 0.000000 0.000000 0.000000
# 2 -0.002568 0.018662 -0.003428 0.000000 0.000000 0.000000
# 3 -0.001164 -0.003428 0.015786 0.000000 0.000000 0.000000
# 4 0.000000 0.000000 0.000000 0.053979 0.000000 0.000000
# 5 0.000000 0.000000 0.000000 0.000000 0.070561 0.000000
# 6 0.000000 0.000000 0.000000 0.000000 0.000000 0.015393
#
#
# Mechanical properties :
#
#
# Convention : Reuss Voigt Hill
#
# Bulk Modulus (GPa) = 37.46303 45.70612 41.58457
# Shear Modulus (GPa) = 24.49034 35.17520 29.83277
#
# Velocity S-wave (km/s) = 3.35435 4.02003 3.70218
# Velocity P-wave (km/s) = 5.67573 6.52276 6.11393
#
# Compressibility (1/GPa) = 0.02669298
#
# Stress axis : x y z
#
# Youngs Moduli (GPa) = 152.34400 53.58601 63.34532
#
# Poissons Ratio (x) = 0.13761 0.07372
# Poissons Ratio (y) = 0.39122 0.21714
# Poissons Ratio (z) = 0.17729 0.18369
#
# Static dielectric constant tensor:
#      x y z
#    x 1.793320 0.000000 0.000000 
#    y 0.000000 1.843640 0.000000 
#    z 0.000000 0.000000 1.800450 
# 
# From -- ./inp_files/22412.got.cif
#   From: 2010.05.17/outbox.cif.g08.bks.cpg/sg46_12_cif.got.tgz:22412.got - 2010.06.03 19:58:25.
