data_PCOD9380491
_publ_section_title
;
Structure prediction by ZEFSAII (Michael W. Deem and Ramdas Pophale) SiO2 
 PCOD9380491
Probable space group: I M A 2
;
_chemical_formula_sum "Si O2"
_cell_formula_units_Z 60
_cell_length_a 9.444365
_cell_length_b 19.543935
_cell_length_c 15.347267
_cell_angle_alpha 90.000000
_cell_angle_beta 90.000000
_cell_angle_gamma 90.000000
_cell_volume 2832.799397
_symmetry_space_group_name_H-M "I M A 2"
_symmetry_group_IT_number 46
_symmetry_cell_setting 'orthorhombic'
loop_
_space_group_symop_operation_xyz
x,y,z
-x,-y,z
1/2-x,y,z
1/2+x,-y,z
1/2+x,1/2+y,1/2+z
1/2-x,1/2-y,1/2+z
-x,1/2+y,1/2+z
x,1/2-y,1/2+z
loop_
_atom_site_type_symbol
_atom_site_label
_atom_site_fract_x
_atom_site_fract_y
_atom_site_fract_z
Si Si1 0.750000 0.024183 0.204660
Si Si2 0.081255 0.795847 0.996901
Si Si3 0.087180 0.386145 0.238022
Si Si4 0.472611 0.098588 0.238472
Si Si5 0.581227 0.570593 0.438521
Si Si6 0.915715 0.064709 0.574535
Si Si7 0.917065 0.159306 0.411218
Si Si8 0.407060 0.257593 0.657671
O O1 0.623708 0.081509 0.195624
O O2 0.629844 0.964481 0.222319
O O3 0.250000 0.807820 0.996027
O O4 0.047850 0.739489 0.921825
O O5 0.992984 0.865399 0.985395
O O6 0.028592 0.760803 0.085636
O O7 0.250000 0.403513 0.214517
O O8 0.064564 0.412977 0.335493
O O9 0.072482 0.304401 0.225366
O O10 0.981517 0.418036 0.168094
O O11 0.500564 0.115425 0.340069
O O12 0.411097 0.168800 0.201610
O O13 0.500000 0.500000 0.459790
O O14 0.750000 0.565674 0.458778
O O15 0.750000 0.050488 0.582080
O O16 0.935852 0.124971 0.505356
O O17 0.000000 0.000000 0.538954
O O18 0.750000 0.154209 0.389022
O O19 0.250000 0.246972 0.617189
#
# Coordination Sequence:
#
# PCOD9380491 Si02
#       8
#     4   8   8   8   8   8   8   8
#     4  10  24  40  64  92 130 162 220 264 320 378
#     4  11  24  44  67  98 131 168 217 268 321 390
#     4  10  22  42  67  94 127 167 217 269 324 386
#     4  11  22  43  63  94 125 174 212 267 318 384
#     4  11  24  45  69  97 130 170 218 272 330 386
#     4  11  23  38  59  93 132 172 212 262 318 382
#     4  10  22  40  64  94 131 168 213 259 317 382
#     4  11  23  43  65  95 131 170 217 268 324 384
#
# _framework density 21.180463
#
# number of rings (size 3 to 8) (size 9 to 14) (size 15 to 20)
#    0.000    1.333    2.667    2.400    2.800    2.133 
#    6.000    0.000    0.000    0.000    0.000    0.000 
#    0.000    0.000    0.000    0.000    0.000    0.000 
#
# Total GULP energy -167110.003832 kJ/mol
# GULP energy per Si atom -5570.333461 kJ/mol
# Density = 2.113225 g / cm^3
# Si number density = 21.180463 Si / 1000 Ang^3
#
#
#
# Elastic Constant Matrix: (Units=GPa)
#
#
# Indices 1 2 3 4 5 6 
#
# 1 129.5126 43.7135 9.3341 0.0000 0.0000 0.0000
# 2 43.7135 119.7121 -10.4684 0.0000 0.0000 0.0000
# 3 9.3341 -10.4684 17.3589 0.0000 0.0000 0.0000
# 4 0.0000 0.0000 0.0000 15.4526 0.0000 0.0000
# 5 0.0000 0.0000 0.0000 0.0000 8.0087 0.0000
# 6 0.0000 0.0000 0.0000 0.0000 0.0000 27.0573
#
#
#
# Elastic Compliance Matrix: (Units=1/GPa)
#
#
# Indices 1 2 3 4 5 6 
#
# 1 0.009707 -0.004224 -0.007766 0.000000 0.000000 0.000000
# 2 -0.004224 0.010656 0.008697 0.000000 0.000000 0.000000
# 3 -0.007766 0.008697 0.067028 0.000000 0.000000 0.000000
# 4 0.000000 0.000000 0.000000 0.064714 0.000000 0.000000
# 5 0.000000 0.000000 0.000000 0.000000 0.124864 0.000000
# 6 0.000000 0.000000 0.000000 0.000000 0.000000 0.036959
#
#
# Mechanical properties :
#
#
# Convention : Reuss Voigt Hill
#
# Bulk Modulus (GPa) = 12.37537 39.08247 25.72892
# Shear Modulus (GPa) = 14.39067 25.03736 19.71401
#
# Velocity S-wave (km/s) = 2.60942 3.44189 3.05415
# Velocity P-wave (km/s) = 3.86449 5.85557 4.96095
#
# Compressibility (1/GPa) = 0.08080569
#
# Stress axis : x y z
#
# Youngs Moduli (GPa) = 103.02360 93.84246 14.91911
#
# Poissons Ratio (x) = 0.39635 0.11587
# Poissons Ratio (y) = 0.43512 -0.12976
# Poissons Ratio (z) = 0.80011 -0.81617
#
# Static dielectric constant tensor:
#      x y z
#    x 1.737990 0.000000 0.000000 
#    y 0.000000 1.768020 0.000000 
#    z 0.000000 0.000000 1.784310 
# 
# From -- ./inp_files/18355.got.cif
#   From: 2010.05.17/outbox.cif.g08.bks.cpg/sg46_10_cif.got.tgz:18355.got - 2010.06.03 19:58:25.
