data_PCOD9380061
_publ_section_title
;
Structure prediction by ZEFSAII (Michael W. Deem and Ramdas Pophale) SiO2 
 PCOD9380061
Probable space group: I M A 2
;
_chemical_formula_sum "Si O2"
_cell_formula_units_Z 64
_cell_length_a 20.616684
_cell_length_b 10.861306
_cell_length_c 15.475885
_cell_angle_alpha 90.000000
_cell_angle_beta 90.000000
_cell_angle_gamma 90.000000
_cell_volume 3465.423831
_symmetry_space_group_name_H-M "I M A 2"
_symmetry_group_IT_number 46
_symmetry_cell_setting 'orthorhombic'
loop_
_space_group_symop_operation_xyz
x,y,z
-x,-y,z
1/2-x,y,z
1/2+x,-y,z
1/2+x,1/2+y,1/2+z
1/2-x,1/2-y,1/2+z
-x,1/2+y,1/2+z
x,1/2-y,1/2+z
loop_
_atom_site_type_symbol
_atom_site_label
_atom_site_fract_x
_atom_site_fract_y
_atom_site_fract_z
Si Si1 0.028762 0.299669 0.914470
Si Si2 0.528762 0.700331 0.606380
Si Si3 0.326718 0.742719 0.607840
Si Si4 0.092427 0.970081 0.160370
Si Si5 0.907573 0.470081 0.860480
Si Si6 0.173282 0.757281 0.413011
Si Si7 0.329296 0.928223 0.760425
Si Si8 0.946379 0.891260 0.760425
O O1 0.084270 0.404676 0.912919
O O2 0.043109 0.193833 0.844835
O O3 0.964943 0.374827 0.884815
O O4 0.020520 0.250000 0.010425
O O5 0.584270 0.595324 0.607931
O O6 0.464943 0.625173 0.636035
O O7 0.543109 0.806167 0.676015
O O8 0.250000 0.758267 0.602678
O O9 0.343800 0.608713 0.643984
O O10 0.353823 0.750001 0.510425
O O11 0.348293 0.846219 0.676306
O O12 0.085590 0.002998 0.260425
O O13 0.843800 0.391287 0.876865
O O14 0.250000 0.741733 0.418173
O O15 0.151707 0.653780 0.344545
O O16 0.250000 0.947035 0.760425
O O17 0.374756 0.047802 0.760425
O O18 0.000000 0.000000 0.760425
#
# Coordination Sequence:
#
# PCOD9380061 Si02
#       8
#     8   8   8   8   8   8   8   8
#     4  11  24  38  57  86 114 150 188 232 289 337
#     4  11  24  38  57  86 114 150 188 232 289 337
#     4  10  21  37  60  87 111 147 194 234 279 334
#     4  11  20  40  60  79 117 148 188 240 279 331
#     4  11  20  40  60  79 117 148 188 240 279 331
#     4  10  21  37  60  87 111 147 194 234 279 334
#     4  10  22  39  59  85 121 152 184 237 291 337
#     4  12  24  38  59  88 117 150 194 235 282 349
#
# _framework density 18.468159
#
# number of rings (size 3 to 8) (size 9 to 14) (size 15 to 20)
#    0.000    1.250    3.750    3.000    7.000    0.000 
#    0.000    1.250    0.000    1.500    0.000    0.000 
#    0.000    0.000    0.000    0.000    0.000    0.000 
#
# Total GULP energy -178592.615031 kJ/mol
# GULP energy per Si atom -5581.019220 kJ/mol
# Density = 1.842613 g / cm^3
# Si number density = 18.468159 Si / 1000 Ang^3
#
#
#
# Elastic Constant Matrix: (Units=GPa)
#
#
# Indices 1 2 3 4 5 6 
#
# 1 20.2797 24.1823 23.4068 0.0000 0.0000 0.0000
# 2 24.1823 103.9197 38.7817 0.0000 0.0000 0.0000
# 3 23.4068 38.7817 120.2219 0.0000 0.0000 0.0000
# 4 0.0000 0.0000 0.0000 25.4123 0.0000 0.0000
# 5 0.0000 0.0000 0.0000 0.0000 6.7534 0.0000
# 6 0.0000 0.0000 0.0000 0.0000 0.0000 32.2029
#
#
#
# Elastic Compliance Matrix: (Units=1/GPa)
#
#
# Indices 1 2 3 4 5 6 
#
# 1 0.078763 -0.014331 -0.010712 0.000000 0.000000 0.000000
# 2 -0.014331 0.013547 -0.001580 0.000000 0.000000 0.000000
# 3 -0.010712 -0.001580 0.010913 0.000000 0.000000 0.000000
# 4 0.000000 0.000000 0.000000 0.039351 0.000000 0.000000
# 5 0.000000 0.000000 0.000000 0.000000 0.148074 0.000000
# 6 0.000000 0.000000 0.000000 0.000000 0.000000 0.031053
#
#
# Mechanical properties :
#
#
# Convention : Reuss Voigt Hill
#
# Bulk Modulus (GPa) = 20.00883 46.35142 33.18012
# Shear Modulus (GPa) = 12.76793 23.41040 18.08916
#
# Velocity S-wave (km/s) = 2.63220 3.56421 3.13306
# Velocity P-wave (km/s) = 4.48283 6.48773 5.57613
#
# Compressibility (1/GPa) = 0.04997794
#
# Stress axis : x y z
#
# Youngs Moduli (GPa) = 12.69635 73.81580 91.63198
#
# Poissons Ratio (x) = 1.05783 0.98156
# Poissons Ratio (y) = 0.18195 0.14478
# Poissons Ratio (z) = 0.13600 0.11663
#
# Static dielectric constant tensor:
#      x y z
#    x 1.685690 0.000000 0.000000 
#    y 0.000000 1.632910 0.000000 
#    z 0.000000 0.000000 1.655800 
# 
# From -- ./inp_files/17413.got.cif
#   From: 2010.05.17/outbox.cif.g08.bks.cpg/sg46_9_cif.got.tgz:17413.got - 2010.06.03 19:58:25.
