data_PCOD9380536
_publ_section_title
;
Structure prediction by ZEFSAII (Michael W. Deem and Ramdas Pophale) SiO2 
 PCOD9380536
Probable space group: I M A 2
;
_chemical_formula_sum "Si O2"
_cell_formula_units_Z 48
_cell_length_a 13.345869
_cell_length_b 10.364935
_cell_length_c 17.308708
_cell_angle_alpha 90.000000
_cell_angle_beta 90.000000
_cell_angle_gamma 90.000000
_cell_volume 2394.297389
_symmetry_space_group_name_H-M "I M A 2"
_symmetry_group_IT_number 46
_symmetry_cell_setting 'orthorhombic'
loop_
_space_group_symop_operation_xyz
x,y,z
-x,-y,z
1/2-x,y,z
1/2+x,-y,z
1/2+x,1/2+y,1/2+z
1/2-x,1/2-y,1/2+z
-x,1/2+y,1/2+z
x,1/2-y,1/2+z
loop_
_atom_site_type_symbol
_atom_site_label
_atom_site_fract_x
_atom_site_fract_y
_atom_site_fract_z
Si Si1 0.577850 0.885268 0.972800
Si Si2 0.750000 0.635591 0.598805
Si Si3 0.452793 0.633614 0.781280
Si Si4 0.361670 0.326583 0.303080
Si Si5 0.946992 0.369548 0.962140
Si Si6 0.250000 0.077690 0.672517
Si Si7 0.750000 0.165489 0.560557
Si Si8 0.750000 0.376306 0.688709
O O1 0.623419 0.892926 0.886090
O O2 0.500000 0.000000 0.982784
O O3 0.656130 0.885987 0.042200
O O4 0.522171 0.748481 0.972996
O O5 0.750000 0.782316 0.630747
O O6 0.750000 0.528006 0.666068
O O7 0.500000 0.500000 0.751405
O O8 0.543914 0.736659 0.783320
O O9 0.351485 0.660524 0.734553
O O10 0.424230 0.614999 0.871200
O O11 0.250000 0.259628 0.307501
O O12 0.344015 0.423288 0.231729
O O13 0.847345 0.341428 0.008063
O O14 0.000000 0.500000 0.989436
O O15 0.250000 0.959144 0.615772
O O16 0.750000 0.294838 0.610333
#
# Coordination Sequence:
#
# PCOD9380536 Si02
#       8
#     8   4   8   8   8   4   4   4
#     4  11  23  41  68  94 124 166 214 264 310 373
#     4  12  23  42  63  94 130 168 208 256 315 390
#     4  10  22  41  67  94 125 168 215 265 313 375
#     4   9  21  44  65  93 120 170 221 258 304 379
#     4  10  23  43  65  92 122 172 213 260 311 372
#     4  10  23  38  67  90 122 176 210 260 305 382
#     4  12  25  42  59  96 136 164 204 262 323 380
#     4  12  27  38  61 100 138 162 198 270 333 372
#
# _framework density 20.047636000000001
#
# number of rings (size 3 to 8) (size 9 to 14) (size 15 to 20)
#    0.500    1.000    0.833    3.500    1.167    8.667 
#    4.500    0.833    0.000    0.000    0.000    0.000 
#    0.000    0.000    0.000    0.000    0.000    0.000 
#
# Total GULP energy -134004.088602 kJ/mol
# GULP energy per Si atom -5583.503692 kJ/mol
# Density = 2.000201 g / cm^3
# Si number density = 20.047636 Si / 1000 Ang^3
#
#
#
# Elastic Constant Matrix: (Units=GPa)
#
#
# Indices 1 2 3 4 5 6 
#
# 1 110.1470 1.0193 40.2573 0.0000 0.0000 0.0000
# 2 1.0193 55.9752 -2.7626 0.0000 0.0000 0.0000
# 3 40.2573 -2.7626 61.7889 0.0000 0.0000 0.0000
# 4 0.0000 0.0000 0.0000 27.0213 0.0000 0.0000
# 5 0.0000 0.0000 0.0000 0.0000 913.2593 0.0000
# 6 0.0000 0.0000 0.0000 0.0000 0.0000 30.6305
#
#
#
# Elastic Compliance Matrix: (Units=1/GPa)
#
#
# Indices 1 2 3 4 5 6 
#
# 1 0.011937 -0.000603 -0.007804 0.000000 0.000000 0.000000
# 2 -0.000603 0.017935 0.001194 0.000000 0.000000 0.000000
# 3 -0.007804 0.001194 0.021322 0.000000 0.000000 0.000000
# 4 0.000000 0.000000 0.000000 0.037008 0.000000 0.000000
# 5 0.000000 0.000000 0.000000 0.000000 0.001095 0.000000
# 6 0.000000 0.000000 0.000000 0.000000 0.000000 0.032647
#
#
# Mechanical properties :
#
#
# Convention : Reuss Voigt Hill
#
# Bulk Modulus (GPa) = 27.19644 33.88212 30.53928
# Shear Modulus (GPa) = 33.64185 206.80869 120.22527
#
# Velocity S-wave (km/s) = 4.10090 10.16772 7.75242
# Velocity P-wave (km/s) = 6.00155 12.44110 9.76728
#
# Compressibility (1/GPa) = 0.03676952
#
# Stress axis : x y z
#
# Youngs Moduli (GPa) = 83.77584 55.75696 46.89971
#
# Poissons Ratio (x) = 0.03360 0.36601
# Poissons Ratio (y) = 0.05048 -0.05602
# Poissons Ratio (z) = 0.65379 -0.06660
#
# Static dielectric constant tensor:
#      x y z
#    x 1.504340 0.000000 0.000000 
#    y 0.000000 1.691280 0.000000 
#    z 0.000000 0.000000 1.708450 
# 
# From -- ./inp_files/18932.got.cif
#   From: 2010.05.17/outbox.cif.g08.bks.cpg/sg46_10_cif.got.tgz:18932.got - 2010.06.03 19:58:25.
