data_PCOD9380115
_publ_section_title
;
Structure prediction by ZEFSAII (Michael W. Deem and Ramdas Pophale) SiO2 
 PCOD9380115
Probable space group: I M A 2
;
_chemical_formula_sum "Si O2"
_cell_formula_units_Z 40
_cell_length_a 8.624183
_cell_length_b 29.897528
_cell_length_c 7.460038
_cell_angle_alpha 90.000000
_cell_angle_beta 90.000000
_cell_angle_gamma 90.000000
_cell_volume 1923.509273
_symmetry_space_group_name_H-M "I M A 2"
_symmetry_group_IT_number 46
_symmetry_cell_setting 'orthorhombic'
loop_
_space_group_symop_operation_xyz
x,y,z
-x,-y,z
1/2-x,y,z
1/2+x,-y,z
1/2+x,1/2+y,1/2+z
1/2-x,1/2-y,1/2+z
-x,1/2+y,1/2+z
x,1/2-y,1/2+z
loop_
_atom_site_type_symbol
_atom_site_label
_atom_site_fract_x
_atom_site_fract_y
_atom_site_fract_z
Si Si1 0.072115 0.301894 0.235970
Si Si2 0.067144 0.452241 0.470224
Si Si3 0.566487 0.382884 0.749994
Si Si4 0.068699 0.788280 0.364295
Si Si5 0.065552 0.605217 0.172207
O O1 0.250000 0.296306 0.292559
O O2 0.963992 0.261878 0.304418
O O3 0.011119 0.351717 0.267976
O O4 0.051461 0.296991 0.022674
O O5 0.250000 0.455156 0.450181
O O6 0.000000 0.500000 0.527102
O O7 0.024384 0.414578 0.616247
O O8 0.992836 0.437369 0.281033
O O9 0.750000 0.391055 0.723771
O O10 0.541998 0.329238 0.726558
O O11 0.529352 0.393689 0.959437
O O12 0.250000 0.792904 0.421903
O O13 0.250000 0.609272 0.187739
#
# Coordination Sequence:
#
# PCOD9380115 Si02
#       5
#     8   8   8   8   8
#     4  11  22  36  57  89 125 161 208 259 309 368
#     4  12  26  43  67  96 127 164 211 264 322 380
#     4   9  21  42  66  91 123 165 210 259 315 377
#     4  10  21  38  59  85 121 167 209 250 310 377
#     4  10  22  43  67  91 126 167 211 260 319 382
#
# _framework density 20.795324000000001
#
# number of rings (size 3 to 8) (size 9 to 14) (size 15 to 20)
#    0.000    1.600    0.000    6.000    2.800    5.600 
#    0.000    0.000    0.000    0.000    0.000    0.000 
#    0.000    0.000    0.000    0.000    0.000    0.000 
#
# Total GULP energy -111703.810827 kJ/mol
# GULP energy per Si atom -5585.190541 kJ/mol
# Density = 2.074799 g / cm^3
# Si number density = 20.795324 Si / 1000 Ang^3
#
#
#
# Elastic Constant Matrix: (Units=GPa)
#
#
# Indices 1 2 3 4 5 6 
#
# 1 82.3895 20.5215 16.3245 0.0015 0.0003 -0.0004
# 2 20.5215 81.0628 14.5721 0.0049 0.0002 -0.0009
# 3 16.3245 14.5721 37.8264 0.0046 -0.0004 0.0000
# 4 0.0015 0.0049 0.0046 30.2623 0.0002 -0.0007
# 5 0.0003 0.0002 -0.0004 0.0002 28.7456 0.0010
# 6 -0.0004 -0.0009 0.0000 -0.0007 0.0010 30.6398
#
#
#
# Elastic Compliance Matrix: (Units=1/GPa)
#
#
# Indices 1 2 3 4 5 6 
#
# 1 0.013763 -0.002596 -0.004939 0.000000 0.000000 0.000000
# 2 -0.002596 0.013744 -0.004174 -0.000001 0.000000 0.000000
# 3 -0.004939 -0.004174 0.030176 -0.000004 0.000001 0.000000
# 4 0.000000 -0.000001 -0.000004 0.033044 0.000000 0.000001
# 5 0.000000 0.000000 0.000001 0.000000 0.034788 -0.000001
# 6 0.000000 0.000000 0.000000 0.000001 -0.000001 0.032637
#
#
# Mechanical properties :
#
#
# Convention : Reuss Voigt Hill
#
# Bulk Modulus (GPa) = 29.18574 33.79052 31.48813
# Shear Modulus (GPa) = 25.90769 27.92025 26.91397
#
# Velocity S-wave (km/s) = 3.53348 3.66816 3.60145
# Velocity P-wave (km/s) = 5.54189 5.85020 5.69813
#
# Compressibility (1/GPa) = 0.03426331
#
# Stress axis : x y z
#
# Youngs Moduli (GPa) = 72.65958 72.76049 33.13871
#
# Poissons Ratio (x) = 0.18890 0.16368
# Poissons Ratio (y) = 0.18864 0.13833
# Poissons Ratio (z) = 0.35889 0.30371
#
# Static dielectric constant tensor:
#      x y z
#    x 1.680900 0.000000 0.000000 
#    y 0.000000 1.764310 0.000000 
#    z 0.000000 0.000000 1.784100 
# 
# From -- ./inp_files/3536.got.cif
#   From: 2010.05.17/outbox.cif.g08.bks.cpg/sg46_2_cif.got.tgz:3536.got - 2010.06.03 19:58:25.
