data_PCOD9380000
_publ_section_title
;
Structure prediction by ZEFSAII (Michael W. Deem and Ramdas Pophale) SiO2 
 PCOD9380000
Probable space group: I M A 2
;
_chemical_formula_sum "Si O2"
_cell_formula_units_Z 56
_cell_length_a 17.097126
_cell_length_b 5.111238
_cell_length_c 33.196503
_cell_angle_alpha 90.000000
_cell_angle_beta 90.000000
_cell_angle_gamma 90.000000
_cell_volume 2900.958745
_symmetry_space_group_name_H-M "I M A 2"
_symmetry_group_IT_number 46
_symmetry_cell_setting 'orthorhombic'
loop_
_space_group_symop_operation_xyz
x,y,z
-x,-y,z
1/2-x,y,z
1/2+x,-y,z
1/2+x,1/2+y,1/2+z
1/2-x,1/2-y,1/2+z
-x,1/2+y,1/2+z
x,1/2-y,1/2+z
loop_
_atom_site_type_symbol
_atom_site_label
_atom_site_fract_x
_atom_site_fract_y
_atom_site_fract_z
Si Si1 0.343584 0.133493 0.171930
Si Si2 0.445614 0.747233 0.800197
Si Si3 0.054649 0.253788 0.095523
Si Si4 0.055247 0.246463 0.504345
Si Si5 0.655939 0.134056 0.722558
Si Si6 0.090084 0.911997 0.388482
Si Si7 0.658143 0.901032 0.929913
O O1 0.250000 0.137767 0.167754
O O2 0.381822 0.207200 0.129719
O O3 0.365366 0.351347 0.204999
O O4 0.366745 0.851612 0.189361
O O5 0.500000 0.500000 0.789490
O O6 0.386800 0.807513 0.764139
O O7 0.403689 0.674709 0.842061
O O8 0.500000 0.000000 0.807387
O O9 0.000000 0.500000 0.105308
O O10 0.085944 0.292765 0.049983
O O11 0.000000 0.000000 0.094762
O O12 0.121835 0.296329 0.471667
O O13 0.000000 0.500000 0.504137
O O14 0.000000 0.000000 0.494339
O O15 0.750000 0.146867 0.727642
O O16 0.114031 0.664055 0.415608
O O17 0.141463 0.165392 0.398747
O O18 0.000000 0.000000 0.395005
O O19 0.750000 0.954154 0.933093
#
# Coordination Sequence:
#
# PCOD9380000 Si02
#       7
#     8   8   8   8   8   8   8
#     4  10  21  37  56  80 113 151 185 224 283 342
#     4  11  23  39  60  86 111 145 194 238 279 334
#     4  10  21  36  57  85 111 144 191 235 276 329
#     4  10  21  38  59  82 114 153 188 229 288 346
#     4  10  22  38  56  81 114 150 184 226 286 342
#     4  11  23  42  62  84 118 158 193 235 294 352
#     4  12  24  38  61  92 118 149 197 243 286 341
#
# _framework density 19.303961000000001
#
# number of rings (size 3 to 8) (size 9 to 14) (size 15 to 20)
#    0.000    1.429    0.000    6.429    0.000    5.143 
#    0.000    1.429    0.000    8.571    0.000    0.000 
#    0.000    0.000    0.000    0.000    0.000    0.000 
#
# Total GULP energy -156539.232970 kJ/mol
# GULP energy per Si atom -5590.686892 kJ/mol
# Density = 1.926002 g / cm^3
# Si number density = 19.303961 Si / 1000 Ang^3
#
#
#
# Elastic Constant Matrix: (Units=GPa)
#
#
# Indices 1 2 3 4 5 6 
#
# 1 51.4114 14.4314 44.3744 0.0000 0.0000 0.0000
# 2 14.4314 101.1299 -2.6758 0.0000 0.0000 0.0000
# 3 44.3744 -2.6758 99.5749 0.0000 0.0000 0.0000
# 4 0.0000 0.0000 0.0000 29.7167 0.0000 0.0000
# 5 0.0000 0.0000 0.0000 0.0000 -40.3604 0.0000
# 6 0.0000 0.0000 0.0000 0.0000 0.0000 20.2657
#
#
#
# Elastic Compliance Matrix: (Units=1/GPa)
#
#
# Indices 1 2 3 4 5 6 
#
# 1 0.034222 -0.005291 -0.015393 0.000000 0.000000 0.000000
# 2 -0.005291 0.010713 0.002646 0.000000 0.000000 0.000000
# 3 -0.015393 0.002646 0.016973 0.000000 0.000000 0.000000
# 4 0.000000 0.000000 0.000000 0.033651 0.000000 0.000000
# 5 0.000000 0.000000 0.000000 0.000000 -0.024777 0.000000
# 6 0.000000 0.000000 0.000000 0.000000 0.000000 0.049344
#
#
# Mechanical properties :
#
#
# Convention : Reuss Voigt Hill
#
# Bulk Modulus (GPa) = 38.71048 40.48625 39.59837
# Shear Modulus (GPa) = 30.33718 14.99014 22.66366
#
# Velocity S-wave (km/s) = 3.96858 2.78966 3.43015
# Velocity P-wave (km/s) = 6.41063 5.60311 6.02042
#
# Compressibility (1/GPa) = 0.02583280
#
# Stress axis : x y z
#
# Youngs Moduli (GPa) = 29.22101 93.34209 58.91573
#
# Poissons Ratio (x) = 0.49386 0.90688
# Poissons Ratio (y) = 0.15460 -0.15587
# Poissons Ratio (z) = 0.44979 -0.24695
#
# Static dielectric constant tensor:
#      x y z
#    x 1.643510 0.000000 0.000000 
#    y 0.000000 1.669210 0.000000 
#    z 0.000000 0.000000 1.678360 
# 
# From -- ./inp_files/25384.got.cif
#   From: 2010.05.17/outbox.cif.g08.bks.cpg/sg46_13_cif.got.tgz:25384.got - 2010.06.03 19:58:25.
