data_PCOD9380155
_publ_section_title
;
Structure prediction by ZEFSAII (Michael W. Deem and Ramdas Pophale) SiO2 
 PCOD9380155
Probable space group: I M A 2
;
_chemical_formula_sum "Si O2"
_cell_formula_units_Z 60
_cell_length_a 20.504015
_cell_length_b 6.959760
_cell_length_c 20.623998
_cell_angle_alpha 90.000000
_cell_angle_beta 90.000000
_cell_angle_gamma 90.000000
_cell_volume 2943.106870
_symmetry_space_group_name_H-M "I M A 2"
_symmetry_group_IT_number 46
_symmetry_cell_setting 'orthorhombic'
loop_
_space_group_symop_operation_xyz
x,y,z
-x,-y,z
1/2-x,y,z
1/2+x,-y,z
1/2+x,1/2+y,1/2+z
1/2-x,1/2-y,1/2+z
-x,1/2+y,1/2+z
x,1/2-y,1/2+z
loop_
_atom_site_type_symbol
_atom_site_label
_atom_site_fract_x
_atom_site_fract_y
_atom_site_fract_z
Si Si1 0.673292 0.972881 0.489980
Si Si2 0.000000 0.500000 0.481938
Si Si3 0.943030 0.855007 0.408319
Si Si4 0.320786 0.374404 0.582809
Si Si5 0.675989 0.782779 0.720149
Si Si6 0.930443 0.100805 0.723203
Si Si7 0.430769 0.496873 0.766657
Si Si8 0.590018 0.264960 0.578311
O O1 0.750000 0.018686 0.479596
O O2 0.626126 0.947539 0.428615
O O3 0.669607 0.760895 0.521666
O O4 0.637626 0.122699 0.538218
O O5 0.956056 0.641120 0.436399
O O6 0.965652 0.344311 0.529707
O O7 0.945281 0.873859 0.330802
O O8 0.000000 0.000000 0.432686
O O9 0.250000 0.469952 0.579008
O O10 0.319943 0.229120 0.642679
O O11 0.372550 0.538020 0.593276
O O12 0.750000 0.787790 0.745893
O O13 0.634061 0.595943 0.738339
O O14 0.629517 0.959120 0.735716
O O15 0.919839 0.277540 0.771835
O O16 0.929321 0.170441 0.647269
O O17 0.000000 0.000000 0.733804
O O18 0.500000 0.500000 0.727192
#
# Coordination Sequence:
#
# PCOD9380155 Si02
#       8
#     8   4   8   8   8   8   8   8
#     4  11  23  42  65  96 136 177 219 273 336 402
#     4  12  26  40  70 102 134 168 228 280 336 388
#     4  11  25  46  69  95 128 178 227 281 329 397
#     4  10  21  38  62  95 134 172 209 265 336 402
#     4  11  24  43  67 100 139 175 221 281 340 400
#     4  12  26  40  68 104 141 174 225 279 340 410
#     4  11  25  46  70  93 130 183 232 276 339 397
#     4  12  24  37  67 100 137 173 220 274 334 404
#
# _framework density 20.386620000000001
#
# number of rings (size 3 to 8) (size 9 to 14) (size 15 to 20)
#    0.000    0.800    6.667    0.400    4.667    3.733 
#    0.000    0.000    0.000    0.000    0.000    0.000 
#    0.000    0.000    0.000    0.000    0.000    0.000 
#
# Total GULP energy -167210.037555 kJ/mol
# GULP energy per Si atom -5573.667919 kJ/mol
# Density = 2.034022 g / cm^3
# Si number density = 20.386620 Si / 1000 Ang^3
#
#
#
# Elastic Constant Matrix: (Units=GPa)
#
#
# Indices 1 2 3 4 5 6 
#
# 1 152.3579 50.2892 30.4292 0.0000 0.0000 0.0000
# 2 50.2892 83.9984 13.9026 0.0000 0.0000 0.0000
# 3 30.4292 13.9026 45.4478 0.0000 0.0000 0.0000
# 4 0.0000 0.0000 0.0000 14.6157 0.0000 0.0000
# 5 0.0000 0.0000 0.0000 0.0000 17.2124 0.0000
# 6 0.0000 0.0000 0.0000 0.0000 0.0000 36.3453
#
#
#
# Elastic Compliance Matrix: (Units=1/GPa)
#
#
# Indices 1 2 3 4 5 6 
#
# 1 0.009015 -0.004633 -0.004619 0.000000 0.000000 0.000000
# 2 -0.004633 0.014921 -0.001462 0.000000 0.000000 0.000000
# 3 -0.004619 -0.001462 0.025543 0.000000 0.000000 0.000000
# 4 0.000000 0.000000 0.000000 0.068420 0.000000 0.000000
# 5 0.000000 0.000000 0.000000 0.000000 0.058098 0.000000
# 6 0.000000 0.000000 0.000000 0.000000 0.000000 0.027514
#
#
# Mechanical properties :
#
#
# Convention : Reuss Voigt Hill
#
# Bulk Modulus (GPa) = 35.64961 52.33848 43.99404
# Shear Modulus (GPa) = 21.34122 26.11355 23.72738
#
# Velocity S-wave (km/s) = 3.23898 3.58287 3.41526
# Velocity P-wave (km/s) = 5.61362 6.54558 6.09743
#
# Compressibility (1/GPa) = 0.02805080
#
# Stress axis : x y z
#
# Youngs Moduli (GPa) = 110.92441 67.02111 39.14954
#
# Poissons Ratio (x) = 0.31050 0.18082
# Poissons Ratio (y) = 0.51390 0.05725
# Poissons Ratio (z) = 0.51234 0.09801
#
# Static dielectric constant tensor:
#      x y z
#    x 1.894170 0.000000 0.000000 
#    y 0.000000 1.749330 0.000000 
#    z 0.000000 0.000000 1.752340 
# 
# From -- ./inp_files/23888.got.cif
#   From: 2010.05.17/outbox.cif.g08.bks.cpg/sg46_12_cif.got.tgz:23888.got - 2010.06.03 19:58:25.
