data_PCOD9380073
_publ_section_title
;
Structure prediction by ZEFSAII (Michael W. Deem and Ramdas Pophale) SiO2 
 PCOD9380073
Probable space group: I M A 2
;
_chemical_formula_sum "Si O2"
_cell_formula_units_Z 56
_cell_length_a 14.037466
_cell_length_b 22.094378
_cell_length_c 9.707415
_cell_angle_alpha 90.000000
_cell_angle_beta 90.000000
_cell_angle_gamma 90.000000
_cell_volume 3010.745831
_symmetry_space_group_name_H-M "I M A 2"
_symmetry_group_IT_number 46
_symmetry_cell_setting 'orthorhombic'
loop_
_space_group_symop_operation_xyz
x,y,z
-x,-y,z
1/2-x,y,z
1/2+x,-y,z
1/2+x,1/2+y,1/2+z
1/2-x,1/2-y,1/2+z
-x,1/2+y,1/2+z
x,1/2-y,1/2+z
loop_
_atom_site_type_symbol
_atom_site_label
_atom_site_fract_x
_atom_site_fract_y
_atom_site_fract_z
Si Si1 0.136677 0.498046 0.099090
Si Si2 0.995947 0.895912 0.676848
Si Si3 0.015208 0.823660 0.959121
Si Si4 0.635604 0.982063 0.278456
Si Si5 0.508282 0.314815 0.907512
Si Si6 0.863776 0.847978 0.183160
Si Si7 0.364413 0.886030 0.192363
O O1 0.250000 0.502979 0.108741
O O2 0.084332 0.558525 0.149886
O O3 0.094919 0.440603 0.180218
O O4 0.108600 0.486175 0.939153
O O5 0.007193 0.858579 0.815891
O O6 0.988603 0.850656 0.547864
O O7 0.038990 0.753542 0.936204
O O8 0.093113 0.855640 0.056250
O O9 0.916415 0.827263 0.044861
O O10 0.750000 0.982786 0.277882
O O11 0.609909 0.918591 0.209937
O O12 0.605278 0.043527 0.203937
O O13 0.414368 0.314199 0.810764
O O14 0.588106 0.350835 0.820510
O O15 0.750000 0.841073 0.180755
O O16 0.250000 0.882579 0.197453
#
# Coordination Sequence:
#
# PCOD9380073 Si02
#       7
#     8   8   8   8   8   8   8
#     4  10  21  37  61  92 119 150 198 248 300 356
#     4  11  22  37  62  91 121 157 188 246 311 345
#     4  11  26  40  55  90 131 158 194 239 295 361
#     4   9  17  35  64  91 109 143 203 250 287 347
#     4  11  22  41  63  85 118 160 208 241 278 353
#     4  10  22  41  66  89 115 156 201 248 297 347
#     4  10  22  41  66  89 115 156 201 248 297 347
#
# _framework density 18.600041999999998
#
# number of rings (size 3 to 8) (size 9 to 14) (size 15 to 20)
#    0.000    1.714    2.857    1.714    0.000    6.857 
#    0.000    4.286    0.000    0.000    0.000    0.000 
#    0.000    0.000    0.000    0.000    0.000    0.000 
#
# Total GULP energy -156382.299841 kJ/mol
# GULP energy per Si atom -5585.082137 kJ/mol
# Density = 1.855771 g / cm^3
# Si number density = 18.600042 Si / 1000 Ang^3
#
#
#
# Elastic Constant Matrix: (Units=GPa)
#
#
# Indices 1 2 3 4 5 6 
#
# 1 69.3437 -28.2258 -3.2006 -0.0001 0.0000 0.0000
# 2 -28.2258 81.6115 18.6027 -0.0001 0.0000 0.0000
# 3 -3.2006 18.6027 98.0569 0.0000 0.0000 0.0000
# 4 -0.0001 -0.0001 0.0000 23.9173 0.0000 0.0000
# 5 0.0000 0.0000 0.0000 0.0000 20.2098 0.0000
# 6 0.0000 0.0000 0.0000 0.0000 0.0000 22.1254
#
#
#
# Elastic Compliance Matrix: (Units=1/GPa)
#
#
# Indices 1 2 3 4 5 6 
#
# 1 0.016815 0.005948 -0.000580 0.000000 0.000000 0.000000
# 2 0.005948 0.014911 -0.002635 0.000000 0.000000 0.000000
# 3 -0.000580 -0.002635 0.010679 0.000000 0.000000 0.000000
# 4 0.000000 0.000000 0.000000 0.041811 0.000000 0.000000
# 5 0.000000 0.000000 0.000000 0.000000 0.049481 0.000000
# 6 0.000000 0.000000 0.000000 0.000000 0.000000 0.045197
#
#
# Mechanical properties :
#
#
# Convention : Reuss Voigt Hill
#
# Bulk Modulus (GPa) = 20.88896 24.81827 22.85362
# Shear Modulus (GPa) = 26.40141 30.70622 28.55382
#
# Velocity S-wave (km/s) = 3.77162 4.06750 3.92235
# Velocity P-wave (km/s) = 5.49743 5.95243 5.72945
#
# Compressibility (1/GPa) = 0.04787217
#
# Stress axis : x y z
#
# Youngs Moduli (GPa) = 59.47017 67.06556 93.64107
#
# Poissons Ratio (x) = -0.39889 0.05427
# Poissons Ratio (y) = -0.35371 0.24671
# Poissons Ratio (z) = 0.03446 0.17669
#
# Static dielectric constant tensor:
#      x y z
#    x 1.650100 0.000000 0.000000 
#    y 0.000000 1.630190 0.000000 
#    z 0.000000 0.000000 1.621690 
# 
# From -- ./inp_files/5945.got.cif
#   From: 2010.05.17/outbox.cif.g08.bks.cpg/sg46_3_cif.got.tgz:5945.got - 2010.06.03 19:58:25.
