data_PCOD9380042
_publ_section_title
;
Structure prediction by ZEFSAII (Michael W. Deem and Ramdas Pophale) SiO2 
 PCOD9380042
Probable space group: I M A 2
;
_chemical_formula_sum "Si O2"
_cell_formula_units_Z 48
_cell_length_a 14.100581
_cell_length_b 13.705261
_cell_length_c 12.391426
_cell_angle_alpha 90.000000
_cell_angle_beta 90.000000
_cell_angle_gamma 90.000000
_cell_volume 2394.669628
_symmetry_space_group_name_H-M "I M A 2"
_symmetry_group_IT_number 46
_symmetry_cell_setting 'orthorhombic'
loop_
_space_group_symop_operation_xyz
x,y,z
-x,-y,z
1/2-x,y,z
1/2+x,-y,z
1/2+x,1/2+y,1/2+z
1/2-x,1/2-y,1/2+z
-x,1/2+y,1/2+z
x,1/2-y,1/2+z
loop_
_atom_site_type_symbol
_atom_site_label
_atom_site_fract_x
_atom_site_fract_y
_atom_site_fract_z
Si Si1 0.142839 0.074092 0.958010
Si Si2 0.358448 0.780923 0.722813
Si Si3 0.356679 0.223003 0.159010
Si Si4 0.984269 0.174138 0.543512
Si Si5 0.060474 0.627442 0.430179
Si Si6 0.497703 0.613348 0.800003
O O1 0.250000 0.076127 0.911790
O O2 0.048979 0.108279 0.891600
O O3 0.109542 0.964749 0.985483
O O4 0.145061 0.141880 0.063645
O O5 0.250000 0.761061 0.698541
O O6 0.405322 0.849631 0.631451
O O7 0.373871 0.840329 0.832649
O O8 0.414340 0.679245 0.747171
O O9 0.250000 0.251053 0.186208
O O10 0.417848 0.311024 0.108204
O O11 0.409821 0.171825 0.258638
O O12 0.990971 0.118836 0.430434
O O13 0.950973 0.282802 0.509753
O O14 0.500000 0.500000 0.766680
#
# Coordination Sequence:
#
# PCOD9380042 Si02
#       6
#     8   8   8   8   8   8
#     4   9  17  30  54  85 112 143 185 236 290 339
#     4  10  21  37  58  82 111 152 198 236 287 351
#     4   9  19  34  57  84 111 147 192 236 282 340
#     4   9  20  37  54  78 112 153 186 232 287 341
#     4   9  18  33  53  81 114 144 187 243 287 336
#     4  10  22  38  57  86 119 150 188 239 294 341
#
# _framework density 20.044518
#
# number of rings (size 3 to 8) (size 9 to 14) (size 15 to 20)
#    0.000    2.667    0.000    0.500    7.000    4.667 
#    3.000    8.333    0.000    0.000    0.000    0.000 
#    0.000    0.000    0.000    0.000    0.000    0.000 
#
# Total GULP energy -133640.555673 kJ/mol
# GULP energy per Si atom -5568.356486 kJ/mol
# Density = 1.999890 g / cm^3
# Si number density = 20.044518 Si / 1000 Ang^3
#
#
#
# Elastic Constant Matrix: (Units=GPa)
#
#
# Indices 1 2 3 4 5 6 
#
# 1 138.1213 1.8309 31.3897 0.0000 0.0000 0.0000
# 2 1.8309 30.0246 -7.2136 0.0000 0.0000 0.0000
# 3 31.3897 -7.2136 65.5477 0.0000 0.0000 0.0000
# 4 0.0000 0.0000 0.0000 -14.2523 0.0000 0.0000
# 5 0.0000 0.0000 0.0000 0.0000 16.2804 0.0000
# 6 0.0000 0.0000 0.0000 0.0000 0.0000 12.9688
#
#
#
# Elastic Compliance Matrix: (Units=1/GPa)
#
#
# Indices 1 2 3 4 5 6 
#
# 1 0.008188 -0.001480 -0.004084 0.000000 0.000000 0.000000
# 2 -0.001480 0.034478 0.004503 0.000000 0.000000 0.000000
# 3 -0.004084 0.004503 0.017707 0.000000 0.000000 0.000000
# 4 0.000000 0.000000 0.000000 -0.070164 0.000000 0.000000
# 5 0.000000 0.000000 0.000000 0.000000 0.061423 0.000000
# 6 0.000000 0.000000 0.000000 0.000000 0.000000 0.077108
#
#
# Mechanical properties :
#
#
# Convention : Reuss Voigt Hill
#
# Bulk Modulus (GPa) = 17.16700 31.74528 24.45614
# Shear Modulus (GPa) = 33.27129 16.84518 25.05823
#
# Velocity S-wave (km/s) = 4.07857 2.90209 3.53955
# Velocity P-wave (km/s) = 5.54641 5.20589 5.37884
#
# Compressibility (1/GPa) = 0.05825130
#
# Stress axis : x y z
#
# Youngs Moduli (GPa) = 122.13367 29.00382 56.47364
#
# Poissons Ratio (x) = 0.04294 0.23063
# Poissons Ratio (y) = 0.18081 -0.25432
# Poissons Ratio (z) = 0.49878 -0.13061
#
# Static dielectric constant tensor:
#      x y z
#    x 1.771310 0.000000 0.000000 
#    y 0.000000 1.721990 0.000000 
#    z 0.000000 0.000000 1.723080 
# 
# From -- ./inp_files/11088.got.cif
#   From: 2010.05.17/outbox.cif.g08.bks.cpg/sg46_6_cif.got.tgz:11088.got - 2010.06.03 19:58:25.
