data_PCOD9380194
_publ_section_title
;
Structure prediction by ZEFSAII (Michael W. Deem and Ramdas Pophale) SiO2 
 PCOD9380194
Probable space group: I M A 2
;
_chemical_formula_sum "Si O2"
_cell_formula_units_Z 56
_cell_length_a 9.022420
_cell_length_b 24.479068
_cell_length_c 13.916957
_cell_angle_alpha 90.000000
_cell_angle_beta 90.000000
_cell_angle_gamma 90.000000
_cell_volume 3073.705145
_symmetry_space_group_name_H-M "I M A 2"
_symmetry_group_IT_number 46
_symmetry_cell_setting 'orthorhombic'
loop_
_space_group_symop_operation_xyz
x,y,z
-x,-y,z
1/2-x,y,z
1/2+x,-y,z
1/2+x,1/2+y,1/2+z
1/2-x,1/2-y,1/2+z
-x,1/2+y,1/2+z
x,1/2-y,1/2+z
loop_
_atom_site_type_symbol
_atom_site_label
_atom_site_fract_x
_atom_site_fract_y
_atom_site_fract_z
Si Si1 0.428109 0.557556 0.265680
Si Si2 0.928292 0.330335 0.801692
Si Si3 0.926613 0.772219 0.479390
Si Si4 0.927678 0.371295 0.088218
Si Si5 0.572344 0.057074 0.988509
Si Si6 0.926084 0.441884 0.901298
Si Si7 0.571822 0.171093 0.079434
O O1 0.500000 0.500000 0.236912
O O2 0.250000 0.552366 0.260356
O O3 0.470658 0.605003 0.191655
O O4 0.468610 0.567866 0.376708
O O5 0.750000 0.325998 0.816045
O O6 0.970214 0.392668 0.829818
O O7 0.961867 0.318596 0.691197
O O8 0.008266 0.290819 0.876685
O O9 0.750000 0.772395 0.477519
O O10 0.987566 0.817550 0.554359
O O11 0.990239 0.714343 0.512604
O O12 0.750000 0.360484 0.086533
O O13 0.957181 0.417763 0.007702
O O14 0.750000 0.051206 0.992664
O O15 0.500000 0.000000 0.018314
O O16 0.530354 0.109348 0.051116
O O17 0.750000 0.448784 0.893007
O O18 0.000000 0.500000 0.884863
O O19 0.750000 0.176389 0.066545
#
# Coordination Sequence:
#
# PCOD9380194 Si02
#       7
#     8   8   8   8   8   8   8
#     4   9  17  30  50  77 109 143 179 219 263 314
#     4   9  20  39  58  76 104 144 186 222 259 317
#     4  11  23  37  55  82 112 137 172 227 280 321
#     4   9  18  33  51  73 106 148 188 220 258 318
#     4   9  19  35  55  81 110 140 176 218 264 313
#     4   9  17  29  47  73 103 136 177 222 267 314
#     4  10  21  39  61  80 104 144 186 218 259 321
#
# _framework density 18.219052000000001
#
# number of rings (size 3 to 8) (size 9 to 14) (size 15 to 20)
#    0.000    2.571    0.000    2.571    0.000    5.714 
#    0.000    2.857    0.000    0.000    0.000    0.000 
#    0.000    0.000    0.000    0.000    0.000    0.000 
#
# Total GULP energy -156236.216426 kJ/mol
# GULP energy per Si atom -5579.864872 kJ/mol
# Density = 1.817759 g / cm^3
# Si number density = 18.219052 Si / 1000 Ang^3
#
#
#
# Elastic Constant Matrix: (Units=GPa)
#
#
# Indices 1 2 3 4 5 6 
#
# 1 37.1520 54.6066 44.4358 0.0000 0.0000 0.0000
# 2 54.6066 132.4915 69.9975 0.0000 0.0000 0.0000
# 3 44.4358 69.9975 84.3554 -0.0001 0.0000 0.0000
# 4 0.0000 0.0000 -0.0001 18.4776 0.0000 0.0000
# 5 0.0000 0.0000 0.0000 0.0000 12.7865 0.0000
# 6 0.0000 0.0000 0.0000 0.0000 0.0000 35.1324
#
#
#
# Elastic Compliance Matrix: (Units=1/GPa)
#
#
# Indices 1 2 3 4 5 6 
#
# 1 0.105065 -0.025041 -0.034566 0.000000 0.000000 0.000000
# 2 -0.025041 0.019408 -0.002914 0.000000 0.000000 0.000000
# 3 -0.034566 -0.002914 0.032481 0.000000 0.000000 0.000000
# 4 0.000000 0.000000 0.000000 0.054120 0.000000 0.000000
# 5 0.000000 0.000000 0.000000 0.000000 0.078207 0.000000
# 6 0.000000 0.000000 0.000000 0.000000 0.000000 0.028464
#
#
# Mechanical properties :
#
#
# Convention : Reuss Voigt Hill
#
# Bulk Modulus (GPa) = 31.33615 65.78652 48.56133
# Shear Modulus (GPa) = 11.02724 18.94324 14.98524
#
# Velocity S-wave (km/s) = 2.46287 3.22801 2.87104
# Velocity P-wave (km/s) = 5.03236 7.07675 6.14024
#
# Compressibility (1/GPa) = 0.03191203
#
# Stress axis : x y z
#
# Youngs Moduli (GPa) = 9.51790 51.52641 30.78751
#
# Poissons Ratio (x) = 1.29026 1.06421
# Poissons Ratio (y) = 0.23834 0.08970
# Poissons Ratio (z) = 0.32900 0.15012
#
# Static dielectric constant tensor:
#      x y z
#    x 1.608010 0.000000 0.000000 
#    y 0.000000 1.604000 0.000000 
#    z 0.000000 0.000000 1.632510 
# 
# From -- ./inp_files/14133.got.cif
#   From: 2010.05.17/outbox.cif.g08.bks.cpg/sg46_8_cif.got.tgz:14133.got - 2010.06.03 19:58:25.
