data_PCOD9380092
_publ_section_title
;
Structure prediction by ZEFSAII (Michael W. Deem and Ramdas Pophale) SiO2 
 PCOD9380092
Probable space group: I M A 2
;
_chemical_formula_sum "Si O2"
_cell_formula_units_Z 56
_cell_length_a 16.877130
_cell_length_b 20.275032
_cell_length_c 6.898861
_cell_angle_alpha 90.000000
_cell_angle_beta 90.000000
_cell_angle_gamma 90.000000
_cell_volume 2360.682273
_symmetry_space_group_name_H-M "I M A 2"
_symmetry_group_IT_number 46
_symmetry_cell_setting 'orthorhombic'
loop_
_space_group_symop_operation_xyz
x,y,z
-x,-y,z
1/2-x,y,z
1/2+x,-y,z
1/2+x,1/2+y,1/2+z
1/2-x,1/2-y,1/2+z
-x,1/2+y,1/2+z
x,1/2-y,1/2+z
loop_
_atom_site_type_symbol
_atom_site_label
_atom_site_fract_x
_atom_site_fract_y
_atom_site_fract_z
Si Si1 0.881292 0.051439 0.404970
Si Si2 0.591254 0.132434 0.776867
Si Si3 0.750000 0.202239 0.740273
Si Si4 0.001648 0.890781 0.144295
Si Si5 0.250000 0.851938 0.303486
Si Si6 0.466079 0.254279 0.198628
Si Si7 0.837056 0.908636 0.276575
Si Si8 0.158043 0.265314 0.948081
O O1 0.882196 0.078988 0.620481
O O2 0.967233 0.064524 0.316509
O O3 0.825063 0.100521 0.280171
O O4 0.851178 0.977488 0.383687
O O5 0.668334 0.175729 0.832846
O O6 0.524059 0.182531 0.696077
O O7 0.549946 0.095427 0.953098
O O8 0.750000 0.170052 0.528016
O O9 0.750000 0.280568 0.707611
O O10 0.013912 0.814726 0.201047
O O11 0.907515 0.899335 0.123370
O O12 0.362385 0.256356 0.198099
O O13 0.442276 0.252818 0.448948
O O14 0.750000 0.908456 0.187350
O O15 0.842250 0.845179 0.416909
O O16 0.250000 0.241435 0.952762
#
# Coordination Sequence:
#
# PCOD9380092 Si02
#       8
#     8   8   4   8   4   8   8   8
#     4  11  23  43  69  94 133 181 220 270 334 395
#     4  11  24  41  64 101 138 173 223 277 338 409
#     4  10  24  36  60 102 140 170 222 268 340 412
#     4  11  24  40  68  96 131 177 220 278 338 397
#     4  10  22  38  64 100 134 180 210 274 334 392
#     4  11  20  39  60  95 136 163 210 279 343 400
#     4  10  22  45  67  93 131 175 231 271 330 405
#     4  10  21  37  66  93 123 168 212 277 336 398
#
# _framework density 23.721954
#
# number of rings (size 3 to 8) (size 9 to 14) (size 15 to 20)
#    0.000    1.429    2.143    3.429    6.000    0.571 
#    0.000    5.714    0.000    4.286    0.000    0.000 
#    0.000    0.000    0.000    0.000    0.000    0.000 
#
# Total GULP energy -156336.032977 kJ/mol
# GULP energy per Si atom -5583.429749 kJ/mol
# Density = 2.366796 g / cm^3
# Si number density = 23.721954 Si / 1000 Ang^3
#
#
#
# Elastic Constant Matrix: (Units=GPa)
#
#
# Indices 1 2 3 4 5 6 
#
# 1 126.7320 21.8723 39.5602 0.0000 0.0000 0.0000
# 2 21.8723 147.5750 30.4133 0.0000 0.0000 0.0000
# 3 39.5602 30.4133 113.2542 0.0000 0.0000 0.0000
# 4 0.0000 0.0000 0.0000 10.6978 0.0000 0.0000
# 5 0.0000 0.0000 0.0000 0.0000 38.1213 0.0000
# 6 0.0000 0.0000 0.0000 0.0000 0.0000 34.8999
#
#
#
# Elastic Compliance Matrix: (Units=1/GPa)
#
#
# Indices 1 2 3 4 5 6 
#
# 1 0.008928 -0.000720 -0.002925 0.000000 0.000000 0.000000
# 2 -0.000720 0.007231 -0.001690 0.000000 0.000000 0.000000
# 3 -0.002925 -0.001690 0.010305 0.000000 0.000000 0.000000
# 4 0.000000 0.000000 0.000000 0.093477 0.000000 0.000000
# 5 0.000000 0.000000 0.000000 0.000000 0.026232 0.000000
# 6 0.000000 0.000000 0.000000 0.000000 0.000000 0.028653
#
#
# Mechanical properties :
#
#
# Convention : Reuss Voigt Hill
#
# Bulk Modulus (GPa) = 63.31867 63.47255 63.39561
# Shear Modulus (GPa) = 26.21043 36.45815 31.33429
#
# Velocity S-wave (km/s) = 3.32761 3.92458 3.63836
# Velocity P-wave (km/s) = 6.44313 6.88123 6.66578
#
# Compressibility (1/GPa) = 0.01579313
#
# Stress axis : x y z
#
# Youngs Moduli (GPa) = 112.00583 138.28720 97.03680
#
# Poissons Ratio (x) = 0.09962 0.28385
# Poissons Ratio (y) = 0.08069 0.16402
# Poissons Ratio (z) = 0.32764 0.23374
#
# Static dielectric constant tensor:
#      x y z
#    x 1.949670 0.000000 0.000000 
#    y 0.000000 1.817470 0.000000 
#    z 0.000000 0.000000 2.136850 
# 
# From -- ./inp_files/5963.got.cif
#   From: 2010.05.17/outbox.cif.g08.bks.cpg/sg46_3_cif.got.tgz:5963.got - 2010.06.03 19:58:25.
