data_PCOD9380064
_publ_section_title
;
Structure prediction by ZEFSAII (Michael W. Deem and Ramdas Pophale) SiO2 
 PCOD9380064
Probable space group: I M A 2
;
_chemical_formula_sum "Si O2"
_cell_formula_units_Z 60
_cell_length_a 9.202843
_cell_length_b 30.218636
_cell_length_c 11.047074
_cell_angle_alpha 90.000000
_cell_angle_beta 90.000000
_cell_angle_gamma 90.000000
_cell_volume 3072.162146
_symmetry_space_group_name_H-M "I M A 2"
_symmetry_group_IT_number 46
_symmetry_cell_setting 'orthorhombic'
loop_
_space_group_symop_operation_xyz
x,y,z
-x,-y,z
1/2-x,y,z
1/2+x,-y,z
1/2+x,1/2+y,1/2+z
1/2-x,1/2-y,1/2+z
-x,1/2+y,1/2+z
x,1/2-y,1/2+z
loop_
_atom_site_type_symbol
_atom_site_label
_atom_site_fract_x
_atom_site_fract_y
_atom_site_fract_z
Si Si1 0.576357 0.878832 0.759100
Si Si2 0.081423 0.334267 0.641201
Si Si3 0.079585 0.692062 0.402347
Si Si4 0.500000 0.500000 0.629765
Si Si5 0.580798 0.205588 0.359603
Si Si6 0.089593 0.077456 0.294179
Si Si7 0.416394 0.957069 0.889569
Si Si8 0.920877 0.116350 0.507347
O O1 0.750000 0.879675 0.764644
O O2 0.512356 0.831162 0.796848
O O3 0.507438 0.914214 0.852786
O O4 0.515340 0.890448 0.626872
O O5 0.250000 0.326386 0.609935
O O6 0.068616 0.382998 0.698161
O O7 0.980456 0.327994 0.526211
O O8 0.025044 0.302367 0.747257
O O9 0.250000 0.682234 0.384925
O O10 0.061866 0.744937 0.407599
O O11 0.584112 0.532508 0.718870
O O12 0.582457 0.468301 0.533424
O O13 0.750000 0.200946 0.320074
O O14 0.555325 0.166317 0.455929
O O15 0.250000 0.083520 0.348999
O O16 0.972279 0.083993 0.399476
O O17 0.250000 0.953402 0.848834
O O18 0.500000 0.000000 0.835965
O O19 0.750000 0.111121 0.533001
#
# Coordination Sequence:
#
# PCOD9380064 Si02
#       8
#     8   8   8   4   8   8   8   8
#     4  12  25  42  63  91 126 166 208 257 311 367
#     4  10  21  37  60  89 123 156 197 253 308 366
#     4  11  23  38  61  90 122 163 208 255 305 366
#     4  10  22  36  68  94 128 156 204 250 306 362
#     4   9  21  40  61  86 120 163 206 253 306 363
#     4  10  21  40  62  89 123 160 199 249 307 362
#     4  10  22  40  65  94 125 163 203 253 309 368
#     4  10  22  42  65  89 122 163 208 254 306 372
#
# _framework density 19.530218999999999
#
# number of rings (size 3 to 8) (size 9 to 14) (size 15 to 20)
#    0.400    1.333    0.000    4.000    1.867    4.267 
#    1.200    0.000    0.000    0.000    0.000    0.000 
#    0.000    0.000    0.000    0.000    0.000    0.000 
#
# Total GULP energy -167418.672372 kJ/mol
# GULP energy per Si atom -5580.622412 kJ/mol
# Density = 1.948577 g / cm^3
# Si number density = 19.530219 Si / 1000 Ang^3
#
#
#
# Elastic Constant Matrix: (Units=GPa)
#
#
# Indices 1 2 3 4 5 6 
#
# 1 134.6362 45.1652 47.6742 -0.0001 0.0000 0.0002
# 2 45.1652 69.6780 29.7407 -0.0003 0.0000 0.0000
# 3 47.6742 29.7407 78.9627 -0.0014 0.0001 0.0010
# 4 -0.0001 -0.0003 -0.0014 9.7976 0.0000 0.0003
# 5 0.0000 0.0000 0.0001 0.0000 30.1732 -0.0002
# 6 0.0002 0.0000 0.0010 0.0003 -0.0002 9.6693
#
#
#
# Elastic Compliance Matrix: (Units=1/GPa)
#
#
# Indices 1 2 3 4 5 6 
#
# 1 0.010731 -0.004993 -0.004598 -0.000001 0.000000 0.000000
# 2 -0.004993 0.019424 -0.004301 0.000000 0.000000 0.000001
# 3 -0.004598 -0.004301 0.017060 0.000002 0.000000 -0.000002
# 4 -0.000001 0.000000 0.000002 0.102065 0.000000 -0.000003
# 5 0.000000 0.000000 0.000000 0.000000 0.033142 0.000001
# 6 0.000000 0.000001 -0.000002 -0.000003 0.000001 0.103420
#
#
# Mechanical properties :
#
#
# Convention : Reuss Voigt Hill
#
# Bulk Modulus (GPa) = 51.46628 58.71525 55.09076
# Shear Modulus (GPa) = 15.61993 20.64115 18.13054
#
# Velocity S-wave (km/s) = 2.83111 3.25450 3.05016
# Velocity P-wave (km/s) = 6.09067 6.65217 6.37760
#
# Compressibility (1/GPa) = 0.01943020
#
# Stress axis : x y z
#
# Youngs Moduli (GPa) = 93.19223 51.48239 58.61521
#
# Poissons Ratio (x) = 0.25705 0.26952
# Poissons Ratio (y) = 0.46530 0.25213
# Poissons Ratio (z) = 0.42850 0.22145
#
# Static dielectric constant tensor:
#      x y z
#    x 1.670050 0.000000 0.000000 
#    y 0.000000 1.693450 0.000000 
#    z 0.000000 0.000000 1.673810 
# 
# From -- ./inp_files/9647.got.cif
#   From: 2010.05.17/outbox.cif.g08.bks.cpg/sg46_5_cif.got.tgz:9647.got - 2010.06.03 19:58:25.
