data_PCOD9380297
_publ_section_title
;
Structure prediction by ZEFSAII (Michael W. Deem and Ramdas Pophale) SiO2 
 PCOD9380297
Probable space group: I M A 2
;
_chemical_formula_sum "Si O2"
_cell_formula_units_Z 48
_cell_length_a 24.743520
_cell_length_b 5.103184
_cell_length_c 17.377274
_cell_angle_alpha 90.000000
_cell_angle_beta 90.000000
_cell_angle_gamma 90.000000
_cell_volume 2194.241167
_symmetry_space_group_name_H-M "I M A 2"
_symmetry_group_IT_number 46
_symmetry_cell_setting 'orthorhombic'
loop_
_space_group_symop_operation_xyz
x,y,z
-x,-y,z
1/2-x,y,z
1/2+x,-y,z
1/2+x,1/2+y,1/2+z
1/2-x,1/2-y,1/2+z
-x,1/2+y,1/2+z
x,1/2-y,1/2+z
loop_
_atom_site_type_symbol
_atom_site_label
_atom_site_fract_x
_atom_site_fract_y
_atom_site_fract_z
Si Si1 0.650866 0.796163 0.962590
Si Si2 0.406198 0.819610 0.841224
Si Si3 0.627649 0.577176 0.203899
Si Si4 0.124330 0.573495 0.600569
Si Si5 0.191309 0.078591 0.316261
Si Si6 0.444453 0.619556 0.987575
O O1 0.692973 0.660543 0.906062
O O2 0.605792 0.582984 0.986707
O O3 0.622933 0.993112 0.902643
O O4 0.667091 0.957924 0.038191
O O5 0.360851 0.610341 0.814605
O O6 0.450929 0.700356 0.897507
O O7 0.418025 0.980099 0.764304
O O8 0.640824 0.330732 0.148800
O O9 0.676384 0.682806 0.258526
O O10 0.611089 0.830535 0.155361
O O11 0.074292 0.655710 0.546207
O O12 0.250000 0.967647 0.294815
O O13 0.500000 0.500000 0.014957
#
# Coordination Sequence:
#
# PCOD9380297 Si02
#       6
#     8   8   8   8   8   8
#     4   9  20  39  64  88 125 167 208 268 314 377
#     4   9  20  37  66  90 128 171 211 267 314 378
#     4  11  21  40  65  89 130 173 211 263 329 379
#     4  11  21  39  68  89 129 171 212 262 331 382
#     4  10  21  40  66  95 124 171 223 265 318 385
#     4  10  21  40  70  97 126 171 227 263 317 382
#
# _framework density 21.875446
#
# number of rings (size 3 to 8) (size 9 to 14) (size 15 to 20)
#    0.000    2.000    3.333    0.000    0.000    5.333 
#    0.000    1.667   14.667    4.000    0.000    0.000 
#    0.000    0.000    0.000    0.000    0.000    0.000 
#
# Total GULP energy -133635.757003 kJ/mol
# GULP energy per Si atom -5568.156542 kJ/mol
# Density = 2.182566 g / cm^3
# Si number density = 21.875446 Si / 1000 Ang^3
#
#
#
# Elastic Constant Matrix: (Units=GPa)
#
#
# Indices 1 2 3 4 5 6 
#
# 1 49.4544 14.1136 25.3321 0.0000 0.0000 0.0000
# 2 14.1136 125.6859 70.6789 0.0000 0.0000 0.0000
# 3 25.3321 70.6789 159.7988 0.0000 0.0000 0.0000
# 4 0.0000 0.0000 0.0000 71.3069 0.0000 0.0000
# 5 0.0000 0.0000 0.0000 0.0000 6.0039 0.0000
# 6 0.0000 0.0000 0.0000 0.0000 0.0000 -0.9239
#
#
#
# Elastic Compliance Matrix: (Units=1/GPa)
#
#
# Indices 1 2 3 4 5 6 
#
# 1 0.022051 -0.000679 -0.003195 0.000000 0.000000 0.000000
# 2 -0.000679 0.010611 -0.004586 0.000000 0.000000 0.000000
# 3 -0.003195 -0.004586 0.008793 0.000000 0.000000 0.000000
# 4 0.000000 0.000000 0.000000 0.014024 0.000000 0.000000
# 5 0.000000 0.000000 0.000000 0.000000 0.166559 0.000000
# 6 0.000000 0.000000 0.000000 0.000000 0.000000 -1.082313
#
#
# Mechanical properties :
#
#
# Convention : Reuss Voigt Hill
#
# Bulk Modulus (GPa) = 40.75864 61.68759 51.22311
# Shear Modulus (GPa) = -5.98676 30.26500 12.13912
#
# Velocity S-wave (km/s) = -1.65611 3.72360 2.35823
# Velocity P-wave (km/s) = 3.87501 6.83722 5.55712
#
# Compressibility (1/GPa) = 0.02453468
#
# Stress axis : x y z
#
# Youngs Moduli (GPa) = 45.34903 94.23841 113.73154
#
# Poissons Ratio (x) = 0.06403 0.36339
# Poissons Ratio (y) = 0.03081 0.52154
# Poissons Ratio (z) = 0.14490 0.43215
#
# Static dielectric constant tensor:
#      x y z
#    x 1.864940 0.000000 0.000000 
#    y 0.000000 1.937220 0.000000 
#    z 0.000000 0.000000 1.890670 
# 
# From -- ./inp_files/20331.got.cif
#   From: 2010.05.17/outbox.cif.g08.bks.cpg/sg46_11_cif.got.tgz:20331.got - 2010.06.03 19:58:25.
