data_PCOD9380392
_publ_section_title
;
Structure prediction by ZEFSAII (Michael W. Deem and Ramdas Pophale) SiO2 
 PCOD9380392
Probable space group: I M A 2
;
_chemical_formula_sum "Si O2"
_cell_formula_units_Z 48
_cell_length_a 18.403992
_cell_length_b 7.298796
_cell_length_c 20.752118
_cell_angle_alpha 90.000000
_cell_angle_beta 90.000000
_cell_angle_gamma 90.000000
_cell_volume 2787.569406
_symmetry_space_group_name_H-M "I M A 2"
_symmetry_group_IT_number 46
_symmetry_cell_setting 'orthorhombic'
loop_
_space_group_symop_operation_xyz
x,y,z
-x,-y,z
1/2-x,y,z
1/2+x,-y,z
1/2+x,1/2+y,1/2+z
1/2-x,1/2-y,1/2+z
-x,1/2+y,1/2+z
x,1/2-y,1/2+z
loop_
_atom_site_type_symbol
_atom_site_label
_atom_site_fract_x
_atom_site_fract_y
_atom_site_fract_z
Si Si1 0.585822 0.318031 0.324640
Si Si2 0.500000 0.000000 0.938686
Si Si3 0.333082 0.040096 0.373322
Si Si4 0.000000 0.500000 0.107966
Si Si5 0.063090 0.129142 0.484668
Si Si6 0.166187 0.154491 0.763217
Si Si7 0.019226 0.287723 0.712077
O O1 0.559181 0.411978 0.390487
O O2 0.638885 0.455220 0.286286
O O3 0.516390 0.279784 0.279157
O O4 0.623159 0.126582 0.341515
O O5 0.464515 0.162966 0.979676
O O6 0.250000 0.983627 0.380911
O O7 0.367241 0.096746 0.441426
O O8 0.336693 0.212381 0.325322
O O9 0.015344 0.669562 0.154510
O O10 0.063503 0.441660 0.058079
O O11 0.000000 0.000000 0.453870
O O12 0.250000 0.151095 0.740284
O O13 0.104714 0.237528 0.715800
O O14 0.000000 0.500000 0.704774
#
# Coordination Sequence:
#
# PCOD9380392 Si02
#       7
#     8   4   8   4   8   8   8
#     4  12  19  34  60  88 116 152 185 238 296 352
#     4  12  19  32  62  88 113 140 192 242 288 338
#     4  11  22  37  57  88 122 149 182 238 304 356
#     4  10  23  40  60  84 105 160 212 240 270 314
#     4  10  22  37  59  81 112 149 200 234 280 329
#     4  11  22  35  55  89 122 148 182 238 305 352
#     4  12  22  37  62  84 117 154 201 239 281 344
#
# _framework density 17.219303
#
# number of rings (size 3 to 8) (size 9 to 14) (size 15 to 20)
#    0.500    0.333    8.333    0.500    1.167    0.000 
#    0.000    0.833    0.000    0.000    0.000    0.000 
#    0.000    0.000    0.000    0.000    0.000    0.000 
#
# Total GULP energy -133841.115688 kJ/mol
# GULP energy per Si atom -5576.713154 kJ/mol
# Density = 1.718011 g / cm^3
# Si number density = 17.219303 Si / 1000 Ang^3
#
#
#
# Elastic Constant Matrix: (Units=GPa)
#
#
# Indices 1 2 3 4 5 6 
#
# 1 90.3063 25.9038 20.6835 0.0000 0.0000 0.0000
# 2 25.9038 113.1437 25.5554 0.0000 0.0000 0.0000
# 3 20.6835 25.5554 68.1029 0.0000 0.0000 0.0000
# 4 0.0000 0.0000 0.0000 14.8063 0.0000 0.0000
# 5 0.0000 0.0000 0.0000 0.0000 12.0492 0.0000
# 6 0.0000 0.0000 0.0000 0.0000 0.0000 20.2407
#
#
#
# Elastic Compliance Matrix: (Units=1/GPa)
#
#
# Indices 1 2 3 4 5 6 
#
# 1 0.012369 -0.002167 -0.002943 0.000000 0.000000 0.000000
# 2 -0.002167 0.010036 -0.003108 0.000000 0.000000 0.000000
# 3 -0.002943 -0.003108 0.016744 0.000000 0.000000 0.000000
# 4 0.000000 0.000000 0.000000 0.067539 0.000000 0.000000
# 5 0.000000 0.000000 0.000000 0.000000 0.082993 0.000000
# 6 0.000000 0.000000 0.000000 0.000000 0.000000 0.049405
#
#
# Mechanical properties :
#
#
# Convention : Reuss Voigt Hill
#
# Bulk Modulus (GPa) = 44.02857 46.20424 45.11640
# Shear Modulus (GPa) = 19.00456 22.71326 20.85891
#
# Velocity S-wave (km/s) = 3.32577 3.63582 3.48425
# Velocity P-wave (km/s) = 6.35393 6.67208 6.51495
#
# Compressibility (1/GPa) = 0.02271253
#
# Stress axis : x y z
#
# Youngs Moduli (GPa) = 80.84604 99.63693 59.72333
#
# Poissons Ratio (x) = 0.21592 0.17579
# Poissons Ratio (y) = 0.17520 0.18562
# Poissons Ratio (z) = 0.23797 0.30967
#
# Static dielectric constant tensor:
#      x y z
#    x 1.600430 0.000000 0.000000 
#    y 0.000000 1.593900 0.000000 
#    z 0.000000 0.000000 1.574530 
# 
# From -- ./inp_files/23819.got.cif
#   From: 2010.05.17/outbox.cif.g08.bks.cpg/sg46_12_cif.got.tgz:23819.got - 2010.06.03 19:58:25.
