data_PCOD9380858
_publ_section_title
;
Structure prediction by ZEFSAII (Michael W. Deem and Ramdas Pophale) SiO2 
 PCOD9380858
Probable space group: I M A 2
;
_chemical_formula_sum "Si O2"
_cell_formula_units_Z 64
_cell_length_a 16.801465
_cell_length_b 11.186431
_cell_length_c 16.475701
_cell_angle_alpha 90.000000
_cell_angle_beta 90.000000
_cell_angle_gamma 90.000000
_cell_volume 3096.582118
_symmetry_space_group_name_H-M "I M A 2"
_symmetry_group_IT_number 46
_symmetry_cell_setting 'orthorhombic'
loop_
_space_group_symop_operation_xyz
x,y,z
-x,-y,z
1/2-x,y,z
1/2+x,-y,z
1/2+x,1/2+y,1/2+z
1/2-x,1/2-y,1/2+z
-x,1/2+y,1/2+z
x,1/2-y,1/2+z
loop_
_atom_site_type_symbol
_atom_site_label
_atom_site_fract_x
_atom_site_fract_y
_atom_site_fract_z
Si Si1 0.841640 0.598721 0.750000
Si Si2 0.935185 0.345347 0.156531
Si Si3 0.420243 0.576988 0.628753
Si Si4 0.955046 0.371328 0.445953
Si Si5 0.160877 0.005164 0.546951
Si Si6 0.656708 0.446578 0.307310
Si Si7 0.054082 0.120125 0.413613
Si Si8 0.382442 0.356497 0.200725
O O1 0.750000 0.592535 0.777977
O O2 0.858298 0.493225 0.685165
O O3 0.902238 0.610699 0.826018
O O4 0.857976 0.720350 0.701747
O O5 0.934729 0.204882 0.166037
O O6 0.899869 0.397748 0.072326
O O7 0.875378 0.390188 0.224718
O O8 0.026100 0.378729 0.175359
O O9 0.500000 0.500000 0.633129
O O10 0.412296 0.610825 0.533449
O O11 0.888520 0.377806 0.377430
O O12 0.000000 0.500000 0.435105
O O13 0.008426 0.248476 0.433091
O O14 0.250000 0.964489 0.523839
O O15 0.120814 0.092170 0.481458
O O16 0.165923 0.080100 0.629789
O O17 0.750000 0.438548 0.317013
O O18 0.633385 0.585057 0.289114
O O19 0.000000 0.000000 0.416872
#
# Coordination Sequence:
#
# PCOD9380858 Si02
#       8
#     8   8   8   8   8   8   8   8
#     4  12  26  42  66 101 143 184 230 296 369 429
#     4  11  21  41  70  97 131 183 229 285 348 434
#     4  11  24  43  66  96 135 181 235 288 353 436
#     4  11  25  45  70 100 134 187 241 287 352 437
#     4  11  23  41  69 104 136 173 230 297 356 416
#     4  11  23  40  65  98 133 174 229 295 354 413
#     4  12  26  46  70 102 136 188 241 292 354 434
#     4  11  21  41  69  98 132 177 233 284 351 430
#
# _framework density 20.667947999999999
#
# number of rings (size 3 to 8) (size 9 to 14) (size 15 to 20)
#    0.000    0.750    1.250    9.000    3.500    1.500 
#    0.000    2.500    0.000    0.000    0.000    0.000 
#    0.000    0.000    0.000    0.000    0.000    0.000 
#
# Total GULP energy -178371.648440 kJ/mol
# GULP energy per Si atom -5574.114014 kJ/mol
# Density = 2.062091 g / cm^3
# Si number density = 20.667948 Si / 1000 Ang^3
#
#
#
# Elastic Constant Matrix: (Units=GPa)
#
#
# Indices 1 2 3 4 5 6 
#
# 1 122.8873 55.4512 56.9450 0.0000 0.0000 0.0000
# 2 55.4512 113.9717 34.4920 0.0000 0.0000 0.0000
# 3 56.9450 34.4920 84.2394 0.0000 0.0000 0.0000
# 4 0.0000 0.0000 0.0000 22.7804 0.0000 0.0000
# 5 0.0000 0.0000 0.0000 0.0000 1.8790 0.0000
# 6 0.0000 0.0000 0.0000 0.0000 0.0000 3.4329
#
#
#
# Elastic Compliance Matrix: (Units=1/GPa)
#
#
# Indices 1 2 3 4 5 6 
#
# 1 0.013504 -0.004346 -0.007349 0.000000 0.000000 0.000000
# 2 -0.004346 0.011414 -0.001735 0.000000 0.000000 0.000000
# 3 -0.007349 -0.001735 0.017550 0.000000 0.000000 0.000000
# 4 0.000000 0.000000 0.000000 0.043897 0.000000 0.000000
# 5 0.000000 0.000000 0.000000 0.000000 0.532208 0.000000
# 6 0.000000 0.000000 0.000000 0.000000 0.000000 0.291295
#
#
# Mechanical properties :
#
#
# Convention : Reuss Voigt Hill
#
# Bulk Modulus (GPa) = 64.07801 68.31942 66.19871
# Shear Modulus (GPa) = 5.30824 17.23246 11.27035
#
# Velocity S-wave (km/s) = 1.60434 2.89065 2.33771
# Velocity P-wave (km/s) = 5.87391 6.65347 6.27580
#
# Compressibility (1/GPa) = 0.01560598
#
# Stress axis : x y z
#
# Youngs Moduli (GPa) = 74.05084 87.61259 56.98161
#
# Poissons Ratio (x) = 0.38078 0.41877
# Poissons Ratio (y) = 0.32184 0.09889
# Poissons Ratio (z) = 0.54421 0.15205
#
# Static dielectric constant tensor:
#      x y z
#    x 1.776350 0.000000 0.000000 
#    y 0.000000 1.811290 0.000000 
#    z 0.000000 0.000000 1.797110 
# 
# From -- ./inp_files/19633.got.cif
#   From: 2010.05.17/outbox.cif.g08.bks.cpg/sg46_10_cif.got.tgz:19633.got - 2010.06.03 19:58:25.
