data_PCOD9380285
_publ_section_title
;
Structure prediction by ZEFSAII (Michael W. Deem and Ramdas Pophale) SiO2 
 PCOD9380285
Probable space group: I M A 2
;
_chemical_formula_sum "Si O2"
_cell_formula_units_Z 40
_cell_length_a 24.337263
_cell_length_b 14.708888
_cell_length_c 4.876430
_cell_angle_alpha 90.000000
_cell_angle_beta 90.000000
_cell_angle_gamma 90.000000
_cell_volume 1745.635522
_symmetry_space_group_name_H-M "I M A 2"
_symmetry_group_IT_number 46
_symmetry_cell_setting 'orthorhombic'
loop_
_space_group_symop_operation_xyz
x,y,z
-x,-y,z
1/2-x,y,z
1/2+x,-y,z
1/2+x,1/2+y,1/2+z
1/2-x,1/2-y,1/2+z
-x,1/2+y,1/2+z
x,1/2-y,1/2+z
loop_
_atom_site_type_symbol
_atom_site_label
_atom_site_fract_x
_atom_site_fract_y
_atom_site_fract_z
Si Si1 0.912059 0.575233 0.157170
Si Si2 0.190128 0.312950 0.256609
Si Si3 0.982916 0.187514 0.490997
Si Si4 0.187036 0.818276 0.034431
Si Si5 0.091245 0.954389 0.154922
O O1 0.861963 0.625309 0.304518
O O2 0.934644 0.507667 0.394906
O O3 0.956300 0.645586 0.032975
O O4 0.889283 0.522531 0.893092
O O5 0.250000 0.356474 0.303204
O O6 0.187349 0.224802 0.449119
O O7 0.972203 0.224973 0.796324
O O8 0.949050 0.109623 0.334692
O O9 0.250000 0.853040 0.025564
O O10 0.179568 0.754594 0.296249
O O11 0.141741 0.896091 0.037584
#
# Coordination Sequence:
#
# PCOD9380285 Si02
#       5
#     8   8   8   8   8
#     4  12  25  41  64  96 131 164 211 274 333 382
#     4  10  21  40  65  93 128 171 216 257 310 388
#     4  12  25  44  67  88 122 172 222 264 319 392
#     4  10  21  40  65  93 128 171 216 257 310 388
#     4  12  25  41  64  96 131 164 211 274 333 382
#
# _framework density 22.914290999999999
#
# number of rings (size 3 to 8) (size 9 to 14) (size 15 to 20)
#    0.000    0.800    0.000    7.800    0.000    3.200 
#    0.000    0.000    0.000    0.000    0.000    0.000 
#    0.000    0.000    0.000    0.000    0.000    0.000 
#
# Total GULP energy -111782.684838 kJ/mol
# GULP energy per Si atom -5589.134242 kJ/mol
# Density = 2.286214 g / cm^3
# Si number density = 22.914291 Si / 1000 Ang^3
#
#
#
# Elastic Constant Matrix: (Units=GPa)
#
#
# Indices 1 2 3 4 5 6 
#
# 1 111.4004 30.7586 13.3401 0.0000 0.0000 0.0000
# 2 30.7586 40.9812 19.1381 0.0000 0.0000 0.0000
# 3 13.3401 19.1381 126.9953 0.0000 0.0000 0.0000
# 4 0.0000 0.0000 0.0000 27.0906 0.0000 0.0000
# 5 0.0000 0.0000 0.0000 0.0000 24.9040 0.0000
# 6 0.0000 0.0000 0.0000 0.0000 0.0000 -79.0479
#
#
#
# Elastic Compliance Matrix: (Units=1/GPa)
#
#
# Indices 1 2 3 4 5 6 
#
# 1 0.011324 -0.008545 0.000098 0.000000 0.000000 0.000000
# 2 -0.008545 0.032697 -0.004030 0.000000 0.000000 0.000000
# 3 0.000098 -0.004030 0.008471 0.000000 0.000000 0.000000
# 4 0.000000 0.000000 0.000000 0.036913 0.000000 0.000000
# 5 0.000000 0.000000 0.000000 0.000000 0.040154 0.000000
# 6 0.000000 0.000000 0.000000 0.000000 0.000000 -0.012651
#
#
# Mechanical properties :
#
#
# Convention : Reuss Voigt Hill
#
# Bulk Modulus (GPa) = 36.31240 45.09452 40.70346
# Shear Modulus (GPa) = 33.10316 8.99869 21.05093
#
# Velocity S-wave (km/s) = 3.80498 1.98384 3.03426
# Velocity P-wave (km/s) = 5.93172 4.99699 5.48430
#
# Compressibility (1/GPa) = 0.02753880
#
# Stress axis : x y z
#
# Youngs Moduli (GPa) = 88.30545 30.58373 118.04603
#
# Poissons Ratio (x) = 0.26135 -0.01160
# Poissons Ratio (y) = 0.75461 0.47570
# Poissons Ratio (z) = -0.00867 0.12325
#
# Static dielectric constant tensor:
#      x y z
#    x 1.874470 0.000000 0.000000 
#    y 0.000000 1.888400 0.000000 
#    z 0.000000 0.000000 1.803090 
# 
# From -- ./inp_files/2309.got.cif
#   From: 2010.05.17/outbox.cif.g08.bks.cpg/sg46_2_cif.got.tgz:2309.got - 2010.06.03 19:58:25.
