data_PCOD9380461
_publ_section_title
;
Structure prediction by ZEFSAII (Michael W. Deem and Ramdas Pophale) SiO2 
 PCOD9380461
Probable space group: I M A 2
;
_chemical_formula_sum "Si O2"
_cell_formula_units_Z 48
_cell_length_a 15.054687
_cell_length_b 7.912426
_cell_length_c 17.338557
_cell_angle_alpha 90.000000
_cell_angle_beta 90.000000
_cell_angle_gamma 90.000000
_cell_volume 2065.353250
_symmetry_space_group_name_H-M "I M A 2"
_symmetry_group_IT_number 46
_symmetry_cell_setting 'orthorhombic'
loop_
_space_group_symop_operation_xyz
x,y,z
-x,-y,z
1/2-x,y,z
1/2+x,-y,z
1/2+x,1/2+y,1/2+z
1/2-x,1/2-y,1/2+z
-x,1/2+y,1/2+z
x,1/2-y,1/2+z
loop_
_atom_site_type_symbol
_atom_site_label
_atom_site_fract_x
_atom_site_fract_y
_atom_site_fract_z
Si Si1 0.750000 0.960791 0.209450
Si Si2 0.074605 0.624490 0.529829
Si Si3 0.000000 0.500000 0.819161
Si Si4 0.896921 0.466793 0.312036
Si Si5 0.750000 0.893080 0.035734
Si Si6 0.417614 0.784912 0.198904
Si Si7 0.852487 0.362989 0.911676
Si Si8 0.750000 0.728683 0.361962
O O1 0.750000 0.849122 0.129250
O O2 0.750000 0.869677 0.292677
O O3 0.664845 0.085480 0.206851
O O4 0.164131 0.513721 0.528762
O O5 0.046265 0.682403 0.614651
O O6 0.097072 0.795922 0.486080
O O7 0.000000 0.500000 0.497360
O O8 0.009635 0.656887 0.761541
O O9 0.086765 0.495703 0.872300
O O10 0.890107 0.403769 0.223042
O O11 0.859498 0.302077 0.356998
O O12 0.836052 0.617945 0.339124
O O13 0.000000 0.500000 0.328170
O O14 0.750000 0.771752 0.958430
O O15 0.750000 0.403962 0.924633
#
# Coordination Sequence:
#
# PCOD9380461 Si02
#       8
#     4   8   4   8   4   8   8   4
#     4  10  25  39  73  96 138 182 230 290 349 423
#     4  11  20  38  69  93 129 183 231 286 341 426
#     4  10  24  38  66 100 132 174 232 280 350 420
#     4  11  23  40  68  96 129 175 231 282 344 419
#     4  10  22  40  60 104 130 176 240 278 344 434
#     4  10  23  43  64  97 138 180 229 287 356 420
#     4  11  22  43  68  99 135 179 233 284 350 424
#     4  12  23  41  69  98 128 180 228 294 351 407
#
# _framework density 23.240577999999999
#
# number of rings (size 3 to 8) (size 9 to 14) (size 15 to 20)
#    0.000    1.333    4.167    1.000    8.167    0.000 
#    1.500    0.000    9.167    0.000    0.000    0.000 
#    0.000    0.000    0.000    0.000    0.000    0.000 
#
# Total GULP energy -133952.433849 kJ/mol
# GULP energy per Si atom -5581.351410 kJ/mol
# Density = 2.318768 g / cm^3
# Si number density = 23.240578 Si / 1000 Ang^3
#
#
#
# Elastic Constant Matrix: (Units=GPa)
#
#
# Indices 1 2 3 4 5 6 
#
# 1 159.9648 30.7772 40.4931 0.0000 0.0000 0.0000
# 2 30.7772 60.2641 51.4315 0.0000 0.0000 0.0000
# 3 40.4931 51.4315 166.4189 0.0000 0.0000 0.0000
# 4 0.0000 0.0000 0.0000 32.9815 0.0000 0.0000
# 5 0.0000 0.0000 0.0000 0.0000 46.6899 0.0000
# 6 0.0000 0.0000 0.0000 0.0000 0.0000 22.0226
#
#
#
# Elastic Compliance Matrix: (Units=1/GPa)
#
#
# Indices 1 2 3 4 5 6 
#
# 1 0.007013 -0.002887 -0.000814 0.000000 0.000000 0.000000
# 2 -0.002887 0.023726 -0.006630 0.000000 0.000000 0.000000
# 3 -0.000814 -0.006630 0.008256 0.000000 0.000000 0.000000
# 4 0.000000 0.000000 0.000000 0.030320 0.000000 0.000000
# 5 0.000000 0.000000 0.000000 0.000000 0.021418 0.000000
# 6 0.000000 0.000000 0.000000 0.000000 0.000000 0.045408
#
#
# Mechanical properties :
#
#
# Convention : Reuss Voigt Hill
#
# Bulk Modulus (GPa) = 54.54604 70.22794 62.38699
# Shear Modulus (GPa) = 30.69097 37.93519 34.31308
#
# Velocity S-wave (km/s) = 3.63792 4.04453 3.84660
# Velocity P-wave (km/s) = 6.41615 7.21765 6.82867
#
# Compressibility (1/GPa) = 0.01833314
#
# Stress axis : x y z
#
# Youngs Moduli (GPa) = 142.59490 42.14740 121.12231
#
# Poissons Ratio (x) = 0.12166 0.09863
# Poissons Ratio (y) = 0.41161 0.80307
# Poissons Ratio (z) = 0.11611 0.27945
#
# Static dielectric constant tensor:
#      x y z
#    x 1.834710 0.000000 0.000000 
#    y 0.000000 1.947910 0.000000 
#    z 0.000000 0.000000 1.998050 
# 
# From -- ./inp_files/19485.got.cif
#   From: 2010.05.17/outbox.cif.g08.bks.cpg/sg46_10_cif.got.tgz:19485.got - 2010.06.03 19:58:25.
