data_PCOD9380658
_publ_section_title
;
Structure prediction by ZEFSAII (Michael W. Deem and Ramdas Pophale) SiO2 
 PCOD9380658
Probable space group: I M A 2
;
_chemical_formula_sum "Si O2"
_cell_formula_units_Z 56
_cell_length_a 22.087621
_cell_length_b 20.665760
_cell_length_c 4.978377
_cell_angle_alpha 90.000000
_cell_angle_beta 90.000000
_cell_angle_gamma 90.000000
_cell_volume 2272.417393
_symmetry_space_group_name_H-M "I M A 2"
_symmetry_group_IT_number 46
_symmetry_cell_setting 'orthorhombic'
loop_
_space_group_symop_operation_xyz
x,y,z
-x,-y,z
1/2-x,y,z
1/2+x,-y,z
1/2+x,1/2+y,1/2+z
1/2-x,1/2-y,1/2+z
-x,1/2+y,1/2+z
x,1/2-y,1/2+z
loop_
_atom_site_type_symbol
_atom_site_label
_atom_site_fract_x
_atom_site_fract_y
_atom_site_fract_z
Si Si1 0.750000 0.136695 0.241300
Si Si2 0.817298 0.793065 0.507279
Si Si3 0.123929 0.708396 0.637024
Si Si4 0.619445 0.006257 0.599232
Si Si5 0.074383 0.131721 0.765561
Si Si6 0.449326 0.453422 0.625690
Si Si7 0.958265 0.380283 0.992438
Si Si8 0.750000 0.452438 0.241004
O O1 0.689916 0.177929 0.186404
O O2 0.750000 0.109707 0.542913
O O3 0.750000 0.075133 0.041756
O O4 0.750000 0.821229 0.550208
O O5 0.821369 0.770065 0.200845
O O6 0.870514 0.837182 0.617228
O O7 0.118066 0.727951 0.326779
O O8 0.074816 0.660301 0.763571
O O9 0.587788 0.948283 0.770854
O O10 0.604995 0.989260 0.289152
O O11 0.591821 0.077362 0.650674
O O12 0.689413 0.008407 0.673142
O O13 0.008831 0.155375 0.671667
O O14 0.069825 0.124897 0.082343
O O15 0.500000 0.500000 0.480156
O O16 0.498112 0.433403 0.863106
#
# Coordination Sequence:
#
# PCOD9380658 Si02
#       8
#     4   8   8   8   8   8   8   4
#     4  12  26  49  70  98 142 195 238 299 360 418
#     4  10  25  48  70  96 135 180 225 284 349 405
#     4  12  27  46  71 100 137 189 249 301 349 424
#     4  10  23  42  64 108 139 184 225 287 357 424
#     4  11  23  39  73  99 137 184 229 289 344 440
#     4   9  20  40  65  95 141 181 221 279 357 429
#     4  10  23  42  65 100 143 180 230 287 363 409
#     4  12  26  43  76 104 144 183 236 293 354 430
#
# _framework density 24.643357999999999
#
# number of rings (size 3 to 8) (size 9 to 14) (size 15 to 20)
#    0.000    1.429    1.429    3.429    9.000    1.143 
#    1.286    0.000    0.000    0.000    0.000    0.000 
#    0.000    0.000    0.000    0.000    0.000    0.000 
#
# Total GULP energy -156142.162515 kJ/mol
# GULP energy per Si atom -5576.505804 kJ/mol
# Density = 2.458727 g / cm^3
# Si number density = 24.643358 Si / 1000 Ang^3
#
#
#
# Elastic Constant Matrix: (Units=GPa)
#
#
# Indices 1 2 3 4 5 6 
#
# 1 177.9882 33.2771 18.6295 0.0000 0.0000 0.0000
# 2 33.2771 30.8843 2.4786 0.0000 0.0000 0.0000
# 3 18.6295 2.4786 66.2726 0.0000 0.0000 0.0000
# 4 0.0000 0.0000 0.0000 36.7934 0.0000 0.0000
# 5 0.0000 0.0000 0.0000 0.0000 6.5989 0.0000
# 6 0.0000 0.0000 0.0000 0.0000 0.0000 45.9765
#
#
#
# Elastic Compliance Matrix: (Units=1/GPa)
#
#
# Indices 1 2 3 4 5 6 
#
# 1 0.007232 -0.007652 -0.001747 0.000000 0.000000 0.000000
# 2 -0.007652 0.040573 0.000634 0.000000 0.000000 0.000000
# 3 -0.001747 0.000634 0.015556 0.000000 0.000000 0.000000
# 4 0.000000 0.000000 0.000000 0.027179 0.000000 0.000000
# 5 0.000000 0.000000 0.000000 0.000000 0.151541 0.000000
# 6 0.000000 0.000000 0.000000 0.000000 0.000000 0.021750
#
#
# Mechanical properties :
#
#
# Convention : Reuss Voigt Hill
#
# Bulk Modulus (GPa) = 21.81930 42.65727 32.23828
# Shear Modulus (GPa) = 16.85558 32.59109 24.72333
#
# Velocity S-wave (km/s) = 2.61814 3.64058 3.17084
# Velocity P-wave (km/s) = 4.24415 5.91770 5.14937
#
# Compressibility (1/GPa) = 0.04583099
#
# Stress axis : x y z
#
# Youngs Moduli (GPa) = 138.27845 24.64709 64.28184
#
# Poissons Ratio (x) = 0.18860 0.11228
# Poissons Ratio (y) = 1.05809 -0.04073
# Poissons Ratio (z) = 0.24153 -0.01562
#
# Static dielectric constant tensor:
#      x y z
#    x 2.186580 0.000000 0.000000 
#    y 0.000000 2.494710 0.000000 
#    z 0.000000 0.000000 2.178010 
# 
# From -- ./inp_files/2151.got.cif
#   From: 2010.05.17/outbox.cif.g08.bks.cpg/sg46_2_cif.got.tgz:2151.got - 2010.06.03 19:58:25.
