data_PCOD9380224
_publ_section_title
;
Structure prediction by ZEFSAII (Michael W. Deem and Ramdas Pophale) SiO2 
 PCOD9380224
Probable space group: I M A 2
;
_chemical_formula_sum "Si O2"
_cell_formula_units_Z 48
_cell_length_a 16.061570
_cell_length_b 9.754577
_cell_length_c 14.025501
_cell_angle_alpha 90.000000
_cell_angle_beta 90.000000
_cell_angle_gamma 90.000000
_cell_volume 2197.428837
_symmetry_space_group_name_H-M "I M A 2"
_symmetry_group_IT_number 46
_symmetry_cell_setting 'orthorhombic'
loop_
_space_group_symop_operation_xyz
x,y,z
-x,-y,z
1/2-x,y,z
1/2+x,-y,z
1/2+x,1/2+y,1/2+z
1/2-x,1/2-y,1/2+z
-x,1/2+y,1/2+z
x,1/2-y,1/2+z
loop_
_atom_site_type_symbol
_atom_site_label
_atom_site_fract_x
_atom_site_fract_y
_atom_site_fract_z
Si Si1 0.959662 0.802840 0.236050
Si Si2 0.600002 0.523431 0.268841
Si Si3 0.661880 0.000801 0.163072
Si Si4 0.154575 0.356742 0.458148
Si Si5 0.990916 0.162936 0.439023
Si Si6 0.893313 0.290642 0.116821
O O1 0.890861 0.682976 0.240622
O O2 0.018910 0.799859 0.328107
O O3 0.014849 0.760256 0.147702
O O4 0.913004 0.945356 0.226312
O O5 0.500000 0.500000 0.277001
O O6 0.637610 0.529047 0.375105
O O7 0.627647 0.421376 0.183966
O O8 0.750000 0.959260 0.205848
O O9 0.660978 0.161662 0.144742
O O10 0.651323 0.929278 0.060568
O O11 0.250000 0.303795 0.445347
O O12 0.079076 0.244816 0.457215
O O13 0.910531 0.193786 0.504606
O O14 0.000000 0.000000 0.451354
#
# Coordination Sequence:
#
# PCOD9380224 Si02
#       6
#     8   8   8   8   8   8
#     4  10  21  39  63  92 120 165 214 266 328 390
#     4   9  21  38  65  96 120 165 218 272 324 390
#     4  11  24  40  59  90 131 176 218 270 335 394
#     4  10  23  40  63  94 133 179 223 269 337 409
#     4  11  22  38  68  98 127 168 221 275 327 390
#     4  11  22  38  65  93 128 161 217 279 322 385
#
# _framework density 21.843710000000002
#
# number of rings (size 3 to 8) (size 9 to 14) (size 15 to 20)
#    0.000    1.667    1.667    3.000    7.000    3.333 
#    0.000    0.833    0.000    0.000    0.000    0.000 
#    0.000    0.000    0.000    0.000    0.000    0.000 
#
# Total GULP energy -133679.730253 kJ/mol
# GULP energy per Si atom -5569.988761 kJ/mol
# Density = 2.179399 g / cm^3
# Si number density = 21.843710 Si / 1000 Ang^3
#
#
#
# Elastic Constant Matrix: (Units=GPa)
#
#
# Indices 1 2 3 4 5 6 
#
# 1 49.1649 16.4546 20.1875 0.0000 0.0000 0.0000
# 2 16.4546 115.6785 19.4143 0.0000 0.0000 0.0000
# 3 20.1875 19.4143 68.3059 0.0000 0.0000 0.0000
# 4 0.0000 0.0000 0.0000 29.1773 0.0000 0.0000
# 5 0.0000 0.0000 0.0000 0.0000 12.0987 0.0000
# 6 0.0000 0.0000 0.0000 0.0000 0.0000 15.6219
#
#
#
# Elastic Compliance Matrix: (Units=1/GPa)
#
#
# Indices 1 2 3 4 5 6 
#
# 1 0.023721 -0.002308 -0.006355 0.000000 0.000000 0.000000
# 2 -0.002308 0.009302 -0.001962 0.000000 0.000000 0.000000
# 3 -0.006355 -0.001962 0.017076 0.000000 0.000000 0.000000
# 4 0.000000 0.000000 0.000000 0.034273 0.000000 0.000000
# 5 0.000000 0.000000 0.000000 0.000000 0.082653 0.000000
# 6 0.000000 0.000000 0.000000 0.000000 0.000000 0.064013
#
#
# Mechanical properties :
#
#
# Convention : Reuss Voigt Hill
#
# Bulk Modulus (GPa) = 34.66142 38.36243 36.51192
# Shear Modulus (GPa) = 19.09094 23.18578 21.13836
#
# Velocity S-wave (km/s) = 2.95952 3.26151 3.11418
# Velocity P-wave (km/s) = 5.25173 5.63770 5.44813
#
# Compressibility (1/GPa) = 0.02885052
#
# Stress axis : x y z
#
# Youngs Moduli (GPa) = 42.15602 107.50178 58.56250
#
# Poissons Ratio (x) = 0.24808 0.37215
# Poissons Ratio (y) = 0.09728 0.11489
# Poissons Ratio (z) = 0.26789 0.21091
#
# Static dielectric constant tensor:
#      x y z
#    x 1.834060 0.000000 0.000000 
#    y 0.000000 1.863260 0.000000 
#    z 0.000000 0.000000 1.840480 
# 
# From -- ./inp_files/16959.got.cif
#   From: 2010.05.17/outbox.cif.g08.bks.cpg/sg46_9_cif.got.tgz:16959.got - 2010.06.03 19:58:25.
