data_PCOD9380302
_publ_section_title
;
Structure prediction by ZEFSAII (Michael W. Deem and Ramdas Pophale) SiO2 
 PCOD9380302
Probable space group: I M A 2
;
_chemical_formula_sum "Si O2"
_cell_formula_units_Z 64
_cell_length_a 30.226589
_cell_length_b 9.057050
_cell_length_c 10.576191
_cell_angle_alpha 90.000000
_cell_angle_beta 90.000000
_cell_angle_gamma 90.000000
_cell_volume 2895.377475
_symmetry_space_group_name_H-M "I M A 2"
_symmetry_group_IT_number 46
_symmetry_cell_setting 'orthorhombic'
loop_
_space_group_symop_operation_xyz
x,y,z
-x,-y,z
1/2-x,y,z
1/2+x,-y,z
1/2+x,1/2+y,1/2+z
1/2-x,1/2-y,1/2+z
-x,1/2+y,1/2+z
x,1/2-y,1/2+z
loop_
_atom_site_type_symbol
_atom_site_label
_atom_site_fract_x
_atom_site_fract_y
_atom_site_fract_z
Si Si1 0.992251 0.322348 0.746670
Si Si2 0.376415 0.347242 0.923614
Si Si3 0.199866 0.927021 0.980566
Si Si4 0.603038 0.193552 0.662873
Si Si5 0.474644 0.347221 0.016608
Si Si6 0.300238 0.284041 0.599971
Si Si7 0.646107 0.176685 0.405033
Si Si8 0.145636 0.092154 0.769753
O O1 0.023165 0.254568 0.638840
O O2 0.000000 0.500000 0.744767
O O3 0.944156 0.257918 0.707116
O O4 0.002610 0.278256 0.891202
O O5 0.424544 0.376734 0.977957
O O6 0.340764 0.266549 0.012004
O O7 0.353820 0.501711 0.893878
O O8 0.383718 0.230644 0.811407
O O9 0.250000 0.943496 0.935134
O O10 0.187985 0.754301 0.973242
O O11 0.196731 0.036279 0.102305
O O12 0.164045 0.994640 0.884734
O O13 0.609428 0.219724 0.512876
O O14 0.617306 0.022256 0.686239
O O15 0.636190 0.271458 0.762677
O O16 0.500000 0.500000 0.044715
O O17 0.250000 0.253001 0.556227
O O18 0.311125 0.178488 0.717299
#
# Coordination Sequence:
#
# PCOD9380302 Si02
#       8
#     8   8   8   8   8   8   8   8
#     4  11  25  44  69 101 138 181 233 290 347 415
#     4  11  24  41  67  97 136 178 236 279 350 415
#     4   9  21  40  60  95 136 174 226 289 352 417
#     4  11  23  44  67 100 139 182 231 290 355 407
#     4  11  26  44  66 101 139 180 226 289 342 416
#     4  10  21  40  67  98 133 174 229 288 347 418
#     4  11  23  41  67  99 135 181 225 289 345 419
#     4  10  22  40  69  95 132 187 229 291 348 421
#
# _framework density 22.104199000000001
#
# number of rings (size 3 to 8) (size 9 to 14) (size 15 to 20)
#    0.000    1.500    1.250    3.375    3.500    5.500 
#    0.000    0.625    0.000    0.000    0.000    0.000 
#    0.000    0.000    0.000    0.000    0.000    0.000 
#
# Total GULP energy -178190.223942 kJ/mol
# GULP energy per Si atom -5568.444498 kJ/mol
# Density = 2.205389 g / cm^3
# Si number density = 22.104199 Si / 1000 Ang^3
#
#
#
# Elastic Constant Matrix: (Units=GPa)
#
#
# Indices 1 2 3 4 5 6 
#
# 1 95.7599 32.1909 -4.4664 0.0000 0.0000 0.0000
# 2 32.1909 101.0195 5.9315 0.0000 0.0000 0.0000
# 3 -4.4664 5.9315 65.4278 0.0000 0.0000 0.0000
# 4 0.0000 0.0000 0.0000 14.3502 0.0000 0.0000
# 5 0.0000 0.0000 0.0000 0.0000 37.9709 0.0000
# 6 0.0000 0.0000 0.0000 0.0000 0.0000 24.0034
#
#
#
# Elastic Compliance Matrix: (Units=1/GPa)
#
#
# Indices 1 2 3 4 5 6 
#
# 1 0.011781 -0.003822 0.001151 0.000000 0.000000 0.000000
# 2 -0.003822 0.011192 -0.001276 0.000000 0.000000 0.000000
# 3 0.001151 -0.001276 0.015478 0.000000 0.000000 0.000000
# 4 0.000000 0.000000 0.000000 0.069685 0.000000 0.000000
# 5 0.000000 0.000000 0.000000 0.000000 0.026336 0.000000
# 6 0.000000 0.000000 0.000000 0.000000 0.000000 0.041661
#
#
# Mechanical properties :
#
#
# Convention : Reuss Voigt Hill
#
# Bulk Modulus (GPa) = 32.72456 36.61324 34.66890
# Shear Modulus (GPa) = 25.74499 30.50165 28.12332
#
# Velocity S-wave (km/s) = 3.41649 3.71873 3.57081
# Velocity P-wave (km/s) = 5.51362 5.91934 5.72008
#
# Compressibility (1/GPa) = 0.03055809
#
# Stress axis : x y z
#
# Youngs Moduli (GPa) = 84.88109 89.35106 64.60697
#
# Poissons Ratio (x) = 0.34148 -0.07434
# Poissons Ratio (y) = 0.32439 0.08241
# Poissons Ratio (z) = -0.09767 0.11397
#
# Static dielectric constant tensor:
#      x y z
#    x 1.819370 0.000000 0.000000 
#    y 0.000000 1.990590 0.000000 
#    z 0.000000 0.000000 1.926580 
# 
# From -- ./inp_files/13206.got.cif
#   From: 2010.05.17/outbox.cif.g08.bks.cpg/sg46_7_cif.got.tgz:13206.got - 2010.06.03 19:58:25.
