data_PCOD9380484
_publ_section_title
;
Structure prediction by ZEFSAII (Michael W. Deem and Ramdas Pophale) SiO2 
 PCOD9380484
Probable space group: I M A 2
;
_chemical_formula_sum "Si O2"
_cell_formula_units_Z 48
_cell_length_a 8.696878
_cell_length_b 20.756612
_cell_length_c 14.640527
_cell_angle_alpha 90.000000
_cell_angle_beta 90.000000
_cell_angle_gamma 90.000000
_cell_volume 2642.874587
_symmetry_space_group_name_H-M "I M A 2"
_symmetry_group_IT_number 46
_symmetry_cell_setting 'orthorhombic'
loop_
_space_group_symop_operation_xyz
x,y,z
-x,-y,z
1/2-x,y,z
1/2+x,-y,z
1/2+x,1/2+y,1/2+z
1/2-x,1/2-y,1/2+z
-x,1/2+y,1/2+z
x,1/2-y,1/2+z
loop_
_atom_site_type_symbol
_atom_site_label
_atom_site_fract_x
_atom_site_fract_y
_atom_site_fract_z
Si Si1 0.566017 0.621337 0.856440
Si Si2 0.066559 0.802310 0.062392
Si Si3 0.934004 0.432041 0.668926
Si Si4 0.932692 0.817662 0.672096
Si Si5 0.933745 0.429989 0.047386
Si Si6 0.066252 0.765785 0.854857
O O1 0.750000 0.619587 0.859726
O O2 0.505637 0.584184 0.767527
O O3 0.507892 0.694897 0.850149
O O4 0.497811 0.590782 0.948355
O O5 0.250000 0.791532 0.076678
O O6 0.028590 0.872295 0.102524
O O7 0.977280 0.747164 0.117064
O O8 0.036135 0.794793 0.954962
O O9 0.750000 0.435859 0.677445
O O10 0.000000 0.500000 0.636186
O O11 0.750000 0.825492 0.672971
O O12 0.009971 0.876916 0.619482
O O13 0.997434 0.808229 0.773717
O O14 0.750000 0.431424 0.044116
O O15 0.000000 0.500000 0.070288
O O16 0.250000 0.759393 0.842915
#
# Coordination Sequence:
#
# PCOD9380484 Si02
#       6
#     8   8   8   8   8   8
#     4  12  23  37  60  94 128 161 203 255 312 370
#     4  10  22  40  64  88 120 164 208 254 308 365
#     4  11  23  40  61  89 125 165 207 252 311 370
#     4  12  24  39  63  93 125 162 207 256 307 367
#     4  12  25  43  64  90 126 166 207 256 313 374
#     4  11  22  39  63  92 124 162 208 255 307 364
#
# _framework density 18.162043000000001
#
# number of rings (size 3 to 8) (size 9 to 14) (size 15 to 20)
#    0.000    0.667    3.333    6.000    0.000    1.333 
#    0.000    0.833    0.000    2.000    0.000    0.000 
#    0.000    0.000    0.000    0.000    0.000    0.000 
#
# Total GULP energy -134308.278274 kJ/mol
# GULP energy per Si atom -5596.178261 kJ/mol
# Density = 1.812071 g / cm^3
# Si number density = 18.162043 Si / 1000 Ang^3
#
#
#
# Elastic Constant Matrix: (Units=GPa)
#
#
# Indices 1 2 3 4 5 6 
#
# 1 136.9749 63.3596 56.8693 0.0000 0.0000 0.0000
# 2 63.3596 134.8588 43.3122 0.0000 0.0000 0.0000
# 3 56.8693 43.3122 92.1543 0.0000 0.0000 0.0000
# 4 0.0000 0.0000 0.0000 9.2997 0.0000 0.0000
# 5 0.0000 0.0000 0.0000 0.0000 28.5631 0.0000
# 6 0.0000 0.0000 0.0000 0.0000 0.0000 32.7377
#
#
#
# Elastic Compliance Matrix: (Units=1/GPa)
#
#
# Indices 1 2 3 4 5 6 
#
# 1 0.011091 -0.003548 -0.005177 0.000000 0.000000 0.000000
# 2 -0.003548 0.009869 -0.002449 0.000000 0.000000 0.000000
# 3 -0.005177 -0.002449 0.015197 0.000000 0.000000 0.000000
# 4 0.000000 0.000000 0.000000 0.107530 0.000000 0.000000
# 5 0.000000 0.000000 0.000000 0.000000 0.035010 0.000000
# 6 0.000000 0.000000 0.000000 0.000000 0.000000 0.030546
#
#
# Mechanical properties :
#
#
# Convention : Reuss Voigt Hill
#
# Bulk Modulus (GPa) = 72.41448 76.78561 74.60004
# Shear Modulus (GPa) = 21.16913 27.48324 24.32618
#
# Velocity S-wave (km/s) = 3.41775 3.89424 3.66375
# Velocity P-wave (km/s) = 7.45202 7.91138 7.68513
#
# Compressibility (1/GPa) = 0.01380939
#
# Stress axis : x y z
#
# Youngs Moduli (GPa) = 90.16129 101.33138 65.80316
#
# Poissons Ratio (x) = 0.35955 0.34065
# Poissons Ratio (y) = 0.31992 0.16112
# Poissons Ratio (z) = 0.46675 0.24811
#
# Static dielectric constant tensor:
#      x y z
#    x 1.606800 0.000000 0.000000 
#    y 0.000000 1.604910 0.000000 
#    z 0.000000 0.000000 1.600300 
# 
# From -- ./inp_files/13896.got.cif
#   From: 2010.05.17/outbox.cif.g08.bks.cpg/sg46_7_cif.got.tgz:13896.got - 2010.06.03 19:58:25.
