data_PCOD9380200
_publ_section_title
;
Structure prediction by ZEFSAII (Michael W. Deem and Ramdas Pophale) SiO2 
 PCOD9380200
Probable space group: I M A 2
;
_chemical_formula_sum "Si O2"
_cell_formula_units_Z 64
_cell_length_a 8.931719
_cell_length_b 25.463961
_cell_length_c 15.102231
_cell_angle_alpha 90.000000
_cell_angle_beta 90.000000
_cell_angle_gamma 90.000000
_cell_volume 3434.805270
_symmetry_space_group_name_H-M "I M A 2"
_symmetry_group_IT_number 46
_symmetry_cell_setting 'orthorhombic'
loop_
_space_group_symop_operation_xyz
x,y,z
-x,-y,z
1/2-x,y,z
1/2+x,-y,z
1/2+x,1/2+y,1/2+z
1/2-x,1/2-y,1/2+z
-x,1/2+y,1/2+z
x,1/2-y,1/2+z
loop_
_atom_site_type_symbol
_atom_site_label
_atom_site_fract_x
_atom_site_fract_y
_atom_site_fract_z
Si Si1 0.570637 0.647397 0.777120
Si Si2 0.575626 0.776641 0.597565
Si Si3 0.929893 0.604635 0.065467
Si Si4 0.428501 0.555998 0.893791
Si Si5 0.927354 0.135891 0.896797
Si Si6 0.576156 0.733786 0.309664
Si Si7 0.072185 0.832580 0.088353
Si Si8 0.928678 0.942654 0.758220
O O1 0.750000 0.641300 0.780663
O O2 0.490283 0.601225 0.829422
O O3 0.535725 0.704940 0.818153
O O4 0.515898 0.649795 0.675691
O O5 0.750000 0.766098 0.575068
O O6 0.533705 0.833422 0.559976
O O7 0.567645 0.779269 0.704748
O O8 0.475632 0.727657 0.569761
O O9 0.750000 0.599470 0.052197
O O10 0.965557 0.584133 0.163759
O O11 0.016064 0.572007 0.991756
O O12 0.500000 0.500000 0.870424
O O13 0.250000 0.553113 0.890379
O O14 0.750000 0.129020 0.886766
O O15 0.974693 0.193232 0.861612
O O16 0.011446 0.093672 0.836961
O O17 0.964380 0.134207 0.000888
O O18 0.750000 0.726969 0.336379
O O19 0.250000 0.834999 0.104469
O O20 0.750000 0.946298 0.763587
O O21 0.000000 0.000000 0.762080
#
# Coordination Sequence:
#
# PCOD9380200 Si02
#       8
#     8   8   8   8   8   8   8   8
#     4  10  22  42  65  89 118 158 204 252 307 362
#     4   9  18  35  57  85 120 161 202 241 293 356
#     4  10  21  39  61  89 123 161 203 247 297 362
#     4  12  26  43  64  90 121 158 203 254 306 363
#     4  11  23  37  57  88 125 161 202 248 299 356
#     4   9  18  35  58  86 118 156 198 241 294 355
#     4  10  22  38  57  88 126 161 201 252 304 359
#     4  11  23  41  63  87 120 160 205 251 301 355
#
# _framework density 18.632788000000001
#
# number of rings (size 3 to 8) (size 9 to 14) (size 15 to 20)
#    0.000    1.750    1.250    3.750    1.750    7.000 
#    0.000    0.625    0.000    3.000    0.000    0.000 
#    0.000    0.000    0.000    0.000    0.000    0.000 
#
# Total GULP energy -178850.777238 kJ/mol
# GULP energy per Si atom -5589.086789 kJ/mol
# Density = 1.859038 g / cm^3
# Si number density = 18.632788 Si / 1000 Ang^3
#
#
#
# Elastic Constant Matrix: (Units=GPa)
#
#
# Indices 1 2 3 4 5 6 
#
# 1 65.2636 51.1572 43.9520 0.0000 0.0000 0.0000
# 2 51.1572 114.2098 48.8456 0.0000 0.0000 0.0000
# 3 43.9520 48.8456 74.9497 0.0000 0.0001 0.0000
# 4 0.0000 0.0000 0.0000 26.2380 0.0000 0.0000
# 5 0.0000 0.0000 0.0001 0.0000 39.2655 0.0000
# 6 0.0000 0.0000 0.0000 0.0000 0.0000 32.6145
#
#
#
# Elastic Compliance Matrix: (Units=1/GPa)
#
#
# Indices 1 2 3 4 5 6 
#
# 1 0.029997 -0.008198 -0.012248 0.000000 0.000000 0.000000
# 2 -0.008198 0.014380 -0.004564 0.000000 0.000000 0.000000
# 3 -0.012248 -0.004564 0.023499 0.000000 0.000000 0.000000
# 4 0.000000 0.000000 0.000000 0.038113 0.000000 0.000000
# 5 0.000000 0.000000 0.000000 0.000000 0.025468 0.000000
# 6 0.000000 0.000000 0.000000 0.000000 0.000000 0.030661
#
#
# Mechanical properties :
#
#
# Convention : Reuss Voigt Hill
#
# Bulk Modulus (GPa) = 56.00417 60.25915 58.13166
# Shear Modulus (GPa) = 22.92630 26.98815 24.95723
#
# Velocity S-wave (km/s) = 3.51155 3.80994 3.66379
# Velocity P-wave (km/s) = 6.82373 7.19478 7.01171
#
# Compressibility (1/GPa) = 0.01785581
#
# Stress axis : x y z
#
# Youngs Moduli (GPa) = 33.33650 69.54160 42.55454
#
# Poissons Ratio (x) = 0.57011 0.52121
# Poissons Ratio (y) = 0.27330 0.19422
# Poissons Ratio (z) = 0.40831 0.31739
#
# Static dielectric constant tensor:
#      x y z
#    x 1.616050 0.000000 0.000000 
#    y 0.000000 1.622030 0.000000 
#    z 0.000000 0.000000 1.649290 
# 
# From -- ./inp_files/14509.got.cif
#   From: 2010.05.17/outbox.cif.g08.bks.cpg/sg46_8_cif.got.tgz:14509.got - 2010.06.03 19:58:25.
