data_PCOD9380577
_publ_section_title
;
Structure prediction by ZEFSAII (Michael W. Deem and Ramdas Pophale) SiO2 
 PCOD9380577
Probable space group: I M A 2
;
_chemical_formula_sum "Si O2"
_cell_formula_units_Z 60
_cell_length_a 9.244067
_cell_length_b 17.410843
_cell_length_c 16.991343
_cell_angle_alpha 90.000000
_cell_angle_beta 90.000000
_cell_angle_gamma 90.000000
_cell_volume 2734.705669
_symmetry_space_group_name_H-M "I M A 2"
_symmetry_group_IT_number 46
_symmetry_cell_setting 'orthorhombic'
loop_
_space_group_symop_operation_xyz
x,y,z
-x,-y,z
1/2-x,y,z
1/2+x,-y,z
1/2+x,1/2+y,1/2+z
1/2-x,1/2-y,1/2+z
-x,1/2+y,1/2+z
x,1/2-y,1/2+z
loop_
_atom_site_type_symbol
_atom_site_label
_atom_site_fract_x
_atom_site_fract_y
_atom_site_fract_z
Si Si1 0.032052 0.393215 0.849550
Si Si2 0.580997 0.922595 0.591099
Si Si3 0.077129 0.668752 0.228994
Si Si4 0.579434 0.151421 0.189624
Si Si5 0.250000 0.531236 0.885969
Si Si6 0.091547 0.281163 0.971032
Si Si7 0.076271 0.422064 0.359567
Si Si8 0.920499 0.135547 0.008412
O O1 0.129984 0.463128 0.875012
O O2 0.088578 0.312959 0.882917
O O3 0.012458 0.391052 0.755823
O O4 0.876107 0.404092 0.887632
O O5 0.750000 0.939590 0.609567
O O6 0.494343 0.887066 0.664210
O O7 0.581556 0.856954 0.524993
O O8 0.500000 0.000000 0.564938
O O9 0.250000 0.655841 0.236929
O O10 0.057108 0.756931 0.201061
O O11 0.993826 0.646763 0.308841
O O12 0.750000 0.136198 0.205476
O O13 0.549207 0.125102 0.100966
O O14 0.250000 0.244657 0.986575
O O15 0.963952 0.223550 0.990806
O O16 0.250000 0.424692 0.353475
O O17 0.000000 0.500000 0.329313
O O18 0.021282 0.411243 0.448920
O O19 0.750000 0.121401 0.993710
#
# Coordination Sequence:
#
# PCOD9380577 Si02
#       8
#     8   8   8   8   4   8   8   8
#     4  11  22  43  63  95 127 176 217 271 325 392
#     4  11  24  39  60  94 134 176 218 271 331 394
#     4  11  22  43  70  97 130 172 223 275 333 397
#     4  10  22  43  67  96 130 172 221 269 328 395
#     4  10  24  40  64  92 132 166 222 270 326 386
#     4  11  24  41  64  97 135 174 220 268 328 394
#     4  12  26  47  71 100 133 175 224 280 339 399
#     4  11  24  45  69 100 134 173 221 275 329 399
#
# _framework density 21.940204000000001
#
# number of rings (size 3 to 8) (size 9 to 14) (size 15 to 20)
#    0.000    1.067    2.667    3.600    2.800    1.600 
#    7.200    0.000    0.000    0.000    0.000    0.000 
#    0.000    0.000    0.000    0.000    0.000    0.000 
#
# Total GULP energy -167215.487488 kJ/mol
# GULP energy per Si atom -5573.849583 kJ/mol
# Density = 2.189027 g / cm^3
# Si number density = 21.940204 Si / 1000 Ang^3
#
#
#
# Elastic Constant Matrix: (Units=GPa)
#
#
# Indices 1 2 3 4 5 6 
#
# 1 167.4496 20.9684 25.1660 0.0000 0.0000 0.0000
# 2 20.9684 43.9747 -5.3760 0.0000 0.0000 0.0000
# 3 25.1660 -5.3760 91.4057 0.0000 0.0000 0.0000
# 4 0.0000 0.0000 0.0000 16.0405 0.0000 0.0000
# 5 0.0000 0.0000 0.0000 0.0000 -2.1493 0.0000
# 6 0.0000 0.0000 0.0000 0.0000 0.0000 34.7075
#
#
#
# Elastic Compliance Matrix: (Units=1/GPa)
#
#
# Indices 1 2 3 4 5 6 
#
# 1 0.006712 -0.003451 -0.002051 0.000000 0.000000 0.000000
# 2 -0.003451 0.024680 0.002402 0.000000 0.000000 0.000000
# 3 -0.002051 0.002402 0.011646 0.000000 0.000000 0.000000
# 4 0.000000 0.000000 0.000000 0.062342 0.000000 0.000000
# 5 0.000000 0.000000 0.000000 0.000000 -0.465269 0.000000
# 6 0.000000 0.000000 0.000000 0.000000 0.000000 0.028812
#
#
# Mechanical properties :
#
#
# Convention : Reuss Voigt Hill
#
# Bulk Modulus (GPa) = 27.14666 42.70521 34.92594
# Shear Modulus (GPa) = -15.99510 27.19117 5.59804
#
# Velocity S-wave (km/s) = -2.70299 3.52423 1.59907
# Velocity P-wave (km/s) = 1.63045 6.00557 4.40030
#
# Compressibility (1/GPa) = 0.03683694
#
# Stress axis : x y z
#
# Youngs Moduli (GPa) = 148.97805 40.51907 85.86485
#
# Poissons Ratio (x) = 0.13985 0.17611
# Poissons Ratio (y) = 0.51419 -0.20623
# Poissons Ratio (z) = 0.30556 -0.09732
#
# Static dielectric constant tensor:
#      x y z
#    x 1.816120 0.000000 0.000000 
#    y 0.000000 1.810870 0.000000 
#    z 0.000000 0.000000 1.864190 
# 
# From -- ./inp_files/18381.got.cif
#   From: 2010.05.17/outbox.cif.g08.bks.cpg/sg46_10_cif.got.tgz:18381.got - 2010.06.03 19:58:25.
