data_PCOD9380654
_publ_section_title
;
Structure prediction by ZEFSAII (Michael W. Deem and Ramdas Pophale) SiO2 
 PCOD9380654
Probable space group: I M A 2
;
_chemical_formula_sum "Si O2"
_cell_formula_units_Z 64
_cell_length_a 20.701694
_cell_length_b 16.535926
_cell_length_c 9.514021
_cell_angle_alpha 90.000000
_cell_angle_beta 90.000000
_cell_angle_gamma 90.000000
_cell_volume 3256.855653
_symmetry_space_group_name_H-M "I M A 2"
_symmetry_group_IT_number 46
_symmetry_cell_setting 'orthorhombic'
loop_
_space_group_symop_operation_xyz
x,y,z
-x,-y,z
1/2-x,y,z
1/2+x,-y,z
1/2+x,1/2+y,1/2+z
1/2-x,1/2-y,1/2+z
-x,1/2+y,1/2+z
x,1/2-y,1/2+z
loop_
_atom_site_type_symbol
_atom_site_label
_atom_site_fract_x
_atom_site_fract_y
_atom_site_fract_z
Si Si1 0.366393 0.207193 0.456070
Si Si2 0.438805 0.888840 0.003252
Si Si3 0.655529 0.645756 0.253388
Si Si4 0.679036 0.997173 0.959413
Si Si5 0.521499 0.208137 0.511039
Si Si6 0.942652 0.439493 0.821021
Si Si7 0.511412 0.589704 0.234695
Si Si8 0.826749 0.947856 0.277911
O O1 0.341844 0.285613 0.372532
O O2 0.328430 0.185833 0.601408
O O3 0.443941 0.220350 0.482847
O O4 0.354638 0.132663 0.349759
O O5 0.451122 0.922547 0.156770
O O6 0.440608 0.791902 0.010429
O O7 0.495813 0.910615 0.897879
O O8 0.375384 0.934315 0.944854
O O9 0.681841 0.565414 0.329825
O O10 0.584002 0.615865 0.217730
O O11 0.750000 0.034644 0.975678
O O12 0.665702 0.950499 0.107729
O O13 0.548060 0.145072 0.398081
O O14 0.528527 0.159380 0.657145
O O15 0.872559 0.480802 0.837745
O O16 0.000000 0.500000 0.865225
O O17 0.500000 0.500000 0.178121
O O18 0.750000 0.955652 0.307974
#
# Coordination Sequence:
#
# PCOD9380654 Si02
#       8
#     8   8   8   8   8   8   8   8
#     4  11  23  37  61  93 129 165 202 254 318 375
#     4  11  22  37  61  92 123 159 205 260 313 366
#     4  11  23  37  61  91 128 162 205 252 309 377
#     4  10  23  43  64  85 119 169 217 254 303 372
#     4  11  23  36  58  93 131 157 201 262 317 367
#     4  11  22  37  65  90 121 164 211 256 310 372
#     4  11  21  35  57  90 127 155 197 254 317 370
#     4  10  23  42  62  88 124 165 212 261 312 376
#
# _framework density 19.650856999999998
#
# number of rings (size 3 to 8) (size 9 to 14) (size 15 to 20)
#    0.000    1.250    3.750    2.250    5.250    1.000 
#    0.000    0.625    0.000    2.250    0.000    0.000 
#    0.000    0.000    0.000    0.000    0.000    0.000 
#
# Total GULP energy -178501.878368 kJ/mol
# GULP energy per Si atom -5578.183699 kJ/mol
# Density = 1.960613 g / cm^3
# Si number density = 19.650857 Si / 1000 Ang^3
#
#
#
# Elastic Constant Matrix: (Units=GPa)
#
#
# Indices 1 2 3 4 5 6 
#
# 1 54.7844 33.5692 14.2976 0.0000 0.0000 0.0000
# 2 33.5692 141.2966 27.8186 0.0000 0.0000 0.0000
# 3 14.2976 27.8186 44.3987 0.0000 0.0000 0.0000
# 4 0.0000 0.0000 0.0000 43.0113 0.0000 0.0000
# 5 0.0000 0.0000 0.0000 0.0000 19.5206 0.0000
# 6 0.0000 0.0000 0.0000 0.0000 0.0000 -38.8682
#
#
#
# Elastic Compliance Matrix: (Units=1/GPa)
#
#
# Indices 1 2 3 4 5 6 
#
# 1 0.022080 -0.004387 -0.004362 0.000000 0.000000 0.000000
# 2 -0.004387 0.008945 -0.004192 0.000000 0.000000 0.000000
# 3 -0.004362 -0.004192 0.026554 0.000000 0.000000 0.000000
# 4 0.000000 0.000000 0.000000 0.023250 0.000000 0.000000
# 5 0.000000 0.000000 0.000000 0.000000 0.051228 0.000000
# 6 0.000000 0.000000 0.000000 0.000000 0.000000 -0.025728
#
#
# Mechanical properties :
#
#
# Convention : Reuss Voigt Hill
#
# Bulk Modulus (GPa) = 31.54763 43.53893 37.54328
# Shear Modulus (GPa) = 35.02012 15.71904 25.36958
#
# Velocity S-wave (km/s) = 4.22609 2.83135 3.59697
# Velocity P-wave (km/s) = 6.31681 5.73525 6.03304
#
# Compressibility (1/GPa) = 0.03169810
#
# Stress axis : x y z
#
# Youngs Moduli (GPa) = 45.29026 111.79614 37.65897
#
# Poissons Ratio (x) = 0.49045 0.16425
# Poissons Ratio (y) = 0.19869 0.15786
# Poissons Ratio (z) = 0.19754 0.46862
#
# Static dielectric constant tensor:
#      x y z
#    x 1.687840 0.000000 0.000000 
#    y 0.000000 1.676700 0.000000 
#    z 0.000000 0.000000 1.731080 
# 
# From -- ./inp_files/7967.got.cif
#   From: 2010.05.17/outbox.cif.g08.bks.cpg/sg46_4_cif.got.tgz:7967.got - 2010.06.03 19:58:25.
