data_PCOD9380009
_publ_section_title
;
Structure prediction by ZEFSAII (Michael W. Deem and Ramdas Pophale) SiO2 
 PCOD9380009
Probable space group: I M A 2
;
_chemical_formula_sum "Si O2"
_cell_formula_units_Z 64
_cell_length_a 8.500610
_cell_length_b 25.736119
_cell_length_c 15.387251
_cell_angle_alpha 90.000000
_cell_angle_beta 90.000000
_cell_angle_gamma 90.000000
_cell_volume 3366.310609
_symmetry_space_group_name_H-M "I M A 2"
_symmetry_group_IT_number 46
_symmetry_cell_setting 'orthorhombic'
loop_
_space_group_symop_operation_xyz
x,y,z
-x,-y,z
1/2-x,y,z
1/2+x,-y,z
1/2+x,1/2+y,1/2+z
1/2-x,1/2-y,1/2+z
-x,1/2+y,1/2+z
x,1/2-y,1/2+z
loop_
_atom_site_type_symbol
_atom_site_label
_atom_site_fract_x
_atom_site_fract_y
_atom_site_fract_z
Si Si1 0.438377 0.164724 0.531480
Si Si2 0.559956 0.233957 0.248278
Si Si3 0.061295 0.058674 0.206225
Si Si4 0.061975 0.943517 0.846734
Si Si5 0.438291 0.865312 0.354290
Si Si6 0.440162 0.849753 0.724778
Si Si7 0.439634 0.280582 0.554145
Si Si8 0.440147 0.106015 0.019922
O O1 0.250000 0.164289 0.532488
O O2 0.499578 0.130612 0.452005
O O3 0.499696 0.148101 0.625996
O O4 0.493749 0.224857 0.518150
O O5 0.750000 0.232993 0.245081
O O6 0.507341 0.190710 0.316510
O O7 0.510102 0.293590 0.263440
O O8 0.494924 0.218241 0.153988
O O9 0.250000 0.058846 0.208636
O O10 0.012062 0.085563 0.115188
O O11 0.998437 0.091476 0.287553
O O12 0.000000 0.000000 0.208348
O O13 0.250000 0.944103 0.844557
O O14 0.004681 0.897840 0.782654
O O15 0.000000 0.000000 0.821732
O O16 0.007188 0.929041 0.943543
O O17 0.250000 0.866241 0.355107
O O18 0.250000 0.850298 0.723009
O O19 0.250000 0.280693 0.552784
O O20 0.493247 0.333925 0.509645
O O21 0.250000 0.104457 0.015951
#
# Coordination Sequence:
#
# PCOD9380009 Si02
#       8
#     8   8   8   8   8   8   8   8
#     4  10  21  36  58  87 120 156 193 239 295 350
#     4   9  18  33  55  83 114 149 189 232 283 344
#     4  11  23  40  61  84 118 157 199 246 292 347
#     4  11  24  40  61  85 115 152 197 246 292 346
#     4  11  22  36  58  87 120 157 197 241 292 348
#     4   9  20  40  60  83 114 151 195 244 295 348
#     4   9  18  34  54  83 119 154 189 229 284 344
#     4  10  21  37  58  86 120 156 193 236 286 346
#
# _framework density 19.011913
#
# number of rings (size 3 to 8) (size 9 to 14) (size 15 to 20)
#    0.000    2.000    1.250    1.875    1.750    4.500 
#    0.000    0.625    0.000    1.500    0.000    0.000 
#    0.000    0.000    0.000    0.000    0.000    0.000 
#
# Total GULP energy -178690.081073 kJ/mol
# GULP energy per Si atom -5584.065034 kJ/mol
# Density = 1.896864 g / cm^3
# Si number density = 19.011913 Si / 1000 Ang^3
#
#
#
# Elastic Constant Matrix: (Units=GPa)
#
#
# Indices 1 2 3 4 5 6 
#
# 1 18.0731 21.7481 13.6917 0.0000 0.0000 0.0000
# 2 21.7481 120.9726 52.3272 0.0000 0.0000 0.0000
# 3 13.6917 52.3272 81.5443 0.0000 0.0000 0.0000
# 4 0.0000 0.0000 0.0000 30.4193 0.0000 0.0000
# 5 0.0000 0.0000 0.0000 0.0000 23.9074 0.0000
# 6 0.0000 0.0000 0.0000 0.0000 0.0000 22.4347
#
#
#
# Elastic Compliance Matrix: (Units=1/GPa)
#
#
# Indices 1 2 3 4 5 6 
#
# 1 0.072193 -0.010708 -0.005251 0.000000 0.000000 0.000000
# 2 -0.010708 0.013031 -0.006564 0.000000 0.000000 0.000000
# 3 -0.005251 -0.006564 0.017357 0.000000 0.000000 0.000000
# 4 0.000000 0.000000 0.000000 0.032874 0.000000 0.000000
# 5 0.000000 0.000000 0.000000 0.000000 0.041828 0.000000
# 6 0.000000 0.000000 0.000000 0.000000 0.000000 0.044574
#
#
# Mechanical properties :
#
#
# Convention : Reuss Voigt Hill
#
# Bulk Modulus (GPa) = 17.38015 44.01378 30.69696
# Shear Modulus (GPa) = 17.47765 24.20714 20.84240
#
# Velocity S-wave (km/s) = 3.03529 3.57215 3.31461
# Velocity P-wave (km/s) = 4.63093 6.34150 5.55248
#
# Compressibility (1/GPa) = 0.05753691
#
# Stress axis : x y z
#
# Youngs Moduli (GPa) = 13.85168 76.74280 57.61390
#
# Poissons Ratio (x) = 0.82173 0.30250
# Poissons Ratio (y) = 0.14832 0.37817
# Poissons Ratio (z) = 0.07273 0.50373
#
# Static dielectric constant tensor:
#      x y z
#    x 1.638260 0.000000 0.000000 
#    y 0.000000 1.671580 0.000000 
#    z 0.000000 0.000000 1.635480 
# 
# From -- ./inp_files/14460.got.cif
#   From: 2010.05.17/outbox.cif.g08.bks.cpg/sg46_8_cif.got.tgz:14460.got - 2010.06.03 19:58:25.
