data_PCOD9380831
_publ_section_title
;
Structure prediction by ZEFSAII (Michael W. Deem and Ramdas Pophale) SiO2 
 PCOD9380831
Probable space group: I M A 2
;
_chemical_formula_sum "Si O2"
_cell_formula_units_Z 48
_cell_length_a 15.490890
_cell_length_b 8.026320
_cell_length_c 14.783848
_cell_angle_alpha 90.000000
_cell_angle_beta 90.000000
_cell_angle_gamma 90.000000
_cell_volume 1838.147379
_symmetry_space_group_name_H-M "I M A 2"
_symmetry_group_IT_number 46
_symmetry_cell_setting 'orthorhombic'
loop_
_space_group_symop_operation_xyz
x,y,z
-x,-y,z
1/2-x,y,z
1/2+x,-y,z
1/2+x,1/2+y,1/2+z
1/2-x,1/2-y,1/2+z
-x,1/2+y,1/2+z
x,1/2-y,1/2+z
loop_
_atom_site_type_symbol
_atom_site_label
_atom_site_fract_x
_atom_site_fract_y
_atom_site_fract_z
Si Si1 0.598955 0.976081 0.246840
Si Si2 0.648207 0.349564 0.584029
Si Si3 0.354059 0.152698 0.865105
Si Si4 0.650504 0.319885 0.915586
Si Si5 0.851311 0.836309 0.533770
Si Si6 0.356288 0.533740 0.198972
O O1 0.641929 0.991392 0.148318
O O2 0.616174 0.123631 0.319342
O O3 0.500000 0.000000 0.226170
O O4 0.627797 0.813071 0.301374
O O5 0.750000 0.320644 0.571229
O O6 0.612239 0.319629 0.483347
O O7 0.615517 0.202046 0.649739
O O8 0.250000 0.137551 0.875326
O O9 0.388776 0.199960 0.964485
O O10 0.384122 0.001537 0.801487
O O11 0.750000 0.278293 0.896547
O O12 0.646174 0.489010 0.976786
O O13 0.750000 0.798345 0.546187
O O14 0.887648 0.887244 0.631032
O O15 0.250000 0.532693 0.198667
#
# Coordination Sequence:
#
# PCOD9380831 Si02
#       6
#     8   8   8   8   8   8
#     4  11  21  33  49  77 111 142 175 219 280 338
#     4   9  17  33  57  80 102 134 181 230 269 318
#     4   9  16  29  49  70  95 131 173 217 263 316
#     4   8  15  31  55  76  96 133 182 223 261 317
#     4   7  11  22  42  68  93 116 151 199 249 301
#     4   8  14  26  47  73  95 120 163 216 260 300
#
# _framework density 26.113249
#
# number of rings (size 3 to 8) (size 9 to 14) (size 15 to 20)
#    0.000    3.333    0.000    4.500    0.000    0.000 
#    0.000    7.500    0.000    6.000    0.000    0.000 
#    0.000    0.000    0.000    0.000    0.000    0.000 
#
# Total GULP energy -133965.992365 kJ/mol
# GULP energy per Si atom -5581.916349 kJ/mol
# Density = 2.605381 g / cm^3
# Si number density = 26.113249 Si / 1000 Ang^3
#
#
#
# Elastic Constant Matrix: (Units=GPa)
#
#
# Indices 1 2 3 4 5 6 
#
# 1 27.5269 -5.2475 8.5078 0.0000 0.0000 0.0000
# 2 -5.2475 90.1816 11.4324 0.0000 0.0000 0.0000
# 3 8.5078 11.4324 174.9926 0.0000 0.0000 0.0000
# 4 0.0000 0.0000 0.0000 49.9355 0.0000 0.0000
# 5 0.0000 0.0000 0.0000 0.0000 23.0665 0.0000
# 6 0.0000 0.0000 0.0000 0.0000 0.0000 -5.7221
#
#
#
# Elastic Compliance Matrix: (Units=1/GPa)
#
#
# Indices 1 2 3 4 5 6 
#
# 1 0.037402 0.002427 -0.001977 0.000000 0.000000 0.000000
# 2 0.002427 0.011339 -0.000859 0.000000 0.000000 0.000000
# 3 -0.001977 -0.000859 0.005867 0.000000 0.000000 0.000000
# 4 0.000000 0.000000 0.000000 0.020026 0.000000 0.000000
# 5 0.000000 0.000000 0.000000 0.000000 0.043353 0.000000
# 6 0.000000 0.000000 0.000000 0.000000 0.000000 -0.174760
#
#
# Mechanical properties :
#
#
# Convention : Reuss Voigt Hill
#
# Bulk Modulus (GPa) = 18.59087 35.78738 27.18913
# Shear Modulus (GPa) = -131.48791 31.98986 -49.74903
#
# Velocity S-wave (km/s) = -7.10368 3.50386 -4.36951
# Velocity P-wave (km/s) = 7.75553 5.48669 3.87585
#
# Compressibility (1/GPa) = 0.05378984
#
# Stress axis : x y z
#
# Youngs Moduli (GPa) = 26.73668 88.19259 170.45227
#
# Poissons Ratio (x) = -0.21404 0.33698
# Poissons Ratio (y) = -0.06489 0.14638
# Poissons Ratio (z) = 0.05286 0.07574
#
# Static dielectric constant tensor:
#      x y z
#    x 1.895610 0.000000 0.000000 
#    y 0.000000 2.254380 0.000000 
#    z 0.000000 0.000000 2.056260 
# 
# From -- ./inp_files/16551.got.cif
#   From: 2010.05.17/outbox.cif.g08.bks.cpg/sg46_9_cif.got.tgz:16551.got - 2010.06.03 19:58:25.
