data_PCOD9380184
_publ_section_title
;
Structure prediction by ZEFSAII (Michael W. Deem and Ramdas Pophale) SiO2 
 PCOD9380184
Probable space group: I M A 2
;
_chemical_formula_sum "Si O2"
_cell_formula_units_Z 52
_cell_length_a 22.199469
_cell_length_b 22.229388
_cell_length_c 5.015625
_cell_angle_alpha 90.000000
_cell_angle_beta 90.000000
_cell_angle_gamma 90.000000
_cell_volume 2475.113684
_symmetry_space_group_name_H-M "I M A 2"
_symmetry_group_IT_number 46
_symmetry_cell_setting 'orthorhombic'
loop_
_space_group_symop_operation_xyz
x,y,z
-x,-y,z
1/2-x,y,z
1/2+x,-y,z
1/2+x,1/2+y,1/2+z
1/2-x,1/2-y,1/2+z
-x,1/2+y,1/2+z
x,1/2-y,1/2+z
loop_
_atom_site_type_symbol
_atom_site_label
_atom_site_fract_x
_atom_site_fract_y
_atom_site_fract_z
Si Si1 0.677515 0.286346 0.978870
Si Si2 0.362526 0.578434 0.097396
Si Si3 0.120431 0.290473 0.242962
Si Si4 0.502207 0.934820 0.500230
Si Si5 0.250000 0.288650 0.362932
Si Si6 0.926425 0.594226 0.503390
Si Si7 0.321669 0.500161 0.596892
O O1 0.750000 0.283992 0.974023
O O2 0.655519 0.262226 0.695232
O O3 0.661305 0.354233 0.052732
O O4 0.434538 0.583463 0.066383
O O5 0.341832 0.548803 0.374192
O O6 0.336857 0.532725 0.875180
O O7 0.115207 0.266223 0.944476
O O8 0.187601 0.317720 0.282827
O O9 0.078742 0.341970 0.354961
O O10 0.537564 0.896907 0.278529
O O11 0.500000 0.000000 0.364171
O O12 0.538773 0.942481 0.774027
O O13 0.250000 0.228749 0.173339
O O14 0.864372 0.558597 0.565188
O O15 0.250000 0.487371 0.576292
#
# Coordination Sequence:
#
# PCOD9380184 Si02
#       7
#     8   8   8   8   4   8   8
#     4  10  21  39  62  90 125 163 202 249 311 380
#     4  12  24  42  66  92 128 165 212 256 312 378
#     4  10  21  39  59  86 122 161 204 252 306 364
#     4  12  23  44  65  91 123 171 213 253 306 379
#     4   8  16  32  56  80 110 158 200 236 292 360
#     4  12  24  41  65  93 124 165 213 256 313 370
#     4  12  24  39  64  98 128 157 201 266 322 368
#
# _framework density 21.009136999999999
#
# number of rings (size 3 to 8) (size 9 to 14) (size 15 to 20)
#    0.000    0.923    3.077    4.615    1.077    1.231 
#    0.000    4.615    0.000    0.000    0.000    0.000 
#    0.000    0.000    0.000    0.000    0.000    0.000 
#
# Total GULP energy -145182.739581 kJ/mol
# GULP energy per Si atom -5583.951522 kJ/mol
# Density = 2.096132 g / cm^3
# Si number density = 21.009137 Si / 1000 Ang^3
#
#
#
# Elastic Constant Matrix: (Units=GPa)
#
#
# Indices 1 2 3 4 5 6 
#
# 1 91.5271 -5.0808 8.7342 0.0000 0.0000 0.0000
# 2 -5.0808 33.6271 -22.1061 0.0000 0.0000 0.0000
# 3 8.7342 -22.1061 66.2919 0.0000 0.0000 0.0000
# 4 0.0000 0.0000 0.0000 21.7529 0.0000 0.0000
# 5 0.0000 0.0000 0.0000 0.0000 -424.3972 0.0000
# 6 0.0000 0.0000 0.0000 0.0000 0.0000 25.0630
#
#
#
# Elastic Compliance Matrix: (Units=1/GPa)
#
#
# Indices 1 2 3 4 5 6 
#
# 1 0.011087 0.000916 -0.001155 0.000000 0.000000 0.000000
# 2 0.000916 0.038163 0.012605 0.000000 0.000000 0.000000
# 3 -0.001155 0.012605 0.019440 0.000000 0.000000 0.000000
# 4 0.000000 0.000000 0.000000 0.045971 0.000000 0.000000
# 5 0.000000 0.000000 0.000000 0.000000 -0.002356 0.000000
# 6 0.000000 0.000000 0.000000 0.000000 0.000000 0.039899
#
#
# Mechanical properties :
#
#
# Convention : Reuss Voigt Hill
#
# Bulk Modulus (GPa) = 10.70419 17.17118 13.93768
# Shear Modulus (GPa) = 31.52316 -61.52301 -14.99992
#
# Velocity S-wave (km/s) = 3.87777 -5.41733 -2.67492
# Velocity P-wave (km/s) = 5.01553 5.56229 1.70052
#
# Compressibility (1/GPa) = 0.09342139
#
# Stress axis : x y z
#
# Youngs Moduli (GPa) = 90.19724 26.20344 51.43904
#
# Poissons Ratio (x) = -0.02399 0.05943
# Poissons Ratio (y) = -0.08258 -0.64841
# Poissons Ratio (z) = 0.10421 -0.33030
#
# Static dielectric constant tensor:
#      x y z
#    x 2.237700 0.000000 0.000000 
#    y 0.000000 1.785100 0.000000 
#    z 0.000000 0.000000 1.743590 
# 
# From -- ./inp_files/2079.got.cif
#   From: 2010.05.17/outbox.cif.g08.bks.cpg/sg46_2_cif.got.tgz:2079.got - 2010.06.03 19:58:25.
