data_PCOD9380559
_publ_section_title
;
Structure prediction by ZEFSAII (Michael W. Deem and Ramdas Pophale) SiO2 
 PCOD9380559
Probable space group: I M A 2
;
_chemical_formula_sum "Si O2"
_cell_formula_units_Z 60
_cell_length_a 9.305821
_cell_length_b 19.582834
_cell_length_c 15.698103
_cell_angle_alpha 90.000000
_cell_angle_beta 90.000000
_cell_angle_gamma 90.000000
_cell_volume 2860.733563
_symmetry_space_group_name_H-M "I M A 2"
_symmetry_group_IT_number 46
_symmetry_cell_setting 'orthorhombic'
loop_
_space_group_symop_operation_xyz
x,y,z
-x,-y,z
1/2-x,y,z
1/2+x,-y,z
1/2+x,1/2+y,1/2+z
1/2-x,1/2-y,1/2+z
-x,1/2+y,1/2+z
x,1/2-y,1/2+z
loop_
_atom_site_type_symbol
_atom_site_label
_atom_site_fract_x
_atom_site_fract_y
_atom_site_fract_z
Si Si1 0.083735 0.863470 0.608600
Si Si2 0.077098 0.339240 0.432423
Si Si3 0.967407 0.899656 0.114701
Si Si4 0.079177 0.569410 0.929466
Si Si5 0.913033 0.746269 0.691657
Si Si6 0.918197 0.070935 0.794113
Si Si7 0.421997 0.782489 0.363111
Si Si8 0.250000 0.975092 0.146560
O O1 0.250000 0.840603 0.595412
O O2 0.045078 0.909148 0.526937
O O3 0.078698 0.906678 0.695590
O O4 0.979462 0.800098 0.625521
O O5 0.250000 0.334490 0.427877
O O6 0.034601 0.385093 0.513423
O O7 0.006250 0.376226 0.351403
O O8 0.003493 0.264556 0.432236
O O9 0.911074 0.829222 0.153481
O O10 0.124459 0.916690 0.148135
O O11 0.870277 0.964002 0.136351
O O12 0.250000 0.557804 0.922403
O O13 0.044209 0.637436 0.876025
O O14 0.000000 0.500000 0.904104
O O15 0.750000 0.766273 0.715708
O O16 0.017025 0.741853 0.772871
O O17 0.750000 0.067647 0.820411
O O18 0.000000 0.000000 0.804038
O O19 0.250000 0.773373 0.369381
#
# Coordination Sequence:
#
# PCOD9380559 Si02
#       8
#     8   8   8   8   8   8   8   4
#     4  10  22  42  67  93 128 169 217 268 326 390
#     4  12  24  41  66  96 133 171 217 266 324 388
#     4  11  25  43  67  95 128 174 218 265 327 386
#     4  10  23  44  69  97 128 170 219 270 328 388
#     4  12  24  43  66  97 130 170 222 272 325 389
#     4  11  24  38  60  93 132 172 215 263 321 388
#     4  11  25  44  65  97 133 171 221 272 326 394
#     4  10  24  46  64  94 132 166 218 272 318 392
#
# _framework density 20.973642000000002
#
# number of rings (size 3 to 8) (size 9 to 14) (size 15 to 20)
#    0.000    1.067    2.667    2.800    5.600    2.133 
#    2.400    0.000    0.000    0.000    0.000    0.000 
#    0.000    0.000    0.000    0.000    0.000    0.000 
#
# Total GULP energy -167196.330489 kJ/mol
# GULP energy per Si atom -5573.211016 kJ/mol
# Density = 2.092590 g / cm^3
# Si number density = 20.973642 Si / 1000 Ang^3
#
#
#
# Elastic Constant Matrix: (Units=GPa)
#
#
# Indices 1 2 3 4 5 6 
#
# 1 117.1597 39.7786 -16.7940 0.0000 0.0000 0.0000
# 2 39.7786 122.2187 -12.3636 0.0000 0.0000 0.0000
# 3 -16.7940 -12.3636 15.3815 0.0000 0.0000 0.0000
# 4 0.0000 0.0000 0.0000 -28.0403 0.0001 0.0000
# 5 0.0000 0.0000 0.0000 0.0001 101.6516 0.0000
# 6 0.0000 0.0000 0.0000 0.0000 0.0000 36.0812
#
#
#
# Elastic Compliance Matrix: (Units=1/GPa)
#
#
# Indices 1 2 3 4 5 6 
#
# 1 0.010791 -0.002526 0.009752 0.000000 0.000000 0.000000
# 2 -0.002526 0.009497 0.004876 0.000000 0.000000 0.000000
# 3 0.009752 0.004876 0.079580 0.000000 0.000000 0.000000
# 4 0.000000 0.000000 0.000000 -0.035663 0.000000 0.000000
# 5 0.000000 0.000000 0.000000 0.000000 0.009838 0.000000
# 6 0.000000 0.000000 0.000000 0.000000 0.000000 0.027715
#
#
# Mechanical properties :
#
#
# Convention : Reuss Voigt Hill
#
# Bulk Modulus (GPa) = 8.05979 30.66687 19.36333
# Shear Modulus (GPa) = 42.04843 38.21443 40.13143
#
# Velocity S-wave (km/s) = 4.48238 4.27315 4.37901
# Velocity P-wave (km/s) = 5.53536 6.24498 5.90084
#
# Compressibility (1/GPa) = 0.12407273
#
# Stress axis : x y z
#
# Youngs Moduli (GPa) = 92.67271 105.29245 12.56598
#
# Poissons Ratio (x) = 0.26592 -0.12254
# Poissons Ratio (y) = 0.23405 -0.06128
# Poissons Ratio (z) = -0.90370 -0.51345
#
# Static dielectric constant tensor:
#      x y z
#    x 1.688830 0.000000 0.000000 
#    y 0.000000 1.781100 0.000000 
#    z 0.000000 0.000000 1.796650 
# 
# From -- ./inp_files/18368.got.cif
#   From: 2010.05.17/outbox.cif.g08.bks.cpg/sg46_10_cif.got.tgz:18368.got - 2010.06.03 19:58:25.
