data_PCOD9380657
_publ_section_title
;
Structure prediction by ZEFSAII (Michael W. Deem and Ramdas Pophale) SiO2 
 PCOD9380657
Probable space group: I M A 2
;
_chemical_formula_sum "Si O2"
_cell_formula_units_Z 56
_cell_length_a 13.688392
_cell_length_b 8.726268
_cell_length_c 21.219347
_cell_angle_alpha 90.000000
_cell_angle_beta 90.000000
_cell_angle_gamma 90.000000
_cell_volume 2534.620806
_symmetry_space_group_name_H-M "I M A 2"
_symmetry_group_IT_number 46
_symmetry_cell_setting 'orthorhombic'
loop_
_space_group_symop_operation_xyz
x,y,z
-x,-y,z
1/2-x,y,z
1/2+x,-y,z
1/2+x,1/2+y,1/2+z
1/2-x,1/2-y,1/2+z
-x,1/2+y,1/2+z
x,1/2-y,1/2+z
loop_
_atom_site_type_symbol
_atom_site_label
_atom_site_fract_x
_atom_site_fract_y
_atom_site_fract_z
Si Si1 0.865191 0.159986 0.229600
Si Si2 0.529025 0.675112 0.164357
Si Si3 0.365263 0.311715 0.778684
Si Si4 0.059084 0.266303 0.529195
Si Si5 0.368499 0.416453 0.912356
Si Si6 0.367672 0.746865 0.364288
Si Si7 0.364509 0.905782 0.988427
O O1 0.750000 0.179747 0.216682
O O2 0.934492 0.215985 0.174314
O O3 0.896839 0.257341 0.291550
O O4 0.880724 0.983595 0.250379
O O5 0.500000 0.500000 0.157339
O O6 0.590727 0.698467 0.227770
O O7 0.583008 0.724795 0.100733
O O8 0.250000 0.286725 0.781772
O O9 0.399741 0.315216 0.851360
O O10 0.089887 0.141495 0.477879
O O11 0.113651 0.422492 0.509863
O O12 0.942880 0.298607 0.523374
O O13 0.250000 0.410384 0.915369
O O14 0.396331 0.590528 0.895265
O O15 0.250000 0.754151 0.360083
O O16 0.389921 0.615249 0.414172
O O17 0.250000 0.867017 0.997340
#
# Coordination Sequence:
#
# PCOD9380657 Si02
#       7
#     8   8   8   8   8   8   8
#     4   9  20  42  71  96 126 169 218 272 329 392
#     4  12  28  43  58  94 137 173 223 270 322 393
#     4   9  21  43  72  97 123 168 220 269 329 394
#     4  11  26  41  62  93 128 176 214 257 331 381
#     4   9  19  40  68  99 129 163 211 264 320 385
#     4   8  17  37  68 101 123 158 213 267 325 380
#     4  10  23  42  63  92 127 162 213 268 319 386
#
# _framework density 22.094034000000001
#
# number of rings (size 3 to 8) (size 9 to 14) (size 15 to 20)
#    0.000    2.286    0.000    2.571    8.000    3.429 
#    0.000    2.857    0.000    0.000    0.000    0.000 
#    0.000    0.000    0.000    0.000    0.000    0.000 
#
# Total GULP energy -156512.750548 kJ/mol
# GULP energy per Si atom -5589.741091 kJ/mol
# Density = 2.204375 g / cm^3
# Si number density = 22.094034 Si / 1000 Ang^3
#
#
#
# Elastic Constant Matrix: (Units=GPa)
#
#
# Indices 1 2 3 4 5 6 
#
# 1 71.4760 0.0573 13.3847 0.0000 0.0000 0.0000
# 2 0.0573 50.5053 41.0740 0.0000 0.0000 0.0000
# 3 13.3847 41.0740 142.1927 0.0000 0.0000 0.0000
# 4 0.0000 0.0000 0.0000 9.6171 0.0000 0.0000
# 5 0.0000 0.0000 0.0000 0.0000 27.5223 0.0000
# 6 0.0000 0.0000 0.0000 0.0000 0.0000 23.3760
#
#
#
# Elastic Compliance Matrix: (Units=1/GPa)
#
#
# Indices 1 2 3 4 5 6 
#
# 1 0.014318 0.001411 -0.001756 0.000000 0.000000 0.000000
# 2 0.001411 0.026019 -0.007649 0.000000 0.000000 0.000000
# 3 -0.001756 -0.007649 0.009407 0.000000 0.000000 0.000000
# 4 0.000000 0.000000 0.000000 0.103981 0.000000 0.000000
# 5 0.000000 0.000000 0.000000 0.000000 0.036334 0.000000
# 6 0.000000 0.000000 0.000000 0.000000 0.000000 0.042779
#
#
# Mechanical properties :
#
#
# Convention : Reuss Voigt Hill
#
# Bulk Modulus (GPa) = 29.62184 41.46734 35.54459
# Shear Modulus (GPa) = 19.22510 26.08029 22.65270
#
# Velocity S-wave (km/s) = 2.95303 3.43946 3.20548
# Velocity P-wave (km/s) = 5.00634 5.88068 5.46104
#
# Compressibility (1/GPa) = 0.03375888
#
# Stress axis : x y z
#
# Youngs Moduli (GPa) = 69.84060 38.43401 106.29988
#
# Poissons Ratio (x) = -0.05425 0.18661
# Poissons Ratio (y) = -0.09857 0.81305
# Poissons Ratio (z) = 0.12261 0.29397
#
# Static dielectric constant tensor:
#      x y z
#    x 1.853520 0.000000 0.000000 
#    y 0.000000 1.826540 0.000000 
#    z 0.000000 0.000000 1.804710 
# 
# From -- ./inp_files/22001.got.cif
#   From: 2010.05.17/outbox.cif.g08.bks.cpg/sg46_12_cif.got.tgz:22001.got - 2010.06.03 19:58:25.
