data_PCOD9380780
_publ_section_title
;
Structure prediction by ZEFSAII (Michael W. Deem and Ramdas Pophale) SiO2 
 PCOD9380780
Probable space group: I M A 2
;
_chemical_formula_sum "Si O2"
_cell_formula_units_Z 36
_cell_length_a 18.344857
_cell_length_b 10.383772
_cell_length_c 8.823478
_cell_angle_alpha 90.000000
_cell_angle_beta 90.000000
_cell_angle_gamma 90.000000
_cell_volume 1680.773846
_symmetry_space_group_name_H-M "I M A 2"
_symmetry_group_IT_number 46
_symmetry_cell_setting 'orthorhombic'
loop_
_space_group_symop_operation_xyz
x,y,z
-x,-y,z
1/2-x,y,z
1/2+x,-y,z
1/2+x,1/2+y,1/2+z
1/2-x,1/2-y,1/2+z
-x,1/2+y,1/2+z
x,1/2-y,1/2+z
loop_
_atom_site_type_symbol
_atom_site_label
_atom_site_fract_x
_atom_site_fract_y
_atom_site_fract_z
Si Si1 0.000000 0.500000 0.281130
Si Si2 0.912711 0.153570 0.531802
Si Si3 0.250000 0.949251 0.214607
Si Si4 0.602534 0.920545 0.319412
Si Si5 0.750000 0.234123 0.497436
Si Si6 0.453169 0.310833 0.507246
O O1 0.046859 0.592240 0.174348
O O2 0.056149 0.421831 0.384715
O O3 0.827621 0.179565 0.556651
O O4 0.960851 0.277827 0.496717
O O5 0.923668 0.054122 0.393445
O O6 0.250000 0.822484 0.325527
O O7 0.250000 0.884291 0.047804
O O8 0.318541 0.037794 0.256948
O O9 0.592865 0.813866 0.452879
O O10 0.562864 0.860674 0.174395
#
# Coordination Sequence:
#
# PCOD9380780 Si02
#       6
#     4   8   4   8   4   8
#     4  12  26  38  70 102 130 184 226 278 348 398
#     4  11  24  46  65 101 139 171 233 290 333 417
#     4  10  26  44  72 100 142 186 224 288 346 422
#     4  11  24  46  67 101 138 182 231 285 346 403
#     4  10  26  42  68  98 138 178 222 276 348 406
#     4  12  25  40  70  98 137 179 229 285 340 415
#
# _framework density 21.418704999999999
#
# number of rings (size 3 to 8) (size 9 to 14) (size 15 to 20)
#    0.000    0.889    4.444    0.000   12.444    0.889 
#    0.000    3.333    0.000    0.000    0.000    0.000 
#    0.000    0.000    0.000    0.000    0.000    0.000 
#
# Total GULP energy -100492.488264 kJ/mol
# GULP energy per Si atom -5582.916015 kJ/mol
# Density = 2.136995 g / cm^3
# Si number density = 21.418705 Si / 1000 Ang^3
#
#
#
# Elastic Constant Matrix: (Units=GPa)
#
#
# Indices 1 2 3 4 5 6 
#
# 1 118.6659 49.3098 36.3525 0.0000 0.0000 0.0000
# 2 49.3098 74.4307 42.1126 0.0000 0.0000 0.0000
# 3 36.3525 42.1126 110.9729 0.0000 0.0000 0.0000
# 4 0.0000 0.0000 0.0000 51.1789 0.0000 0.0000
# 5 0.0000 0.0000 0.0000 0.0000 10.8939 0.0000
# 6 0.0000 0.0000 0.0000 0.0000 0.0000 16.0707
#
#
#
# Elastic Compliance Matrix: (Units=1/GPa)
#
#
# Indices 1 2 3 4 5 6 
#
# 1 0.011740 -0.007133 -0.001139 0.000000 0.000000 0.000000
# 2 -0.007133 0.021443 -0.005801 0.000000 0.000000 0.000000
# 3 -0.001139 -0.005801 0.011585 0.000000 0.000000 0.000000
# 4 0.000000 0.000000 0.000000 0.019539 0.000000 0.000000
# 5 0.000000 0.000000 0.000000 0.000000 0.091795 0.000000
# 6 0.000000 0.000000 0.000000 0.000000 0.000000 0.062225
#
#
# Mechanical properties :
#
#
# Convention : Reuss Voigt Hill
#
# Bulk Modulus (GPa) = 60.15721 62.17993 61.16857
# Shear Modulus (GPa) = 19.84014 27.38166 23.61090
#
# Velocity S-wave (km/s) = 3.04682 3.57935 3.32377
# Velocity P-wave (km/s) = 6.36590 6.79529 6.58410
#
# Compressibility (1/GPa) = 0.01662311
#
# Stress axis : x y z
#
# Youngs Moduli (GPa) = 85.17853 46.63517 86.31486
#
# Poissons Ratio (x) = 0.33267 0.09830
# Poissons Ratio (y) = 0.60761 0.50068
# Poissons Ratio (z) = 0.09700 0.27051
#
# Static dielectric constant tensor:
#      x y z
#    x 1.784130 0.000000 0.000000 
#    y 0.000000 1.783670 0.000000 
#    z 0.000000 0.000000 1.788780 
# 
# From -- ./inp_files/7190.got.cif
#   From: 2010.05.17/outbox.cif.g08.bks.cpg/sg46_4_cif.got.tgz:7190.got - 2010.06.03 19:58:25.
