data_PCOD9380676
_publ_section_title
;
Structure prediction by ZEFSAII (Michael W. Deem and Ramdas Pophale) SiO2 
 PCOD9380676
Probable space group: I M A 2
;
_chemical_formula_sum "Si O2"
_cell_formula_units_Z 28
_cell_length_a 7.642229
_cell_length_b 28.253122
_cell_length_c 5.196940
_cell_angle_alpha 90.000000
_cell_angle_beta 90.000000
_cell_angle_gamma 90.000000
_cell_volume 1122.106802
_symmetry_space_group_name_H-M "I M A 2"
_symmetry_group_IT_number 46
_symmetry_cell_setting 'orthorhombic'
loop_
_space_group_symop_operation_xyz
x,y,z
-x,-y,z
1/2-x,y,z
1/2+x,-y,z
1/2+x,1/2+y,1/2+z
1/2-x,1/2-y,1/2+z
-x,1/2+y,1/2+z
x,1/2-y,1/2+z
loop_
_atom_site_type_symbol
_atom_site_label
_atom_site_fract_x
_atom_site_fract_y
_atom_site_fract_z
Si Si1 0.461630 0.778940 0.667220
Si Si2 0.548227 0.554536 0.198977
Si Si3 0.250000 0.613452 0.495838
Si Si4 0.941505 0.637490 0.823933
O O1 0.250000 0.784249 0.667427
O O2 0.514214 0.743084 0.438008
O O3 0.536269 0.828892 0.572974
O O4 0.500000 0.500000 0.160236
O O5 0.750000 0.558181 0.290368
O O6 0.404562 0.579161 0.377485
O O7 0.537951 0.584357 0.934284
O O8 0.401342 0.646305 0.633165
O O9 0.750000 0.644481 0.713411
#
# Coordination Sequence:
#
# PCOD9380676 Si02
#       4
#     8   8   4   8
#     4  10  23  42  72 107 145 193 245 304 376 446
#     4  11  25  46  68 102 143 190 241 300 367 440
#     4  12  24  44  72 100 138 186 244 298 366 426
#     4  11  26  45  72 104 143 189 239 303 368 442
#
# _framework density 24.953060000000001
#
# number of rings (size 3 to 8) (size 9 to 14) (size 15 to 20)
#    0.000    1.143    2.857    1.714    4.000    2.286 
#    5.143    0.000    0.000    0.000    0.000    0.000 
#    0.000    0.000    0.000    0.000    0.000    0.000 
#
# Total GULP energy -77961.079530 kJ/mol
# GULP energy per Si atom -5568.648538 kJ/mol
# Density = 2.489627 g / cm^3
# Si number density = 24.953060 Si / 1000 Ang^3
#
#
#
# Elastic Constant Matrix: (Units=GPa)
#
#
# Indices 1 2 3 4 5 6 
#
# 1 230.0367 34.4527 59.0795 0.0244 -0.0022 -0.0462
# 2 34.4527 91.1982 41.6304 0.0016 0.0004 0.0399
# 3 59.0795 41.6304 67.1845 -0.0586 0.0520 0.1951
# 4 0.0244 0.0016 -0.0586 33.9403 0.0098 -0.0186
# 5 -0.0022 0.0004 0.0520 0.0098 3.6531 -0.0006
# 6 -0.0462 0.0399 0.1951 -0.0186 -0.0006 162.1360
#
#
#
# Elastic Compliance Matrix: (Units=1/GPa)
#
#
# Indices 1 2 3 4 5 6 
#
# 1 0.005618 0.000185 -0.005055 -0.000013 0.000075 0.000008
# 2 0.000185 0.015296 -0.009641 -0.000018 0.000136 0.000008
# 3 -0.005055 -0.009641 0.025304 0.000048 -0.000363 -0.000030
# 4 -0.000013 -0.000018 0.000048 0.029464 -0.000080 0.000003
# 5 0.000075 0.000136 -0.000363 -0.000080 0.273745 0.000001
# 6 0.000008 0.000008 -0.000030 0.000003 0.000001 0.006168
#
#
# Mechanical properties :
#
#
# Convention : Reuss Voigt Hill
#
# Bulk Modulus (GPa) = 58.15250 73.19386 65.67318
# Shear Modulus (GPa) = 12.80909 56.82967 34.81938
#
# Velocity S-wave (km/s) = 2.26813 4.77745 3.73955
# Velocity P-wave (km/s) = 5.49678 7.73488 6.70980
#
# Compressibility (1/GPa) = 0.01719617
#
# Stress axis : x y z
#
# Youngs Moduli (GPa) = 178.01220 65.37568 39.51965
#
# Poissons Ratio (x) = -0.01211 0.19976
# Poissons Ratio (y) = -0.03297 0.38102
# Poissons Ratio (z) = 0.89981 0.63030
#
# Static dielectric constant tensor:
#      x y z
#    x 1.916370 0.000000 -0.000020 
#    y 0.000000 1.973290 0.000020 
#    z -0.000020 0.000020 2.061860 
# 
# From -- ./inp_files/358.got.cif
#   From: 2010.05.17/outbox.cif.g08.bks.cpg/sg46_1_cif.got.tgz:358.got - 2010.06.03 19:58:25.
