data_PCOD9380153
_publ_section_title
;
Structure prediction by ZEFSAII (Michael W. Deem and Ramdas Pophale) SiO2 
 PCOD9380153
Probable space group: I M A 2
;
_chemical_formula_sum "Si O2"
_cell_formula_units_Z 48
_cell_length_a 8.363291
_cell_length_b 23.288458
_cell_length_c 11.817598
_cell_angle_alpha 90.000000
_cell_angle_beta 90.000000
_cell_angle_gamma 90.000000
_cell_volume 2301.691714
_symmetry_space_group_name_H-M "I M A 2"
_symmetry_group_IT_number 46
_symmetry_cell_setting 'orthorhombic'
loop_
_space_group_symop_operation_xyz
x,y,z
-x,-y,z
1/2-x,y,z
1/2+x,-y,z
1/2+x,1/2+y,1/2+z
1/2-x,1/2-y,1/2+z
-x,1/2+y,1/2+z
x,1/2-y,1/2+z
loop_
_atom_site_type_symbol
_atom_site_label
_atom_site_fract_x
_atom_site_fract_y
_atom_site_fract_z
Si Si1 0.935207 0.436472 0.904860
Si Si2 0.436468 0.357149 0.081366
Si Si3 0.441528 0.435178 0.526167
Si Si4 0.435772 0.351551 0.723418
Si Si5 0.441666 0.857893 0.834472
Si Si6 0.060401 0.732533 0.903349
O O1 0.750000 0.433231 0.869768
O O2 0.000000 0.500000 0.904763
O O3 0.043614 0.399064 0.821319
O O4 0.957834 0.407386 0.026297
O O5 0.250000 0.371167 0.070687
O O6 0.483228 0.351367 0.211079
O O7 0.473241 0.301549 0.003791
O O8 0.500000 0.500000 0.550689
O O9 0.250000 0.435802 0.533989
O O10 0.500679 0.385960 0.614423
O O11 0.496133 0.412566 0.403857
O O12 0.250000 0.337045 0.705091
O O13 0.520788 0.296991 0.781595
O O14 0.250000 0.860426 0.825338
O O15 0.484165 0.799068 0.900069
O O16 0.250000 0.726562 0.921502
#
# Coordination Sequence:
#
# PCOD9380153 Si02
#       6
#     8   8   8   8   8   8
#     4  11  21  36  60  89 122 159 203 251 305 363
#     4  11  23  40  62  89 122 157 202 255 308 368
#     4  11  25  43  64  93 128 170 216 261 315 376
#     4  10  21  38  62  94 127 162 206 257 311 368
#     4  11  25  43  64  90 124 166 209 256 312 376
#     4  10  22  40  64  93 125 162 206 256 314 375
#
# _framework density 20.854227999999999
#
# number of rings (size 3 to 8) (size 9 to 14) (size 15 to 20)
#    0.000    1.333    0.000    7.500    2.333    7.333 
#    0.000    3.333    0.000    0.000    0.000    0.000 
#    0.000    0.000    0.000    0.000    0.000    0.000 
#
# Total GULP energy -134115.707995 kJ/mol
# GULP energy per Si atom -5588.154500 kJ/mol
# Density = 2.080676 g / cm^3
# Si number density = 20.854228 Si / 1000 Ang^3
#
#
#
# Elastic Constant Matrix: (Units=GPa)
#
#
# Indices 1 2 3 4 5 6 
#
# 1 39.9743 -4.8165 -0.3052 0.0000 0.0000 0.0000
# 2 -4.8165 62.9181 3.4249 0.0000 0.0000 0.0000
# 3 -0.3052 3.4249 83.7329 0.0000 0.0000 0.0001
# 4 0.0000 0.0000 0.0000 11.2800 0.0000 0.0000
# 5 0.0000 0.0000 0.0000 0.0000 27.8581 0.0000
# 6 0.0000 0.0000 0.0001 0.0000 0.0000 17.4378
#
#
#
# Elastic Compliance Matrix: (Units=1/GPa)
#
#
# Indices 1 2 3 4 5 6 
#
# 1 0.025249 0.001932 0.000013 0.000000 0.000000 0.000000
# 2 0.001932 0.016077 -0.000651 0.000000 0.000000 0.000000
# 3 0.000013 -0.000651 0.011969 0.000000 0.000000 0.000000
# 4 0.000000 0.000000 0.000000 0.088653 0.000000 0.000000
# 5 0.000000 0.000000 0.000000 0.000000 0.035896 0.000000
# 6 0.000000 0.000000 0.000000 0.000000 0.000000 0.057347
#
#
# Mechanical properties :
#
#
# Convention : Reuss Voigt Hill
#
# Bulk Modulus (GPa) = 17.89402 20.35908 19.12655
# Shear Modulus (GPa) = 19.90209 23.86998 21.88603
#
# Velocity S-wave (km/s) = 3.09260 3.38688 3.24308
# Velocity P-wave (km/s) = 4.62075 5.00783 4.81818
#
# Compressibility (1/GPa) = 0.05588458
#
# Stress axis : x y z
#
# Youngs Moduli (GPa) = 39.60553 62.20065 83.54638
#
# Poissons Ratio (x) = -0.12018 -0.00109
# Poissons Ratio (y) = -0.07652 0.05435
# Poissons Ratio (z) = -0.00052 0.04046
#
# Static dielectric constant tensor:
#      x y z
#    x 1.704840 0.000000 0.000000 
#    y 0.000000 1.741970 0.000000 
#    z 0.000000 0.000000 1.759450 
# 
# From -- ./inp_files/9280.got.cif
#   From: 2010.05.17/outbox.cif.g08.bks.cpg/sg46_5_cif.got.tgz:9280.got - 2010.06.03 19:58:25.
