data_PCOD9380641
_publ_section_title
;
Structure prediction by ZEFSAII (Michael W. Deem and Ramdas Pophale) SiO2 
 PCOD9380641
Probable space group: I M A 2
;
_chemical_formula_sum "Si O2"
_cell_formula_units_Z 40
_cell_length_a 25.555000
_cell_length_b 4.884028
_cell_length_c 13.170431
_cell_angle_alpha 90.000000
_cell_angle_beta 90.000000
_cell_angle_gamma 90.000000
_cell_volume 1643.819083
_symmetry_space_group_name_H-M "I M A 2"
_symmetry_group_IT_number 46
_symmetry_cell_setting 'orthorhombic'
loop_
_space_group_symop_operation_xyz
x,y,z
-x,-y,z
1/2-x,y,z
1/2+x,-y,z
1/2+x,1/2+y,1/2+z
1/2-x,1/2-y,1/2+z
-x,1/2+y,1/2+z
x,1/2-y,1/2+z
loop_
_atom_site_type_symbol
_atom_site_label
_atom_site_fract_x
_atom_site_fract_y
_atom_site_fract_z
Si Si1 0.811240 0.785583 0.561310
Si Si2 0.309233 0.691153 0.706765
Si Si3 0.037277 0.739188 0.033605
Si Si4 0.035464 0.744970 0.256448
Si Si5 0.871888 0.126852 0.398530
O O1 0.750000 0.728011 0.530437
O O2 0.832995 0.541702 0.632345
O O3 0.810242 0.039966 0.638513
O O4 0.845387 0.882874 0.463668
O O5 0.250000 0.592911 0.720101
O O6 0.328973 0.744718 0.821325
O O7 0.052692 0.635254 0.146362
O O8 0.000000 0.500000 0.987648
O O9 0.092034 0.791249 0.977945
O O10 0.000000 0.000000 0.032563
O O11 0.082223 0.893486 0.314973
O O12 0.000000 0.500000 0.303869
O O13 0.000000 0.000000 0.233407
#
# Coordination Sequence:
#
# PCOD9380641 Si02
#       5
#     8   8   8   8   8
#     4  10  24  44  64  94 133 167 209 268 327 386
#     4  10  24  44  64  94 133 167 209 268 327 386
#     4  10  23  41  60  90 132 169 209 265 323 382
#     4  10  23  41  60  90 132 169 209 265 323 382
#     4  12  23  40  70  96 120 170 221 260 317 388
#
# _framework density 24.333576000000001
#
# number of rings (size 3 to 8) (size 9 to 14) (size 15 to 20)
#    0.000    1.600    0.000    3.000    0.000   12.800 
#    0.000    6.000    0.000    0.000    0.000    0.000 
#    0.000    0.000    0.000    0.000    0.000    0.000 
#
# Total GULP energy -111355.161058 kJ/mol
# GULP energy per Si atom -5567.758053 kJ/mol
# Density = 2.427819 g / cm^3
# Si number density = 24.333576 Si / 1000 Ang^3
#
#
#
# Elastic Constant Matrix: (Units=GPa)
#
#
# Indices 1 2 3 4 5 6 
#
# 1 107.4424 18.9843 62.5991 0.0000 0.0000 0.0000
# 2 18.9843 105.5835 4.3400 0.0000 0.0000 0.0000
# 3 62.5991 4.3400 127.2138 0.0000 0.0000 0.0000
# 4 0.0000 0.0000 0.0000 5.8499 0.0000 0.0000
# 5 0.0000 0.0000 0.0000 0.0000 71.5020 0.0000
# 6 0.0000 0.0000 0.0000 0.0000 0.0000 21.0353
#
#
#
# Elastic Compliance Matrix: (Units=1/GPa)
#
#
# Indices 1 2 3 4 5 6 
#
# 1 0.013523 -0.002161 -0.006581 0.000000 0.000000 0.000000
# 2 -0.002161 0.009830 0.000728 0.000000 0.000000 0.000000
# 3 -0.006581 0.000728 0.011074 0.000000 0.000000 0.000000
# 4 0.000000 0.000000 0.000000 0.170942 0.000000 0.000000
# 5 0.000000 0.000000 0.000000 0.000000 0.013986 0.000000
# 6 0.000000 0.000000 0.000000 0.000000 0.000000 0.047539
#
#
# Mechanical properties :
#
#
# Convention : Reuss Voigt Hill
#
# Bulk Modulus (GPa) = 54.34855 56.89851 55.62353
# Shear Modulus (GPa) = 17.29773 36.63186 26.96480
#
# Velocity S-wave (km/s) = 2.66909 3.88416 3.33247
# Velocity P-wave (km/s) = 5.64641 6.59917 6.14130
#
# Compressibility (1/GPa) = 0.01839976
#
# Stress axis : x y z
#
# Youngs Moduli (GPa) = 73.94625 101.73133 90.29982
#
# Poissons Ratio (x) = 0.21985 0.59425
# Poissons Ratio (y) = 0.15980 -0.06574
# Poissons Ratio (z) = 0.48663 -0.07407
#
# Static dielectric constant tensor:
#      x y z
#    x 1.973880 0.000000 0.000000 
#    y 0.000000 1.935490 0.000000 
#    z 0.000000 0.000000 2.045840 
# 
# From -- ./inp_files/17265.got.cif
#   From: 2010.05.17/outbox.cif.g08.bks.cpg/sg46_9_cif.got.tgz:17265.got - 2010.06.03 19:58:25.
