data_PCOD9380665
_publ_section_title
;
Structure prediction by ZEFSAII (Michael W. Deem and Ramdas Pophale) SiO2 
 PCOD9380665
Probable space group: I M A 2
;
_chemical_formula_sum "Si O2"
_cell_formula_units_Z 40
_cell_length_a 22.008005
_cell_length_b 7.262382
_cell_length_c 10.423814
_cell_angle_alpha 90.000000
_cell_angle_beta 90.000000
_cell_angle_gamma 90.000000
_cell_volume 1666.043814
_symmetry_space_group_name_H-M "I M A 2"
_symmetry_group_IT_number 46
_symmetry_cell_setting 'orthorhombic'
loop_
_space_group_symop_operation_xyz
x,y,z
-x,-y,z
1/2-x,y,z
1/2+x,-y,z
1/2+x,1/2+y,1/2+z
1/2-x,1/2-y,1/2+z
-x,1/2+y,1/2+z
x,1/2-y,1/2+z
loop_
_atom_site_type_symbol
_atom_site_label
_atom_site_fract_x
_atom_site_fract_y
_atom_site_fract_z
Si Si1 0.562632 0.283081 0.634020
Si Si2 0.836536 0.940169 0.102589
Si Si3 0.154397 0.330146 0.877010
Si Si4 0.183396 0.640294 0.064945
Si Si5 0.012000 0.215202 0.382577
O O1 0.595268 0.484071 0.640840
O O2 0.618344 0.133843 0.637644
O O3 0.524912 0.292648 0.503140
O O4 0.519478 0.231376 0.750154
O O5 0.819488 0.837818 0.234293
O O6 0.811422 0.138625 0.060028
O O7 0.822014 0.805362 0.986737
O O8 0.084028 0.266815 0.878264
O O9 0.167858 0.534927 0.933226
O O10 0.250000 0.575346 0.112099
O O11 0.000000 0.000000 0.396457
#
# Coordination Sequence:
#
# PCOD9380665 Si02
#       5
#     8   8   8   8   8
#     4  10  23  42  65  98 139 182 232 292 360 430
#     4  10  25  44  66 106 141 182 242 291 364 431
#     4  12  24  44  73 105 143 187 239 304 367 436
#     4  10  24  47  71  97 141 192 241 294 355 432
#     4  12  20  41  66 100 140 179 232 293 361 443
#
# _framework density 24.008973000000001
#
# number of rings (size 3 to 8) (size 9 to 14) (size 15 to 20)
#    1.200    0.000    4.000    1.200    0.000    4.800 
#    3.600    0.000    0.000    0.000    0.000    0.000 
#    0.000    0.000    0.000    0.000    0.000    0.000 
#
# Total GULP energy -111403.275936 kJ/mol
# GULP energy per Si atom -5570.163797 kJ/mol
# Density = 2.395433 g / cm^3
# Si number density = 24.008973 Si / 1000 Ang^3
#
#
#
# Elastic Constant Matrix: (Units=GPa)
#
#
# Indices 1 2 3 4 5 6 
#
# 1 164.4098 36.8512 69.6916 0.0000 0.0000 0.0000
# 2 36.8512 44.3634 44.0309 0.0000 0.0000 0.0000
# 3 69.6916 44.0309 121.3127 0.0000 0.0000 0.0000
# 4 0.0000 0.0000 0.0000 33.6244 0.0000 0.0000
# 5 0.0000 0.0000 0.0000 0.0000 -44.2917 0.0000
# 6 0.0000 0.0000 0.0000 0.0000 0.0000 79.5291
#
#
#
# Elastic Compliance Matrix: (Units=1/GPa)
#
#
# Indices 1 2 3 4 5 6 
#
# 1 0.008356 -0.003402 -0.003566 0.000000 0.000000 0.000000
# 2 -0.003402 0.036619 -0.011336 0.000000 0.000000 0.000000
# 3 -0.003566 -0.011336 0.014406 0.000000 0.000000 0.000000
# 4 0.000000 0.000000 0.000000 0.029740 0.000000 0.000000
# 5 0.000000 0.000000 0.000000 0.000000 -0.022578 0.000000
# 6 0.000000 0.000000 0.000000 0.000000 0.000000 0.012574
#
#
# Mechanical properties :
#
#
# Convention : Reuss Voigt Hill
#
# Bulk Modulus (GPa) = 43.91267 70.13704 57.02485
# Shear Modulus (GPa) = 40.54573 25.73984 33.14278
#
# Velocity S-wave (km/s) = 4.11393 3.27783 3.71945
# Velocity P-wave (km/s) = 6.39497 6.60317 6.49991
#
# Compressibility (1/GPa) = 0.02277247
#
# Stress axis : x y z
#
# Youngs Moduli (GPa) = 119.66795 27.30845 69.41513
#
# Poissons Ratio (x) = 0.09292 0.24751
# Poissons Ratio (y) = 0.40717 0.78691
# Poissons Ratio (z) = 0.42670 0.30957
#
# Static dielectric constant tensor:
#      x y z
#    x 2.014370 0.000000 0.000000 
#    y 0.000000 2.078430 0.000000 
#    z 0.000000 0.000000 1.943770 
# 
# From -- ./inp_files/8103.got.cif
#   From: 2010.05.17/outbox.cif.g08.bks.cpg/sg46_5_cif.got.tgz:8103.got - 2010.06.03 19:58:25.
