data_PCOD9380871
_publ_section_title
;
Structure prediction by ZEFSAII (Michael W. Deem and Ramdas Pophale) SiO2 
 PCOD9380871
Probable space group: I M A 2
;
_chemical_formula_sum "Si O2"
_cell_formula_units_Z 64
_cell_length_a 14.103521
_cell_length_b 15.848077
_cell_length_c 13.218018
_cell_angle_alpha 90.000000
_cell_angle_beta 90.000000
_cell_angle_gamma 90.000000
_cell_volume 2954.407935
_symmetry_space_group_name_H-M "I M A 2"
_symmetry_group_IT_number 46
_symmetry_cell_setting 'orthorhombic'
loop_
_space_group_symop_operation_xyz
x,y,z
-x,-y,z
1/2-x,y,z
1/2+x,-y,z
1/2+x,1/2+y,1/2+z
1/2-x,1/2-y,1/2+z
-x,1/2+y,1/2+z
x,1/2-y,1/2+z
loop_
_atom_site_type_symbol
_atom_site_label
_atom_site_fract_x
_atom_site_fract_y
_atom_site_fract_z
Si Si1 0.482836 0.865371 0.991220
Si Si2 0.858094 0.405739 0.889213
Si Si3 0.361601 0.412561 0.816558
Si Si4 0.965300 0.683172 0.976251
Si Si5 0.472510 0.401385 0.173065
Si Si6 0.637579 0.049721 0.166336
Si Si7 0.144161 0.063287 0.860180
Si Si8 0.142633 0.634274 0.300462
O O1 0.533364 0.777786 0.016280
O O2 0.565775 0.924085 0.946099
O O3 0.410993 0.836155 0.901298
O O4 0.422777 0.910605 0.077535
O O5 0.750000 0.389195 0.917076
O O6 0.875840 0.506882 0.892147
O O7 0.869533 0.392393 0.767860
O O8 0.930611 0.354044 0.954423
O O9 0.250000 0.397459 0.807649
O O10 0.411926 0.334963 0.870492
O O11 0.392640 0.456743 0.710392
O O12 0.927883 0.628753 0.069494
O O13 0.500000 0.500000 0.166531
O O14 0.398834 0.388465 0.264124
O O15 0.570413 0.355150 0.207016
O O16 0.750000 0.044495 0.140023
O O17 0.250000 0.089317 0.889442
O O18 0.147672 0.966216 0.824511
O O19 0.250000 0.665774 0.286832
#
# Coordination Sequence:
#
# PCOD9380871 Si02
#       8
#     8   8   8   8   8   8   8   8
#     4  11  22  35  60  93 126 163 206 264 324 373
#     4   8  18  36  56  80 119 169 213 253 310 383
#     4   8  18  38  59  79 116 171 220 255 303 376
#     4  12  22  33  57  96 133 162 199 263 330 376
#     4   9  19  35  60  89 115 151 204 247 308 379
#     4   8  18  38  59  81 118 170 217 251 306 383
#     4   9  20  42  64  83 110 156 211 264 305 364
#     4   9  19  40  64  84 110 154 210 260 307 369
#
# _framework density 21.662547
#
# number of rings (size 3 to 8) (size 9 to 14) (size 15 to 20)
#    0.750    2.000    0.000    2.625    0.000    4.500 
#    4.500    3.750    0.000    0.000    0.000    0.000 
#    0.000    0.000    0.000    0.000    0.000    0.000 
#
# Total GULP energy -178379.965885 kJ/mol
# GULP energy per Si atom -5574.373934 kJ/mol
# Density = 2.161324 g / cm^3
# Si number density = 21.662547 Si / 1000 Ang^3
#
#
#
# Elastic Constant Matrix: (Units=GPa)
#
#
# Indices 1 2 3 4 5 6 
#
# 1 63.4490 8.9823 22.5370 0.0000 0.0000 0.0000
# 2 8.9823 30.2873 28.2436 0.0000 0.0000 0.0000
# 3 22.5370 28.2436 85.5109 0.0000 0.0000 0.0000
# 4 0.0000 0.0000 0.0000 1.4248 0.0000 0.0000
# 5 0.0000 0.0000 0.0000 0.0000 18.5038 0.0000
# 6 0.0000 0.0000 0.0000 0.0000 0.0000 8.1142
#
#
#
# Elastic Compliance Matrix: (Units=1/GPa)
#
#
# Indices 1 2 3 4 5 6 
#
# 1 0.017423 -0.001279 -0.004169 0.000000 0.000000 0.000000
# 2 -0.001279 0.047807 -0.015453 0.000000 0.000000 0.000000
# 3 -0.004169 -0.015453 0.017897 0.000000 0.000000 0.000000
# 4 0.000000 0.000000 0.000000 0.701865 0.000000 0.000000
# 5 0.000000 0.000000 0.000000 0.000000 0.054043 0.000000
# 6 0.000000 0.000000 0.000000 0.000000 0.000000 0.123241
#
#
# Mechanical properties :
#
#
# Convention : Reuss Voigt Hill
#
# Bulk Modulus (GPa) = 24.19913 33.19702 28.69807
# Shear Modulus (GPa) = 4.91229 13.57416 9.24323
#
# Velocity S-wave (km/s) = 1.50750 2.50595 2.06789
# Velocity P-wave (km/s) = 3.77164 4.87144 4.35639
#
# Compressibility (1/GPa) = 0.04132380
#
# Stress axis : x y z
#
# Youngs Moduli (GPa) = 57.39633 20.91745 55.87405
#
# Poissons Ratio (x) = 0.02675 0.23296
# Poissons Ratio (y) = 0.07341 0.86343
# Poissons Ratio (z) = 0.23931 0.32324
#
# Static dielectric constant tensor:
#      x y z
#    x 1.799350 0.000000 0.000000 
#    y 0.000000 1.867020 0.000000 
#    z 0.000000 0.000000 1.803160 
# 
# From -- ./inp_files/16178.got.cif
#   From: 2010.05.17/outbox.cif.g08.bks.cpg/sg46_9_cif.got.tgz:16178.got - 2010.06.03 19:58:25.
