data_PCOD9380160
_publ_section_title
;
Structure prediction by ZEFSAII (Michael W. Deem and Ramdas Pophale) SiO2 
 PCOD9380160
Probable space group: I M A 2
;
_chemical_formula_sum "Si O2"
_cell_formula_units_Z 64
_cell_length_a 19.679117
_cell_length_b 9.250432
_cell_length_c 17.659223
_cell_angle_alpha 90.000000
_cell_angle_beta 90.000000
_cell_angle_gamma 90.000000
_cell_volume 3214.690847
_symmetry_space_group_name_H-M "I M A 2"
_symmetry_group_IT_number 46
_symmetry_cell_setting 'orthorhombic'
loop_
_space_group_symop_operation_xyz
x,y,z
-x,-y,z
1/2-x,y,z
1/2+x,-y,z
1/2+x,1/2+y,1/2+z
1/2-x,1/2-y,1/2+z
-x,1/2+y,1/2+z
x,1/2-y,1/2+z
loop_
_atom_site_type_symbol
_atom_site_label
_atom_site_fract_x
_atom_site_fract_y
_atom_site_fract_z
Si Si1 0.325017 0.791037 0.094620
Si Si2 0.453067 0.639507 0.670599
Si Si3 0.457351 0.357407 0.436740
Si Si4 0.457351 0.142593 0.577135
Si Si5 0.671903 0.974674 0.846916
Si Si6 0.674983 0.291037 0.919256
Si Si7 0.953067 0.360493 0.843277
Si Si8 0.171903 0.025325 0.666960
O O1 0.250000 0.854443 0.104848
O O2 0.386150 0.889027 0.121648
O O3 0.329604 0.643320 0.142819
O O4 0.333234 0.750000 0.006938
O O5 0.500000 0.500000 0.668994
O O6 0.494179 0.772938 0.635837
O O7 0.433609 0.670458 0.756938
O O8 0.500000 0.500000 0.460423
O O9 0.446581 0.250000 0.506938
O O10 0.386788 0.398860 0.395936
O O11 0.505821 0.272938 0.378039
O O12 0.500000 0.000000 0.553453
O O13 0.386788 0.101140 0.617940
O O14 0.750000 0.925164 0.862107
O O15 0.670396 0.143320 0.871057
O O16 0.659166 0.959614 0.756938
O O17 0.750000 0.354443 0.909028
O O18 0.613850 0.389027 0.892228
O O19 0.000000 0.500000 0.844882
O O20 0.250000 0.074836 0.651768
#
# Coordination Sequence:
#
# PCOD9380160 Si02
#       8
#     8   8   8   8   8   8   8   8
#     4  10  21  38  63  93 128 170 216 266 318 382
#     4  11  24  40  62  94 129 167 216 267 319 384
#     4  12  25  40  65  94 130 169 214 267 330 386
#     4  12  25  40  65  94 130 169 214 267 330 386
#     4  10  22  41  66  95 126 168 221 267 317 389
#     4  10  21  38  63  93 128 170 216 266 318 382
#     4  11  24  40  62  94 129 167 216 267 319 384
#     4  10  22  41  66  95 126 168 221 267 317 389
#
# _framework density 19.908601999999998
#
# number of rings (size 3 to 8) (size 9 to 14) (size 15 to 20)
#    0.000    1.250    2.500    3.000    3.500    3.000 
#    0.000    1.250    0.000    1.500    0.000    0.000 
#    0.000    0.000    0.000    0.000    0.000    0.000 
#
# Total GULP energy -178902.637360 kJ/mol
# GULP energy per Si atom -5590.707418 kJ/mol
# Density = 1.986329 g / cm^3
# Si number density = 19.908602 Si / 1000 Ang^3
#
#
#
# Elastic Constant Matrix: (Units=GPa)
#
#
# Indices 1 2 3 4 5 6 
#
# 1 173.0068 32.7601 84.3119 0.0000 0.0000 0.0000
# 2 32.7601 61.0895 33.3822 0.0000 0.0000 0.0000
# 3 84.3119 33.3822 100.5526 0.0000 0.0000 0.0000
# 4 0.0000 0.0000 0.0000 21.9115 0.0000 0.0000
# 5 0.0000 0.0000 0.0000 0.0000 37.5507 0.0000
# 6 0.0000 0.0000 0.0000 0.0000 0.0000 -1.4716
#
#
#
# Elastic Compliance Matrix: (Units=1/GPa)
#
#
# Indices 1 2 3 4 5 6 
#
# 1 0.009818 -0.000936 -0.007921 0.000000 0.000000 0.000000
# 2 -0.000936 0.020087 -0.005883 0.000000 0.000000 0.000000
# 3 -0.007921 -0.005883 0.018540 0.000000 0.000000 0.000000
# 4 0.000000 0.000000 0.000000 0.045638 0.000000 0.000000
# 5 0.000000 0.000000 0.000000 0.000000 0.026631 0.000000
# 6 0.000000 0.000000 0.000000 0.000000 0.000000 -0.679532
#
#
# Mechanical properties :
#
#
# Convention : Reuss Voigt Hill
#
# Bulk Modulus (GPa) = 52.73562 70.61748 61.67655
# Shear Modulus (GPa) = -9.55993 23.87777 7.15892
#
# Velocity S-wave (km/s) = -2.19370 3.46695 1.89834
# Velocity P-wave (km/s) = 4.48664 7.18151 5.98766
#
# Compressibility (1/GPa) = 0.01896251
#
# Stress axis : x y z
#
# Youngs Moduli (GPa) = 101.85766 49.78463 53.93765
#
# Poissons Ratio (x) = 0.04662 0.42724
# Poissons Ratio (y) = 0.09538 0.31733
# Poissons Ratio (z) = 0.80682 0.29290
#
# Static dielectric constant tensor:
#      x y z
#    x 1.721720 0.000000 0.000000 
#    y 0.000000 1.675060 0.000000 
#    z 0.000000 0.000000 1.692390 
# 
# From -- ./inp_files/20248.got.cif
#   From: 2010.05.17/outbox.cif.g08.bks.cpg/sg46_11_cif.got.tgz:20248.got - 2010.06.03 19:58:25.
