data_PCOD9380793
_publ_section_title
;
Structure prediction by ZEFSAII (Michael W. Deem and Ramdas Pophale) SiO2 
 PCOD9380793
Probable space group: I M A 2
;
_chemical_formula_sum "Si O2"
_cell_formula_units_Z 40
_cell_length_a 13.797906
_cell_length_b 14.756285
_cell_length_c 12.357005
_cell_angle_alpha 90.000000
_cell_angle_beta 90.000000
_cell_angle_gamma 90.000000
_cell_volume 2515.958301
_symmetry_space_group_name_H-M "I M A 2"
_symmetry_group_IT_number 46
_symmetry_cell_setting 'orthorhombic'
loop_
_space_group_symop_operation_xyz
x,y,z
-x,-y,z
1/2-x,y,z
1/2+x,-y,z
1/2+x,1/2+y,1/2+z
1/2-x,1/2-y,1/2+z
-x,1/2+y,1/2+z
x,1/2-y,1/2+z
loop_
_atom_site_type_symbol
_atom_site_label
_atom_site_fract_x
_atom_site_fract_y
_atom_site_fract_z
Si Si1 0.750000 0.621697 0.808250
Si Si2 0.962694 0.907002 0.776208
Si Si3 0.750000 0.697635 0.583707
Si Si4 0.412354 0.255322 0.921845
Si Si5 0.250000 0.965627 0.477442
Si Si6 0.455920 0.902121 0.537307
Si Si7 0.250000 0.398735 0.180111
O O1 0.750000 0.623245 0.678050
O O2 0.657954 0.679687 0.851226
O O3 0.750000 0.523781 0.866524
O O4 0.966306 0.818068 0.848747
O O5 0.849520 0.917748 0.742659
O O6 0.025220 0.895993 0.666178
O O7 0.000000 0.000000 0.828975
O O8 0.843396 0.701796 0.506271
O O9 0.750000 0.793755 0.646799
O O10 0.484666 0.321312 0.984100
O O11 0.345645 0.907002 0.498687
O O12 0.250000 0.043125 0.570620
O O13 0.500000 0.000000 0.504987
#
# Coordination Sequence:
#
# PCOD9380793 Si02
#       7
#     4   8   4   8   4   8   4
#     4  11  17  29  57  84 105 133 174 236 281 299
#     4  11  21  33  56  82 107 141 183 221 271 315
#     4  11  18  30  56  84 111 129 174 237 279 314
#     4  11  19  32  53  83 112 138 176 221 275 318
#     4  12  20  32  55  86 104 134 182 227 264 309
#     4  11  19  34  55  80 111 137 177 226 260 325
#     4  12  15  31  54  86 102 124 178 240 266 296
#
# _framework density 15.898515
#
# number of rings (size 3 to 8) (size 9 to 14) (size 15 to 20)
#    0.000    0.800   12.000    0.600    0.000    0.000 
#    0.000    2.000    8.800    0.000    0.000    0.000 
#    0.000    0.000    0.000    0.000    0.000    0.000 
#
# Total GULP energy -111568.068761 kJ/mol
# GULP energy per Si atom -5578.403438 kJ/mol
# Density = 1.586233 g / cm^3
# Si number density = 15.898515 Si / 1000 Ang^3
#
#
#
# Elastic Constant Matrix: (Units=GPa)
#
#
# Indices 1 2 3 4 5 6 
#
# 1 69.9717 31.7531 34.1542 0.0000 0.0000 0.0000
# 2 31.7531 78.0240 40.0845 0.0000 0.0000 0.0000
# 3 34.1542 40.0845 73.8579 0.0000 0.0000 0.0000
# 4 0.0000 0.0000 0.0000 37.6079 0.0000 0.0000
# 5 0.0000 0.0000 0.0000 0.0000 9.8096 0.0000
# 6 0.0000 0.0000 0.0000 0.0000 0.0000 22.3342
#
#
#
# Elastic Compliance Matrix: (Units=1/GPa)
#
#
# Indices 1 2 3 4 5 6 
#
# 1 0.019580 -0.004599 -0.006558 0.000000 0.000000 0.000000
# 2 -0.004599 0.018852 -0.008105 0.000000 0.000000 0.000000
# 3 -0.006558 -0.008105 0.020971 0.000000 0.000000 0.000000
# 4 0.000000 0.000000 0.000000 0.026590 0.000000 0.000000
# 5 0.000000 0.000000 0.000000 0.000000 0.101941 0.000000
# 6 0.000000 0.000000 0.000000 0.000000 0.000000 0.044774
#
#
# Mechanical properties :
#
#
# Convention : Reuss Voigt Hill
#
# Bulk Modulus (GPa) = 47.89592 48.20413 48.05002
# Shear Modulus (GPa) = 17.97323 21.67446 19.82385
#
# Velocity S-wave (km/s) = 3.36593 3.69630 3.53498
# Velocity P-wave (km/s) = 6.73034 6.97155 6.85201
#
# Compressibility (1/GPa) = 0.02087860
#
# Stress axis : x y z
#
# Youngs Moduli (GPa) = 51.07334 53.04488 47.68517
#
# Poissons Ratio (x) = 0.24395 0.31273
# Poissons Ratio (y) = 0.23489 0.38647
# Poissons Ratio (z) = 0.33495 0.42991
#
# Static dielectric constant tensor:
#      x y z
#    x 1.549670 0.000000 0.000000 
#    y 0.000000 1.515060 0.000000 
#    z 0.000000 0.000000 1.550410 
# 
# From -- ./inp_files/10181.got.cif
#   From: 2010.05.17/outbox.cif.g08.bks.cpg/sg46_6_cif.got.tgz:10181.got - 2010.06.03 19:58:25.
