data_PCOD9380327
_publ_section_title
;
Structure prediction by ZEFSAII (Michael W. Deem and Ramdas Pophale) SiO2 
 PCOD9380327
Probable space group: I M A 2
;
_chemical_formula_sum "Si O2"
_cell_formula_units_Z 64
_cell_length_a 23.821222
_cell_length_b 11.671097
_cell_length_c 11.286192
_cell_angle_alpha 90.000000
_cell_angle_beta 90.000000
_cell_angle_gamma 90.000000
_cell_volume 3137.784759
_symmetry_space_group_name_H-M "I M A 2"
_symmetry_group_IT_number 46
_symmetry_cell_setting 'orthorhombic'
loop_
_space_group_symop_operation_xyz
x,y,z
-x,-y,z
1/2-x,y,z
1/2+x,-y,z
1/2+x,1/2+y,1/2+z
1/2-x,1/2-y,1/2+z
-x,1/2+y,1/2+z
x,1/2-y,1/2+z
loop_
_atom_site_type_symbol
_atom_site_label
_atom_site_fract_x
_atom_site_fract_y
_atom_site_fract_z
Si Si1 0.509221 0.170644 0.577080
Si Si2 0.596866 0.201823 0.374922
Si Si3 0.684203 0.007096 0.358069
Si Si4 0.817338 0.597722 0.601640
Si Si5 0.315531 0.136413 0.586771
Si Si6 0.467599 0.898870 0.166689
Si Si7 0.399279 0.535464 0.438794
Si Si8 0.582363 0.985439 0.685325
O O1 0.539634 0.183527 0.451148
O O2 0.493520 0.294673 0.626345
O O3 0.455300 0.092668 0.598253
O O4 0.558619 0.110184 0.653719
O O5 0.579851 0.161333 0.244270
O O6 0.614019 0.333786 0.396320
O O7 0.645922 0.111406 0.405174
O O8 0.750000 0.040735 0.355396
O O9 0.668325 0.963383 0.226716
O O10 0.678851 0.902362 0.450152
O O11 0.750000 0.593444 0.588619
O O12 0.833373 0.731994 0.604581
O O13 0.847079 0.532683 0.493592
O O14 0.250000 0.126825 0.619677
O O15 0.354069 0.048345 0.659108
O O16 0.500000 0.000000 0.232521
O O17 0.441191 0.951816 0.048650
O O18 0.425935 0.471390 0.325797
#
# Coordination Sequence:
#
# PCOD9380327 Si02
#       8
#     8   8   8   8   8   8   8   8
#     4  10  24  42  61  93 129 170 212 267 325 384
#     4  11  22  44  67  92 131 171 220 272 325 389
#     4  10  21  41  67  95 130 170 220 275 329 388
#     4  10  23  43  66  98 134 171 219 278 336 394
#     4  10  23  42  68  98 131 174 222 273 333 399
#     4  11  25  41  63  93 129 172 220 267 325 394
#     4  11  25  42  68  93 133 172 216 277 329 396
#     4  11  23  41  65  94 131 170 215 272 324 391
#
# _framework density 20.396554999999999
#
# number of rings (size 3 to 8) (size 9 to 14) (size 15 to 20)
#    0.000    1.500    3.750    0.000    7.000    1.000 
#    0.000    0.000    0.000    0.000    0.000    0.000 
#    0.000    0.000    0.000    0.000    0.000    0.000 
#
# Total GULP energy -178458.604400 kJ/mol
# GULP energy per Si atom -5576.831388 kJ/mol
# Density = 2.035013 g / cm^3
# Si number density = 20.396555 Si / 1000 Ang^3
#
#
#
# Elastic Constant Matrix: (Units=GPa)
#
#
# Indices 1 2 3 4 5 6 
#
# 1 53.5402 34.1966 7.8506 0.0000 0.0000 0.0000
# 2 34.1966 89.0947 -18.0964 0.0000 0.0000 0.0000
# 3 7.8506 -18.0964 43.7291 0.0000 0.0000 0.0000
# 4 0.0000 0.0000 0.0000 23.7538 0.0000 0.0000
# 5 0.0000 0.0000 0.0000 0.0000 23.3316 0.0000
# 6 0.0000 0.0000 0.0000 0.0000 0.0000 33.1722
#
#
#
# Elastic Compliance Matrix: (Units=1/GPa)
#
#
# Indices 1 2 3 4 5 6 
#
# 1 0.028613 -0.013129 -0.010570 0.000000 0.000000 0.000000
# 2 -0.013129 0.018279 0.009921 0.000000 0.000000 0.000000
# 3 -0.010570 0.009921 0.028871 0.000000 0.000000 0.000000
# 4 0.000000 0.000000 0.000000 0.042099 0.000000 0.000000
# 5 0.000000 0.000000 0.000000 0.000000 0.042860 0.000000
# 6 0.000000 0.000000 0.000000 0.000000 0.000000 0.030146
#
#
# Mechanical properties :
#
#
# Convention : Reuss Voigt Hill
#
# Bulk Modulus (GPa) = 20.74406 26.02951 23.38679
# Shear Modulus (GPa) = 21.32258 26.87909 24.10084
#
# Velocity S-wave (km/s) = 3.23677 3.63412 3.44119
# Velocity P-wave (km/s) = 4.91542 5.51349 5.22302
#
# Compressibility (1/GPa) = 0.04820656
#
# Stress axis : x y z
#
# Youngs Moduli (GPa) = 34.94877 54.70907 34.63638
#
# Poissons Ratio (x) = 0.71830 0.36611
# Poissons Ratio (y) = 0.45886 -0.34364
# Poissons Ratio (z) = 0.36941 -0.54278
#
# Static dielectric constant tensor:
#      x y z
#    x 1.734970 0.000000 0.000000 
#    y 0.000000 1.749790 0.000000 
#    z 0.000000 0.000000 1.747680 
# 
# From -- ./inp_files/12849.got.cif
#   From: 2010.05.17/outbox.cif.g08.bks.cpg/sg46_7_cif.got.tgz:12849.got - 2010.06.03 19:58:25.
