data_PCOD9380740
_publ_section_title
;
Structure prediction by ZEFSAII (Michael W. Deem and Ramdas Pophale) SiO2 
 PCOD9380740
Probable space group: I M A 2
;
_chemical_formula_sum "Si O2"
_cell_formula_units_Z 36
_cell_length_a 27.108094
_cell_length_b 4.797976
_cell_length_c 9.874999
_cell_angle_alpha 90.000000
_cell_angle_beta 90.000000
_cell_angle_gamma 90.000000
_cell_volume 1284.381716
_symmetry_space_group_name_H-M "I M A 2"
_symmetry_group_IT_number 46
_symmetry_cell_setting 'orthorhombic'
loop_
_space_group_symop_operation_xyz
x,y,z
-x,-y,z
1/2-x,y,z
1/2+x,-y,z
1/2+x,1/2+y,1/2+z
1/2-x,1/2-y,1/2+z
-x,1/2+y,1/2+z
x,1/2-y,1/2+z
loop_
_atom_site_type_symbol
_atom_site_label
_atom_site_fract_x
_atom_site_fract_y
_atom_site_fract_z
Si Si1 0.750000 0.250783 0.609961
Si Si2 0.415282 0.693595 0.941166
Si Si3 0.000000 0.000000 0.777257
Si Si4 0.418103 0.311672 0.614254
Si Si5 0.750000 0.608598 0.855444
Si Si6 0.665435 0.972039 0.783911
O O1 0.750000 0.542378 0.693092
O O2 0.750000 0.161638 0.452355
O O3 0.701004 0.116977 0.675283
O O4 0.366801 0.804593 0.866044
O O5 0.463477 0.808425 0.865679
O O6 0.415574 0.368635 0.975448
O O7 0.416752 0.863392 0.082582
O O8 0.966882 0.796896 0.686435
O O9 0.371789 0.224235 0.702956
O O10 0.701218 0.790604 0.879798
#
# Coordination Sequence:
#
# PCOD9380740 Si02
#       6
#     4   8   4   8   4   8
#     4  11  26  44  77 102 150 194 254 314 382 459
#     4  11  25  43  71 102 144 188 243 301 369 441
#     4  10  24  44  68 106 138 192 238 304 368 442
#     4  11  25  43  72 101 145 188 243 302 367 444
#     4  11  26  48  71 112 144 200 250 320 386 453
#     4  10  26  44  69 103 146 191 251 307 380 446
#
# _framework density 28.029048
#
# number of rings (size 3 to 8) (size 9 to 14) (size 15 to 20)
#    0.000    1.333    0.000    2.667    9.333   10.667 
#    0.000    0.000    0.000    0.000    0.000    0.000 
#    0.000    0.000    0.000    0.000    0.000    0.000 
#
# Total GULP energy -101232.930931 kJ/mol
# GULP energy per Si atom -5624.051718 kJ/mol
# Density = 2.796525 g / cm^3
# Si number density = 28.029048 Si / 1000 Ang^3
#
#
#
# Elastic Constant Matrix: (Units=GPa)
#
#
# Indices 1 2 3 4 5 6 
#
# 1 184.3969 26.4750 48.0453 0.0000 0.0000 0.0000
# 2 26.4750 117.0342 26.1100 0.0000 0.0000 0.0000
# 3 48.0453 26.1100 108.0839 0.0000 0.0000 0.0000
# 4 0.0000 0.0000 0.0000 58.8857 0.0000 0.0000
# 5 0.0000 0.0000 0.0000 0.0000 33.9078 0.0000
# 6 0.0000 0.0000 0.0000 0.0000 0.0000 21.9224
#
#
#
# Elastic Compliance Matrix: (Units=1/GPa)
#
#
# Indices 1 2 3 4 5 6 
#
# 1 0.006210 -0.000834 -0.002559 0.000000 0.000000 0.000000
# 2 -0.000834 0.009143 -0.001838 0.000000 0.000000 0.000000
# 3 -0.002559 -0.001838 0.010834 0.000000 0.000000 0.000000
# 4 0.000000 0.000000 0.000000 0.016982 0.000000 0.000000
# 5 0.000000 0.000000 0.000000 0.000000 0.029492 0.000000
# 6 0.000000 0.000000 0.000000 0.000000 0.000000 0.045615
#
#
# Mechanical properties :
#
#
# Convention : Reuss Voigt Hill
#
# Bulk Modulus (GPa) = 63.59380 67.86397 65.72889
# Shear Modulus (GPa) = 37.31941 43.53550 40.42745
#
# Velocity S-wave (km/s) = 3.65287 3.94538 3.80194
# Velocity P-wave (km/s) = 6.36624 6.70964 6.54019
#
# Compressibility (1/GPa) = 0.01572480
#
# Stress axis : x y z
#
# Youngs Moduli (GPa) = 161.04330 109.37077 92.30596
#
# Poissons Ratio (x) = 0.09120 0.23619
# Poissons Ratio (y) = 0.13428 0.16967
# Poissons Ratio (z) = 0.41208 0.20103
#
# Static dielectric constant tensor:
#      x y z
#    x 2.085630 0.000000 0.000000 
#    y 0.000000 2.100330 0.000000 
#    z 0.000000 0.000000 2.208650 
# 
# From -- ./inp_files/13115.got.cif
#   From: 2010.05.17/outbox.cif.g08.bks.cpg/sg46_7_cif.got.tgz:13115.got - 2010.06.03 19:58:25.
