data_PCOD9380730
_publ_section_title
;
Structure prediction by ZEFSAII (Michael W. Deem and Ramdas Pophale) SiO2 
 PCOD9380730
Probable space group: I M A 2
;
_chemical_formula_sum "Si O2"
_cell_formula_units_Z 40
_cell_length_a 18.341820
_cell_length_b 4.938283
_cell_length_c 18.226225
_cell_angle_alpha 90.000000
_cell_angle_beta 90.000000
_cell_angle_gamma 90.000000
_cell_volume 1650.878566
_symmetry_space_group_name_H-M "I M A 2"
_symmetry_group_IT_number 46
_symmetry_cell_setting 'orthorhombic'
loop_
_space_group_symop_operation_xyz
x,y,z
-x,-y,z
1/2-x,y,z
1/2+x,-y,z
1/2+x,1/2+y,1/2+z
1/2-x,1/2-y,1/2+z
-x,1/2+y,1/2+z
x,1/2-y,1/2+z
loop_
_atom_site_type_symbol
_atom_site_label
_atom_site_fract_x
_atom_site_fract_y
_atom_site_fract_z
Si Si1 0.362243 0.275693 0.413850
Si Si2 0.165618 0.563706 0.565489
Si Si3 0.584287 0.938840 0.622333
Si Si4 0.750000 0.446102 0.833691
Si Si5 0.618844 0.169123 0.780920
Si Si6 0.000000 0.500000 0.868453
O O1 0.339888 0.447993 0.483243
O O2 0.350783 0.454807 0.340484
O O3 0.312636 0.019463 0.396003
O O4 0.445620 0.180993 0.416191
O O5 0.250000 0.547500 0.588697
O O6 0.135257 0.866494 0.573141
O O7 0.111143 0.366937 0.610527
O O8 0.598330 0.025885 0.706027
O O9 0.500000 0.000000 0.604900
O O10 0.685190 0.376742 0.774248
O O11 0.548981 0.311632 0.816612
#
# Coordination Sequence:
#
# PCOD9380730 Si02
#       6
#     8   8   8   4   8   4
#     4  11  24  46  73 106 148 190 255 311 384 452
#     4  12  30  50  77 110 159 206 261 320 395 466
#     4  12  30  50  76 112 157 209 259 321 396 473
#     4  10  24  42  76 106 140 190 248 312 382 454
#     4  11  26  44  76 105 149 188 256 310 387 451
#     4  10  24  42  72 108 136 190 248 312 372 456
#
# _framework density 24.229521999999999
#
# number of rings (size 3 to 8) (size 9 to 14) (size 15 to 20)
#    0.000    0.800    1.000    3.600   18.200    1.600 
#    0.000    0.000    0.000    0.000    0.000    0.000 
#    0.000    0.000    0.000    0.000    0.000    0.000 
#
# Total GULP energy -111608.481218 kJ/mol
# GULP energy per Si atom -5580.424061 kJ/mol
# Density = 2.417437 g / cm^3
# Si number density = 24.229522 Si / 1000 Ang^3
#
#
#
# Elastic Constant Matrix: (Units=GPa)
#
#
# Indices 1 2 3 4 5 6 
#
# 1 152.0041 -0.0063 14.6964 0.0000 0.0000 0.0000
# 2 -0.0063 58.6615 0.0853 0.0000 0.0000 0.0000
# 3 14.6964 0.0853 71.8207 0.0000 0.0000 0.0000
# 4 0.0000 0.0000 0.0000 45.4218 0.0000 0.0000
# 5 0.0000 0.0000 0.0000 0.0000 26.8312 0.0000
# 6 0.0000 0.0000 0.0000 0.0000 0.0000 -194.6050
#
#
#
# Elastic Compliance Matrix: (Units=1/GPa)
#
#
# Indices 1 2 3 4 5 6 
#
# 1 0.006712 0.000003 -0.001373 0.000000 0.000000 0.000000
# 2 0.000003 0.017047 -0.000021 0.000000 0.000000 0.000000
# 3 -0.001373 -0.000021 0.014205 0.000000 0.000000 0.000000
# 4 0.000000 0.000000 0.000000 0.022016 0.000000 0.000000
# 5 0.000000 0.000000 0.000000 0.000000 0.037270 0.000000
# 6 0.000000 0.000000 0.000000 0.000000 0.000000 -0.005139
#
#
# Mechanical properties :
#
#
# Convention : Reuss Voigt Hill
#
# Bulk Modulus (GPa) = 28.42503 34.67079 31.54791
# Shear Modulus (GPa) = 46.89550 -6.62300 20.13625
#
# Velocity S-wave (km/s) = 4.40417 -1.65511 2.88594
# Velocity P-wave (km/s) = 6.13346 3.26923 4.91463
#
# Compressibility (1/GPa) = 0.03518027
#
# Stress axis : x y z
#
# Youngs Moduli (GPa) = 148.99686 58.66140 70.39967
#
# Poissons Ratio (x) = -0.00016 0.09668
# Poissons Ratio (y) = -0.00041 0.00146
# Poissons Ratio (z) = 0.20463 0.00122
#
# Static dielectric constant tensor:
#      x y z
#    x 1.916360 0.000000 0.000000 
#    y 0.000000 2.028640 0.000000 
#    z 0.000000 0.000000 1.922710 
# 
# From -- ./inp_files/19803.got.cif
#   From: 2010.05.17/outbox.cif.g08.bks.cpg/sg46_10_cif.got.tgz:19803.got - 2010.06.03 19:58:25.
