data_PCOD9380906
_publ_section_title
;
Structure prediction by ZEFSAII (Michael W. Deem and Ramdas Pophale) SiO2 
 PCOD9380906
Probable space group: I M A 2
;
_chemical_formula_sum "Si O2"
_cell_formula_units_Z 40
_cell_length_a 21.740254
_cell_length_b 8.116559
_cell_length_c 9.447122
_cell_angle_alpha 90.000000
_cell_angle_beta 90.000000
_cell_angle_gamma 90.000000
_cell_volume 1667.001872
_symmetry_space_group_name_H-M "I M A 2"
_symmetry_group_IT_number 46
_symmetry_cell_setting 'orthorhombic'
loop_
_space_group_symop_operation_xyz
x,y,z
-x,-y,z
1/2-x,y,z
1/2+x,-y,z
1/2+x,1/2+y,1/2+z
1/2-x,1/2-y,1/2+z
-x,1/2+y,1/2+z
x,1/2-y,1/2+z
loop_
_atom_site_type_symbol
_atom_site_label
_atom_site_fract_x
_atom_site_fract_y
_atom_site_fract_z
Si Si1 0.074062 0.254106 0.598740
Si Si2 0.616980 0.444287 0.268770
Si Si3 0.433970 0.745679 0.519149
Si Si4 0.616386 0.539456 0.850842
Si Si5 0.250000 0.434715 0.896571
Si Si6 0.250000 0.409808 0.231620
O O1 0.101186 0.398624 0.695045
O O2 0.110985 0.195528 0.459440
O O3 0.003836 0.285793 0.560483
O O4 0.078462 0.094065 0.700982
O O5 0.593086 0.397153 0.422283
O O6 0.687850 0.495566 0.271054
O O7 0.604929 0.296098 0.157262
O O8 0.429667 0.906166 0.416221
O O9 0.686080 0.474586 0.863333
O O10 0.250000 0.268265 0.804496
O O11 0.250000 0.392283 0.062195
#
# Coordination Sequence:
#
# PCOD9380906 Si02
#       6
#     8   8   8   8   4   4
#     4  11  23  43  68 100 140 186 239 291 351 432
#     4  11  24  45  67 103 145 189 234 301 361 425
#     4  11  25  44  67 102 148 184 238 297 363 425
#     4  11  22  41  72 101 137 188 234 300 354 421
#     4  12  20  45  73 107 141 187 243 298 354 438
#     4  12  24  45  75 105 149 187 245 296 366 434
#
# _framework density 23.995175
#
# number of rings (size 3 to 8) (size 9 to 14) (size 15 to 20)
#    0.000    0.800    6.000    3.600    0.000    3.200 
#    3.600    4.000    0.000    0.000    0.000    0.000 
#    0.000    0.000    0.000    0.000    0.000    0.000 
#
# Total GULP energy -112142.434208 kJ/mol
# GULP energy per Si atom -5607.121710 kJ/mol
# Density = 2.394056 g / cm^3
# Si number density = 23.995175 Si / 1000 Ang^3
#
#
#
# Elastic Constant Matrix: (Units=GPa)
#
#
# Indices 1 2 3 4 5 6 
#
# 1 145.9234 13.9879 38.5906 0.0000 0.0000 0.0000
# 2 13.9879 50.0786 38.0457 0.0000 0.0000 0.0000
# 3 38.5906 38.0457 147.6893 0.0000 0.0000 0.0000
# 4 0.0000 0.0000 0.0000 52.0933 0.0000 0.0000
# 5 0.0000 0.0000 0.0000 0.0000 37.2489 0.0000
# 6 0.0000 0.0000 0.0000 0.0000 0.0000 7.8285
#
#
#
# Elastic Compliance Matrix: (Units=1/GPa)
#
#
# Indices 1 2 3 4 5 6 
#
# 1 0.007384 -0.000742 -0.001738 0.000000 0.000000 0.000000
# 2 -0.000742 0.024902 -0.006221 0.000000 0.000000 0.000000
# 3 -0.001738 -0.006221 0.008828 0.000000 0.000000 0.000000
# 4 0.000000 0.000000 0.000000 0.019196 0.000000 0.000000
# 5 0.000000 0.000000 0.000000 0.000000 0.026846 0.000000
# 6 0.000000 0.000000 0.000000 0.000000 0.000000 0.127738
#
#
# Mechanical properties :
#
#
# Convention : Reuss Voigt Hill
#
# Bulk Modulus (GPa) = 42.17410 58.32666 50.25038
# Shear Modulus (GPa) = 20.81592 36.30527 28.56059
#
# Velocity S-wave (km/s) = 2.94854 3.89398 3.45376
# Velocity P-wave (km/s) = 5.40426 6.67667 6.07388
#
# Compressibility (1/GPa) = 0.02371123
#
# Stress axis : x y z
#
# Youngs Moduli (GPa) = 135.43323 40.15718 113.27896
#
# Poissons Ratio (x) = 0.02979 0.19690
# Poissons Ratio (y) = 0.10047 0.70472
# Poissons Ratio (z) = 0.23541 0.24982
#
# Static dielectric constant tensor:
#      x y z
#    x 1.847350 0.000000 0.000000 
#    y 0.000000 2.025900 0.000000 
#    z 0.000000 0.000000 1.889220 
# 
# From -- ./inp_files/12308.got.cif
#   From: 2010.05.17/outbox.cif.g08.bks.cpg/sg46_7_cif.got.tgz:12308.got - 2010.06.03 19:58:25.
