data_PCOD9380843
_publ_section_title
;
Structure prediction by ZEFSAII (Michael W. Deem and Ramdas Pophale) SiO2 
 PCOD9380843
Probable space group: I M A 2
;
_chemical_formula_sum "Si O2"
_cell_formula_units_Z 40
_cell_length_a 8.425410
_cell_length_b 14.842200
_cell_length_c 14.124735
_cell_angle_alpha 90.000000
_cell_angle_beta 90.000000
_cell_angle_gamma 90.000000
_cell_volume 1766.320998
_symmetry_space_group_name_H-M "I M A 2"
_symmetry_group_IT_number 46
_symmetry_cell_setting 'orthorhombic'
loop_
_space_group_symop_operation_xyz
x,y,z
-x,-y,z
1/2-x,y,z
1/2+x,-y,z
1/2+x,1/2+y,1/2+z
1/2-x,1/2-y,1/2+z
-x,1/2+y,1/2+z
x,1/2-y,1/2+z
loop_
_atom_site_type_symbol
_atom_site_label
_atom_site_fract_x
_atom_site_fract_y
_atom_site_fract_z
Si Si1 0.067613 0.592351 0.448440
Si Si2 0.940676 0.396918 0.974395
Si Si3 0.063375 0.718065 0.160021
Si Si4 0.433697 0.256102 0.342647
Si Si5 0.062009 0.085358 0.152062
O O1 0.250000 0.609531 0.424499
O O2 0.000000 0.500000 0.405661
O O3 0.954803 0.676561 0.431238
O O4 0.053318 0.580148 0.561174
O O5 0.750000 0.397171 0.972663
O O6 0.989627 0.343766 0.072148
O O7 0.000000 0.500000 0.974667
O O8 0.999812 0.337837 0.884850
O O9 0.250000 0.735139 0.146635
O O10 0.029355 0.682664 0.265422
O O11 0.972521 0.812213 0.180571
O O12 0.250000 0.247477 0.319295
O O13 0.250000 0.077385 0.135479
O O14 0.000000 0.000000 0.213181
#
# Coordination Sequence:
#
# PCOD9380843 Si02
#       5
#     8   8   8   8   8
#     4  11  21  37  61  91 125 163 207 258 322 386
#     4  11  25  46  72  99 136 182 230 283 344 412
#     4  11  24  43  67  96 133 176 224 277 336 403
#     4  12  25  42  67  98 134 175 225 279 336 404
#     4  11  21  36  61  92 125 162 206 258 321 386
#
# _framework density 22.64594
#
# number of rings (size 3 to 8) (size 9 to 14) (size 15 to 20)
#    0.000    0.800    2.000    7.800    0.000    4.000 
#    0.000    6.000    0.000    0.000    0.000    0.000 
#    0.000    0.000    0.000    0.000    0.000    0.000 
#
# Total GULP energy -111445.713307 kJ/mol
# GULP energy per Si atom -5572.285665 kJ/mol
# Density = 2.259440 g / cm^3
# Si number density = 22.645940 Si / 1000 Ang^3
#
#
#
# Elastic Constant Matrix: (Units=GPa)
#
#
# Indices 1 2 3 4 5 6 
#
# 1 136.9430 35.2921 21.6163 0.0000 0.0000 0.0000
# 2 35.2921 107.0741 10.5210 0.0000 0.0000 0.0000
# 3 21.6163 10.5210 66.1332 0.0000 0.0000 0.0000
# 4 0.0000 0.0000 0.0000 18.3683 0.0000 0.0000
# 5 0.0000 0.0000 0.0000 0.0000 28.4047 0.0000
# 6 0.0000 0.0000 0.0000 0.0000 0.0000 39.5944
#
#
#
# Elastic Compliance Matrix: (Units=1/GPa)
#
#
# Indices 1 2 3 4 5 6 
#
# 1 0.008316 -0.002513 -0.002318 0.000000 0.000000 0.000000
# 2 -0.002513 0.010247 -0.000809 0.000000 0.000000 0.000000
# 3 -0.002318 -0.000809 0.016007 0.000000 0.000000 0.000000
# 4 0.000000 0.000000 0.000000 0.054442 0.000000 0.000000
# 5 0.000000 0.000000 0.000000 0.000000 0.035205 0.000000
# 6 0.000000 0.000000 0.000000 0.000000 0.000000 0.025256
#
#
# Mechanical properties :
#
#
# Convention : Reuss Voigt Hill
#
# Bulk Modulus (GPa) = 42.93683 49.44545 46.19114
# Shear Modulus (GPa) = 29.67051 33.45488 31.56269
#
# Velocity S-wave (km/s) = 3.62358 3.84774 3.73734
# Velocity P-wave (km/s) = 6.04221 6.45148 6.25020
#
# Compressibility (1/GPa) = 0.02329003
#
# Stress axis : x y z
#
# Youngs Moduli (GPa) = 120.25107 97.58813 62.47096
#
# Poissons Ratio (x) = 0.24526 0.14483
# Poissons Ratio (y) = 0.30221 0.05052
# Poissons Ratio (z) = 0.27878 0.07892
#
# Static dielectric constant tensor:
#      x y z
#    x 1.741050 0.000000 0.000000 
#    y 0.000000 2.358550 0.000000 
#    z 0.000000 0.000000 2.042900 
# 
# From -- ./inp_files/13645.got.cif
#   From: 2010.05.17/outbox.cif.g08.bks.cpg/sg46_7_cif.got.tgz:13645.got - 2010.06.03 19:58:25.
