data_PCOD9380216
_publ_section_title
;
Structure prediction by ZEFSAII (Michael W. Deem and Ramdas Pophale) SiO2 
 PCOD9380216
Probable space group: I M A 2
;
_chemical_formula_sum "Si O2"
_cell_formula_units_Z 40
_cell_length_a 17.776615
_cell_length_b 7.884085
_cell_length_c 11.904665
_cell_angle_alpha 90.000000
_cell_angle_beta 90.000000
_cell_angle_gamma 90.000000
_cell_volume 1668.466700
_symmetry_space_group_name_H-M "I M A 2"
_symmetry_group_IT_number 46
_symmetry_cell_setting 'orthorhombic'
loop_
_space_group_symop_operation_xyz
x,y,z
-x,-y,z
1/2-x,y,z
1/2+x,-y,z
1/2+x,1/2+y,1/2+z
1/2-x,1/2-y,1/2+z
-x,1/2+y,1/2+z
x,1/2-y,1/2+z
loop_
_atom_site_type_symbol
_atom_site_label
_atom_site_fract_x
_atom_site_fract_y
_atom_site_fract_z
Si Si1 0.899253 0.598072 0.829250
Si Si2 0.067590 0.403787 0.450431
Si Si3 0.839330 0.487852 0.060345
Si Si4 0.538171 0.815506 0.655947
Si Si5 0.837059 0.109993 0.122848
O O1 0.970663 0.679295 0.757661
O O2 0.857691 0.489137 0.736041
O O3 0.877703 0.783046 0.879678
O O4 0.888600 0.491193 0.944613
O O5 0.023792 0.285168 0.540748
O O6 0.117045 0.530526 0.521416
O O7 0.000000 0.500000 0.387998
O O8 0.750000 0.506909 0.036192
O O9 0.873204 0.637080 0.137414
O O10 0.851217 0.311037 0.125118
O O11 0.500000 0.000000 0.657460
O O12 0.750000 0.086346 0.100098
#
# Coordination Sequence:
#
# PCOD9380216 Si02
#       5
#     8   8   8   8   8
#     4  10  22  38  63  90 118 162 209 258 313 370
#     4  10  21  39  62  92 128 166 210 261 317 381
#     4  10  22  40  61  89 126 166 212 264 318 380
#     4  10  21  39  62  92 128 166 210 261 317 381
#     4  10  22  40  61  89 126 166 212 264 318 380
#
# _framework density 23.974105999999999
#
# number of rings (size 3 to 8) (size 9 to 14) (size 15 to 20)
#    0.000    2.000    0.000    2.400    0.000   10.400 
#    0.000   36.000    0.000    0.000    0.000    0.000 
#    0.000    0.000    0.000    0.000    0.000    0.000 
#
# Total GULP energy -111344.157213 kJ/mol
# GULP energy per Si atom -5567.207861 kJ/mol
# Density = 2.391954 g / cm^3
# Si number density = 23.974106 Si / 1000 Ang^3
#
#
#
# Elastic Constant Matrix: (Units=GPa)
#
#
# Indices 1 2 3 4 5 6 
#
# 1 88.4866 59.5604 18.2626 0.0000 0.0000 0.0000
# 2 59.5604 132.4378 38.9315 0.0000 0.0000 0.0000
# 3 18.2626 38.9315 104.7563 0.0000 0.0000 0.0000
# 4 0.0000 0.0000 0.0000 40.5609 0.0000 0.0000
# 5 0.0000 0.0000 0.0000 0.0000 8.0995 0.0000
# 6 0.0000 0.0000 0.0000 0.0000 0.0000 41.2269
#
#
#
# Elastic Compliance Matrix: (Units=1/GPa)
#
#
# Indices 1 2 3 4 5 6 
#
# 1 0.016209 -0.007251 -0.000131 0.000000 0.000000 0.000000
# 2 -0.007251 0.011720 -0.003092 0.000000 0.000000 0.000000
# 3 -0.000131 -0.003092 0.010718 0.000000 0.000000 0.000000
# 4 0.000000 0.000000 0.000000 0.024654 0.000000 0.000000
# 5 0.000000 0.000000 0.000000 0.000000 0.123464 0.000000
# 6 0.000000 0.000000 0.000000 0.000000 0.000000 0.024256
#
#
# Mechanical properties :
#
#
# Convention : Reuss Voigt Hill
#
# Bulk Modulus (GPa) = 56.49799 62.13220 59.31509
# Shear Modulus (GPa) = 21.01998 31.90587 26.46293
#
# Velocity S-wave (km/s) = 2.96426 3.65204 3.32597
# Velocity P-wave (km/s) = 5.94417 6.61482 6.28844
#
# Compressibility (1/GPa) = 0.01769974
#
# Stress axis : x y z
#
# Youngs Moduli (GPa) = 61.69478 85.32067 93.30279
#
# Poissons Ratio (x) = 0.61866 0.01222
# Poissons Ratio (y) = 0.44735 0.28846
# Poissons Ratio (z) = 0.00808 0.26379
#
# Static dielectric constant tensor:
#      x y z
#    x 1.981590 0.000000 0.000000 
#    y 0.000000 1.921710 0.000000 
#    z 0.000000 0.000000 1.979900 
# 
# From -- ./inp_files/11592.got.cif
#   From: 2010.05.17/outbox.cif.g08.bks.cpg/sg46_6_cif.got.tgz:11592.got - 2010.06.03 19:58:25.
