data_PCOD9380802
_publ_section_title
;
Structure prediction by ZEFSAII (Michael W. Deem and Ramdas Pophale) SiO2 
 PCOD9380802
Probable space group: I M A 2
;
_chemical_formula_sum "Si O2"
_cell_formula_units_Z 64
_cell_length_a 19.253880
_cell_length_b 12.634805
_cell_length_c 14.437279
_cell_angle_alpha 90.000000
_cell_angle_beta 90.000000
_cell_angle_gamma 90.000000
_cell_volume 3512.142704
_symmetry_space_group_name_H-M "I M A 2"
_symmetry_group_IT_number 46
_symmetry_cell_setting 'orthorhombic'
loop_
_space_group_symop_operation_xyz
x,y,z
-x,-y,z
1/2-x,y,z
1/2+x,-y,z
1/2+x,1/2+y,1/2+z
1/2-x,1/2-y,1/2+z
-x,1/2+y,1/2+z
x,1/2-y,1/2+z
loop_
_atom_site_type_symbol
_atom_site_label
_atom_site_fract_x
_atom_site_fract_y
_atom_site_fract_z
Si Si1 0.831189 0.972006 0.030060
Si Si2 0.061859 0.915341 0.696856
Si Si3 0.508364 0.258361 0.558970
Si Si4 0.670197 0.798091 0.299498
Si Si5 0.827902 0.906301 0.693466
Si Si6 0.642557 0.778784 0.509352
Si Si7 0.934659 0.936325 0.185292
Si Si8 0.563088 0.084894 0.910092
O O1 0.750000 0.999096 0.042544
O O2 0.837754 0.844588 0.023141
O O3 0.884132 0.000206 0.114410
O O4 0.866338 0.025149 0.940101
O O5 0.050171 0.823289 0.622632
O O6 0.061228 0.878567 0.803814
O O7 0.129491 0.987055 0.685206
O O8 0.000000 0.000000 0.685928
O O9 0.440678 0.206579 0.511506
O O10 0.472803 0.345731 0.625298
O O11 0.550861 0.318885 0.480267
O O12 0.750000 0.809617 0.264533
O O13 0.644634 0.681138 0.267056
O O14 0.670009 0.808789 0.409180
O O15 0.617734 0.881525 0.255811
O O16 0.750000 0.930477 0.721989
O O17 0.829625 0.845359 0.595516
O O18 0.000000 0.000000 0.225603
O O19 0.500000 0.000000 0.922980
#
# Coordination Sequence:
#
# PCOD9380802 Si02
#       8
#     8   8   8   8   8   8   8   8
#     4  11  19  34  61  90 117 149 189 243 302 351
#     4  11  23  38  60  85 117 156 199 240 289 346
#     4  11  21  37  58  83 118 150 196 236 292 342
#     4  11  22  36  58  90 122 154 191 243 304 360
#     4  11  22  39  60  87 121 153 192 246 298 348
#     4  11  21  35  59  89 120 150 190 242 303 358
#     4  11  20  37  56  85 120 151 191 241 292 349
#     4  11  21  38  61  86 119 154 194 250 288 343
#
# _framework density 18.222494999999999
#
# number of rings (size 3 to 8) (size 9 to 14) (size 15 to 20)
#    0.000    1.000    7.500    2.250    3.500    1.500 
#    2.250    0.625    0.000    0.000    0.000    0.000 
#    0.000    0.000    0.000    0.000    0.000    0.000 
#
# Total GULP energy -178604.818747 kJ/mol
# GULP energy per Si atom -5581.400586 kJ/mol
# Density = 1.818102 g / cm^3
# Si number density = 18.222495 Si / 1000 Ang^3
#
#
#
# Elastic Constant Matrix: (Units=GPa)
#
#
# Indices 1 2 3 4 5 6 
#
# 1 105.8576 39.9582 21.4389 0.0000 0.0000 0.0000
# 2 39.9582 59.4150 43.4428 0.0000 0.0000 0.0000
# 3 21.4389 43.4428 101.4542 0.0000 0.0000 0.0000
# 4 0.0000 0.0000 0.0000 26.2475 0.0000 0.0000
# 5 0.0000 0.0000 0.0000 0.0000 -15.4310 0.0000
# 6 0.0000 0.0000 0.0000 0.0000 0.0000 29.4788
#
#
#
# Elastic Compliance Matrix: (Units=1/GPa)
#
#
# Indices 1 2 3 4 5 6 
#
# 1 0.012801 -0.009654 0.001429 0.000000 0.000000 0.000000
# 2 -0.009654 0.031782 -0.011569 0.000000 0.000000 0.000000
# 3 0.001429 -0.011569 0.014509 0.000000 0.000000 0.000000
# 4 0.000000 0.000000 0.000000 0.038099 0.000000 0.000000
# 5 0.000000 0.000000 0.000000 0.000000 -0.064805 0.000000
# 6 0.000000 0.000000 0.000000 0.000000 0.000000 0.033923
#
#
# Mechanical properties :
#
#
# Convention : Reuss Voigt Hill
#
# Bulk Modulus (GPa) = 51.27261 52.93407 52.10334
# Shear Modulus (GPa) = 44.48414 18.85150 31.66782
#
# Velocity S-wave (km/s) = 4.94618 3.21988 4.17327
# Velocity P-wave (km/s) = 7.79856 6.55251 7.20253
#
# Compressibility (1/GPa) = 0.01950359
#
# Stress axis : x y z
#
# Youngs Moduli (GPa) = 78.11658 31.46397 68.92407
#
# Poissons Ratio (x) = 0.30375 -0.09847
# Poissons Ratio (y) = 0.75413 0.79740
# Poissons Ratio (z) = -0.11160 0.36401
#
# Static dielectric constant tensor:
#      x y z
#    x 1.663150 0.000000 0.000000 
#    y 0.000000 1.633110 0.000000 
#    z 0.000000 0.000000 1.653370 
# 
# From -- ./inp_files/16764.got.cif
#   From: 2010.05.17/outbox.cif.g08.bks.cpg/sg46_9_cif.got.tgz:16764.got - 2010.06.03 19:58:25.
