data_PCOD9380385
_publ_section_title
;
Structure prediction by ZEFSAII (Michael W. Deem and Ramdas Pophale) SiO2 
 PCOD9380385
Probable space group: I M A 2
;
_chemical_formula_sum "Si O2"
_cell_formula_units_Z 44
_cell_length_a 13.537037
_cell_length_b 14.829806
_cell_length_c 11.434035
_cell_angle_alpha 90.000000
_cell_angle_beta 90.000000
_cell_angle_gamma 90.000000
_cell_volume 2295.401193
_symmetry_space_group_name_H-M "I M A 2"
_symmetry_group_IT_number 46
_symmetry_cell_setting 'orthorhombic'
loop_
_space_group_symop_operation_xyz
x,y,z
-x,-y,z
1/2-x,y,z
1/2+x,-y,z
1/2+x,1/2+y,1/2+z
1/2-x,1/2-y,1/2+z
-x,1/2+y,1/2+z
x,1/2-y,1/2+z
loop_
_atom_site_type_symbol
_atom_site_label
_atom_site_fract_x
_atom_site_fract_y
_atom_site_fract_z
Si Si1 0.500000 0.500000 0.375000
Si Si2 0.750000 0.326125 0.831468
Si Si3 0.477468 0.349994 0.048212
Si Si4 0.473172 0.852636 0.065954
Si Si5 0.634780 0.486207 0.154391
Si Si6 0.964984 0.094646 0.319809
Si Si7 0.750000 0.208925 0.068627
O O1 0.490590 0.412217 0.457356
O O2 0.591874 0.489643 0.286027
O O3 0.651172 0.385578 0.825345
O O4 0.750000 0.266428 0.709708
O O5 0.750000 0.275796 0.956543
O O6 0.484034 0.247435 0.087887
O O7 0.575143 0.405361 0.090516
O O8 0.393169 0.417230 0.095160
O O9 0.482089 0.338039 0.908357
O O10 0.497136 0.900923 0.187095
O O11 0.353974 0.843159 0.054556
O O12 0.750000 0.470150 0.149303
O O13 0.000000 0.000000 0.369965
#
# Coordination Sequence:
#
# PCOD9380385 Si02
#       7
#     4   4   8   8   8   8   4
#     4  10  24  42  62  92 124 170 202 262 310 368
#     4  10  22  36  62  96 125 159 205 255 318 372
#     4  10  22  38  66  94 118 167 203 257 316 361
#     4  11  23  40  63  93 130 159 209 255 316 369
#     4  10  24  43  63  91 128 164 210 254 311 379
#     4  11  21  39  60  90 125 161 199 258 311 363
#     4  10  22  36  62 100 121 159 203 263 318 370
#
# _framework density 19.168762000000001
#
# number of rings (size 3 to 8) (size 9 to 14) (size 15 to 20)
#    0.000    1.818    4.545    0.000    8.909    0.000 
#    0.000    0.909    2.000    0.000    0.000    0.000 
#    0.000    0.000    0.000    0.000    0.000    0.000 
#
# Total GULP energy -122542.345288 kJ/mol
# GULP energy per Si atom -5570.106604 kJ/mol
# Density = 1.912513 g / cm^3
# Si number density = 19.168762 Si / 1000 Ang^3
#
#
#
# Elastic Constant Matrix: (Units=GPa)
#
#
# Indices 1 2 3 4 5 6 
#
# 1 51.7465 11.9931 27.7226 0.0000 0.0000 0.0000
# 2 11.9931 105.1657 37.7020 0.0000 0.0000 0.0000
# 3 27.7226 37.7020 138.8949 0.0000 0.0000 0.0000
# 4 0.0000 0.0000 0.0000 6.8391 0.0000 0.0000
# 5 0.0000 0.0000 0.0000 0.0000 9.6076 0.0000
# 6 0.0000 0.0000 0.0000 0.0000 0.0000 9.5972
#
#
#
# Elastic Compliance Matrix: (Units=1/GPa)
#
#
# Indices 1 2 3 4 5 6 
#
# 1 0.021738 -0.001023 -0.004061 0.000000 0.000000 0.000000
# 2 -0.001023 0.010582 -0.002668 0.000000 0.000000 0.000000
# 3 -0.004061 -0.002668 0.008735 0.000000 0.000000 0.000000
# 4 0.000000 0.000000 0.000000 0.146217 0.000000 0.000000
# 5 0.000000 0.000000 0.000000 0.000000 0.104085 0.000000
# 6 0.000000 0.000000 0.000000 0.000000 0.000000 0.104197
#
#
# Mechanical properties :
#
#
# Convention : Reuss Voigt Hill
#
# Bulk Modulus (GPa) = 39.13948 50.07139 44.60544
# Shear Modulus (GPa) = 11.91683 19.76807 15.84245
#
# Velocity S-wave (km/s) = 2.49606 3.21482 2.87796
# Velocity P-wave (km/s) = 5.36374 6.32124 5.86208
#
# Compressibility (1/GPa) = 0.02554965
#
# Stress axis : x y z
#
# Youngs Moduli (GPa) = 46.00294 94.49976 114.48843
#
# Poissons Ratio (x) = 0.09668 0.46494
# Poissons Ratio (y) = 0.04707 0.30548
# Poissons Ratio (z) = 0.18682 0.25215
#
# Static dielectric constant tensor:
#      x y z
#    x 1.643380 0.000000 0.000000 
#    y 0.000000 1.820020 0.000000 
#    z 0.000000 0.000000 1.695320 
# 
# From -- ./inp_files/11042.got.cif
#   From: 2010.05.17/outbox.cif.g08.bks.cpg/sg46_6_cif.got.tgz:11042.got - 2010.06.03 19:58:25.
