data_PCOD9380170
_publ_section_title
;
Structure prediction by ZEFSAII (Michael W. Deem and Ramdas Pophale) SiO2 
 PCOD9380170
Probable space group: I M A 2
;
_chemical_formula_sum "Si O2"
_cell_formula_units_Z 60
_cell_length_a 20.305012
_cell_length_b 5.441045
_cell_length_c 25.127083
_cell_angle_alpha 90.000000
_cell_angle_beta 90.000000
_cell_angle_gamma 90.000000
_cell_volume 2776.052292
_symmetry_space_group_name_H-M "I M A 2"
_symmetry_group_IT_number 46
_symmetry_cell_setting 'orthorhombic'
loop_
_space_group_symop_operation_xyz
x,y,z
-x,-y,z
1/2-x,y,z
1/2+x,-y,z
1/2+x,1/2+y,1/2+z
1/2-x,1/2-y,1/2+z
-x,1/2+y,1/2+z
x,1/2-y,1/2+z
loop_
_atom_site_type_symbol
_atom_site_label
_atom_site_fract_x
_atom_site_fract_y
_atom_site_fract_z
Si Si1 0.500000 0.500000 0.929651
Si Si2 0.931910 0.150715 0.721236
Si Si3 0.325398 0.131422 0.667027
Si Si4 0.439818 0.681650 0.335601
Si Si5 0.678786 0.320503 0.063969
Si Si6 0.862402 0.883520 0.468067
Si Si7 0.675055 0.392907 0.407002
Si Si8 0.075732 0.526086 0.614838
O O1 0.536451 0.327113 0.887321
O O2 0.441924 0.381314 0.964021
O O3 0.929243 0.297351 0.777239
O O4 0.931728 0.312005 0.668392
O O5 0.867656 0.974515 0.716343
O O6 0.000000 0.000000 0.718356
O O7 0.250000 0.223607 0.677715
O O8 0.376584 0.310979 0.636685
O O9 0.316825 0.912916 0.624415
O O10 0.500000 0.500000 0.326534
O O11 0.372669 0.566034 0.356791
O O12 0.750000 0.211767 0.048780
O O13 0.616459 0.143461 0.066023
O O14 0.663782 0.550080 0.026206
O O15 0.837232 0.624758 0.445838
O O16 0.838464 0.126386 0.434598
O O17 0.750000 0.394259 0.389891
O O18 0.000000 0.500000 0.597208
#
# Coordination Sequence:
#
# PCOD9380170 Si02
#       8
#     4   8   8   8   8   8   8   8
#     4  10  22  40  62  98 130 162 224 272 334 380
#     4  10  21  38  64  91 122 168 218 262 334 400
#     4  10  22  40  61  90 128 166 213 277 333 397
#     4  10  21  39  65  89 126 168 210 269 328 398
#     4  10  23  41  62  89 126 173 217 265 335 401
#     4  11  24  42  68  93 132 174 220 272 331 396
#     4  11  23  42  65  96 130 169 220 274 328 393
#     4  11  22  38  62  92 126 164 224 274 332 397
#
# _framework density 21.613427000000001
#
# number of rings (size 3 to 8) (size 9 to 14) (size 15 to 20)
#    0.000    1.600    2.667    1.600    2.800    2.133 
#    0.000    0.000    0.000    0.000    0.000    0.000 
#    0.000    0.000    0.000    0.000    0.000    0.000 
#
# Total GULP energy -167125.545777 kJ/mol
# GULP energy per Si atom -5570.851526 kJ/mol
# Density = 2.156423 g / cm^3
# Si number density = 21.613427 Si / 1000 Ang^3
#
#
#
# Elastic Constant Matrix: (Units=GPa)
#
#
# Indices 1 2 3 4 5 6 
#
# 1 213.7796 28.3497 29.1611 0.0000 0.0000 0.0000
# 2 28.3497 44.0865 -7.6178 0.0000 0.0000 0.0000
# 3 29.1611 -7.6178 61.0462 0.0000 0.0000 0.0000
# 4 0.0000 0.0000 0.0000 19.2603 0.0000 0.0000
# 5 0.0000 0.0000 0.0000 0.0000 -5.8807 0.0000
# 6 0.0000 0.0000 0.0000 0.0000 0.0000 22.9298
#
#
#
# Elastic Compliance Matrix: (Units=1/GPa)
#
#
# Indices 1 2 3 4 5 6 
#
# 1 0.005678 -0.004210 -0.003238 0.000000 0.000000 0.000000
# 2 -0.004210 0.026305 0.005294 0.000000 0.000000 0.000000
# 3 -0.003238 0.005294 0.018588 0.000000 0.000000 0.000000
# 4 0.000000 0.000000 0.000000 0.051920 0.000000 0.000000
# 5 0.000000 0.000000 0.000000 0.000000 -0.170047 0.000000
# 6 0.000000 0.000000 0.000000 0.000000 0.000000 0.043611
#
#
# Mechanical properties :
#
#
# Convention : Reuss Voigt Hill
#
# Bulk Modulus (GPa) = 21.61582 46.52201 34.06892
# Shear Modulus (GPa) = -1186.22612 25.19650 -580.51481
#
# Velocity S-wave (km/s) = -23.45270 3.41806 -16.40649
# Velocity P-wave (km/s) = 26.89515 6.09498 18.52297
#
# Compressibility (1/GPa) = 0.04626241
#
# Stress axis : x y z
#
# Youngs Moduli (GPa) = 176.12760 38.01566 53.79756
#
# Poissons Ratio (x) = 0.16006 0.17417
# Poissons Ratio (y) = 0.74158 -0.28479
# Poissons Ratio (z) = 0.57023 -0.20125
#
# Static dielectric constant tensor:
#      x y z
#    x 1.987340 0.000000 0.000000 
#    y 0.000000 1.863790 0.000000 
#    z 0.000000 0.000000 1.846670 
# 
# From -- ./inp_files/23874.got.cif
#   From: 2010.05.17/outbox.cif.g08.bks.cpg/sg46_12_cif.got.tgz:23874.got - 2010.06.03 19:58:25.
