data_PCOD9380533
_publ_section_title
;
Structure prediction by ZEFSAII (Michael W. Deem and Ramdas Pophale) SiO2 
 PCOD9380533
Probable space group: I M A 2
;
_chemical_formula_sum "Si O2"
_cell_formula_units_Z 48
_cell_length_a 8.496379
_cell_length_b 27.794069
_cell_length_c 9.692457
_cell_angle_alpha 90.000000
_cell_angle_beta 90.000000
_cell_angle_gamma 90.000000
_cell_volume 2288.863487
_symmetry_space_group_name_H-M "I M A 2"
_symmetry_group_IT_number 46
_symmetry_cell_setting 'orthorhombic'
loop_
_space_group_symop_operation_xyz
x,y,z
-x,-y,z
1/2-x,y,z
1/2+x,-y,z
1/2+x,1/2+y,1/2+z
1/2-x,1/2-y,1/2+z
-x,1/2+y,1/2+z
x,1/2-y,1/2+z
loop_
_atom_site_type_symbol
_atom_site_label
_atom_site_fract_x
_atom_site_fract_y
_atom_site_fract_z
Si Si1 0.065953 0.379287 0.932770
Si Si2 0.067028 0.086548 0.947529
Si Si3 0.439396 0.781615 0.336361
Si Si4 0.566162 0.452198 0.721266
Si Si5 0.065869 0.553496 0.163517
Si Si6 0.560087 0.191377 0.022040
O O1 0.250000 0.384706 0.902254
O O2 0.017767 0.323840 0.925618
O O3 0.966223 0.406332 0.815580
O O4 0.023397 0.406785 0.072573
O O5 0.250000 0.083136 0.909652
O O6 0.962699 0.067727 0.821834
O O7 0.021456 0.140955 0.988403
O O8 0.030558 0.055002 0.081731
O O9 0.250000 0.786519 0.345531
O O10 0.479892 0.730641 0.405155
O O11 0.482493 0.789185 0.175308
O O12 0.500000 0.500000 0.793520
O O13 0.750000 0.456559 0.693019
O O14 0.250000 0.554587 0.128486
O O15 0.000000 0.500000 0.140068
O O16 0.750000 0.184182 0.021156
#
# Coordination Sequence:
#
# PCOD9380533 Si02
#       6
#     8   8   8   8   8   8
#     4  12  25  43  66  98 135 172 217 272 329 389
#     4  12  25  43  66  98 135 172 217 272 329 389
#     4  10  22  41  66  97 132 173 220 269 327 392
#     4  12  24  42  67  96 129 172 218 267 325 389
#     4  12  26  46  69  96 133 176 222 271 327 393
#     4  10  22  41  66  97 132 173 220 269 327 392
#
# _framework density 20.971105999999999
#
# number of rings (size 3 to 8) (size 9 to 14) (size 15 to 20)
#    0.000    0.667    1.667    7.000    2.333    0.667 
#    0.000    0.000    0.000    0.000    0.000    0.000 
#    0.000    0.000    0.000    0.000    0.000    0.000 
#
# Total GULP energy -134356.006397 kJ/mol
# GULP energy per Si atom -5598.166933 kJ/mol
# Density = 2.092338 g / cm^3
# Si number density = 20.971106 Si / 1000 Ang^3
#
#
#
# Elastic Constant Matrix: (Units=GPa)
#
#
# Indices 1 2 3 4 5 6 
#
# 1 73.4391 27.0646 -11.6040 -0.0008 -0.0001 0.0000
# 2 27.0646 89.0990 -5.8301 0.0011 0.0004 0.0000
# 3 -11.6040 -5.8301 55.1900 -0.0027 -0.0016 0.0001
# 4 -0.0008 0.0011 -0.0027 43.0076 -0.0011 0.0002
# 5 -0.0001 0.0004 -0.0016 -0.0011 31.7233 0.0002
# 6 0.0000 0.0000 0.0001 0.0002 0.0002 34.5844
#
#
#
# Elastic Compliance Matrix: (Units=1/GPa)
#
#
# Indices 1 2 3 4 5 6 
#
# 1 0.015759 -0.004602 0.002827 0.000001 0.000000 0.000000
# 2 -0.004602 0.012645 0.000368 0.000000 0.000000 0.000000
# 3 0.002827 0.000368 0.018753 0.000001 0.000001 0.000000
# 4 0.000001 0.000000 0.000001 0.023252 0.000001 0.000000
# 5 0.000000 0.000000 0.000001 0.000001 0.031523 0.000000
# 6 0.000000 0.000000 0.000000 0.000000 0.000000 0.028915
#
#
# Mechanical properties :
#
#
# Convention : Reuss Voigt Hill
#
# Bulk Modulus (GPa) = 22.55067 26.33212 24.44140
# Shear Modulus (GPa) = 33.68342 35.73626 34.70984
#
# Velocity S-wave (km/s) = 4.01207 4.13252 4.07274
# Velocity P-wave (km/s) = 5.67792 5.94592 5.81346
#
# Compressibility (1/GPa) = 0.04434457
#
# Stress axis : x y z
#
# Youngs Moduli (GPa) = 63.45394 79.07965 53.32596
#
# Poissons Ratio (x) = 0.36393 -0.15077
# Poissons Ratio (y) = 0.29202 -0.01964
# Poissons Ratio (z) = -0.17941 -0.02912
#
# Static dielectric constant tensor:
#      x y z
#    x 1.692920 0.000000 0.000000 
#    y 0.000000 1.580690 0.000000 
#    z 0.000000 0.000000 1.742390 
# 
# From -- ./inp_files/3940.got.cif
#   From: 2010.05.17/outbox.cif.g08.bks.cpg/sg46_2_cif.got.tgz:3940.got - 2010.06.03 19:58:25.
