data_PCOD9380986
_publ_section_title
;
Structure prediction by ZEFSAII (Michael W. Deem and Ramdas Pophale) SiO2 
 PCOD9380986
Probable space group: I M A 2
;
_chemical_formula_sum "Si O2"
_cell_formula_units_Z 56
_cell_length_a 20.480029
_cell_length_b 14.636156
_cell_length_c 8.442004
_cell_angle_alpha 90.000000
_cell_angle_beta 90.000000
_cell_angle_gamma 90.000000
_cell_volume 2530.481407
_symmetry_space_group_name_H-M "I M A 2"
_symmetry_group_IT_number 46
_symmetry_cell_setting 'orthorhombic'
loop_
_space_group_symop_operation_xyz
x,y,z
-x,-y,z
1/2-x,y,z
1/2+x,-y,z
1/2+x,1/2+y,1/2+z
1/2-x,1/2-y,1/2+z
-x,1/2+y,1/2+z
x,1/2-y,1/2+z
loop_
_atom_site_type_symbol
_atom_site_label
_atom_site_fract_x
_atom_site_fract_y
_atom_site_fract_z
Si Si1 0.750000 0.263748 0.396370
Si Si2 0.617871 0.351823 0.269732
Si Si3 0.403024 0.157007 0.104372
Si Si4 0.171311 0.479795 0.086763
Si Si5 0.172881 0.302647 0.286203
Si Si6 0.250000 0.611302 0.687998
Si Si7 0.384017 0.968498 0.245006
Si Si8 0.950408 0.303658 0.592032
O O1 0.684736 0.303409 0.320850
O O2 0.750000 0.301449 0.573501
O O3 0.750000 0.155995 0.363154
O O4 0.637963 0.451821 0.212519
O O5 0.571515 0.344435 0.422970
O O6 0.585703 0.291095 0.131014
O O7 0.356647 0.206737 0.231060
O O8 0.472293 0.207353 0.096393
O O9 0.415954 0.053636 0.157349
O O10 0.365560 0.162255 0.938849
O O11 0.250000 0.494179 0.079518
O O12 0.162741 0.376005 0.145460
O O13 0.136126 0.502497 0.921511
O O14 0.250000 0.295726 0.319394
O O15 0.185225 0.554333 0.661494
O O16 0.426227 0.876910 0.223945
#
# Coordination Sequence:
#
# PCOD9380986 Si02
#       8
#     4   8   8   8   8   4   8   8
#     4  12  22  40  64 101 143 176 226 282 330 396
#     4  12  23  41  69  99 142 183 227 281 341 417
#     4  12  27  49  71  97 141 179 235 292 346 426
#     4  11  25  42  69 104 139 173 229 293 351 406
#     4  11  26  47  75 104 129 177 233 301 361 401
#     4  12  26  38  70 107 141 184 232 284 350 398
#     4  12  25  42  70 102 141 183 232 285 348 411
#     4  12  26  45  66 101 140 193 226 275 353 426
#
# _framework density 22.130177
#
# number of rings (size 3 to 8) (size 9 to 14) (size 15 to 20)
#    0.000    0.286    4.286    4.286    4.000    1.143 
#    0.000    6.429    0.000    0.000    0.000    0.000 
#    0.000    0.000    0.000    0.000    0.000    0.000 
#
# Total GULP energy -156792.244146 kJ/mol
# GULP energy per Si atom -5599.723005 kJ/mol
# Density = 2.207981 g / cm^3
# Si number density = 22.130177 Si / 1000 Ang^3
#
#
#
# Elastic Constant Matrix: (Units=GPa)
#
#
# Indices 1 2 3 4 5 6 
#
# 1 107.4856 -6.0391 12.3649 0.0000 0.0000 0.0000
# 2 -6.0391 56.4249 -14.5101 0.0000 0.0000 0.0000
# 3 12.3649 -14.5101 73.9552 0.0000 0.0000 0.0000
# 4 0.0000 0.0000 0.0000 32.4536 0.0000 0.0000
# 5 0.0000 0.0000 0.0000 0.0000 95.0416 0.0000
# 6 0.0000 0.0000 0.0000 0.0000 0.0000 22.7079
#
#
#
# Elastic Compliance Matrix: (Units=1/GPa)
#
#
# Indices 1 2 3 4 5 6 
#
# 1 0.009508 0.000641 -0.001464 0.000000 0.000000 0.000000
# 2 0.000641 0.018708 0.003563 0.000000 0.000000 0.000000
# 3 -0.001464 0.003563 0.014466 0.000000 0.000000 0.000000
# 4 0.000000 0.000000 0.000000 0.030813 0.000000 0.000000
# 5 0.000000 0.000000 0.000000 0.000000 0.010522 0.000000
# 6 0.000000 0.000000 0.000000 0.000000 0.000000 0.044038
#
#
# Mechanical properties :
#
#
# Convention : Reuss Voigt Hill
#
# Bulk Modulus (GPa) = 20.76314 24.61080 22.68697
# Shear Modulus (GPa) = 36.06810 46.44394 41.25602
#
# Velocity S-wave (km/s) = 4.04148 4.58609 4.32237
# Velocity P-wave (km/s) = 5.58397 6.26004 5.93164
#
# Compressibility (1/GPa) = 0.04816226
#
# Stress axis : x y z
#
# Youngs Moduli (GPa) = 105.17458 53.45416 69.12970
#
# Poissons Ratio (x) = -0.03427 0.10120
# Poissons Ratio (y) = -0.06744 -0.24633
# Poissons Ratio (z) = 0.15396 -0.19047
#
# Static dielectric constant tensor:
#      x y z
#    x 1.684580 0.000000 0.000000 
#    y 0.000000 1.775220 0.000000 
#    z 0.000000 0.000000 1.859880 
# 
# From -- ./inp_files/7445.got.cif
#   From: 2010.05.17/outbox.cif.g08.bks.cpg/sg46_4_cif.got.tgz:7445.got - 2010.06.03 19:58:25.
