data_PCOD9380406
_publ_section_title
;
Structure prediction by ZEFSAII (Michael W. Deem and Ramdas Pophale) SiO2 
 PCOD9380406
Probable space group: I M A 2
;
_chemical_formula_sum "Si O2"
_cell_formula_units_Z 20
_cell_length_a 5.625506
_cell_length_b 31.741814
_cell_length_c 4.682385
_cell_angle_alpha 90.000000
_cell_angle_beta 90.000000
_cell_angle_gamma 90.000000
_cell_volume 836.104295
_symmetry_space_group_name_H-M "I M A 2"
_symmetry_group_IT_number 46
_symmetry_cell_setting 'orthorhombic'
loop_
_space_group_symop_operation_xyz
x,y,z
-x,-y,z
1/2-x,y,z
1/2+x,-y,z
1/2+x,1/2+y,1/2+z
1/2-x,1/2-y,1/2+z
-x,1/2+y,1/2+z
x,1/2-y,1/2+z
loop_
_atom_site_type_symbol
_atom_site_label
_atom_site_fract_x
_atom_site_fract_y
_atom_site_fract_z
Si Si1 0.750000 0.720860 0.474620
Si Si2 0.750000 0.081292 0.973880
Si Si3 0.999938 0.348920 0.785740
Si Si4 0.250000 0.523371 0.974873
O O1 0.750000 0.764437 0.651456
O O2 0.534489 0.691702 0.582134
O O3 0.750000 0.067169 0.649973
O O4 0.534224 0.110371 0.082869
O O5 0.750000 0.037553 0.146015
O O6 0.750000 0.344294 0.947142
O O7 0.250000 0.353440 0.947385
O O8 0.500000 0.500000 0.035892
#
# Coordination Sequence:
#
# PCOD9380406 Si02
#       4
#     4   4   8   4
#     4  10  22  38  60  92 128 158 210 262 300 354
#     4  10  24  46  65  89 132 158 214 247 299 398
#     4   8  20  40  61  91 116 174 200 250 307 359
#     4  12  28  40  69  97 124 160 200 261 321 356
#
# _framework density 23.920459000000001
#
# number of rings (size 3 to 8) (size 9 to 14) (size 15 to 20)
#    2.400    0.000    0.000    1.200    5.600    4.800 
#    0.000    0.000    0.000    0.000    0.000    0.000 
#    0.000    0.000    0.000    0.000    0.000    0.000 
#
# Total GULP energy -55689.804703 kJ/mol
# GULP energy per Si atom -5568.980470 kJ/mol
# Density = 2.386601 g / cm^3
# Si number density = 23.920459 Si / 1000 Ang^3
#
#
#
# Elastic Constant Matrix: (Units=GPa)
#
#
# Indices 1 2 3 4 5 6 
#
# 1 220.4661 38.8677 11.0371 -0.0012 0.0009 0.0002
# 2 38.8677 110.0842 10.5082 -0.0021 0.0007 -0.0007
# 3 11.0371 10.5082 63.1335 -0.0041 0.0041 -0.0009
# 4 -0.0012 -0.0021 -0.0041 39.4448 0.0013 0.0004
# 5 0.0009 0.0007 0.0041 0.0013 -23.8957 -0.0002
# 6 0.0002 -0.0007 -0.0009 0.0004 -0.0002 40.5359
#
#
#
# Elastic Compliance Matrix: (Units=1/GPa)
#
#
# Indices 1 2 3 4 5 6 
#
# 1 0.004857 -0.001660 -0.000573 0.000000 0.000000 0.000000
# 2 -0.001660 0.009798 -0.001341 0.000000 0.000000 0.000000
# 3 -0.000573 -0.001341 0.016163 0.000002 0.000003 0.000000
# 4 0.000000 0.000000 0.000002 0.025352 0.000001 0.000000
# 5 0.000000 0.000000 0.000003 0.000001 -0.041848 0.000000
# 6 0.000000 0.000000 0.000000 0.000000 0.000000 0.024669
#
#
# Mechanical properties :
#
#
# Convention : Reuss Voigt Hill
#
# Bulk Modulus (GPa) = 42.24625 57.16774 49.70700
# Shear Modulus (GPa) = 92.54369 33.43505 62.98937
#
# Velocity S-wave (km/s) = 6.22672 3.74272 5.13712
# Velocity P-wave (km/s) = 8.33040 6.52903 7.48411
#
# Compressibility (1/GPa) = 0.02367074
#
# Stress axis : x y z
#
# Youngs Moduli (GPa) = 205.87892 102.06045 61.87081
#
# Poissons Ratio (x) = 0.16945 0.03544
# Poissons Ratio (y) = 0.34182 0.08294
# Poissons Ratio (z) = 0.11793 0.13682
#
# Static dielectric constant tensor:
#      x y z
#    x 1.953080 0.000000 0.000000 
#    y 0.000000 1.888620 0.000000 
#    z 0.000000 0.000000 1.804730 
# 
# From -- ./inp_files/174.got.cif
#   From: 2010.05.17/outbox.cif.g08.bks.cpg/sg46_1_cif.got.tgz:174.got - 2010.06.03 19:58:25.
