data_PCOD9380558
_publ_section_title
;
Structure prediction by ZEFSAII (Michael W. Deem and Ramdas Pophale) SiO2 
 PCOD9380558
Probable space group: I M A 2
;
_chemical_formula_sum "Si O2"
_cell_formula_units_Z 48
_cell_length_a 16.747439
_cell_length_b 16.095184
_cell_length_c 7.668709
_cell_angle_alpha 90.000000
_cell_angle_beta 90.000000
_cell_angle_gamma 90.000000
_cell_volume 2067.124378
_symmetry_space_group_name_H-M "I M A 2"
_symmetry_group_IT_number 46
_symmetry_cell_setting 'orthorhombic'
loop_
_space_group_symop_operation_xyz
x,y,z
-x,-y,z
1/2-x,y,z
1/2+x,-y,z
1/2+x,1/2+y,1/2+z
1/2-x,1/2-y,1/2+z
-x,1/2+y,1/2+z
x,1/2-y,1/2+z
loop_
_atom_site_type_symbol
_atom_site_label
_atom_site_fract_x
_atom_site_fract_y
_atom_site_fract_z
Si Si1 0.750000 0.259705 0.761700
Si Si2 0.918733 0.321116 0.890979
Si Si3 0.488214 0.592390 0.203082
Si Si4 0.844893 0.877573 0.159333
Si Si5 0.917366 0.725026 0.345993
Si Si6 0.412945 0.551335 0.572579
Si Si7 0.750000 0.387304 0.440866
O O1 0.832786 0.281621 0.858128
O O2 0.750000 0.316256 0.591179
O O3 0.750000 0.160083 0.757995
O O4 0.928229 0.385162 0.730187
O O5 0.991737 0.255699 0.887011
O O6 0.923799 0.364570 0.078652
O O7 0.500000 0.500000 0.130435
O O8 0.564006 0.654508 0.199513
O O9 0.467867 0.576862 0.407403
O O10 0.750000 0.896901 0.171047
O O11 0.867757 0.826139 0.986461
O O12 0.901611 0.959523 0.156059
O O13 0.870912 0.809019 0.300650
O O14 0.327739 0.561183 0.478887
#
# Coordination Sequence:
#
# PCOD9380558 Si02
#       7
#     4   8   8   8   8   8   4
#     4  10  24  42  68 104 142 187 237 284 367 437
#     4  11  27  45  70 107 147 186 238 297 366 439
#     4  12  26  43  69 107 138 183 245 293 366 435
#     4  12  26  49  75 105 145 194 249 302 360 434
#     4  12  25  46  73 102 146 194 239 304 363 432
#     4  11  25  45  72 103 145 189 232 299 369 425
#     4  10  22  42  66  98 144 183 227 298 357 423
#
# _framework density 23.220666000000001
#
# number of rings (size 3 to 8) (size 9 to 14) (size 15 to 20)
#    0.000    0.667    4.167    2.500    9.333    0.000 
#    0.000    0.000    0.000    0.000    0.000    0.000 
#    0.000    0.000    0.000    0.000    0.000    0.000 
#
# Total GULP energy -133972.482801 kJ/mol
# GULP energy per Si atom -5582.186783 kJ/mol
# Density = 2.316781 g / cm^3
# Si number density = 23.220666 Si / 1000 Ang^3
#
#
#
# Elastic Constant Matrix: (Units=GPa)
#
#
# Indices 1 2 3 4 5 6 
#
# 1 98.8823 5.0611 4.0099 0.0000 0.0000 0.0000
# 2 5.0611 120.0576 4.7822 0.0000 0.0000 0.0000
# 3 4.0099 4.7822 61.0308 0.0000 0.0000 0.0000
# 4 0.0000 0.0000 0.0000 35.1786 0.0000 0.0000
# 5 0.0000 0.0000 0.0000 0.0000 31.5037 0.0000
# 6 0.0000 0.0000 0.0000 0.0000 0.0000 34.9897
#
#
#
# Elastic Compliance Matrix: (Units=1/GPa)
#
#
# Indices 1 2 3 4 5 6 
#
# 1 0.010159 -0.000403 -0.000636 0.000000 0.000000 0.000000
# 2 -0.000403 0.008371 -0.000629 0.000000 0.000000 0.000000
# 3 -0.000636 -0.000629 0.016476 0.000000 0.000000 0.000000
# 4 0.000000 0.000000 0.000000 0.028426 0.000000 0.000000
# 5 0.000000 0.000000 0.000000 0.000000 0.031742 0.000000
# 6 0.000000 0.000000 0.000000 0.000000 0.000000 0.028580
#
#
# Mechanical properties :
#
#
# Convention : Reuss Voigt Hill
#
# Bulk Modulus (GPa) = 31.57524 34.18635 32.88079
# Shear Modulus (GPa) = 36.32424 38.07557 37.19991
#
# Velocity S-wave (km/s) = 3.95942 4.05375 4.00686
# Velocity P-wave (km/s) = 5.87623 6.05515 5.96636
#
# Compressibility (1/GPa) = 0.03167039
#
# Stress axis : x y z
#
# Youngs Moduli (GPa) = 98.43059 119.45437 60.69333
#
# Poissons Ratio (x) = 0.04813 0.03860
# Poissons Ratio (y) = 0.03966 0.03821
# Poissons Ratio (z) = 0.06259 0.07520
#
# Static dielectric constant tensor:
#      x y z
#    x 1.875070 0.000000 0.000000 
#    y 0.000000 1.939020 0.000000 
#    z 0.000000 0.000000 1.959380 
# 
# From -- ./inp_files/6633.got.cif
#   From: 2010.05.17/outbox.cif.g08.bks.cpg/sg46_4_cif.got.tgz:6633.got - 2010.06.03 19:58:25.
