data_PCOD9380997
_publ_section_title
;
Structure prediction by ZEFSAII (Michael W. Deem and Ramdas Pophale) SiO2 
 PCOD9380997
Probable space group: I M A 2
;
_chemical_formula_sum "Si O2"
_cell_formula_units_Z 40
_cell_length_a 14.261148
_cell_length_b 5.059975
_cell_length_c 23.715679
_cell_angle_alpha 90.000000
_cell_angle_beta 90.000000
_cell_angle_gamma 90.000000
_cell_volume 1711.348354
_symmetry_space_group_name_H-M "I M A 2"
_symmetry_group_IT_number 46
_symmetry_cell_setting 'orthorhombic'
loop_
_space_group_symop_operation_xyz
x,y,z
-x,-y,z
1/2-x,y,z
1/2+x,-y,z
1/2+x,1/2+y,1/2+z
1/2-x,1/2-y,1/2+z
-x,1/2+y,1/2+z
x,1/2-y,1/2+z
loop_
_atom_site_type_symbol
_atom_site_label
_atom_site_fract_x
_atom_site_fract_y
_atom_site_fract_z
Si Si1 0.500000 0.000000 0.449690
Si Si2 0.400433 0.856120 0.026601
Si Si3 0.901267 0.853281 0.285552
Si Si4 0.000000 0.000000 0.866802
Si Si5 0.250000 0.097923 0.945012
Si Si6 0.750000 0.820536 0.695506
Si Si7 0.750000 0.326045 0.621192
Si Si8 0.750000 0.400833 0.864911
O O1 0.581395 0.085479 0.492685
O O2 0.502188 0.249800 0.408185
O O3 0.341266 0.793503 0.082066
O O4 0.500000 0.000000 0.037023
O O5 0.338295 0.036919 0.984993
O O6 0.840663 0.757440 0.232673
O O7 0.838510 0.043099 0.324791
O O8 0.920535 0.595737 0.323655
O O9 0.000000 0.000000 0.272828
O O10 0.250000 0.877829 0.895746
O O11 0.250000 0.377342 0.914042
O O12 0.750000 0.625108 0.642689
O O13 0.750000 0.119520 0.672856
#
# Coordination Sequence:
#
# PCOD9380997 Si02
#       8
#     4   8   8   4   4   4   4   4
#     4  12  24  40  71 110 153 194 238 294 372 462
#     4  11  27  47  76 110 153 196 261 311 377 462
#     4  11  27  47  76 110 153 196 261 311 377 462
#     4  12  24  40  71 110 153 194 238 294 372 462
#     4  11  26  41  66 106 156 199 236 295 370 448
#     4  11  30  55  78 108 152 199 264 335 393 437
#     4  11  30  55  78 108 152 199 264 335 393 437
#     4  11  26  41  66 106 156 199 236 295 370 448
#
# _framework density 23.373381999999999
#
# number of rings (size 3 to 8) (size 9 to 14) (size 15 to 20)
#    0.000    0.800    2.000    2.400   11.200    4.000 
#    0.000    0.000    0.000    0.000    0.000    0.000 
#    0.000    0.000    0.000    0.000    0.000    0.000 
#
# Total GULP energy -111980.539561 kJ/mol
# GULP energy per Si atom -5599.026978 kJ/mol
# Density = 2.332018 g / cm^3
# Si number density = 23.373382 Si / 1000 Ang^3
#
#
#
# Elastic Constant Matrix: (Units=GPa)
#
#
# Indices 1 2 3 4 5 6 
#
# 1 165.6189 25.2439 46.5464 0.0000 0.0000 0.0000
# 2 25.2439 125.1586 5.7276 0.0000 0.0000 0.0000
# 3 46.5464 5.7276 81.6978 0.0000 0.0000 0.0000
# 4 0.0000 0.0000 0.0000 40.5597 0.0000 0.0000
# 5 0.0000 0.0000 0.0000 0.0000 57.5148 0.0000
# 6 0.0000 0.0000 0.0000 0.0000 0.0000 29.7391
#
#
#
# Elastic Compliance Matrix: (Units=1/GPa)
#
#
# Indices 1 2 3 4 5 6 
#
# 1 0.007395 -0.001303 -0.004122 0.000000 0.000000 0.000000
# 2 -0.001303 0.008245 0.000164 0.000000 0.000000 0.000000
# 3 -0.004122 0.000164 0.014577 0.000000 0.000000 0.000000
# 4 0.000000 0.000000 0.000000 0.024655 0.000000 0.000000
# 5 0.000000 0.000000 0.000000 0.000000 0.017387 0.000000
# 6 0.000000 0.000000 0.000000 0.000000 0.000000 0.033626
#
#
# Mechanical properties :
#
#
# Convention : Reuss Voigt Hill
#
# Bulk Modulus (GPa) = 50.77114 58.61234 54.69174
# Shear Modulus (GPa) = 40.65991 45.22655 42.94323
#
# Velocity S-wave (km/s) = 4.17535 4.40359 4.29099
# Velocity P-wave (km/s) = 6.70923 7.14048 6.92821
#
# Compressibility (1/GPa) = 0.01969623
#
# Stress axis : x y z
#
# Youngs Moduli (GPa) = 135.22687 121.28367 68.60071
#
# Poissons Ratio (x) = 0.15802 0.28276
# Poissons Ratio (y) = 0.17619 -0.01127
# Poissons Ratio (z) = 0.55739 -0.01992
#
# Static dielectric constant tensor:
#      x y z
#    x 2.005420 0.000000 0.000000 
#    y 0.000000 1.897510 0.000000 
#    z 0.000000 0.000000 1.842530 
# 
# From -- ./inp_files/23578.got.cif
#   From: 2010.05.17/outbox.cif.g08.bks.cpg/sg46_12_cif.got.tgz:23578.got - 2010.06.03 19:58:25.
