data_PCOD9380966
_publ_section_title
;
Structure prediction by ZEFSAII (Michael W. Deem and Ramdas Pophale) SiO2 
 PCOD9380966
Probable space group: I M A 2
;
_chemical_formula_sum "Si O2"
_cell_formula_units_Z 28
_cell_length_a 13.418773
_cell_length_b 14.851763
_cell_length_c 5.716582
_cell_angle_alpha 90.000000
_cell_angle_beta 90.000000
_cell_angle_gamma 90.000000
_cell_volume 1139.271554
_symmetry_space_group_name_H-M "I M A 2"
_symmetry_group_IT_number 46
_symmetry_cell_setting 'orthorhombic'
loop_
_space_group_symop_operation_xyz
x,y,z
-x,-y,z
1/2-x,y,z
1/2+x,-y,z
1/2+x,1/2+y,1/2+z
1/2-x,1/2-y,1/2+z
-x,1/2+y,1/2+z
x,1/2-y,1/2+z
loop_
_atom_site_type_symbol
_atom_site_label
_atom_site_fract_x
_atom_site_fract_y
_atom_site_fract_z
Si Si1 0.437419 0.210062 0.074910
Si Si2 0.138492 0.450710 0.321226
Si Si3 0.000000 0.000000 0.440867
Si Si4 0.135265 0.876185 0.116257
O O1 0.404426 0.245837 0.327909
O O2 0.558131 0.204239 0.072474
O O3 0.397482 0.108234 0.040428
O O4 0.250000 0.425721 0.257903
O O5 0.063485 0.435776 0.111188
O O6 0.863751 0.444761 0.395711
O O7 0.919829 0.062327 0.310159
O O8 0.250000 0.852925 0.171020
#
# Coordination Sequence:
#
# PCOD9380966 Si02
#       4
#     8   8   4   8
#     4  12  26  46  69 101 150 188 226 294 364 434
#     4  11  24  43  71 102 135 187 249 302 355 428
#     4  12  18  44  72 106 136 182 244 318 362 412
#     4  11  24  43  71 102 135 187 249 302 355 428
#
# _framework density 24.577107000000002
#
# number of rings (size 3 to 8) (size 9 to 14) (size 15 to 20)
#    0.000    0.571    5.714    2.571    0.000    2.286 
#    0.000    0.000    0.000    0.000    0.000    0.000 
#    0.000    0.000    0.000    0.000    0.000    0.000 
#
# Total GULP energy -78273.853656 kJ/mol
# GULP energy per Si atom -5590.989547 kJ/mol
# Density = 2.452117 g / cm^3
# Si number density = 24.577107 Si / 1000 Ang^3
#
#
#
# Elastic Constant Matrix: (Units=GPa)
#
#
# Indices 1 2 3 4 5 6 
#
# 1 130.7564 -25.5676 21.1175 0.0000 0.0000 0.0000
# 2 -25.5676 21.4528 21.3367 0.0000 0.0000 0.0000
# 3 21.1175 21.3367 122.7137 0.0000 0.0000 0.0000
# 4 0.0000 0.0000 0.0000 43.0240 0.0000 0.0000
# 5 0.0000 0.0000 0.0000 0.0000 24.1356 0.0000
# 6 0.0000 0.0000 0.0000 0.0000 0.0000 25.3305
#
#
#
# Elastic Compliance Matrix: (Units=1/GPa)
#
#
# Indices 1 2 3 4 5 6 
#
# 1 0.012668 0.020877 -0.005810 0.000000 0.000000 0.000000
# 2 0.020877 0.090764 -0.019374 0.000000 0.000000 0.000000
# 3 -0.005810 -0.019374 0.012518 0.000000 0.000000 0.000000
# 4 0.000000 0.000000 0.000000 0.023243 0.000000 0.000000
# 5 0.000000 0.000000 0.000000 0.000000 0.041433 0.000000
# 6 0.000000 0.000000 0.000000 0.000000 0.000000 0.039478
#
#
# Mechanical properties :
#
#
# Convention : Reuss Voigt Hill
#
# Bulk Modulus (GPa) = 9.31660 34.29956 21.80808
# Shear Modulus (GPa) = 18.90381 35.70044 27.30212
#
# Velocity S-wave (km/s) = 2.77639 3.81542 3.33660
# Velocity P-wave (km/s) = 3.75190 5.77894 4.87201
#
# Compressibility (1/GPa) = 0.10733529
#
# Stress axis : x y z
#
# Youngs Moduli (GPa) = 78.93727 11.01754 79.88790
#
# Poissons Ratio (x) = -0.23001 0.46415
# Poissons Ratio (y) = -1.64795 1.54776
# Poissons Ratio (z) = 0.45862 0.21346
#
# Static dielectric constant tensor:
#      x y z
#    x 1.919600 0.000000 0.000000 
#    y 0.000000 2.021630 0.000000 
#    z 0.000000 0.000000 1.981120 
# 
# From -- ./inp_files/787.got.cif
#   From: 2010.05.17/outbox.cif.g08.bks.cpg/sg46_1_cif.got.tgz:787.got - 2010.06.03 19:58:25.
