data_PCOD9380787
_publ_section_title
;
Structure prediction by ZEFSAII (Michael W. Deem and Ramdas Pophale) SiO2 
 PCOD9380787
Probable space group: I M A 2
;
_chemical_formula_sum "Si O2"
_cell_formula_units_Z 36
_cell_length_a 19.331870
_cell_length_b 4.996988
_cell_length_c 16.121678
_cell_angle_alpha 90.000000
_cell_angle_beta 90.000000
_cell_angle_gamma 90.000000
_cell_volume 1557.372190
_symmetry_space_group_name_H-M "I M A 2"
_symmetry_group_IT_number 46
_symmetry_cell_setting 'orthorhombic'
loop_
_space_group_symop_operation_xyz
x,y,z
-x,-y,z
1/2-x,y,z
1/2+x,-y,z
1/2+x,1/2+y,1/2+z
1/2-x,1/2-y,1/2+z
-x,1/2+y,1/2+z
x,1/2-y,1/2+z
loop_
_atom_site_type_symbol
_atom_site_label
_atom_site_fract_x
_atom_site_fract_y
_atom_site_fract_z
Si Si1 0.896132 0.194552 0.519020
Si Si2 0.832870 0.347593 0.347406
Si Si3 0.822524 0.698032 0.568732
Si Si4 0.500000 0.500000 0.634212
Si Si5 0.868966 0.656356 0.741578
O O1 0.883230 0.265102 0.423275
O O2 0.837292 0.384427 0.560188
O O3 0.961910 0.292796 0.571822
O O4 0.881217 0.882308 0.529555
O O5 0.750000 0.354408 0.367718
O O6 0.859356 0.632183 0.314511
O O7 0.845041 0.128773 0.275879
O O8 0.750000 0.768472 0.528135
O O9 0.822719 0.757827 0.665583
O O10 0.556717 0.628072 0.696179
#
# Coordination Sequence:
#
# PCOD9380787 Si02
#       5
#     8   8   8   4   8
#     4  11  25  41  68  93 134 174 214 274 316 392
#     4  12  24  43  68 104 132 165 214 277 342 377
#     4  11  21  40  65  96 128 175 221 265 323 383
#     4  10  26  48  64  96 130 182 232 248 320 392
#     4  11  25  41  68  94 135 173 213 274 317 393
#
# _framework density 23.115863999999998
#
# number of rings (size 3 to 8) (size 9 to 14) (size 15 to 20)
#    0.000    0.889    0.000    8.000    0.000    9.778 
#    0.000    0.000    0.000    0.000    0.000    0.000 
#    0.000    0.000    0.000    0.000    0.000    0.000 
#
# Total GULP energy -100531.167602 kJ/mol
# GULP energy per Si atom -5585.064867 kJ/mol
# Density = 2.306325 g / cm^3
# Si number density = 23.115864 Si / 1000 Ang^3
#
#
#
# Elastic Constant Matrix: (Units=GPa)
#
#
# Indices 1 2 3 4 5 6 
#
# 1 149.2655 30.4809 22.0113 0.0000 0.0000 0.0000
# 2 30.4809 83.3779 6.5618 0.0000 0.0000 0.0000
# 3 22.0113 6.5618 86.5062 0.0000 0.0000 0.0000
# 4 0.0000 0.0000 0.0000 50.5315 0.0000 0.0000
# 5 0.0000 0.0000 0.0000 0.0000 -8.6096 0.0000
# 6 0.0000 0.0000 0.0000 0.0000 0.0000 13.9547
#
#
#
# Elastic Compliance Matrix: (Units=1/GPa)
#
#
# Indices 1 2 3 4 5 6 
#
# 1 0.007482 -0.002601 -0.001707 0.000000 0.000000 0.000000
# 2 -0.002601 0.012970 -0.000322 0.000000 0.000000 0.000000
# 3 -0.001707 -0.000322 0.012019 0.000000 0.000000 0.000000
# 4 0.000000 0.000000 0.000000 0.019790 0.000000 0.000000
# 5 0.000000 0.000000 0.000000 0.000000 -0.116149 0.000000
# 6 0.000000 0.000000 0.000000 0.000000 0.000000 0.071660
#
#
# Mechanical properties :
#
#
# Convention : Reuss Voigt Hill
#
# Bulk Modulus (GPa) = 43.08214 48.58418 45.83316
# Shear Modulus (GPa) = 201.87243 28.51502 115.19373
#
# Velocity S-wave (km/s) = 9.35523 3.51603 7.06692
# Velocity P-wave (km/s) = 11.63493 6.12753 9.29834
#
# Compressibility (1/GPa) = 0.02321147
#
# Stress axis : x y z
#
# Youngs Moduli (GPa) = 133.64926 77.10226 83.20494
#
# Poissons Ratio (x) = 0.20054 0.14199
# Poissons Ratio (y) = 0.34763 0.02679
# Poissons Ratio (z) = 0.22808 0.02482
#
# Static dielectric constant tensor:
#      x y z
#    x 2.001850 0.000000 0.000000 
#    y 0.000000 1.824640 0.000000 
#    z 0.000000 0.000000 1.875050 
# 
# From -- ./inp_files/16906.got.cif
#   From: 2010.05.17/outbox.cif.g08.bks.cpg/sg46_9_cif.got.tgz:16906.got - 2010.06.03 19:58:25.
