data_PCOD9380779
_publ_section_title
;
Structure prediction by ZEFSAII (Michael W. Deem and Ramdas Pophale) SiO2 
 PCOD9380779
Probable space group: I M A 2
;
_chemical_formula_sum "Si O2"
_cell_formula_units_Z 40
_cell_length_a 21.538380
_cell_length_b 8.023716
_cell_length_c 9.837991
_cell_angle_alpha 90.000000
_cell_angle_beta 90.000000
_cell_angle_gamma 90.000000
_cell_volume 1700.180396
_symmetry_space_group_name_H-M "I M A 2"
_symmetry_group_IT_number 46
_symmetry_cell_setting 'orthorhombic'
loop_
_space_group_symop_operation_xyz
x,y,z
-x,-y,z
1/2-x,y,z
1/2+x,-y,z
1/2+x,1/2+y,1/2+z
1/2-x,1/2-y,1/2+z
-x,1/2+y,1/2+z
x,1/2-y,1/2+z
loop_
_atom_site_type_symbol
_atom_site_label
_atom_site_fract_x
_atom_site_fract_y
_atom_site_fract_z
Si Si1 0.071456 0.913315 0.805020
Si Si2 0.631354 0.563240 0.559118
Si Si3 0.681337 0.246600 0.434435
Si Si4 0.040589 0.156598 0.294583
Si Si5 0.373452 0.412683 0.040428
O O1 0.993065 0.185401 0.784001
O O2 0.097513 0.025858 0.683260
O O3 0.125508 0.775864 0.828507
O O4 0.078678 0.015292 0.946469
O O5 0.672370 0.397657 0.544380
O O6 0.599371 0.626258 0.696497
O O7 0.663340 0.738567 0.521648
O O8 0.750000 0.260734 0.376003
O O9 0.668431 0.066619 0.495371
O O10 0.066609 0.121314 0.444861
O O11 0.000000 0.000000 0.253507
#
# Coordination Sequence:
#
# PCOD9380779 Si02
#       5
#     8   8   8   8   8
#     4  10  26  48  69 110 146 193 240 304 373 436
#     4  10  26  45  69 106 144 189 241 297 371 433
#     4  10  25  50  73 102 144 190 251 305 364 436
#     4  12  24  42  73 105 152 187 239 297 368 454
#     4  12  25  46  73 108 140 196 246 292 376 442
#
# _framework density 23.526914000000001
#
# number of rings (size 3 to 8) (size 9 to 14) (size 15 to 20)
#    1.200    0.000    2.000    2.400    5.600    3.200 
#    0.000    0.000    0.000    0.000    0.000    0.000 
#    0.000    0.000    0.000    0.000    0.000    0.000 
#
# Total GULP energy -111386.462823 kJ/mol
# GULP energy per Si atom -5569.323141 kJ/mol
# Density = 2.347337 g / cm^3
# Si number density = 23.526914 Si / 1000 Ang^3
#
#
#
# Elastic Constant Matrix: (Units=GPa)
#
#
# Indices 1 2 3 4 5 6 
#
# 1 78.3877 4.2060 -7.2157 0.0000 0.0000 0.0000
# 2 4.2060 182.0914 -8.3154 0.0000 0.0000 0.0000
# 3 -7.2157 -8.3154 73.2054 0.0000 0.0000 0.0000
# 4 0.0000 0.0000 0.0000 6.8027 0.0000 0.0000
# 5 0.0000 0.0000 0.0000 0.0000 14.6493 0.0000
# 6 0.0000 0.0000 0.0000 0.0000 0.0000 -2.2683
#
#
#
# Elastic Compliance Matrix: (Units=1/GPa)
#
#
# Indices 1 2 3 4 5 6 
#
# 1 0.012884 -0.000241 0.001243 0.000000 0.000000 0.000000
# 2 -0.000241 0.005525 0.000604 0.000000 0.000000 0.000000
# 3 0.001243 0.000604 0.013851 0.000000 0.000000 0.000000
# 4 0.000000 0.000000 0.000000 0.147000 0.000000 0.000000
# 5 0.000000 0.000000 0.000000 0.000000 0.068263 0.000000
# 6 0.000000 0.000000 0.000000 0.000000 0.000000 -0.440854
#
#
# Mechanical properties :
#
#
# Convention : Reuss Voigt Hill
#
# Bulk Modulus (GPa) = 28.19145 34.55937 31.37541
# Shear Modulus (GPa) = -27.06824 26.83737 -0.11543
#
# Velocity S-wave (km/s) = -3.39562 3.38110 -0.22175
# Velocity P-wave (km/s) = 1.83438 5.47391 3.64683
#
# Compressibility (1/GPa) = 0.03547175
#
# Stress axis : x y z
#
# Youngs Moduli (GPa) = 77.61317 180.99921 72.19553
#
# Poissons Ratio (x) = 0.04360 -0.08971
# Poissons Ratio (y) = 0.01869 -0.04359
# Poissons Ratio (z) = -0.09644 -0.10929
#
# Static dielectric constant tensor:
#      x y z
#    x 1.859360 0.000000 0.000000 
#    y 0.000000 2.082790 0.000000 
#    z 0.000000 0.000000 1.966900 
# 
# From -- ./inp_files/12282.got.cif
#   From: 2010.05.17/outbox.cif.g08.bks.cpg/sg46_7_cif.got.tgz:12282.got - 2010.06.03 19:58:25.
