data_PCOD9380395
_publ_section_title
;
Structure prediction by ZEFSAII (Michael W. Deem and Ramdas Pophale) SiO2 
 PCOD9380395
Probable space group: I M A 2
;
_chemical_formula_sum "Si O2"
_cell_formula_units_Z 64
_cell_length_a 28.675257
_cell_length_b 4.928273
_cell_length_c 19.585530
_cell_angle_alpha 90.000000
_cell_angle_beta 90.000000
_cell_angle_gamma 90.000000
_cell_volume 2767.817206
_symmetry_space_group_name_H-M "I M A 2"
_symmetry_group_IT_number 46
_symmetry_cell_setting 'orthorhombic'
loop_
_space_group_symop_operation_xyz
x,y,z
-x,-y,z
1/2-x,y,z
1/2+x,-y,z
1/2+x,1/2+y,1/2+z
1/2-x,1/2-y,1/2+z
-x,1/2+y,1/2+z
x,1/2-y,1/2+z
loop_
_atom_site_type_symbol
_atom_site_label
_atom_site_fract_x
_atom_site_fract_y
_atom_site_fract_z
Si Si1 0.527774 0.728006 0.504340
Si Si2 0.421679 0.398899 0.379209
Si Si3 0.302680 0.944056 0.006286
Si Si4 0.639724 0.325818 0.795799
Si Si5 0.656656 0.217963 0.142668
Si Si6 0.842310 0.539856 0.929183
Si Si7 0.046974 0.339424 0.750909
Si Si8 0.904224 0.711404 0.121852
O O1 0.500000 0.500000 0.547926
O O2 0.548832 0.528901 0.445580
O O3 0.568476 0.834038 0.553086
O O4 0.500000 0.000000 0.482417
O O5 0.382545 0.577977 0.340119
O O6 0.393962 0.143447 0.411614
O O7 0.457871 0.325629 0.320437
O O8 0.250000 0.876414 0.985519
O O9 0.307076 0.899831 0.087675
O O10 0.338166 0.732791 0.972101
O O11 0.316164 0.232850 0.973627
O O12 0.665871 0.278813 0.724016
O O13 0.672803 0.477371 0.850781
O O14 0.592948 0.483693 0.771060
O O15 0.640797 0.521435 0.125504
O O16 0.612528 0.021322 0.127886
O O17 0.063139 0.158110 0.687280
O O18 0.000000 0.500000 0.736044
#
# Coordination Sequence:
#
# PCOD9380395 Si02
#       8
#     8   8   8   8   8   8   8   8
#     4  12  27  39  56  90 135 178 233 296 348 388
#     4  11  22  41  65  94 129 186 232 282 337 401
#     4  12  25  45  73 106 136 171 218 281 352 415
#     4  10  23  42  70  99 136 184 234 274 343 404
#     4  11  23  44  71  99 131 175 229 277 331 426
#     4  11  24  44  72  98 137 177 222 273 331 434
#     4  10  22  37  61  96 133 181 237 294 335 390
#     4  11  23  43  64  92 130 186 228 279 341 403
#
# _framework density 23.122911999999999
#
# number of rings (size 3 to 8) (size 9 to 14) (size 15 to 20)
#    0.000    1.000    2.500    4.125    5.250    1.000 
#    0.000    1.250    0.000    0.000    0.000    0.000 
#    0.000    0.000    0.000    0.000    0.000    0.000 
#
# Total GULP energy -178441.493033 kJ/mol
# GULP energy per Si atom -5576.296657 kJ/mol
# Density = 2.307028 g / cm^3
# Si number density = 23.122912 Si / 1000 Ang^3
#
#
#
# Elastic Constant Matrix: (Units=GPa)
#
#
# Indices 1 2 3 4 5 6 
#
# 1 38.4639 2.7653 26.0675 0.0000 0.0000 0.0000
# 2 2.7653 88.3125 33.9408 0.0000 0.0000 0.0000
# 3 26.0675 33.9408 173.9574 0.0000 0.0000 0.0000
# 4 0.0000 0.0000 0.0000 27.7598 0.0000 0.0000
# 5 0.0000 0.0000 0.0000 0.0000 -31.3068 0.0000
# 6 0.0000 0.0000 0.0000 0.0000 0.0000 11.9890
#
#
#
# Elastic Compliance Matrix: (Units=1/GPa)
#
#
# Indices 1 2 3 4 5 6 
#
# 1 0.028992 0.000824 -0.004505 0.000000 0.000000 0.000000
# 2 0.000824 0.012265 -0.002516 0.000000 0.000000 0.000000
# 3 -0.004505 -0.002516 0.006915 0.000000 0.000000 0.000000
# 4 0.000000 0.000000 0.000000 0.036023 0.000000 0.000000
# 5 0.000000 0.000000 0.000000 0.000000 -0.031942 0.000000
# 6 0.000000 0.000000 0.000000 0.000000 0.000000 0.083410
#
#
# Mechanical properties :
#
#
# Convention : Reuss Voigt Hill
#
# Bulk Modulus (GPa) = 27.95181 47.36454 37.65817
# Shear Modulus (GPa) = 31.25314 17.55242 24.40278
#
# Velocity S-wave (km/s) = 3.68041 2.75815 3.25214
# Velocity P-wave (km/s) = 5.49319 5.53818 5.51574
#
# Compressibility (1/GPa) = 0.03577586
#
# Stress axis : x y z
#
# Youngs Moduli (GPa) = 34.49177 81.53444 144.62124
#
# Poissons Ratio (x) = -0.06716 0.65155
# Poissons Ratio (y) = -0.02841 0.36392
# Poissons Ratio (z) = 0.15539 0.20517
#
# Static dielectric constant tensor:
#      x y z
#    x 2.282480 0.000000 0.000000 
#    y 0.000000 1.937540 0.000000 
#    z 0.000000 0.000000 1.936210 
# 
# From -- ./inp_files/20568.got.cif
#   From: 2010.05.17/outbox.cif.g08.bks.cpg/sg46_11_cif.got.tgz:20568.got - 2010.06.03 19:58:25.
