data_PCOD9380157
_publ_section_title
;
Structure prediction by ZEFSAII (Michael W. Deem and Ramdas Pophale) SiO2 
 PCOD9380157
Probable space group: I M A 2
;
_chemical_formula_sum "Si O2"
_cell_formula_units_Z 32
_cell_length_a 11.568665
_cell_length_b 28.010834
_cell_length_c 5.155451
_cell_angle_alpha 90.000000
_cell_angle_beta 90.000000
_cell_angle_gamma 90.000000
_cell_volume 1670.613353
_symmetry_space_group_name_H-M "I M A 2"
_symmetry_group_IT_number 46
_symmetry_cell_setting 'orthorhombic'
loop_
_space_group_symop_operation_xyz
x,y,z
-x,-y,z
1/2-x,y,z
1/2+x,-y,z
1/2+x,1/2+y,1/2+z
1/2-x,1/2-y,1/2+z
-x,1/2+y,1/2+z
x,1/2-y,1/2+z
loop_
_atom_site_type_symbol
_atom_site_label
_atom_site_fract_x
_atom_site_fract_y
_atom_site_fract_z
Si Si1 0.250000 0.918801 0.291250
Si Si2 0.250000 0.518927 0.290071
Si Si3 0.387311 0.218159 0.385255
Si Si4 0.497753 0.385186 0.893216
Si Si5 0.881486 0.572112 0.394713
O O1 0.250000 0.962413 0.498058
O O2 0.133616 0.890090 0.346940
O O3 0.250000 0.939192 0.999916
O O4 0.141587 0.483885 0.344224
O O5 0.250000 0.207205 0.379129
O O6 0.412670 0.246542 0.648146
O O7 0.455217 0.168900 0.367065
O O8 0.433320 0.416559 0.674039
O O9 0.460033 0.405175 0.172777
O O10 0.750000 0.592978 0.377588
#
# Coordination Sequence:
#
# PCOD9380157 Si02
#       5
#     4   4   8   8   8
#     4  12  26  40  58  89 126 173 204 234 290 372
#     4  10  24  42  58  95 116 161 218 248 304 332
#     4  10  21  38  63  92 115 145 195 255 308 354
#     4  12  23  40  63  88 129 160 199 246 305 365
#     4  10  22  39  63  90 113 161 204 261 305 335
#
# _framework density 19.154640000000001
#
# number of rings (size 3 to 8) (size 9 to 14) (size 15 to 20)
#    0.750    0.500    0.000    6.750    0.000    8.000 
#    0.000    1.250    0.000    0.000    0.000    0.000 
#    0.000    0.000    0.000    0.000    0.000    0.000 
#
# Total GULP energy -89446.913561 kJ/mol
# GULP energy per Si atom -5590.432098 kJ/mol
# Density = 1.911104 g / cm^3
# Si number density = 19.154640 Si / 1000 Ang^3
#
#
#
# Elastic Constant Matrix: (Units=GPa)
#
#
# Indices 1 2 3 4 5 6 
#
# 1 88.9646 24.8483 -1.3097 0.0213 0.1510 -0.5851
# 2 24.8483 94.0569 12.2041 0.0412 -0.0099 -0.9237
# 3 -1.3097 12.2041 82.9075 0.0652 0.2722 -1.8759
# 4 0.0213 0.0412 0.0652 5.7326 -0.0771 -0.1546
# 5 0.1510 -0.0099 0.2722 -0.0771 -28.4342 -1.2316
# 6 -0.5851 -0.9237 -1.8759 -0.1546 -1.2316 -420.1301
#
#
#
# Elastic Compliance Matrix: (Units=1/GPa)
#
#
# Indices 1 2 3 4 5 6 
#
# 1 0.012173 -0.003304 0.000678 -0.000029 0.000073 -0.000013
# 2 -0.003304 0.011736 -0.001780 -0.000053 -0.000038 -0.000013
# 3 0.000678 -0.001780 0.012333 -0.000130 0.000125 -0.000052
# 4 -0.000029 -0.000053 -0.000130 0.174434 -0.000472 -0.000062
# 5 0.000073 -0.000038 0.000125 -0.000472 -0.035170 0.000103
# 6 -0.000013 -0.000013 -0.000052 -0.000062 0.000103 -0.002380
#
#
# Mechanical properties :
#
#
# Convention : Reuss Voigt Hill
#
# Bulk Modulus (GPa) = 36.45635 37.49049 36.97342
# Shear Modulus (GPa) = 26.16716 -73.22060 -23.52672
#
# Velocity S-wave (km/s) = 3.70009 -6.18943 -3.50844
# Velocity P-wave (km/s) = 6.10968 5.60925 1.71238
#
# Compressibility (1/GPa) = 0.02743006
#
# Stress axis : x y z
#
# Youngs Moduli (GPa) = 82.14872 85.21110 81.08430
#
# Poissons Ratio (x) = 0.28154 -0.05499
# Poissons Ratio (y) = 0.27142 0.14431
# Poissons Ratio (z) = -0.05571 0.15166
#
# Static dielectric constant tensor:
#      x y z
#    x 1.693240 0.000020 0.000000 
#    y 0.000020 1.643350 -0.000020 
#    z 0.000000 -0.000020 1.630950 
# 
# From -- ./inp_files/668.got.cif
#   From: 2010.05.17/outbox.cif.g08.bks.cpg/sg46_1_cif.got.tgz:668.got - 2010.06.03 19:58:25.
