data_PCOD9380017
_publ_section_title
;
Structure prediction by ZEFSAII (Michael W. Deem and Ramdas Pophale) SiO2 
 PCOD9380017
Probable space group: I M A 2
;
_chemical_formula_sum "Si O2"
_cell_formula_units_Z 44
_cell_length_a 13.779191
_cell_length_b 19.578128
_cell_length_c 8.451736
_cell_angle_alpha 90.000000
_cell_angle_beta 90.000000
_cell_angle_gamma 90.000000
_cell_volume 2280.031287
_symmetry_space_group_name_H-M "I M A 2"
_symmetry_group_IT_number 46
_symmetry_cell_setting 'orthorhombic'
loop_
_space_group_symop_operation_xyz
x,y,z
-x,-y,z
1/2-x,y,z
1/2+x,-y,z
1/2+x,1/2+y,1/2+z
1/2-x,1/2-y,1/2+z
-x,1/2+y,1/2+z
x,1/2-y,1/2+z
loop_
_atom_site_type_symbol
_atom_site_label
_atom_site_fract_x
_atom_site_fract_y
_atom_site_fract_z
Si Si1 0.359408 0.412735 0.399260
Si Si2 0.643662 0.092626 0.324301
Si Si3 0.606668 0.024399 0.653851
Si Si4 0.000000 0.500000 0.625821
Si Si5 0.451766 0.840629 0.818333
Si Si6 0.863711 0.273213 0.016207
O O1 0.250000 0.394255 0.450600
O O2 0.350386 0.459783 0.242945
O O3 0.419995 0.459161 0.523054
O O4 0.435202 0.352371 0.357784
O O5 0.750000 0.087425 0.246207
O O6 0.649919 0.054397 0.494430
O O7 0.559562 0.055831 0.226931
O O8 0.625879 0.171244 0.374139
O O9 0.595148 0.085607 0.780612
O O10 0.500000 0.000000 0.607722
O O11 0.396889 0.800163 0.955296
O O12 0.431032 0.799158 0.657854
O O13 0.750000 0.274061 0.063701
#
# Coordination Sequence:
#
# PCOD9380017 Si02
#       6
#     8   8   8   4   8   8
#     4  11  23  40  61  87 118 161 203 245 305 357
#     4  10  21  36  59  89 119 152 193 244 302 355
#     4   9  17  38  61  85 118 155 195 243 295 353
#     4  12  22  38  60  90 124 152 192 258 292 358
#     4  10  21  39  59  87 120 153 196 251 290 356
#     4  10  22  38  61  90 119 154 195 243 302 356
#
# _framework density 19.297981
#
# number of rings (size 3 to 8) (size 9 to 14) (size 15 to 20)
#    0.000    1.818    3.636    1.636    2.545    2.182 
#    0.000    0.909    0.000    0.000    0.000    0.000 
#    0.000    0.000    0.000    0.000    0.000    0.000 
#
# Total GULP energy -122724.610794 kJ/mol
# GULP energy per Si atom -5578.391400 kJ/mol
# Density = 1.925406 g / cm^3
# Si number density = 19.297981 Si / 1000 Ang^3
#
#
#
# Elastic Constant Matrix: (Units=GPa)
#
#
# Indices 1 2 3 4 5 6 
#
# 1 165.6558 43.5070 44.1688 0.0000 0.0000 0.0000
# 2 43.5070 72.0045 20.0297 0.0000 0.0000 0.0000
# 3 44.1688 20.0297 48.3930 0.0000 0.0000 0.0000
# 4 0.0000 0.0000 0.0000 33.8440 0.0000 0.0000
# 5 0.0000 0.0000 0.0000 0.0000 57.0197 0.0000
# 6 0.0000 0.0000 0.0000 0.0000 0.0000 -9.2107
#
#
#
# Elastic Compliance Matrix: (Units=1/GPa)
#
#
# Indices 1 2 3 4 5 6 
#
# 1 0.008669 -0.003432 -0.006492 0.000000 0.000000 0.000000
# 2 -0.003432 0.017054 -0.003926 0.000000 0.000000 0.000000
# 3 -0.006492 -0.003926 0.028214 0.000000 0.000000 0.000000
# 4 0.000000 0.000000 0.000000 0.029547 0.000000 0.000000
# 5 0.000000 0.000000 0.000000 0.000000 0.017538 0.000000
# 6 0.000000 0.000000 0.000000 0.000000 0.000000 -0.108570
#
#
# Mechanical properties :
#
#
# Convention : Reuss Voigt Hill
#
# Bulk Modulus (GPa) = 38.11365 55.71827 46.91596
# Shear Modulus (GPa) = 173.02622 28.22047 100.62334
#
# Velocity S-wave (km/s) = 9.47918 3.82822 7.22877
# Velocity P-wave (km/s) = 11.81522 6.96244 9.69730
#
# Compressibility (1/GPa) = 0.02623732
#
# Stress axis : x y z
#
# Youngs Moduli (GPa) = 115.35510 58.63753 35.44332
#
# Poissons Ratio (x) = 0.20125 0.23008
# Poissons Ratio (y) = 0.39592 0.13915
# Poissons Ratio (z) = 0.74884 0.23021
#
# Static dielectric constant tensor:
#      x y z
#    x 1.599710 0.000000 0.000000 
#    y 0.000000 1.679770 0.000000 
#    z 0.000000 0.000000 1.711450 
# 
# From -- ./inp_files/5647.got.cif
#   From: 2010.05.17/outbox.cif.g08.bks.cpg/sg46_3_cif.got.tgz:5647.got - 2010.06.03 19:58:25.
