data_PCOD9380726
_publ_section_title
;
Structure prediction by ZEFSAII (Michael W. Deem and Ramdas Pophale) SiO2 
 PCOD9380726
Probable space group: I M A 2
;
_chemical_formula_sum "Si O2"
_cell_formula_units_Z 48
_cell_length_a 15.128115
_cell_length_b 5.260808
_cell_length_c 27.026459
_cell_angle_alpha 90.000000
_cell_angle_beta 90.000000
_cell_angle_gamma 90.000000
_cell_volume 2150.930696
_symmetry_space_group_name_H-M "I M A 2"
_symmetry_group_IT_number 46
_symmetry_cell_setting 'orthorhombic'
loop_
_space_group_symop_operation_xyz
x,y,z
-x,-y,z
1/2-x,y,z
1/2+x,-y,z
1/2+x,1/2+y,1/2+z
1/2-x,1/2-y,1/2+z
-x,1/2+y,1/2+z
x,1/2-y,1/2+z
loop_
_atom_site_type_symbol
_atom_site_label
_atom_site_fract_x
_atom_site_fract_y
_atom_site_fract_z
Si Si1 0.399171 0.995876 0.234940
Si Si2 0.650716 0.791311 0.501859
Si Si3 0.000000 0.000000 0.867404
Si Si4 0.845641 0.511754 0.288901
Si Si5 0.500000 0.000000 0.433674
Si Si6 0.250000 0.490284 0.096347
Si Si7 0.424864 0.817313 0.642283
Si Si8 0.000000 0.000000 0.053384
O O1 0.354483 0.758435 0.262005
O O2 0.404232 0.924498 0.177206
O O3 0.500000 0.000000 0.253376
O O4 0.357738 0.262624 0.249319
O O5 0.750000 0.717985 0.482147
O O6 0.584357 0.568563 0.519645
O O7 0.588495 0.956852 0.466411
O O8 0.675409 0.930127 0.552933
O O9 0.917655 0.963410 0.831215
O O10 0.011051 0.750964 0.900814
O O11 0.750000 0.535882 0.312164
O O12 0.169700 0.553623 0.134624
O O13 0.467993 0.717954 0.591220
O O14 0.500000 0.000000 0.665787
#
# Coordination Sequence:
#
# PCOD9380726 Si02
#       8
#     8   8   4   8   4   4   8   4
#     4  12  24  47  74 106 155 200 249 306 370 436
#     4  10  24  47  71 106 153 194 252 313 390 449
#     4  12  27  50  82 109 148 185 254 312 391 470
#     4  12  27  49  76 109 149 196 239 311 392 458
#     4  12  26  50  81 113 142 195 249 328 380 470
#     4  10  24  42  68 102 152 194 244 304 362 446
#     4  12  24  43  67 105 150 200 260 304 351 438
#     4  12  23  44  71  98 146 212 247 308 371 440
#
# _framework density 22.315922
#
# number of rings (size 3 to 8) (size 9 to 14) (size 15 to 20)
#    0.500    0.000    4.167    4.000    3.500    1.333 
#    0.000    0.000    0.000    0.000    0.000    0.000 
#    0.000    0.000    0.000    0.000    0.000    0.000 
#
# Total GULP energy -133646.237843 kJ/mol
# GULP energy per Si atom -5568.593243 kJ/mol
# Density = 2.226513 g / cm^3
# Si number density = 22.315922 Si / 1000 Ang^3
#
#
#
# Elastic Constant Matrix: (Units=GPa)
#
#
# Indices 1 2 3 4 5 6 
#
# 1 223.3516 45.5798 62.1240 0.0000 0.0000 0.0000
# 2 45.5798 116.5694 54.2716 0.0000 0.0000 0.0000
# 3 62.1240 54.2716 83.7113 0.0000 0.0000 0.0000
# 4 0.0000 0.0000 0.0000 32.2765 0.0000 0.0000
# 5 0.0000 0.0000 0.0000 0.0000 70.1898 0.0000
# 6 0.0000 0.0000 0.0000 0.0000 0.0000 -29.2383
#
#
#
# Elastic Compliance Matrix: (Units=1/GPa)
#
#
# Indices 1 2 3 4 5 6 
#
# 1 0.005653 -0.000368 -0.003956 0.000000 0.000000 0.000000
# 2 -0.000368 0.012311 -0.007708 0.000000 0.000000 0.000000
# 3 -0.003956 -0.007708 0.019879 0.000000 0.000000 0.000000
# 4 0.000000 0.000000 0.000000 0.030982 0.000000 0.000000
# 5 0.000000 0.000000 0.000000 0.000000 0.014247 0.000000
# 6 0.000000 0.000000 0.000000 0.000000 0.000000 -0.034202
#
#
# Mechanical properties :
#
#
# Convention : Reuss Voigt Hill
#
# Bulk Modulus (GPa) = 72.58163 83.06481 77.82322
# Shear Modulus (GPa) = 64.49134 32.08938 48.29036
#
# Velocity S-wave (km/s) = 5.38163 3.79616 4.65687
# Velocity P-wave (km/s) = 8.43867 7.51781 7.99151
#
# Compressibility (1/GPa) = 0.01377759
#
# Stress axis : x y z
#
# Youngs Moduli (GPa) = 176.90229 81.22535 50.30351
#
# Poissons Ratio (x) = 0.02992 0.19901
# Poissons Ratio (y) = 0.06517 0.38776
# Poissons Ratio (z) = 0.69987 0.62611
#
# Static dielectric constant tensor:
#      x y z
#    x 1.823700 0.000000 0.000000 
#    y 0.000000 1.882330 0.000000 
#    z 0.000000 0.000000 1.803370 
# 
# From -- ./inp_files/24643.got.cif
#   From: 2010.05.17/outbox.cif.g08.bks.cpg/sg46_13_cif.got.tgz:24643.got - 2010.06.03 19:58:25.
