data_PCOD9380111
_publ_section_title
;
Structure prediction by ZEFSAII (Michael W. Deem and Ramdas Pophale) SiO2 
 PCOD9380111
Probable space group: I M A 2
;
_chemical_formula_sum "Si O2"
_cell_formula_units_Z 64
_cell_length_a 7.681161
_cell_length_b 28.784001
_cell_length_c 12.898589
_cell_angle_alpha 90.000000
_cell_angle_beta 90.000000
_cell_angle_gamma 90.000000
_cell_volume 2851.807678
_symmetry_space_group_name_H-M "I M A 2"
_symmetry_group_IT_number 46
_symmetry_cell_setting 'orthorhombic'
loop_
_space_group_symop_operation_xyz
x,y,z
-x,-y,z
1/2-x,y,z
1/2+x,-y,z
1/2+x,1/2+y,1/2+z
1/2-x,1/2-y,1/2+z
-x,1/2+y,1/2+z
x,1/2-y,1/2+z
loop_
_atom_site_type_symbol
_atom_site_label
_atom_site_fract_x
_atom_site_fract_y
_atom_site_fract_z
Si Si1 0.951914 0.373942 0.669800
Si Si2 0.458762 0.049658 0.333344
Si Si3 0.546112 0.917544 0.780662
Si Si4 0.957344 0.166015 0.514456
Si Si5 0.949895 0.446776 0.508907
Si Si6 0.052634 0.436315 0.058135
Si Si7 0.956883 0.311220 0.241220
Si Si8 0.963908 0.211072 0.298377
O O1 0.750000 0.364044 0.643587
O O2 0.033909 0.405374 0.577960
O O3 0.025026 0.324481 0.708547
O O4 0.961617 0.408120 0.769323
O O5 0.250000 0.056280 0.337216
O O6 0.531516 0.047180 0.450962
O O7 0.500000 0.000000 0.282876
O O8 0.750000 0.928850 0.782784
O O9 0.468472 0.935716 0.887363
O O10 0.472583 0.939542 0.673199
O O11 0.528680 0.861539 0.773167
O O12 0.750000 0.155219 0.507488
O O13 0.981331 0.195679 0.618045
O O14 0.012613 0.189641 0.408858
O O15 0.056714 0.118652 0.536600
O O16 0.750000 0.444878 0.539031
O O17 0.000000 0.500000 0.527858
O O18 0.250000 0.454962 0.063223
O O19 0.750000 0.314821 0.261074
O O20 0.024116 0.264135 0.291988
O O21 0.750000 0.211866 0.294203
#
# Coordination Sequence:
#
# PCOD9380111 Si02
#       8
#     8   8   8   8   8   8   8   8
#     4  10  21  38  59  84 114 150 192 240 289 343
#     4  11  22  35  54  81 111 143 179 226 280 339
#     4  10  21  39  60  82 115 152 193 241 291 345
#     4   9  16  29  52  76 105 145 183 226 279 335
#     4  11  24  41  62  86 116 156 200 247 300 355
#     4   9  19  35  54  78 107 141 178 226 282 333
#     4   9  18  32  53  84 115 150 195 240 289 343
#     4   9  17  31  54  83 114 149 194 240 288 343
#
# _framework density 22.441904000000001
#
# number of rings (size 3 to 8) (size 9 to 14) (size 15 to 20)
#    0.000    2.250    1.250    1.500    0.000    4.500 
#    0.000    6.250    0.000    3.000    0.000    0.000 
#    0.000    0.000    0.000    0.000    0.000    0.000 
#
# Total GULP energy -178514.648633 kJ/mol
# GULP energy per Si atom -5578.582770 kJ/mol
# Density = 2.239083 g / cm^3
# Si number density = 22.441904 Si / 1000 Ang^3
#
#
#
# Elastic Constant Matrix: (Units=GPa)
#
#
# Indices 1 2 3 4 5 6 
#
# 1 38.5436 -3.7047 -2.0410 0.0000 0.0000 0.0000
# 2 -3.7047 58.9230 8.7388 -0.0001 0.0000 0.0000
# 3 -2.0410 8.7388 91.9610 0.0005 0.0000 0.0000
# 4 0.0000 -0.0001 0.0005 3.7393 0.0000 0.0000
# 5 0.0000 0.0000 0.0000 0.0000 15.1953 0.0000
# 6 0.0000 0.0000 0.0000 0.0000 0.0000 16.3786
#
#
#
# Elastic Compliance Matrix: (Units=1/GPa)
#
#
# Indices 1 2 3 4 5 6 
#
# 1 0.026119 0.001578 0.000430 0.000000 0.000000 0.000000
# 2 0.001578 0.017309 -0.001610 0.000001 0.000000 0.000000
# 3 0.000430 -0.001610 0.011037 -0.000002 0.000000 0.000000
# 4 0.000000 0.000001 -0.000002 0.267428 0.000000 0.000000
# 5 0.000000 0.000000 0.000000 0.000000 0.065810 0.000000
# 6 0.000000 0.000000 0.000000 0.000000 0.000000 0.061055
#
#
# Mechanical properties :
#
#
# Convention : Reuss Voigt Hill
#
# Bulk Modulus (GPa) = 18.09567 21.71264 19.90415
# Shear Modulus (GPa) = 10.72083 19.49162 15.10622
#
# Velocity S-wave (km/s) = 2.18804 2.95029 2.59728
# Velocity P-wave (km/s) = 3.80318 4.61537 4.22882
#
# Compressibility (1/GPa) = 0.05526184
#
# Stress axis : x y z
#
# Youngs Moduli (GPa) = 38.28608 57.77245 90.60692
#
# Poissons Ratio (x) = -0.09119 -0.03893
# Poissons Ratio (y) = -0.06043 0.14586
# Poissons Ratio (z) = -0.01645 0.09300
#
# Static dielectric constant tensor:
#      x y z
#    x 1.865010 0.000000 0.000000 
#    y 0.000000 1.837660 0.000000 
#    z 0.000000 0.000000 1.851190 
# 
# From -- ./inp_files/9698.got.cif
#   From: 2010.05.17/outbox.cif.g08.bks.cpg/sg46_5_cif.got.tgz:9698.got - 2010.06.03 19:58:25.
