data_PCOD9380612
_publ_section_title
;
Structure prediction by ZEFSAII (Michael W. Deem and Ramdas Pophale) SiO2 
 PCOD9380612
Probable space group: I M A 2
;
_chemical_formula_sum "Si O2"
_cell_formula_units_Z 28
_cell_length_a 8.415111
_cell_length_b 8.682864
_cell_length_c 14.376708
_cell_angle_alpha 90.000000
_cell_angle_beta 90.000000
_cell_angle_gamma 90.000000
_cell_volume 1050.466724
_symmetry_space_group_name_H-M "I M A 2"
_symmetry_group_IT_number 46
_symmetry_cell_setting 'orthorhombic'
loop_
_space_group_symop_operation_xyz
x,y,z
-x,-y,z
1/2-x,y,z
1/2+x,-y,z
1/2+x,1/2+y,1/2+z
1/2-x,1/2-y,1/2+z
-x,1/2+y,1/2+z
x,1/2-y,1/2+z
loop_
_atom_site_type_symbol
_atom_site_label
_atom_site_fract_x
_atom_site_fract_y
_atom_site_fract_z
Si Si1 0.750000 0.000408 0.892550
Si Si2 0.750000 0.861264 0.682028
Si Si3 0.930641 0.158807 0.174308
Si Si4 0.583888 0.188892 0.392535
Si Si5 0.750000 0.665883 0.980427
O O1 0.750000 0.938172 0.784367
O O2 0.893646 0.125598 0.899693
O O3 0.750000 0.859704 0.966297
O O4 0.580332 0.773388 0.671966
O O5 0.750000 0.924708 0.578010
O O6 0.750000 0.194025 0.139126
O O7 0.911188 0.144163 0.284999
O O8 0.000000 0.000000 0.134329
O O9 0.750000 0.132607 0.434784
O O10 0.417918 0.139093 0.432213
#
# Coordination Sequence:
#
# PCOD9380612 Si02
#       5
#     4   4   8   8   4
#     4  10  22  45  68 100 141 179 233 291 349 423
#     4  12  26  39  67 105 140 174 228 299 356 405
#     4  11  22  41  66  95 132 183 226 283 356 422
#     4   9  22  40  73  94 130 184 238 277 348 414
#     4  12  22  40  69 101 135 175 233 290 343 410
#
# _framework density 26.654816
#
# number of rings (size 3 to 8) (size 9 to 14) (size 15 to 20)
#    0.857    0.571    4.286    0.857    0.000    3.429 
#    0.000    0.000    6.286    0.000    0.000    0.000 
#    0.000    0.000    0.000    0.000    0.000    0.000 
#
# Total GULP energy -78018.341627 kJ/mol
# GULP energy per Si atom -5572.738688 kJ/mol
# Density = 2.659415 g / cm^3
# Si number density = 26.654816 Si / 1000 Ang^3
#
#
#
# Elastic Constant Matrix: (Units=GPa)
#
#
# Indices 1 2 3 4 5 6 
#
# 1 289.6457 65.5036 18.7591 0.0000 0.0000 0.0000
# 2 65.5036 93.3105 1.5430 0.0000 0.0000 0.0000
# 3 18.7591 1.5430 82.4261 0.0000 0.0000 0.0000
# 4 0.0000 0.0000 0.0000 5.7462 0.0000 0.0000
# 5 0.0000 0.0000 0.0000 0.0000 107.3927 0.0000
# 6 0.0000 0.0000 0.0000 0.0000 0.0000 52.6839
#
#
#
# Elastic Compliance Matrix: (Units=1/GPa)
#
#
# Indices 1 2 3 4 5 6 
#
# 1 0.004169 -0.002912 -0.000894 0.000000 0.000000 0.000000
# 2 -0.002912 0.012754 0.000424 0.000000 0.000000 0.000000
# 3 -0.000894 0.000424 0.012328 0.000000 0.000000 0.000000
# 4 0.000000 0.000000 0.000000 0.174027 0.000000 0.000000
# 5 0.000000 0.000000 0.000000 0.000000 0.009312 0.000000
# 6 0.000000 0.000000 0.000000 0.000000 0.000000 0.018981
#
#
# Mechanical properties :
#
#
# Convention : Reuss Voigt Hill
#
# Bulk Modulus (GPa) = 44.47156 70.77707 57.62431
# Shear Modulus (GPa) = 20.33926 58.46968 39.40447
#
# Velocity S-wave (km/s) = 2.76535 4.68866 3.84907
# Velocity P-wave (km/s) = 5.18813 7.47811 6.43579
#
# Compressibility (1/GPa) = 0.02248628
#
# Stress axis : x y z
#
# Youngs Moduli (GPa) = 239.87077 78.40706 81.11838
#
# Poissons Ratio (x) = 0.22830 0.07254
# Poissons Ratio (y) = 0.69845 -0.03439
# Poissons Ratio (z) = 0.21451 -0.03324
#
# Static dielectric constant tensor:
#      x y z
#    x 2.082480 0.000000 0.000000 
#    y 0.000000 2.249490 0.000000 
#    z 0.000000 0.000000 2.047180 
# 
# From -- ./inp_files/13465.got.cif
#   From: 2010.05.17/outbox.cif.g08.bks.cpg/sg46_7_cif.got.tgz:13465.got - 2010.06.03 19:58:25.
