data_PCOD9380713
_publ_section_title
;
Structure prediction by ZEFSAII (Michael W. Deem and Ramdas Pophale) SiO2 
 PCOD9380713
Probable space group: I M A 2
;
_chemical_formula_sum "Si O2"
_cell_formula_units_Z 24
_cell_length_a 10.780404
_cell_length_b 18.295641
_cell_length_c 5.013575
_cell_angle_alpha 90.000000
_cell_angle_beta 90.000000
_cell_angle_gamma 90.000000
_cell_volume 988.849464
_symmetry_space_group_name_H-M "I M A 2"
_symmetry_group_IT_number 46
_symmetry_cell_setting 'orthorhombic'
loop_
_space_group_symop_operation_xyz
x,y,z
-x,-y,z
1/2-x,y,z
1/2+x,-y,z
1/2+x,1/2+y,1/2+z
1/2-x,1/2-y,1/2+z
-x,1/2+y,1/2+z
x,1/2-y,1/2+z
loop_
_atom_site_type_symbol
_atom_site_label
_atom_site_fract_x
_atom_site_fract_y
_atom_site_fract_z
Si Si1 0.250000 0.651151 0.506430
Si Si2 0.750000 0.041928 0.504574
Si Si3 0.387763 0.452892 0.385130
Si Si4 0.523701 0.707307 0.508202
O O1 0.250000 0.603362 0.238924
O O2 0.374760 0.698004 0.513972
O O3 0.250000 0.592650 0.747445
O O4 0.863182 0.988511 0.592159
O O5 0.500000 0.500000 0.504481
O O6 0.250000 0.458409 0.513430
O O7 0.424969 0.369093 0.400971
O O8 0.562068 0.770869 0.304728
#
# Coordination Sequence:
#
# PCOD9380713 Si02
#       4
#     4   4   8   8
#     4  12  22  47  72 107 146 193 250 313 372 451
#     4  10  24  43  76 103 142 187 260 305 372 431
#     4  10  23  49  73 110 142 202 251 317 375 456
#     4  12  26  44  71 107 152 194 245 310 388 455
#
# _framework density 24.270631999999999
#
# number of rings (size 3 to 8) (size 9 to 14) (size 15 to 20)
#    1.000    0.000    3.333    3.000    0.000    4.000 
#    0.000    0.000    0.000    0.000    0.000    0.000 
#    0.000    0.000    0.000    0.000    0.000    0.000 
#
# Total GULP energy -67030.999114 kJ/mol
# GULP energy per Si atom -5585.916593 kJ/mol
# Density = 2.421539 g / cm^3
# Si number density = 24.270632 Si / 1000 Ang^3
#
#
#
# Elastic Constant Matrix: (Units=GPa)
#
#
# Indices 1 2 3 4 5 6 
#
# 1 128.3635 16.5626 10.9460 -0.0004 0.0006 0.0001
# 2 16.5626 107.1665 37.5940 0.0000 0.0003 0.0002
# 3 10.9460 37.5940 131.5567 0.0037 -0.0021 -0.0011
# 4 -0.0004 0.0000 0.0037 28.2223 -0.0008 -0.0002
# 5 0.0006 0.0003 -0.0021 -0.0008 10.9261 0.0001
# 6 0.0001 0.0002 -0.0011 -0.0002 0.0001 21.2069
#
#
#
# Elastic Compliance Matrix: (Units=1/GPa)
#
#
# Indices 1 2 3 4 5 6 
#
# 1 0.007963 -0.001109 -0.000346 0.000000 0.000000 0.000000
# 2 -0.001109 0.010525 -0.002915 0.000000 -0.000001 0.000000
# 3 -0.000346 -0.002915 0.008463 -0.000001 0.000002 0.000000
# 4 0.000000 0.000000 -0.000001 0.035433 0.000003 0.000000
# 5 0.000000 -0.000001 0.000002 0.000003 0.091524 0.000000
# 6 0.000000 0.000000 0.000000 0.000000 0.000000 0.047155
#
#
# Mechanical properties :
#
#
# Convention : Reuss Voigt Hill
#
# Bulk Modulus (GPa) = 54.91267 55.25464 55.08366
# Shear Modulus (GPa) = 23.16164 32.20332 27.68248
#
# Velocity S-wave (km/s) = 3.09254 3.64654 3.38090
# Velocity P-wave (km/s) = 5.95197 6.36751 6.16324
#
# Compressibility (1/GPa) = 0.01821073
#
# Stress axis : x y z
#
# Youngs Moduli (GPa) = 125.58088 95.00738 118.15900
#
# Poissons Ratio (x) = 0.10541 0.04082
# Poissons Ratio (y) = 0.13933 0.34449
# Poissons Ratio (z) = 0.04339 0.27699
#
# Static dielectric constant tensor:
#      x y z
#    x 1.974420 0.000000 0.000000 
#    y 0.000000 1.887810 0.000000 
#    z 0.000000 0.000000 1.952920 
# 
# From -- ./inp_files/560.got.cif
#   From: 2010.05.17/outbox.cif.g08.bks.cpg/sg46_1_cif.got.tgz:560.got - 2010.06.03 19:58:25.
