data_PCOD9380567
_publ_section_title
;
Structure prediction by ZEFSAII (Michael W. Deem and Ramdas Pophale) SiO2 
 PCOD9380567
Probable space group: I M A 2
;
_chemical_formula_sum "Si O2"
_cell_formula_units_Z 48
_cell_length_a 17.932155
_cell_length_b 14.428481
_cell_length_c 8.377368
_cell_angle_alpha 90.000000
_cell_angle_beta 90.000000
_cell_angle_gamma 90.000000
_cell_volume 2167.507902
_symmetry_space_group_name_H-M "I M A 2"
_symmetry_group_IT_number 46
_symmetry_cell_setting 'orthorhombic'
loop_
_space_group_symop_operation_xyz
x,y,z
-x,-y,z
1/2-x,y,z
1/2+x,-y,z
1/2+x,1/2+y,1/2+z
1/2-x,1/2-y,1/2+z
-x,1/2+y,1/2+z
x,1/2-y,1/2+z
loop_
_atom_site_type_symbol
_atom_site_label
_atom_site_fract_x
_atom_site_fract_y
_atom_site_fract_z
Si Si1 0.162619 0.368815 0.060400
Si Si2 0.336615 0.864969 0.976623
Si Si3 0.081685 0.282870 0.361345
Si Si4 0.585026 0.276282 0.779864
Si Si5 0.082337 0.972870 0.423051
Si Si6 0.080864 0.462720 0.555498
O O1 0.250000 0.352827 0.050732
O O2 0.129400 0.331931 0.224900
O O3 0.120096 0.309787 0.924760
O O4 0.142339 0.475796 0.030675
O O5 0.250000 0.854123 0.017558
O O6 0.390696 0.820935 0.112344
O O7 0.357960 0.973041 0.969958
O O8 0.358825 0.806163 0.822477
O O9 0.082092 0.355984 0.507683
O O10 0.998945 0.261591 0.295723
O O11 0.590664 0.363103 0.902579
O O12 0.087717 0.015878 0.243702
O O13 0.000000 0.000000 0.483722
O O14 0.000000 0.500000 0.503965
#
# Coordination Sequence:
#
# PCOD9380567 Si02
#       6
#     8   8   8   8   8   8
#     4  12  27  43  67 103 138 175 224 287 345 395
#     4  11  24  41  65  99 136 171 217 277 338 394
#     4  12  24  44  72  96 136 179 229 276 333 412
#     4  11  23  42  69  96 129 178 224 269 329 406
#     4  10  22  42  70  96 130 175 226 271 331 401
#     4  10  22  42  69  98 129 176 226 274 332 402
#
# _framework density 22.145247000000001
#
# number of rings (size 3 to 8) (size 9 to 14) (size 15 to 20)
#    0.000    1.000    3.333    3.000    2.333    6.667 
#    0.000    0.000    0.000    0.000    0.000    0.000 
#    0.000    0.000    0.000    0.000    0.000    0.000 
#
# Total GULP energy -134316.435133 kJ/mol
# GULP energy per Si atom -5596.518131 kJ/mol
# Density = 2.209484 g / cm^3
# Si number density = 22.145247 Si / 1000 Ang^3
#
#
#
# Elastic Constant Matrix: (Units=GPa)
#
#
# Indices 1 2 3 4 5 6 
#
# 1 116.9820 28.0096 14.8786 0.0000 0.0000 0.0000
# 2 28.0096 101.2910 0.3749 0.0000 0.0000 0.0000
# 3 14.8786 0.3749 29.5737 0.0000 0.0000 0.0000
# 4 0.0000 0.0000 0.0000 38.0278 0.0000 0.0000
# 5 0.0000 0.0000 0.0000 0.0000 -6.7575 0.0000
# 6 0.0000 0.0000 0.0000 0.0000 0.0000 27.6090
#
#
#
# Elastic Compliance Matrix: (Units=1/GPa)
#
#
# Indices 1 2 3 4 5 6 
#
# 1 0.009818 -0.002697 -0.004905 0.000000 0.000000 0.000000
# 2 -0.002697 0.010614 0.001222 0.000000 0.000000 0.000000
# 3 -0.004905 0.001222 0.036266 0.000000 0.000000 0.000000
# 4 0.000000 0.000000 0.000000 0.026297 0.000000 0.000000
# 5 0.000000 0.000000 0.000000 0.000000 -0.147984 0.000000
# 6 0.000000 0.000000 0.000000 0.000000 0.000000 0.036220
#
#
# Mechanical properties :
#
#
# Convention : Reuss Voigt Hill
#
# Bulk Modulus (GPa) = 22.75921 37.15255 29.95588
# Shear Modulus (GPa) = -3665.03953 25.41476 -1819.81238
#
# Velocity S-wave (km/s) = -40.72583 3.39136 -28.69749
# Velocity P-wave (km/s) = 46.91650 5.66994 32.93182
#
# Compressibility (1/GPa) = 0.04393826
#
# Stress axis : x y z
#
# Youngs Moduli (GPa) = 101.85479 94.21746 27.57389
#
# Poissons Ratio (x) = 0.25408 0.13526
# Poissons Ratio (y) = 0.27468 -0.03370
# Poissons Ratio (z) = 0.49962 -0.11515
#
# Static dielectric constant tensor:
#      x y z
#    x 1.770490 0.000000 0.000000 
#    y 0.000000 1.834030 0.000000 
#    z 0.000000 0.000000 1.852320 
# 
# From -- ./inp_files/6599.got.cif
#   From: 2010.05.17/outbox.cif.g08.bks.cpg/sg46_4_cif.got.tgz:6599.got - 2010.06.03 19:58:25.
