data_PCOD9380941
_publ_section_title
;
Structure prediction by ZEFSAII (Michael W. Deem and Ramdas Pophale) SiO2 
 PCOD9380941
Probable space group: I M A 2
;
_chemical_formula_sum "Si O2"
_cell_formula_units_Z 48
_cell_length_a 23.027337
_cell_length_b 4.809804
_cell_length_c 19.069718
_cell_angle_alpha 90.000000
_cell_angle_beta 90.000000
_cell_angle_gamma 90.000000
_cell_volume 2112.104330
_symmetry_space_group_name_H-M "I M A 2"
_symmetry_group_IT_number 46
_symmetry_cell_setting 'orthorhombic'
loop_
_space_group_symop_operation_xyz
x,y,z
-x,-y,z
1/2-x,y,z
1/2+x,-y,z
1/2+x,1/2+y,1/2+z
1/2-x,1/2-y,1/2+z
-x,1/2+y,1/2+z
x,1/2-y,1/2+z
loop_
_atom_site_type_symbol
_atom_site_label
_atom_site_fract_x
_atom_site_fract_y
_atom_site_fract_z
Si Si1 0.155543 0.061801 0.297690
Si Si2 0.438823 0.161675 0.523320
Si Si3 0.750000 0.489489 0.913049
Si Si4 0.250000 0.479616 0.505992
Si Si5 0.817965 0.064198 0.707899
Si Si6 0.959006 0.739658 0.367964
Si Si7 0.370226 0.835728 0.072958
O O1 0.176964 0.245670 0.231911
O O2 0.093201 0.173244 0.318860
O O3 0.195803 0.079633 0.365821
O O4 0.160944 0.744062 0.274244
O O5 0.439343 0.316324 0.447966
O O6 0.415970 0.407004 0.574769
O O7 0.500000 0.000000 0.538890
O O8 0.393694 0.906458 0.521855
O O9 0.750000 0.659140 0.984832
O O10 0.750000 0.168167 0.935352
O O11 0.191191 0.546265 0.547028
O O12 0.750000 0.121740 0.693625
O O13 0.857598 0.170708 0.644698
O O14 0.000000 0.500000 0.339406
O O15 0.000000 0.000000 0.377234
#
# Coordination Sequence:
#
# PCOD9380941 Si02
#       7
#     8   8   4   4   8   8   8
#     4  12  24  43  66  96 131 173 228 263 330 394
#     4  11  24  44  69  97 132 175 218 275 338 394
#     4  12  24  38  64  98 132 164 214 284 334 392
#     4  12  24  38  64 100 132 162 214 286 340 388
#     4  12  24  45  65  94 134 186 214 265 331 395
#     4  11  23  43  69  96 131 173 215 273 337 390
#     4  12  24  43  66  98 132 174 226 268 332 398
#
# _framework density 22.726151999999999
#
# number of rings (size 3 to 8) (size 9 to 14) (size 15 to 20)
#    0.000    0.333    2.500    8.500    0.000    0.000 
#    0.000    8.333    0.000    0.000    0.000    0.000 
#    0.000    0.000    0.000    0.000    0.000    0.000 
#
# Total GULP energy -134267.899800 kJ/mol
# GULP energy per Si atom -5594.495825 kJ/mol
# Density = 2.267443 g / cm^3
# Si number density = 22.726152 Si / 1000 Ang^3
#
#
#
# Elastic Constant Matrix: (Units=GPa)
#
#
# Indices 1 2 3 4 5 6 
#
# 1 82.6047 -6.6095 10.1738 0.0000 0.0000 0.0000
# 2 -6.6095 67.1212 -12.2871 0.0000 0.0000 0.0000
# 3 10.1738 -12.2871 38.2800 0.0000 0.0000 0.0000
# 4 0.0000 0.0000 0.0000 34.8615 0.0000 0.0000
# 5 0.0000 0.0000 0.0000 0.0000 17.7163 0.0000
# 6 0.0000 0.0000 0.0000 0.0000 0.0000 176.6497
#
#
#
# Elastic Compliance Matrix: (Units=1/GPa)
#
#
# Indices 1 2 3 4 5 6 
#
# 1 0.012543 0.000664 -0.003121 0.000000 0.000000 0.000000
# 2 0.000664 0.015864 0.004915 0.000000 0.000000 0.000000
# 3 -0.003121 0.004915 0.028530 0.000000 0.000000 0.000000
# 4 0.000000 0.000000 0.000000 0.028685 0.000000 0.000000
# 5 0.000000 0.000000 0.000000 0.000000 0.056445 0.000000
# 6 0.000000 0.000000 0.000000 0.000000 0.000000 0.005661
#
#
# Mechanical properties :
#
#
# Convention : Reuss Voigt Hill
#
# Bulk Modulus (GPa) = 16.16687 18.95114 17.55901
# Shear Modulus (GPa) = 30.59432 58.96076 44.77754
#
# Velocity S-wave (km/s) = 3.67306 5.09905 4.44363
# Velocity P-wave (km/s) = 5.01176 6.55928 5.83703
#
# Compressibility (1/GPa) = 0.06185488
#
# Stress axis : x y z
#
# Youngs Moduli (GPa) = 79.72378 63.03732 35.05034
#
# Poissons Ratio (x) = -0.04185 0.10938
# Poissons Ratio (y) = -0.05293 -0.17229
# Poissons Ratio (z) = 0.24878 -0.30986
#
# Static dielectric constant tensor:
#      x y z
#    x 1.847150 0.000000 0.000000 
#    y 0.000000 1.807120 0.000000 
#    z 0.000000 0.000000 1.865760 
# 
# From -- ./inp_files/22381.got.cif
#   From: 2010.05.17/outbox.cif.g08.bks.cpg/sg46_12_cif.got.tgz:22381.got - 2010.06.03 19:58:25.
