data_PCOD9380910
_publ_section_title
;
Structure prediction by ZEFSAII (Michael W. Deem and Ramdas Pophale) SiO2 
 PCOD9380910
Probable space group: I M A 2
;
_chemical_formula_sum "Si O2"
_cell_formula_units_Z 56
_cell_length_a 14.608344
_cell_length_b 9.523512
_cell_length_c 18.017755
_cell_angle_alpha 90.000000
_cell_angle_beta 90.000000
_cell_angle_gamma 90.000000
_cell_volume 2506.679433
_symmetry_space_group_name_H-M "I M A 2"
_symmetry_group_IT_number 46
_symmetry_cell_setting 'orthorhombic'
loop_
_space_group_symop_operation_xyz
x,y,z
-x,-y,z
1/2-x,y,z
1/2+x,-y,z
1/2+x,1/2+y,1/2+z
1/2-x,1/2-y,1/2+z
-x,1/2+y,1/2+z
x,1/2-y,1/2+z
loop_
_atom_site_type_symbol
_atom_site_label
_atom_site_fract_x
_atom_site_fract_y
_atom_site_fract_z
Si Si1 0.601287 0.792510 0.656730
Si Si2 0.358948 0.725039 0.462378
Si Si3 0.859709 0.500875 0.723778
Si Si4 0.860675 0.975750 0.393034
Si Si5 0.250000 0.484218 0.187907
Si Si6 0.104908 0.781467 0.635145
Si Si7 0.854009 0.774435 0.998793
Si Si8 0.500000 0.000000 0.964300
O O1 0.600587 0.628892 0.677373
O O2 0.497831 0.835444 0.644931
O O3 0.649986 0.807177 0.576662
O O4 0.667905 0.873383 0.712106
O O5 0.250000 0.700522 0.447589
O O6 0.385232 0.879466 0.433442
O O7 0.374927 0.729478 0.551231
O O8 0.426928 0.608110 0.427479
O O9 0.750000 0.514689 0.721647
O O10 0.891003 0.516620 0.808433
O O11 0.882228 0.351215 0.689016
O O12 0.750000 0.972435 0.393887
O O13 0.887124 0.835751 0.437018
O O14 0.328160 0.595026 0.158297
O O15 0.750000 0.824953 0.982647
O O16 0.928628 0.897093 0.005862
#
# Coordination Sequence:
#
# PCOD9380910 Si02
#       8
#     8   8   8   8   4   8   8   4
#     4  12  24  42  69 104 138 181 237 283 341 417
#     4  11  22  43  69 100 139 180 231 288 344 406
#     4  11  22  47  75  99 138 189 233 283 342 415
#     4   9  23  44  76 100 131 185 238 277 342 421
#     4  12  24  42  66  94 142 174 218 294 354 380
#     4  12  24  42  69 104 138 181 237 283 341 417
#     4  11  22  43  69 100 139 180 231 288 344 406
#     4  12  24  38  62 100 138 172 224 284 348 396
#
# _framework density 22.340311
#
# number of rings (size 3 to 8) (size 9 to 14) (size 15 to 20)
#    0.000    0.857    4.286    3.000    2.000    0.571 
#    5.143    1.429    0.000    0.000    0.000    0.000 
#    0.000    0.000    0.000    0.000    0.000    0.000 
#
# Total GULP energy -155988.074808 kJ/mol
# GULP energy per Si atom -5571.002672 kJ/mol
# Density = 2.228946 g / cm^3
# Si number density = 22.340311 Si / 1000 Ang^3
#
#
#
# Elastic Constant Matrix: (Units=GPa)
#
#
# Indices 1 2 3 4 5 6 
#
# 1 193.2634 38.3269 -8.0757 0.0000 0.0000 0.0000
# 2 38.3269 110.7545 20.3589 0.0000 0.0000 0.0000
# 3 -8.0757 20.3589 83.5139 0.0000 0.0000 0.0000
# 4 0.0000 0.0000 0.0000 26.2640 0.0000 0.0000
# 5 0.0000 0.0000 0.0000 0.0000 104.5744 0.0000
# 6 0.0000 0.0000 0.0000 0.0000 0.0000 114.4192
#
#
#
# Elastic Compliance Matrix: (Units=1/GPa)
#
#
# Indices 1 2 3 4 5 6 
#
# 1 0.005645 -0.002150 0.001070 0.000000 0.000000 0.000000
# 2 -0.002150 0.010272 -0.002712 0.000000 0.000000 0.000000
# 3 0.001070 -0.002712 0.012739 0.000000 0.000000 0.000000
# 4 0.000000 0.000000 0.000000 0.038075 0.000000 0.000000
# 5 0.000000 0.000000 0.000000 0.000000 0.009563 0.000000
# 6 0.000000 0.000000 0.000000 0.000000 0.000000 0.008740
#
#
# Mechanical properties :
#
#
# Convention : Reuss Voigt Hill
#
# Bulk Modulus (GPa) = 47.45770 54.30578 50.88174
# Shear Modulus (GPa) = 50.18012 71.51297 60.84654
#
# Velocity S-wave (km/s) = 4.74452 5.66394 5.22449
# Velocity P-wave (km/s) = 7.16262 8.19358 7.69539
#
# Compressibility (1/GPa) = 0.02107139
#
# Stress axis : x y z
#
# Youngs Moduli (GPa) = 177.13405 97.35571 78.50135
#
# Poissons Ratio (x) = 0.20935 -0.08400
# Poissons Ratio (y) = 0.38090 0.21289
# Poissons Ratio (z) = -0.18955 0.26402
#
# Static dielectric constant tensor:
#      x y z
#    x 1.789760 0.000000 0.000000 
#    y 0.000000 1.834720 0.000000 
#    z 0.000000 0.000000 1.860220 
# 
# From -- ./inp_files/22065.got.cif
#   From: 2010.05.17/outbox.cif.g08.bks.cpg/sg46_12_cif.got.tgz:22065.got - 2010.06.03 19:58:25.
