data_PCOD9380596
_publ_section_title
;
Structure prediction by ZEFSAII (Michael W. Deem and Ramdas Pophale) SiO2 
 PCOD9380596
Probable space group: I M A 2
;
_chemical_formula_sum "Si O2"
_cell_formula_units_Z 48
_cell_length_a 22.342673
_cell_length_b 9.329806
_cell_length_c 11.804001
_cell_angle_alpha 90.000000
_cell_angle_beta 90.000000
_cell_angle_gamma 90.000000
_cell_volume 2460.577114
_symmetry_space_group_name_H-M "I M A 2"
_symmetry_group_IT_number 46
_symmetry_cell_setting 'orthorhombic'
loop_
_space_group_symop_operation_xyz
x,y,z
-x,-y,z
1/2-x,y,z
1/2+x,-y,z
1/2+x,1/2+y,1/2+z
1/2-x,1/2-y,1/2+z
-x,1/2+y,1/2+z
x,1/2-y,1/2+z
loop_
_atom_site_type_symbol
_atom_site_label
_atom_site_fract_x
_atom_site_fract_y
_atom_site_fract_z
Si Si1 0.819220 0.514733 0.630230
Si Si2 0.629243 0.686005 0.083015
Si Si3 0.178262 0.523802 0.892952
Si Si4 0.515619 0.835041 0.995480
Si Si5 0.387939 0.810314 0.955299
Si Si6 0.934476 0.534398 0.273876
O O1 0.750000 0.470522 0.619732
O O2 0.825922 0.682218 0.600166
O O3 0.837936 0.497795 0.761123
O O4 0.858759 0.418785 0.545716
O O5 0.564996 0.762005 0.070214
O O6 0.617262 0.586657 0.191162
O O7 0.647939 0.592258 0.975353
O O8 0.250000 0.512144 0.903288
O O9 0.155732 0.680484 0.929299
O O10 0.500000 0.000000 0.027807
O O11 0.452517 0.754613 0.998069
O O12 0.546138 0.851380 0.871305
O O13 0.407552 0.900883 0.844472
O O14 0.000000 0.500000 0.220429
#
# Coordination Sequence:
#
# PCOD9380596 Si02
#       6
#     8   8   8   8   8   8
#     4  11  24  43  65  89 128 172 214 266 314 376
#     4  12  22  41  67  95 129 166 213 269 321 383
#     4  11  27  43  63  96 127 168 226 263 313 387
#     4   9  19  40  62  97 126 160 206 257 322 384
#     4  10  22  44  65  92 130 170 210 267 325 381
#     4   9  21  39  63  94 130 162 204 263 324 388
#
# _framework density 19.507618999999998
#
# number of rings (size 3 to 8) (size 9 to 14) (size 15 to 20)
#    0.000    2.000    3.333    2.000    4.667    1.333 
#    0.000    1.667    0.000    0.000    0.000    0.000 
#    0.000    0.000    0.000    0.000    0.000    0.000 
#
# Total GULP energy -133876.750220 kJ/mol
# GULP energy per Si atom -5578.197926 kJ/mol
# Density = 1.946322 g / cm^3
# Si number density = 19.507619 Si / 1000 Ang^3
#
#
#
# Elastic Constant Matrix: (Units=GPa)
#
#
# Indices 1 2 3 4 5 6 
#
# 1 67.6870 28.5764 32.5395 0.0000 0.0000 0.0000
# 2 28.5764 84.5146 59.6689 0.0000 0.0000 0.0000
# 3 32.5395 59.6689 67.3186 0.0000 0.0000 0.0000
# 4 0.0000 0.0000 0.0000 28.6318 0.0000 0.0000
# 5 0.0000 0.0000 0.0000 0.0000 25.5494 0.0000
# 6 0.0000 0.0000 0.0000 0.0000 0.0000 36.4103
#
#
#
# Elastic Compliance Matrix: (Units=1/GPa)
#
#
# Indices 1 2 3 4 5 6 
#
# 1 0.019247 0.000162 -0.009447 0.000000 0.000000 0.000000
# 2 0.000162 0.031621 -0.028106 0.000000 0.000000 0.000000
# 3 -0.009447 -0.028106 0.044333 0.000000 0.000000 0.000000
# 4 0.000000 0.000000 0.000000 0.034926 0.000000 0.000000
# 5 0.000000 0.000000 0.000000 0.000000 0.039140 0.000000
# 6 0.000000 0.000000 0.000000 0.000000 0.000000 0.027465
#
#
# Mechanical properties :
#
#
# Convention : Reuss Voigt Hill
#
# Bulk Modulus (GPa) = 48.97341 51.23218 50.10280
# Shear Modulus (GPa) = 17.96499 24.70066 21.33282
#
# Velocity S-wave (km/s) = 3.03796 3.56224 3.31050
# Velocity P-wave (km/s) = 6.12086 6.57564 6.35232
#
# Compressibility (1/GPa) = 0.02041924
#
# Stress axis : x y z
#
# Youngs Moduli (GPa) = 51.95623 31.62478 22.55665
#
# Poissons Ratio (x) = -0.00511 0.21308
# Poissons Ratio (y) = -0.00840 0.63397
# Poissons Ratio (z) = 0.49081 0.88884
#
# Static dielectric constant tensor:
#      x y z
#    x 1.700980 0.000000 0.000000 
#    y 0.000000 1.697550 0.000000 
#    z 0.000000 0.000000 1.686100 
# 
# From -- ./inp_files/12727.got.cif
#   From: 2010.05.17/outbox.cif.g08.bks.cpg/sg46_7_cif.got.tgz:12727.got - 2010.06.03 19:58:25.
