data_PCOD9380686
_publ_section_title
;
Structure prediction by ZEFSAII (Michael W. Deem and Ramdas Pophale) SiO2 
 PCOD9380686
Probable space group: I M A 2
;
_chemical_formula_sum "Si O2"
_cell_formula_units_Z 28
_cell_length_a 7.601969
_cell_length_b 27.907611
_cell_length_c 5.240784
_cell_angle_alpha 90.000000
_cell_angle_beta 90.000000
_cell_angle_gamma 90.000000
_cell_volume 1111.846967
_symmetry_space_group_name_H-M "I M A 2"
_symmetry_group_IT_number 46
_symmetry_cell_setting 'orthorhombic'
loop_
_space_group_symop_operation_xyz
x,y,z
-x,-y,z
1/2-x,y,z
1/2+x,-y,z
1/2+x,1/2+y,1/2+z
1/2-x,1/2-y,1/2+z
-x,1/2+y,1/2+z
x,1/2-y,1/2+z
loop_
_atom_site_type_symbol
_atom_site_label
_atom_site_fract_x
_atom_site_fract_y
_atom_site_fract_z
Si Si1 0.750000 0.661733 0.774140
Si Si2 0.046713 0.782267 0.019836
Si Si3 0.557698 0.387505 0.052548
Si Si4 0.039862 0.444044 0.559717
O O1 0.594216 0.676855 0.570024
O O2 0.596126 0.648330 0.982818
O O3 0.250000 0.798196 0.030808
O O4 0.017373 0.745858 0.256887
O O5 0.750000 0.364457 0.057075
O O6 0.547437 0.425212 0.817938
O O7 0.526727 0.416535 0.311536
O O8 0.250000 0.434108 0.590114
O O9 0.000000 0.500000 0.528869
#
# Coordination Sequence:
#
# PCOD9380686 Si02
#       4
#     4   8   8   8
#     4  12  24  44  68 100 142 174 234 274 358 386
#     4  10  23  43  68 100 135 180 226 272 334 408
#     4  12  26  44  66 100 135 176 227 285 342 406
#     4  12  24  46  68  97 131 178 228 286 344 410
#
# _framework density 25.183318
#
# number of rings (size 3 to 8) (size 9 to 14) (size 15 to 20)
#    0.000    0.571    2.857    5.143    0.000    4.571 
#    0.000    5.714    0.000    0.000    0.000    0.000 
#    0.000    0.000    0.000    0.000    0.000    0.000 
#
# Total GULP energy -78095.896901 kJ/mol
# GULP energy per Si atom -5578.278350 kJ/mol
# Density = 2.512600 g / cm^3
# Si number density = 25.183318 Si / 1000 Ang^3
#
#
#
# Elastic Constant Matrix: (Units=GPa)
#
#
# Indices 1 2 3 4 5 6 
#
# 1 185.7600 36.8510 40.6478 0.0242 -0.0221 -0.0267
# 2 36.8510 73.7481 73.2206 0.0119 -0.0034 -0.0095
# 3 40.6478 73.2206 211.3591 0.0383 -0.0587 -0.0632
# 4 0.0242 0.0119 0.0383 63.3728 -0.0128 -0.0165
# 5 -0.0221 -0.0034 -0.0587 -0.0128 -7.6726 0.0025
# 6 -0.0267 -0.0095 -0.0632 -0.0165 0.0025 29.4774
#
#
#
# Elastic Compliance Matrix: (Units=1/GPa)
#
#
# Indices 1 2 3 4 5 6 
#
# 1 0.005980 -0.002814 -0.000175 -0.000002 -0.000015 0.000004
# 2 -0.002814 0.021993 -0.007078 0.000001 0.000052 -0.000011
# 3 -0.000175 -0.007078 0.007217 -0.000003 -0.000052 0.000013
# 4 -0.000002 0.000001 -0.000003 0.015780 -0.000026 0.000009
# 5 -0.000015 0.000052 -0.000052 -0.000026 -0.130333 0.000011
# 6 0.000004 -0.000011 0.000013 0.000009 0.000011 0.033924
#
#
# Mechanical properties :
#
#
# Convention : Reuss Voigt Hill
#
# Bulk Modulus (GPa) = 66.42030 85.81177 76.11603
# Shear Modulus (GPa) = -246.46648 38.37871 -104.04388
#
# Velocity S-wave (km/s) = -9.90361 3.90805 -6.43462
# Velocity P-wave (km/s) = 10.21485 7.38326 4.99153
#
# Compressibility (1/GPa) = 0.01505564
#
# Stress axis : x y z
#
# Youngs Moduli (GPa) = 167.22715 45.46889 138.56390
#
# Poissons Ratio (x) = 0.12796 0.02426
# Poissons Ratio (y) = 0.47061 0.98072
# Poissons Ratio (z) = 0.02928 0.32182
#
# Static dielectric constant tensor:
#      x y z
#    x 1.928710 -0.000010 0.000010 
#    y -0.000010 1.890810 0.000010 
#    z 0.000010 0.000010 1.942610 
# 
# From -- ./inp_files/343.got.cif
#   From: 2010.05.17/outbox.cif.g08.bks.cpg/sg46_1_cif.got.tgz:343.got - 2010.06.03 19:58:25.
