data_PCOD9380117
_publ_section_title
;
Structure prediction by ZEFSAII (Michael W. Deem and Ramdas Pophale) SiO2 
 PCOD9380117
Probable space group: I M A 2
;
_chemical_formula_sum "Si O2"
_cell_formula_units_Z 60
_cell_length_a 24.517689
_cell_length_b 9.146911
_cell_length_c 13.645930
_cell_angle_alpha 90.000000
_cell_angle_beta 90.000000
_cell_angle_gamma 90.000000
_cell_volume 3060.251534
_symmetry_space_group_name_H-M "I M A 2"
_symmetry_group_IT_number 46
_symmetry_cell_setting 'orthorhombic'
loop_
_space_group_symop_operation_xyz
x,y,z
-x,-y,z
1/2-x,y,z
1/2+x,-y,z
1/2+x,1/2+y,1/2+z
1/2-x,1/2-y,1/2+z
-x,1/2+y,1/2+z
x,1/2-y,1/2+z
loop_
_atom_site_type_symbol
_atom_site_label
_atom_site_fract_x
_atom_site_fract_y
_atom_site_fract_z
Si Si1 0.311597 0.442287 0.656790
Si Si2 0.547178 0.605390 0.057414
Si Si3 0.690396 0.664012 0.871666
Si Si4 0.855850 0.406309 0.986676
Si Si5 0.313446 0.785185 0.690794
Si Si6 0.500000 0.500000 0.248545
Si Si7 0.607556 0.638850 0.485795
Si Si8 0.098118 0.646087 0.355878
O O1 0.250000 0.434977 0.615063
O O2 0.312953 0.349063 0.755487
O O3 0.321365 0.610159 0.687660
O O4 0.356379 0.386088 0.582138
O O5 0.500000 0.500000 0.014390
O O6 0.602462 0.520875 0.034571
O O7 0.535666 0.598786 0.173467
O O8 0.554016 0.767420 0.014543
O O9 0.750000 0.721497 0.899674
O O10 0.642780 0.763556 0.911977
O O11 0.683219 0.502740 0.918153
O O12 0.825616 0.334929 0.079247
O O13 0.888902 0.291324 0.919254
O O14 0.250000 0.816664 0.715905
O O15 0.355878 0.852893 0.769441
O O16 0.460387 0.610510 0.306208
O O17 0.601205 0.485322 0.433298
#
# Coordination Sequence:
#
# PCOD9380117 Si02
#       8
#     8   8   8   8   8   4   8   8
#     4  10  21  38  59  92 136 171 210 269 333 402
#     4   9  22  44  63  83 126 167 214 272 335 390
#     4  10  22  38  60  90 129 173 210 257 327 399
#     4  11  21  41  64  90 127 169 217 263 329 404
#     4  11  22  39  65  97 135 174 214 274 333 409
#     4  10  24  42  66  88 130 166 220 278 332 396
#     4  11  24  39  65  95 127 167 222 282 327 394
#     4  12  25  41  67 100 130 167 227 278 336 395
#
# _framework density 19.606231000000001
#
# number of rings (size 3 to 8) (size 9 to 14) (size 15 to 20)
#    0.400    1.067    4.000    0.800    3.733    1.600 
#    0.000    2.667    0.000    0.000    0.000    0.000 
#    0.000    0.000    0.000    0.000    0.000    0.000 
#
# Total GULP energy -167268.240097 kJ/mol
# GULP energy per Si atom -5575.608003 kJ/mol
# Density = 1.956161 g / cm^3
# Si number density = 19.606231 Si / 1000 Ang^3
#
#
#
# Elastic Constant Matrix: (Units=GPa)
#
#
# Indices 1 2 3 4 5 6 
#
# 1 64.9185 -0.8797 21.9790 0.0000 0.0000 0.0000
# 2 -0.8797 28.4790 6.7877 0.0000 0.0000 0.0000
# 3 21.9790 6.7877 88.4269 0.0000 0.0000 0.0000
# 4 0.0000 0.0000 0.0000 19.2502 0.0000 0.0000
# 5 0.0000 0.0000 0.0000 0.0000 27.5697 0.0000
# 6 0.0000 0.0000 0.0000 0.0000 0.0000 28.4881
#
#
#
# Elastic Compliance Matrix: (Units=1/GPa)
#
#
# Indices 1 2 3 4 5 6 
#
# 1 0.016886 0.001550 -0.004316 0.000000 0.000000 0.000000
# 2 0.001550 0.035910 -0.003142 0.000000 0.000000 0.000000
# 3 -0.004316 -0.003142 0.012623 0.000000 0.000000 0.000000
# 4 0.000000 0.000000 0.000000 0.051948 0.000000 0.000000
# 5 0.000000 0.000000 0.000000 0.000000 0.036272 0.000000
# 6 0.000000 0.000000 0.000000 0.000000 0.000000 0.035102
#
#
# Mechanical properties :
#
#
# Convention : Reuss Voigt Hill
#
# Bulk Modulus (GPa) = 18.65535 26.39981 22.52758
# Shear Modulus (GPa) = 22.89123 25.32409 24.10766
#
# Velocity S-wave (km/s) = 3.42065 3.59783 3.51036
# Velocity P-wave (km/s) = 5.01366 5.54558 5.28631
#
# Compressibility (1/GPa) = 0.05360394
#
# Stress axis : x y z
#
# Youngs Moduli (GPa) = 59.21988 27.84716 79.22206
#
# Poissons Ratio (x) = -0.04317 0.34194
# Poissons Ratio (y) = -0.09181 0.24890
# Poissons Ratio (z) = 0.25560 0.08749
#
# Static dielectric constant tensor:
#      x y z
#    x 1.701770 0.000000 0.000000 
#    y 0.000000 1.687900 0.000000 
#    z 0.000000 0.000000 1.686650 
# 
# From -- ./inp_files/17344.got.cif
#   From: 2010.05.17/outbox.cif.g08.bks.cpg/sg46_9_cif.got.tgz:17344.got - 2010.06.03 19:58:25.
