data_PCOD9380054
_publ_section_title
;
Structure prediction by ZEFSAII (Michael W. Deem and Ramdas Pophale) SiO2 
 PCOD9380054
Probable space group: I M A 2
;
_chemical_formula_sum "Si O2"
_cell_formula_units_Z 64
_cell_length_a 8.182353
_cell_length_b 31.586011
_cell_length_c 12.286281
_cell_angle_alpha 90.000000
_cell_angle_beta 90.000000
_cell_angle_gamma 90.000000
_cell_volume 3175.363423
_symmetry_space_group_name_H-M "I M A 2"
_symmetry_group_IT_number 46
_symmetry_cell_setting 'orthorhombic'
loop_
_space_group_symop_operation_xyz
x,y,z
-x,-y,z
1/2-x,y,z
1/2+x,-y,z
1/2+x,1/2+y,1/2+z
1/2-x,1/2-y,1/2+z
-x,1/2+y,1/2+z
x,1/2-y,1/2+z
loop_
_atom_site_type_symbol
_atom_site_label
_atom_site_fract_x
_atom_site_fract_y
_atom_site_fract_z
Si Si1 0.555503 0.872491 0.157380
Si Si2 0.449687 0.375101 0.410303
Si Si3 0.059648 0.066969 0.522161
Si Si4 0.447220 0.045889 0.763727
Si Si5 0.448557 0.296579 0.810969
Si Si6 0.947983 0.798872 0.754103
Si Si7 0.439700 0.546131 0.786284
Si Si8 0.440119 0.839163 0.529920
O O1 0.750000 0.866523 0.148014
O O2 0.493513 0.831853 0.224346
O O3 0.526181 0.914987 0.225935
O O4 0.490968 0.876116 0.034469
O O5 0.250000 0.376689 0.411715
O O6 0.504620 0.415392 0.338965
O O7 0.494902 0.331905 0.348643
O O8 0.250000 0.054997 0.511960
O O9 0.994594 0.051383 0.638857
O O10 0.969445 0.050332 0.415644
O O11 0.043491 0.117745 0.523457
O O12 0.250000 0.047986 0.760122
O O13 0.500000 0.000000 0.804979
O O14 0.250000 0.297830 0.815241
O O15 0.497073 0.249107 0.779506
O O16 0.514817 0.310035 0.928041
O O17 0.750000 0.799948 0.744797
O O18 0.020887 0.815505 0.641656
O O19 0.500000 0.500000 0.750658
O O20 0.250000 0.550080 0.763038
O O21 0.250000 0.851046 0.524863
#
# Coordination Sequence:
#
# PCOD9380054 Si02
#       8
#     8   8   8   8   8   8   8   8
#     4  10  21  39  62  89 121 158 205 256 304 360
#     4   9  19  38  61  87 120 157 202 254 301 351
#     4  11  21  39  64  90 122 158 204 256 304 359
#     4  10  21  37  59  87 119 154 194 249 302 357
#     4  10  22  38  65  94 120 160 210 257 301 357
#     4  10  21  40  66  93 121 159 209 255 299 362
#     4  12  25  41  62  90 123 161 203 251 308 366
#     4  12  24  38  61  92 130 166 197 249 311 366
#
# _framework density 20.155173000000001
#
# number of rings (size 3 to 8) (size 9 to 14) (size 15 to 20)
#    0.000    1.500    2.500    3.000    1.750    3.000 
#    0.000    2.500    0.000    0.000    0.000    0.000 
#    0.000    0.000    0.000    0.000    0.000    0.000 
#
# Total GULP energy -178879.845628 kJ/mol
# GULP energy per Si atom -5589.995176 kJ/mol
# Density = 2.010930 g / cm^3
# Si number density = 20.155173 Si / 1000 Ang^3
#
#
#
# Elastic Constant Matrix: (Units=GPa)
#
#
# Indices 1 2 3 4 5 6 
#
# 1 10.4082 -8.2126 0.6132 0.0000 0.0000 0.0000
# 2 -8.2126 145.9658 55.2772 0.0003 -0.0001 0.0000
# 3 0.6132 55.2772 132.2686 0.0008 -0.0002 0.0000
# 4 0.0000 0.0003 0.0008 42.4415 0.0001 0.0000
# 5 0.0000 -0.0001 -0.0002 0.0001 -7.7214 0.0000
# 6 0.0000 0.0000 0.0000 0.0000 0.0000 17.1655
#
#
#
# Elastic Compliance Matrix: (Units=1/GPa)
#
#
# Indices 1 2 3 4 5 6 
#
# 1 0.101816 0.007018 -0.003405 0.000000 0.000000 0.000000
# 2 0.007018 0.008623 -0.003636 0.000000 0.000000 0.000000
# 3 -0.003405 -0.003636 0.009096 0.000000 0.000000 0.000000
# 4 0.000000 0.000000 0.000000 0.023562 0.000000 0.000000
# 5 0.000000 0.000000 0.000000 0.000000 -0.129511 0.000000
# 6 0.000000 0.000000 0.000000 0.000000 0.000000 0.058256
#
#
# Mechanical properties :
#
#
# Convention : Reuss Voigt Hill
#
# Bulk Modulus (GPa) = 8.36901 42.66647 25.51774
# Shear Modulus (GPa) = 44.75556 26.44144 35.59850
#
# Velocity S-wave (km/s) = 4.71738 3.62594 4.20720
# Velocity P-wave (km/s) = 5.81661 6.22453 6.02402
#
# Compressibility (1/GPa) = 0.11948842
#
# Stress axis : x y z
#
# Youngs Moduli (GPa) = 9.82163 115.97189 109.94140
#
# Poissons Ratio (x) = -0.81389 0.37435
# Poissons Ratio (y) = -0.06893 0.39976
# Poissons Ratio (z) = 0.03344 0.42169
#
# Static dielectric constant tensor:
#      x y z
#    x 1.701050 0.000000 0.000000 
#    y 0.000000 1.665260 0.000000 
#    z 0.000000 0.000000 1.690150 
# 
# From -- ./inp_files/9683.got.cif
#   From: 2010.05.17/outbox.cif.g08.bks.cpg/sg46_5_cif.got.tgz:9683.got - 2010.06.03 19:58:25.
