data_PCOD9380150
_publ_section_title
;
Structure prediction by ZEFSAII (Michael W. Deem and Ramdas Pophale) SiO2 
 PCOD9380150
Probable space group: I M A 2
;
_chemical_formula_sum "Si O2"
_cell_formula_units_Z 56
_cell_length_a 30.336460
_cell_length_b 5.341360
_cell_length_c 15.529413
_cell_angle_alpha 90.000000
_cell_angle_beta 90.000000
_cell_angle_gamma 90.000000
_cell_volume 2516.354309
_symmetry_space_group_name_H-M "I M A 2"
_symmetry_group_IT_number 46
_symmetry_cell_setting 'orthorhombic'
loop_
_space_group_symop_operation_xyz
x,y,z
-x,-y,z
1/2-x,y,z
1/2+x,-y,z
1/2+x,1/2+y,1/2+z
1/2-x,1/2-y,1/2+z
-x,1/2+y,1/2+z
x,1/2-y,1/2+z
loop_
_atom_site_type_symbol
_atom_site_label
_atom_site_fract_x
_atom_site_fract_y
_atom_site_fract_z
Si Si1 0.371699 0.278718 0.637410
Si Si2 0.023753 0.249436 0.939279
Si Si3 0.202940 0.460619 0.232291
Si Si4 0.671223 0.165900 0.898636
Si Si5 0.974882 0.746134 0.648853
Si Si6 0.702880 0.343390 0.581240
Si Si7 0.876322 0.650374 0.942092
O O1 0.422610 0.286561 0.666033
O O2 0.342588 0.516938 0.606137
O O3 0.373683 0.122806 0.546896
O O4 0.341805 0.190422 0.717186
O O5 0.074902 0.262693 0.918056
O O6 0.000000 0.500000 0.909028
O O7 0.021505 0.247062 0.044086
O O8 0.000000 0.000000 0.907771
O O9 0.250000 0.329426 0.248638
O O10 0.195972 0.656330 0.308795
O O11 0.205481 0.607266 0.142792
O O12 0.634938 0.384145 0.900211
O O13 0.654873 0.881049 0.915308
O O14 0.700112 0.228483 0.981837
O O15 0.000000 0.500000 0.680836
O O16 0.000000 0.000000 0.677797
O O17 0.750000 0.485990 0.593036
#
# Coordination Sequence:
#
# PCOD9380150 Si02
#       7
#     8   8   8   8   8   8   8
#     4  10  21  38  65  92 132 169 220 269 330 386
#     4   9  16  29  54  89 121 155 204 261 309 374
#     4  11  24  41  64  94 128 173 223 270 329 392
#     4  11  23  41  62  92 128 171 212 267 322 384
#     4   9  19  32  57  92 126 160 209 261 316 383
#     4  10  22  41  64  94 130 170 218 269 326 392
#     4  10  21  38  62  91 127 168 214 262 325 388
#
# _framework density 22.254418000000001
#
# number of rings (size 3 to 8) (size 9 to 14) (size 15 to 20)
#    0.000    2.000    1.429    1.714    4.000    3.429 
#    0.000    1.429    0.000    3.429    0.000    0.000 
#    0.000    0.000    0.000    0.000    0.000    0.000 
#
# Total GULP energy -156104.471009 kJ/mol
# GULP energy per Si atom -5575.159679 kJ/mol
# Density = 2.220377 g / cm^3
# Si number density = 22.254418 Si / 1000 Ang^3
#
#
#
# Elastic Constant Matrix: (Units=GPa)
#
#
# Indices 1 2 3 4 5 6 
#
# 1 178.9652 46.1617 16.7074 0.0000 0.0000 0.0000
# 2 46.1617 86.6389 10.1515 0.0000 0.0000 0.0000
# 3 16.7074 10.1515 57.4640 0.0000 0.0000 0.0000
# 4 0.0000 0.0000 0.0000 10.9285 0.0000 0.0000
# 5 0.0000 0.0000 0.0000 0.0000 22.2497 0.0000
# 6 0.0000 0.0000 0.0000 0.0000 0.0000 143.2600
#
#
#
# Elastic Compliance Matrix: (Units=1/GPa)
#
#
# Indices 1 2 3 4 5 6 
#
# 1 0.006575 -0.003348 -0.001320 0.000000 0.000000 0.000000
# 2 -0.003348 0.013491 -0.001410 0.000000 0.000000 0.000000
# 3 -0.001320 -0.001410 0.018035 0.000000 0.000000 0.000000
# 4 0.000000 0.000000 0.000000 0.091504 0.000000 0.000000
# 5 0.000000 0.000000 0.000000 0.000000 0.044944 0.000000
# 6 0.000000 0.000000 0.000000 0.000000 0.000000 0.006980
#
#
# Mechanical properties :
#
#
# Convention : Reuss Voigt Hill
#
# Bulk Modulus (GPa) = 38.54364 52.12326 45.33345
# Shear Modulus (GPa) = 24.71158 51.95748 38.33453
#
# Velocity S-wave (km/s) = 3.33590 4.83712 4.15487
# Velocity P-wave (km/s) = 5.67404 7.39387 6.59030
#
# Compressibility (1/GPa) = 0.02594462
#
# Stress axis : x y z
#
# Youngs Moduli (GPa) = 152.10147 74.12163 55.44759
#
# Poissons Ratio (x) = 0.24818 0.07319
# Poissons Ratio (y) = 0.50928 0.07817
# Poissons Ratio (z) = 0.20078 0.10450
#
# Static dielectric constant tensor:
#      x y z
#    x 1.819050 0.000000 0.000000 
#    y 0.000000 1.847230 0.000000 
#    z 0.000000 0.000000 1.830490 
# 
# From -- ./inp_files/17681.got.cif
#   From: 2010.05.17/outbox.cif.g08.bks.cpg/sg46_9_cif.got.tgz:17681.got - 2010.06.03 19:58:25.
