data_PCOD9380993
_publ_section_title
;
Structure prediction by ZEFSAII (Michael W. Deem and Ramdas Pophale) SiO2 
 PCOD9380993
Probable space group: I M A 2
;
_chemical_formula_sum "Si O2"
_cell_formula_units_Z 28
_cell_length_a 14.697673
_cell_length_b 5.190389
_cell_length_c 14.919090
_cell_angle_alpha 90.000000
_cell_angle_beta 90.000000
_cell_angle_gamma 90.000000
_cell_volume 1138.127252
_symmetry_space_group_name_H-M "I M A 2"
_symmetry_group_IT_number 46
_symmetry_cell_setting 'orthorhombic'
loop_
_space_group_symop_operation_xyz
x,y,z
-x,-y,z
1/2-x,y,z
1/2+x,-y,z
1/2+x,1/2+y,1/2+z
1/2-x,1/2-y,1/2+z
-x,1/2+y,1/2+z
x,1/2-y,1/2+z
loop_
_atom_site_type_symbol
_atom_site_label
_atom_site_fract_x
_atom_site_fract_y
_atom_site_fract_z
Si Si1 0.500000 0.500000 0.033950
Si Si2 0.847973 0.718951 0.645540
Si Si3 0.147679 0.894058 0.979441
Si Si4 0.937096 0.754108 0.829349
O O1 0.431510 0.358215 0.099698
O O2 0.434543 0.691035 0.977491
O O3 0.750000 0.846730 0.628804
O O4 0.846583 0.463004 0.584786
O O5 0.865247 0.699514 0.750295
O O6 0.250000 0.814237 0.950518
O O7 0.116415 0.139629 0.918332
O O8 0.000000 0.500000 0.827235
O O9 0.000000 0.000000 0.804861
#
# Coordination Sequence:
#
# PCOD9380993 Si02
#       4
#     4   8   8   8
#     4  12  22  48  76 114 156 212 262 322 402 464
#     4  11  25  47  76 114 156 204 264 328 393 471
#     4  11  27  48  79 118 159 207 267 329 394 473
#     4  12  27  48  79 113 157 207 256 319 397 469
#
# _framework density 24.601818999999999
#
# number of rings (size 3 to 8) (size 9 to 14) (size 15 to 20)
#    0.000    0.571    1.429    6.000    8.000    0.000 
#    0.000    2.857    0.000    5.143    0.000    0.000 
#    0.000    0.000    0.000    0.000    0.000    0.000 
#
# Total GULP energy -78182.215695 kJ/mol
# GULP energy per Si atom -5584.443978 kJ/mol
# Density = 2.454582 g / cm^3
# Si number density = 24.601819 Si / 1000 Ang^3
#
#
#
# Elastic Constant Matrix: (Units=GPa)
#
#
# Indices 1 2 3 4 5 6 
#
# 1 236.8520 75.1698 34.9855 0.0000 0.0000 0.0000
# 2 75.1698 128.6727 31.8732 0.0000 0.0000 0.0000
# 3 34.9855 31.8732 130.7464 0.0000 0.0000 0.0000
# 4 0.0000 0.0000 0.0000 11.8127 0.0000 0.0000
# 5 0.0000 0.0000 0.0000 0.0000 17.3734 0.0000
# 6 0.0000 0.0000 0.0000 0.0000 0.0000 8.1741
#
#
#
# Elastic Compliance Matrix: (Units=1/GPa)
#
#
# Indices 1 2 3 4 5 6 
#
# 1 0.005242 -0.002889 -0.000698 0.000000 0.000000 0.000000
# 2 -0.002889 0.009864 -0.001631 0.000000 0.000000 0.000000
# 3 -0.000698 -0.001631 0.008233 0.000000 0.000000 0.000000
# 4 0.000000 0.000000 0.000000 0.084655 0.000000 0.000000
# 5 0.000000 0.000000 0.000000 0.000000 0.057559 0.000000
# 6 0.000000 0.000000 0.000000 0.000000 0.000000 0.122338
#
#
# Mechanical properties :
#
#
# Convention : Reuss Voigt Hill
#
# Bulk Modulus (GPa) = 77.51629 86.70312 82.10970
# Shear Modulus (GPa) = 16.52182 31.08820 23.80501
#
# Velocity S-wave (km/s) = 2.59428 3.55865 3.11402
# Velocity P-wave (km/s) = 6.36792 7.22526 6.81010
#
# Compressibility (1/GPa) = 0.01290051
#
# Stress axis : x y z
#
# Youngs Moduli (GPa) = 190.75820 101.38090 121.46304
#
# Poissons Ratio (x) = 0.29294 0.08482
# Poissons Ratio (y) = 0.55120 0.19816
# Poissons Ratio (z) = 0.13321 0.16539
#
# Static dielectric constant tensor:
#      x y z
#    x 1.992970 0.000000 0.000000 
#    y 0.000000 2.027450 0.000000 
#    z 0.000000 0.000000 2.022400 
# 
# From -- ./inp_files/19075.got.cif
#   From: 2010.05.17/outbox.cif.g08.bks.cpg/sg46_10_cif.got.tgz:19075.got - 2010.06.03 19:58:25.
