data_PCOD9380372
_publ_section_title
;
Structure prediction by ZEFSAII (Michael W. Deem and Ramdas Pophale) SiO2 
 PCOD9380372
Probable space group: I M A 2
;
_chemical_formula_sum "Si O2"
_cell_formula_units_Z 48
_cell_length_a 22.830794
_cell_length_b 8.343955
_cell_length_c 11.876291
_cell_angle_alpha 90.000000
_cell_angle_beta 90.000000
_cell_angle_gamma 90.000000
_cell_volume 2262.422958
_symmetry_space_group_name_H-M "I M A 2"
_symmetry_group_IT_number 46
_symmetry_cell_setting 'orthorhombic'
loop_
_space_group_symop_operation_xyz
x,y,z
-x,-y,z
1/2-x,y,z
1/2+x,-y,z
1/2+x,1/2+y,1/2+z
1/2-x,1/2-y,1/2+z
-x,1/2+y,1/2+z
x,1/2-y,1/2+z
loop_
_atom_site_type_symbol
_atom_site_label
_atom_site_fract_x
_atom_site_fract_y
_atom_site_fract_z
Si Si1 0.085625 0.075482 0.694580
Si Si2 0.500000 0.000000 0.868138
Si Si3 0.250000 0.746863 0.390752
Si Si4 0.750000 0.903124 0.944052
Si Si5 0.996235 0.325055 0.995552
Si Si6 0.750000 0.996254 0.200851
Si Si7 0.846776 0.679486 0.840321
Si Si8 0.135755 0.604440 0.007713
O O1 0.107799 0.219614 0.769853
O O2 0.053277 0.960151 0.783291
O O3 0.038326 0.140827 0.603174
O O4 0.137578 0.985711 0.628195
O O5 0.485551 0.158981 0.938377
O O6 0.250000 0.559313 0.366610
O O7 0.307670 0.799596 0.463478
O O8 0.250000 0.839074 0.271248
O O9 0.806348 0.794229 0.917798
O O10 0.750000 0.980801 0.067703
O O11 0.926322 0.303677 0.017156
O O12 0.000000 0.500000 0.933784
O O13 0.694534 0.902232 0.248522
O O14 0.871099 0.539732 0.918392
#
# Coordination Sequence:
#
# PCOD9380372 Si02
#       8
#     8   4   4   4   8   4   8   8
#     4  11  21  42  67  98 131 177 232 277 337 411
#     4  12  24  42  70  96 132 182 228 278 352 402
#     4  10  24  40  64  98 142 176 218 282 342 400
#     4  11  23  41  66 104 132 167 237 273 330 434
#     4  10  23  46  65  99 140 170 233 289 333 414
#     4   9  21  43  60  98 134 173 219 271 344 406
#     4  10  22  39  70  93 130 180 219 280 342 400
#     4  10  21  45  63  94 140 176 217 288 336 402
#
# _framework density 21.216191999999999
#
# number of rings (size 3 to 8) (size 9 to 14) (size 15 to 20)
#    0.000    1.667    2.500    3.500    2.333    2.667 
#    7.500    0.000    0.000    0.000    0.000    0.000 
#    0.000    0.000    0.000    0.000    0.000    0.000 
#
# Total GULP energy -133796.360271 kJ/mol
# GULP energy per Si atom -5574.848345 kJ/mol
# Density = 2.116790 g / cm^3
# Si number density = 21.216192 Si / 1000 Ang^3
#
#
#
# Elastic Constant Matrix: (Units=GPa)
#
#
# Indices 1 2 3 4 5 6 
#
# 1 90.9093 6.7692 21.1550 0.0000 0.0000 0.0000
# 2 6.7692 63.3163 24.7206 0.0000 0.0000 0.0000
# 3 21.1550 24.7206 81.5419 0.0000 0.0000 0.0000
# 4 0.0000 0.0000 0.0000 8.6823 0.0000 0.0000
# 5 0.0000 0.0000 0.0000 0.0000 41.4449 0.0000
# 6 0.0000 0.0000 0.0000 0.0000 0.0000 24.8953
#
#
#
# Elastic Compliance Matrix: (Units=1/GPa)
#
#
# Indices 1 2 3 4 5 6 
#
# 1 0.011707 -0.000075 -0.003015 0.000000 0.000000 0.000000
# 2 -0.000075 0.017915 -0.005412 0.000000 0.000000 0.000000
# 3 -0.003015 -0.005412 0.014686 0.000000 0.000000 0.000000
# 4 0.000000 0.000000 0.000000 0.115177 0.000000 0.000000
# 5 0.000000 0.000000 0.000000 0.000000 0.024128 0.000000
# 6 0.000000 0.000000 0.000000 0.000000 0.000000 0.040168
#
#
# Mechanical properties :
#
#
# Convention : Reuss Voigt Hill
#
# Bulk Modulus (GPa) = 36.62181 37.89523 37.25852
# Shear Modulus (GPa) = 20.00919 27.21269 23.61094
#
# Velocity S-wave (km/s) = 3.07434 3.58528 3.33959
# Velocity P-wave (km/s) = 5.46816 5.91939 5.69825
#
# Compressibility (1/GPa) = 0.02730613
#
# Stress axis : x y z
#
# Youngs Moduli (GPa) = 85.41863 55.82041 68.09027
#
# Poissons Ratio (x) = 0.00416 0.20527
# Poissons Ratio (y) = 0.00637 0.36849
# Poissons Ratio (z) = 0.25750 0.30208
#
# Static dielectric constant tensor:
#      x y z
#    x 1.756830 0.000000 0.000000 
#    y 0.000000 1.764910 0.000000 
#    z 0.000000 0.000000 1.772980 
# 
# From -- ./inp_files/12761.got.cif
#   From: 2010.05.17/outbox.cif.g08.bks.cpg/sg46_7_cif.got.tgz:12761.got - 2010.06.03 19:58:25.
