data_PCOD9380639
_publ_section_title
;
Structure prediction by ZEFSAII (Michael W. Deem and Ramdas Pophale) SiO2 
 PCOD9380639
Probable space group: I M A 2
;
_chemical_formula_sum "Si O2"
_cell_formula_units_Z 56
_cell_length_a 20.611523
_cell_length_b 9.006737
_cell_length_c 14.768506
_cell_angle_alpha 90.000000
_cell_angle_beta 90.000000
_cell_angle_gamma 90.000000
_cell_volume 2741.663362
_symmetry_space_group_name_H-M "I M A 2"
_symmetry_group_IT_number 46
_symmetry_cell_setting 'orthorhombic'
loop_
_space_group_symop_operation_xyz
x,y,z
-x,-y,z
1/2-x,y,z
1/2+x,-y,z
1/2+x,1/2+y,1/2+z
1/2-x,1/2-y,1/2+z
-x,1/2+y,1/2+z
x,1/2-y,1/2+z
loop_
_atom_site_type_symbol
_atom_site_label
_atom_site_fract_x
_atom_site_fract_y
_atom_site_fract_z
Si Si1 0.412077 0.703402 0.849890
Si Si2 0.084848 0.954509 0.706257
Si Si3 0.081154 0.397333 0.590237
Si Si4 0.323315 0.360510 0.076097
Si Si5 0.552243 0.275019 0.549361
Si Si6 0.555566 0.768228 0.283698
Si Si7 0.326033 0.422677 0.866187
O O1 0.394606 0.842959 0.786230
O O2 0.488929 0.679695 0.829791
O O3 0.362394 0.570274 0.830516
O O4 0.412960 0.728205 0.957510
O O5 0.052655 0.850512 0.627334
O O6 0.139852 0.037665 0.647983
O O7 0.050804 0.095883 0.754774
O O8 0.143932 0.300845 0.571509
O O9 0.085945 0.572393 0.580320
O O10 0.060792 0.362209 0.692282
O O11 0.022146 0.326762 0.531686
O O12 0.250000 0.345396 0.104979
O O13 0.326397 0.426547 0.975240
O O14 0.623083 0.794834 0.336292
O O15 0.250000 0.407135 0.837963
#
# Coordination Sequence:
#
# PCOD9380639 Si02
#       7
#     8   8   8   8   8   8   8
#     4  12  24  41  71 101 138 175 227 291 348 405
#     4  11  24  43  67 103 134 175 224 287 341 408
#     4  10  23  40  68  96 136 174 222 281 341 412
#     4  10  23  45  66  93 137 186 230 274 341 415
#     4  11  23  41  67 103 136 172 220 288 349 401
#     4  11  24  40  70  99 135 173 232 281 342 412
#     4  11  25  45  67  97 137 186 234 280 339 413
#
# _framework density 20.425554999999999
#
# number of rings (size 3 to 8) (size 9 to 14) (size 15 to 20)
#    0.000    1.143    2.857    2.571   10.000    2.857 
#    0.000    1.429    0.000    0.000    0.000    0.000 
#    0.000    0.000    0.000    0.000    0.000    0.000 
#
# Total GULP energy -156279.669933 kJ/mol
# GULP energy per Si atom -5581.416783 kJ/mol
# Density = 2.037907 g / cm^3
# Si number density = 20.425555 Si / 1000 Ang^3
#
#
#
# Elastic Constant Matrix: (Units=GPa)
#
#
# Indices 1 2 3 4 5 6 
#
# 1 140.8598 62.2928 19.9431 0.0000 0.0000 0.0000
# 2 62.2928 136.7875 34.9181 0.0000 0.0000 0.0000
# 3 19.9431 34.9181 65.5835 0.0000 0.0000 0.0000
# 4 0.0000 0.0000 0.0000 9.3978 0.0000 0.0000
# 5 0.0000 0.0000 0.0000 0.0000 26.6907 0.0000
# 6 0.0000 0.0000 0.0000 0.0000 0.0000 -8.8422
#
#
#
# Elastic Compliance Matrix: (Units=1/GPa)
#
#
# Indices 1 2 3 4 5 6 
#
# 1 0.008912 -0.003896 -0.000636 0.000000 0.000000 0.000000
# 2 -0.003896 0.010164 -0.004227 0.000000 0.000000 0.000000
# 3 -0.000636 -0.004227 0.017691 0.000000 0.000000 0.000000
# 4 0.000000 0.000000 0.000000 0.106408 0.000000 0.000000
# 5 0.000000 0.000000 0.000000 0.000000 0.037466 0.000000
# 6 0.000000 0.000000 0.000000 0.000000 0.000000 -0.113095
#
#
# Mechanical properties :
#
#
# Convention : Reuss Voigt Hill
#
# Bulk Modulus (GPa) = 51.94709 64.17098 58.05904
# Shear Modulus (GPa) = 54.65586 20.52105 37.58846
#
# Velocity S-wave (km/s) = 5.17848 3.17310 4.29449
# Velocity P-wave (km/s) = 7.82580 6.70149 7.28537
#
# Compressibility (1/GPa) = 0.01925036
#
# Stress axis : x y z
#
# Youngs Moduli (GPa) = 112.20352 98.38651 56.52464
#
# Poissons Ratio (x) = 0.38336 0.03593
# Poissons Ratio (y) = 0.43719 0.23891
# Poissons Ratio (z) = 0.07132 0.41585
#
# Static dielectric constant tensor:
#      x y z
#    x 1.766050 0.000000 0.000000 
#    y 0.000000 1.733120 0.000000 
#    z 0.000000 0.000000 1.751720 
# 
# From -- ./inp_files/17097.got.cif
#   From: 2010.05.17/outbox.cif.g08.bks.cpg/sg46_9_cif.got.tgz:17097.got - 2010.06.03 19:58:25.
