data_PCOD9380024
_publ_section_title
;
Structure prediction by ZEFSAII (Michael W. Deem and Ramdas Pophale) SiO2 
 PCOD9380024
Probable space group: I M A 2
;
_chemical_formula_sum "Si O2"
_cell_formula_units_Z 56
_cell_length_a 14.574475
_cell_length_b 13.749275
_cell_length_c 12.436880
_cell_angle_alpha 90.000000
_cell_angle_beta 90.000000
_cell_angle_gamma 90.000000
_cell_volume 2492.207290
_symmetry_space_group_name_H-M "I M A 2"
_symmetry_group_IT_number 46
_symmetry_cell_setting 'orthorhombic'
loop_
_space_group_symop_operation_xyz
x,y,z
-x,-y,z
1/2-x,y,z
1/2+x,-y,z
1/2+x,1/2+y,1/2+z
1/2-x,1/2-y,1/2+z
-x,1/2+y,1/2+z
x,1/2-y,1/2+z
loop_
_atom_site_type_symbol
_atom_site_label
_atom_site_fract_x
_atom_site_fract_y
_atom_site_fract_z
Si Si1 0.456252 0.895685 0.934670
Si Si2 0.148165 0.135301 0.598614
Si Si3 0.968372 0.749676 0.263195
Si Si4 0.360154 0.076975 0.361865
Si Si5 0.601781 0.451596 0.216056
Si Si6 0.142918 0.772858 0.555365
Si Si7 0.356253 0.861141 0.316295
O O1 0.525518 0.829219 0.861116
O O2 0.382677 0.921676 0.839962
O O3 0.500000 0.000000 0.968722
O O4 0.413913 0.826405 0.026423
O O5 0.250000 0.180061 0.584333
O O6 0.075961 0.204257 0.657115
O O7 0.111726 0.096085 0.485051
O O8 0.158699 0.040886 0.672647
O O9 0.901984 0.836047 0.295939
O O10 0.069709 0.796120 0.255265
O O11 0.250000 0.078095 0.361250
O O12 0.387166 0.972608 0.316606
O O13 0.500000 0.500000 0.212150
O O14 0.614237 0.359280 0.138172
O O15 0.250000 0.749236 0.576173
O O16 0.139817 0.826586 0.439406
O O17 0.250000 0.853215 0.282006
#
# Coordination Sequence:
#
# PCOD9380024 Si02
#       7
#     8   8   8   8   8   8   8
#     4  10  22  39  56  92 129 165 217 261 320 391
#     4  11  22  37  62  97 131 168 218 269 324 389
#     4  11  21  36  63  92 131 173 215 270 333 390
#     4  10  21  37  61  98 135 170 219 273 326 389
#     4  11  21  38  63  98 129 160 215 271 326 381
#     4  10  21  36  62  93 125 170 215 268 326 381
#     4   9  19  35  58  94 131 171 221 267 323 385
#
# _framework density 22.470041999999999
#
# number of rings (size 3 to 8) (size 9 to 14) (size 15 to 20)
#    0.000    1.714    4.286    1.286    4.000    1.143 
#    0.000    0.000    0.000   12.000    0.000    0.000 
#    0.000    0.000    0.000    0.000    0.000    0.000 
#
# Total GULP energy -156340.393170 kJ/mol
# GULP energy per Si atom -5583.585470 kJ/mol
# Density = 2.241890 g / cm^3
# Si number density = 22.470042 Si / 1000 Ang^3
#
#
#
# Elastic Constant Matrix: (Units=GPa)
#
#
# Indices 1 2 3 4 5 6 
#
# 1 79.3151 51.6542 30.0693 0.0000 0.0000 0.0000
# 2 51.6542 174.6365 43.7228 0.0000 0.0000 0.0000
# 3 30.0693 43.7228 78.8065 0.0000 0.0000 0.0000
# 4 0.0000 0.0000 0.0000 44.1769 0.0000 0.0000
# 5 0.0000 0.0000 0.0000 0.0000 17.3718 0.0000
# 6 0.0000 0.0000 0.0000 0.0000 0.0000 26.5701
#
#
#
# Elastic Compliance Matrix: (Units=1/GPa)
#
#
# Indices 1 2 3 4 5 6 
#
# 1 0.016748 -0.003895 -0.004229 0.000000 0.000000 0.000000
# 2 -0.003895 0.007556 -0.002706 0.000000 0.000000 0.000000
# 3 -0.004229 -0.002706 0.015804 0.000000 0.000000 0.000000
# 4 0.000000 0.000000 0.000000 0.022636 0.000000 0.000000
# 5 0.000000 0.000000 0.000000 0.000000 0.057565 0.000000
# 6 0.000000 0.000000 0.000000 0.000000 0.000000 0.037636
#
#
# Mechanical properties :
#
#
# Convention : Reuss Voigt Hill
#
# Bulk Modulus (GPa) = 54.20736 64.85007 59.52872
# Shear Modulus (GPa) = 26.91728 31.44454 29.18091
#
# Velocity S-wave (km/s) = 3.46485 3.74491 3.60760
# Velocity P-wave (km/s) = 6.33905 6.90090 6.62594
#
# Compressibility (1/GPa) = 0.01844768
#
# Stress axis : x y z
#
# Youngs Moduli (GPa) = 59.70917 132.35135 63.27381
#
# Poissons Ratio (x) = 0.51548 0.26761
# Poissons Ratio (y) = 0.23256 0.17121
# Poissons Ratio (z) = 0.25253 0.35813
#
# Static dielectric constant tensor:
#      x y z
#    x 1.894770 0.000000 0.000000 
#    y 0.000000 1.839320 0.000000 
#    z 0.000000 0.000000 1.887520 
# 
# From -- ./inp_files/15928.got.cif
#   From: 2010.05.17/outbox.cif.g08.bks.cpg/sg46_8_cif.got.tgz:15928.got - 2010.06.03 19:58:25.
