data_PCOD9380594
_publ_section_title
;
Structure prediction by ZEFSAII (Michael W. Deem and Ramdas Pophale) SiO2 
 PCOD9380594
Probable space group: I M A 2
;
_chemical_formula_sum "Si O2"
_cell_formula_units_Z 28
_cell_length_a 16.901235
_cell_length_b 7.178277
_cell_length_c 10.995760
_cell_angle_alpha 90.000000
_cell_angle_beta 90.000000
_cell_angle_gamma 90.000000
_cell_volume 1334.024807
_symmetry_space_group_name_H-M "I M A 2"
_symmetry_group_IT_number 46
_symmetry_cell_setting 'orthorhombic'
loop_
_space_group_symop_operation_xyz
x,y,z
-x,-y,z
1/2-x,y,z
1/2+x,-y,z
1/2+x,1/2+y,1/2+z
1/2-x,1/2-y,1/2+z
-x,1/2+y,1/2+z
x,1/2-y,1/2+z
loop_
_atom_site_type_symbol
_atom_site_label
_atom_site_fract_x
_atom_site_fract_y
_atom_site_fract_z
Si Si1 0.250000 0.481492 0.225670
Si Si2 0.624301 0.250039 0.117260
Si Si3 0.250000 0.383833 0.867274
Si Si4 0.750000 0.981551 0.008828
Si Si5 0.418291 0.893268 0.367260
O O1 0.322537 0.570397 0.152345
O O2 0.250000 0.261838 0.253602
O O3 0.250000 0.560123 0.367243
O O4 0.579027 0.216444 0.241106
O O5 0.677463 0.070484 0.082144
O O6 0.578993 0.283632 0.993443
O O7 0.167881 0.499996 0.867272
O O8 0.250000 0.238115 0.980923
O O9 0.500000 0.000000 0.367215
#
# Coordination Sequence:
#
# PCOD9380594 Si02
#       5
#     4   8   4   4   8
#     4   9  19  39  72  97 131 173 217 271 321 389
#     4  11  22  44  64  97 136 178 216 267 334 393
#     4  10  22  44  64 102 128 172 226 270 324 378
#     4   9  19  39  72  97 131 173 217 271 321 389
#     4  12  27  43  69  97 133 176 220 272 330 392
#
# _framework density 20.989115000000002
#
# number of rings (size 3 to 8) (size 9 to 14) (size 15 to 20)
#    0.857    0.571    2.857    3.429    0.000    9.143 
#    0.000    4.286    0.000    0.000    0.000    0.000 
#    0.000    0.000    0.000    0.000    0.000    0.000 
#
# Total GULP energy -77985.150293 kJ/mol
# GULP energy per Si atom -5570.367878 kJ/mol
# Density = 2.094134 g / cm^3
# Si number density = 20.989115 Si / 1000 Ang^3
#
#
#
# Elastic Constant Matrix: (Units=GPa)
#
#
# Indices 1 2 3 4 5 6 
#
# 1 100.1565 26.4714 32.9573 0.0000 0.0000 0.0000
# 2 26.4714 67.8098 27.5259 0.0000 0.0000 0.0000
# 3 32.9573 27.5259 213.8396 0.0000 0.0000 0.0000
# 4 0.0000 0.0000 0.0000 50.5534 0.0000 0.0000
# 5 0.0000 0.0000 0.0000 0.0000 -30.2219 0.0000
# 6 0.0000 0.0000 0.0000 0.0000 0.0000 17.1563
#
#
#
# Elastic Compliance Matrix: (Units=1/GPa)
#
#
# Indices 1 2 3 4 5 6 
#
# 1 0.011443 -0.003958 -0.001254 0.000000 0.000000 0.000000
# 2 -0.003958 0.016929 -0.001569 0.000000 0.000000 0.000000
# 3 -0.001254 -0.001569 0.005072 0.000000 0.000000 0.000000
# 4 0.000000 0.000000 0.000000 0.019781 0.000000 0.000000
# 5 0.000000 0.000000 0.000000 0.000000 -0.033089 0.000000
# 6 0.000000 0.000000 0.000000 0.000000 0.000000 0.058288
#
#
# Mechanical properties :
#
#
# Convention : Reuss Voigt Hill
#
# Bulk Modulus (GPa) = 50.29833 61.74611 56.02222
# Shear Modulus (GPa) = 50.70267 27.15432 38.92850
#
# Velocity S-wave (km/s) = 4.92027 3.60075 4.31129
# Velocity P-wave (km/s) = 7.50299 6.83880 7.17858
#
# Compressibility (1/GPa) = 0.01988138
#
# Stress axis : x y z
#
# Youngs Moduli (GPa) = 87.38832 59.06944 197.17348
#
# Poissons Ratio (x) = 0.23380 0.24728
# Poissons Ratio (y) = 0.34589 0.30939
# Poissons Ratio (z) = 0.10960 0.09269
#
# Static dielectric constant tensor:
#      x y z
#    x 1.409530 0.000000 0.000000 
#    y 0.000000 1.797390 0.000000 
#    z 0.000000 0.000000 -93.284260 
# 
# From -- ./inp_files/10720.got.cif
#   From: 2010.05.17/outbox.cif.g08.bks.cpg/sg46_6_cif.got.tgz:10720.got - 2010.06.03 19:58:25.
