data_PCOD9380704
_publ_section_title
;
Structure prediction by ZEFSAII (Michael W. Deem and Ramdas Pophale) SiO2 
 PCOD9380704
Probable space group: I M A 2
;
_chemical_formula_sum "Si O2"
_cell_formula_units_Z 40
_cell_length_a 18.904413
_cell_length_b 8.527297
_cell_length_c 10.311453
_cell_angle_alpha 90.000000
_cell_angle_beta 90.000000
_cell_angle_gamma 90.000000
_cell_volume 1662.242770
_symmetry_space_group_name_H-M "I M A 2"
_symmetry_group_IT_number 46
_symmetry_cell_setting 'orthorhombic'
loop_
_space_group_symop_operation_xyz
x,y,z
-x,-y,z
1/2-x,y,z
1/2+x,-y,z
1/2+x,1/2+y,1/2+z
1/2-x,1/2-y,1/2+z
-x,1/2+y,1/2+z
x,1/2-y,1/2+z
loop_
_atom_site_type_symbol
_atom_site_label
_atom_site_fract_x
_atom_site_fract_y
_atom_site_fract_z
Si Si1 0.535285 0.666901 0.837260
Si Si2 0.103944 0.705318 0.309824
Si Si3 0.832326 0.096519 0.549013
Si Si4 0.667932 0.754606 0.163202
Si Si5 0.571662 0.932061 0.004659
O O1 0.500000 0.500000 0.858746
O O2 0.473992 0.754869 0.758724
O O3 0.611096 0.699810 0.773509
O O4 0.542320 0.762098 0.968648
O O5 0.128682 0.828284 0.422647
O O6 0.151394 0.691331 0.182117
O O7 0.091276 0.541592 0.384036
O O8 0.750000 0.107523 0.517290
O O9 0.845147 0.914305 0.592901
O O10 0.750000 0.756200 0.203812
O O11 0.646836 0.898354 0.069569
O O12 0.500000 0.000000 0.071157
#
# Coordination Sequence:
#
# PCOD9380704 Si02
#       5
#     8   8   8   8   8
#     4  11  24  44  72 107 142 196 252 310 370 449
#     4  11  25  46  76 108 150 198 250 313 367 451
#     4  11  25  47  73 110 153 199 249 311 383 451
#     4  11  25  44  71 105 152 197 245 311 385 452
#     4  10  23  45  69 106 143 192 252 308 377 445
#
# _framework density 24.063873999999998
#
# number of rings (size 3 to 8) (size 9 to 14) (size 15 to 20)
#    0.000    1.200    2.000    2.400    8.400    2.400 
#    0.000    1.000    0.000    1.200    0.000    0.000 
#    0.000    0.000    0.000    0.000    0.000    0.000 
#
# Total GULP energy -111431.368216 kJ/mol
# GULP energy per Si atom -5571.568411 kJ/mol
# Density = 2.400910 g / cm^3
# Si number density = 24.063874 Si / 1000 Ang^3
#
#
#
# Elastic Constant Matrix: (Units=GPa)
#
#
# Indices 1 2 3 4 5 6 
#
# 1 174.6688 83.2171 59.5855 0.0000 0.0000 0.0000
# 2 83.2171 116.3701 55.9511 0.0000 0.0000 0.0000
# 3 59.5855 55.9511 108.4029 0.0000 0.0000 0.0000
# 4 0.0000 0.0000 0.0000 26.6925 0.0000 0.0000
# 5 0.0000 0.0000 0.0000 0.0000 42.0799 0.0000
# 6 0.0000 0.0000 0.0000 0.0000 0.0000 38.7342
#
#
#
# Elastic Compliance Matrix: (Units=1/GPa)
#
#
# Indices 1 2 3 4 5 6 
#
# 1 0.009053 -0.005429 -0.002174 0.000000 0.000000 0.000000
# 2 -0.005429 0.014685 -0.004596 0.000000 0.000000 0.000000
# 3 -0.002174 -0.004596 0.012792 0.000000 0.000000 0.000000
# 4 0.000000 0.000000 0.000000 0.037464 0.000000 0.000000
# 5 0.000000 0.000000 0.000000 0.000000 0.023764 0.000000
# 6 0.000000 0.000000 0.000000 0.000000 0.000000 0.025817
#
#
# Mechanical properties :
#
#
# Convention : Reuss Voigt Hill
#
# Bulk Modulus (GPa) = 82.41920 88.54991 85.48456
# Shear Modulus (GPa) = 32.89125 34.88054 33.88589
#
# Velocity S-wave (km/s) = 3.70108 3.81136 3.75662
# Velocity P-wave (km/s) = 7.25179 7.49976 7.37682
#
# Compressibility (1/GPa) = 0.01213309
#
# Stress axis : x y z
#
# Youngs Moduli (GPa) = 110.45833 68.09749 78.17428
#
# Poissons Ratio (x) = 0.36967 0.16998
# Poissons Ratio (y) = 0.59963 0.35925
# Poissons Ratio (z) = 0.24017 0.31294
#
# Static dielectric constant tensor:
#      x y z
#    x 1.920200 0.000000 0.000000 
#    y 0.000000 2.050210 0.000000 
#    z 0.000000 0.000000 2.072600 
# 
# From -- ./inp_files/11603.got.cif
#   From: 2010.05.17/outbox.cif.g08.bks.cpg/sg46_6_cif.got.tgz:11603.got - 2010.06.03 19:58:25.
