data_PCOD9380524
_publ_section_title
;
Structure prediction by ZEFSAII (Michael W. Deem and Ramdas Pophale) SiO2 
 PCOD9380524
Probable space group: I M A 2
;
_chemical_formula_sum "Si O2"
_cell_formula_units_Z 44
_cell_length_a 14.426346
_cell_length_b 13.281875
_cell_length_c 9.292092
_cell_angle_alpha 90.000000
_cell_angle_beta 90.000000
_cell_angle_gamma 90.000000
_cell_volume 1780.447752
_symmetry_space_group_name_H-M "I M A 2"
_symmetry_group_IT_number 46
_symmetry_cell_setting 'orthorhombic'
loop_
_space_group_symop_operation_xyz
x,y,z
-x,-y,z
1/2-x,y,z
1/2+x,-y,z
1/2+x,1/2+y,1/2+z
1/2-x,1/2-y,1/2+z
-x,1/2+y,1/2+z
x,1/2-y,1/2+z
loop_
_atom_site_type_symbol
_atom_site_label
_atom_site_fract_x
_atom_site_fract_y
_atom_site_fract_z
Si Si1 0.603371 0.526378 0.719250
Si Si2 0.951351 0.768911 0.053923
Si Si3 0.352324 0.173805 0.785851
Si Si4 0.393744 0.962663 0.730383
Si Si5 0.750000 0.010328 0.471897
Si Si6 0.355798 0.660370 0.507321
O O1 0.500000 0.500000 0.768843
O O2 0.590332 0.630321 0.629837
O O3 0.670653 0.525486 0.853849
O O4 0.635538 0.437677 0.609920
O O5 0.892983 0.681747 0.127097
O O6 0.922917 0.771958 0.889197
O O7 0.061931 0.767099 0.063287
O O8 0.250000 0.216942 0.795969
O O9 0.350376 0.056774 0.818914
O O10 0.331704 0.954409 0.588701
O O11 0.500000 0.000000 0.709195
O O12 0.383606 0.871933 0.844623
O O13 0.250000 0.698406 0.510362
#
# Coordination Sequence:
#
# PCOD9380524 Si02
#       6
#     8   8   8   8   4   8
#     4  10  22  41  64  96 136 178 230 285 349 415
#     4  11  26  42  67  99 142 185 229 289 351 434
#     4  12  25  42  66  99 138 185 225 281 357 425
#     4  12  23  42  69 103 135 176 238 292 345 413
#     4  12  24  34  64 104 132 166 218 302 344 396
#     4  11  20  45  75  94 126 191 244 284 343 425
#
# _framework density 24.712886000000001
#
# number of rings (size 3 to 8) (size 9 to 14) (size 15 to 20)
#    0.000    0.727    6.364    1.636    5.091    0.000 
#    0.000    0.909    2.000    0.000    0.000    0.000 
#    0.000    0.000    0.000    0.000    0.000    0.000 
#
# Total GULP energy -122538.410256 kJ/mol
# GULP energy per Si atom -5569.927739 kJ/mol
# Density = 2.465664 g / cm^3
# Si number density = 24.712886 Si / 1000 Ang^3
#
#
#
# Elastic Constant Matrix: (Units=GPa)
#
#
# Indices 1 2 3 4 5 6 
#
# 1 235.5968 7.4233 45.2077 0.0000 0.0000 0.0000
# 2 7.4233 16.1891 -6.7420 0.0000 0.0000 0.0000
# 3 45.2077 -6.7420 103.0632 0.0000 0.0000 0.0000
# 4 0.0000 0.0000 0.0000 18.5400 0.0000 0.0000
# 5 0.0000 0.0000 0.0000 0.0000 48.4558 0.0000
# 6 0.0000 0.0000 0.0000 0.0000 0.0000 17.1785
#
#
#
# Elastic Compliance Matrix: (Units=1/GPa)
#
#
# Indices 1 2 3 4 5 6 
#
# 1 0.004786 -0.003155 -0.002306 0.000000 0.000000 0.000000
# 2 -0.003155 0.065579 0.005674 0.000000 0.000000 0.000000
# 3 -0.002306 0.005674 0.011085 0.000000 0.000000 0.000000
# 4 0.000000 0.000000 0.000000 0.053937 0.000000 0.000000
# 5 0.000000 0.000000 0.000000 0.000000 0.020637 0.000000
# 6 0.000000 0.000000 0.000000 0.000000 0.000000 0.058212
#
#
# Mechanical properties :
#
#
# Convention : Reuss Voigt Hill
#
# Bulk Modulus (GPa) = 12.21343 49.62525 30.91934
# Shear Modulus (GPa) = 20.73786 37.43219 29.08503
#
# Velocity S-wave (km/s) = 2.89995 3.89612 3.43434
# Velocity P-wave (km/s) = 4.02068 6.35326 5.31647
#
# Compressibility (1/GPa) = 0.08187710
#
# Stress axis : x y z
#
# Youngs Moduli (GPa) = 208.92426 15.24868 90.20864
#
# Poissons Ratio (x) = 0.04811 0.20801
# Poissons Ratio (y) = 0.65917 -0.51183
# Poissons Ratio (z) = 0.48176 -0.08652
#
# Static dielectric constant tensor:
#      x y z
#    x 1.967210 0.000000 0.000000 
#    y 0.000000 2.084430 0.000000 
#    z 0.000000 0.000000 1.899660 
# 
# From -- ./inp_files/5642.got.cif
#   From: 2010.05.17/outbox.cif.g08.bks.cpg/sg46_3_cif.got.tgz:5642.got - 2010.06.03 19:58:25.
