data_PCOD9380820
_publ_section_title
;
Structure prediction by ZEFSAII (Michael W. Deem and Ramdas Pophale) SiO2 
 PCOD9380820
Probable space group: I M A 2
;
_chemical_formula_sum "Si O2"
_cell_formula_units_Z 40
_cell_length_a 14.267085
_cell_length_b 16.138449
_cell_length_c 7.800733
_cell_angle_alpha 90.000000
_cell_angle_beta 90.000000
_cell_angle_gamma 90.000000
_cell_volume 1796.108037
_symmetry_space_group_name_H-M "I M A 2"
_symmetry_group_IT_number 46
_symmetry_cell_setting 'orthorhombic'
loop_
_space_group_symop_operation_xyz
x,y,z
-x,-y,z
1/2-x,y,z
1/2+x,-y,z
1/2+x,1/2+y,1/2+z
1/2-x,1/2-y,1/2+z
-x,1/2+y,1/2+z
x,1/2-y,1/2+z
loop_
_atom_site_type_symbol
_atom_site_label
_atom_site_fract_x
_atom_site_fract_y
_atom_site_fract_z
Si Si1 0.609009 0.019506 0.470900
Si Si2 0.552697 0.179162 0.318255
Si Si3 0.646987 0.891581 0.189375
Si Si4 0.646784 0.170274 0.958523
Si Si5 0.888407 0.512632 0.344595
O O1 0.602007 0.119281 0.460708
O O2 0.500000 0.000000 0.457163
O O3 0.650357 0.975357 0.304331
O O4 0.642219 0.977233 0.646865
O O5 0.445369 0.156119 0.263470
O O6 0.616721 0.165128 0.154039
O O7 0.567074 0.273607 0.371698
O O8 0.750000 0.850467 0.207129
O O9 0.634331 0.920424 0.991372
O O10 0.750000 0.208163 0.935021
O O11 0.649436 0.077138 0.893624
O O12 0.000000 0.500000 0.344621
#
# Coordination Sequence:
#
# PCOD9380820 Si02
#       5
#     8   8   8   8   8
#     4   9  20  37  64  95 132 175 223 280 339 404
#     4  11  23  43  61  99 144 181 226 290 354 416
#     4  11  22  41  67  95 134 184 231 282 340 415
#     4  12  24  39  65  96 134 178 224 284 351 410
#     4  11  20  40  69 100 132 175 228 284 343 410
#
# _framework density 22.270375999999999
#
# number of rings (size 3 to 8) (size 9 to 14) (size 15 to 20)
#    0.000    1.200    4.000    3.000    0.000    2.400 
#    0.000    1.000    0.000    0.000    0.000    0.000 
#    0.000    0.000    0.000    0.000    0.000    0.000 
#
# Total GULP energy -111500.652436 kJ/mol
# GULP energy per Si atom -5575.032622 kJ/mol
# Density = 2.221969 g / cm^3
# Si number density = 22.270376 Si / 1000 Ang^3
#
#
#
# Elastic Constant Matrix: (Units=GPa)
#
#
# Indices 1 2 3 4 5 6 
#
# 1 151.6872 38.3232 28.7326 0.0000 0.0000 0.0000
# 2 38.3232 43.0090 -10.4921 0.0000 0.0000 0.0000
# 3 28.7326 -10.4921 95.9098 0.0000 0.0000 0.0000
# 4 0.0000 0.0000 0.0000 24.1485 0.0000 0.0000
# 5 0.0000 0.0000 0.0000 0.0000 39.9951 0.0000
# 6 0.0000 0.0000 0.0000 0.0000 0.0000 21.2236
#
#
#
# Elastic Compliance Matrix: (Units=1/GPa)
#
#
# Indices 1 2 3 4 5 6 
#
# 1 0.009804 -0.009711 -0.003999 0.000000 0.000000 0.000000
# 2 -0.009711 0.033508 0.006575 0.000000 0.000000 0.000000
# 3 -0.003999 0.006575 0.012344 0.000000 0.000000 0.000000
# 4 0.000000 0.000000 0.000000 0.041411 0.000000 0.000000
# 5 0.000000 0.000000 0.000000 0.000000 0.025003 0.000000
# 6 0.000000 0.000000 0.000000 0.000000 0.000000 0.047117
#
#
# Mechanical properties :
#
#
# Convention : Reuss Voigt Hill
#
# Bulk Modulus (GPa) = 24.16376 44.85925 34.51151
# Shear Modulus (GPa) = 25.34831 32.67627 29.01229
#
# Velocity S-wave (km/s) = 3.37739 3.83463 3.61325
# Velocity P-wave (km/s) = 5.10713 6.30814 5.73914
#
# Compressibility (1/GPa) = 0.04138429
#
# Stress axis : x y z
#
# Youngs Moduli (GPa) = 102.00427 29.84372 81.01218
#
# Poissons Ratio (x) = 0.28981 0.32399
# Poissons Ratio (y) = 0.99057 -0.53264
# Poissons Ratio (z) = 0.40794 -0.19622
#
# Static dielectric constant tensor:
#      x y z
#    x 1.902790 0.000000 0.000000 
#    y 0.000000 1.918110 0.000000 
#    z 0.000000 0.000000 1.881900 
# 
# From -- ./inp_files/5427.got.cif
#   From: 2010.05.17/outbox.cif.g08.bks.cpg/sg46_3_cif.got.tgz:5427.got - 2010.06.03 19:58:25.
