data_PCOD9380738
_publ_section_title
;
Structure prediction by ZEFSAII (Michael W. Deem and Ramdas Pophale) SiO2 
 PCOD9380738
Probable space group: I M A 2
;
_chemical_formula_sum "Si O2"
_cell_formula_units_Z 36
_cell_length_a 13.718571
_cell_length_b 6.987289
_cell_length_c 17.060646
_cell_angle_alpha 90.000000
_cell_angle_beta 90.000000
_cell_angle_gamma 90.000000
_cell_volume 1635.358804
_symmetry_space_group_name_H-M "I M A 2"
_symmetry_group_IT_number 46
_symmetry_cell_setting 'orthorhombic'
loop_
_space_group_symop_operation_xyz
x,y,z
-x,-y,z
1/2-x,y,z
1/2+x,-y,z
1/2+x,1/2+y,1/2+z
1/2-x,1/2-y,1/2+z
-x,1/2+y,1/2+z
x,1/2-y,1/2+z
loop_
_atom_site_type_symbol
_atom_site_label
_atom_site_fract_x
_atom_site_fract_y
_atom_site_fract_z
Si Si1 0.137727 0.327002 0.678750
Si Si2 0.500000 0.500000 0.117399
Si Si3 0.860239 0.942893 0.360162
Si Si4 0.467560 0.813267 0.897891
Si Si5 0.133999 0.669962 0.555977
O O1 0.250000 0.270375 0.661896
O O2 0.131653 0.381181 0.769836
O O3 0.116643 0.511045 0.623394
O O4 0.064178 0.155706 0.662768
O O5 0.577833 0.368562 0.071503
O O6 0.750000 0.919211 0.387782
O O7 0.935918 0.815852 0.409659
O O8 0.892507 0.163450 0.361414
O O9 0.500000 0.000000 0.850053
O O10 0.412481 0.894645 0.973985
O O11 0.250000 0.697935 0.550039
#
# Coordination Sequence:
#
# PCOD9380738 Si02
#       5
#     8   4   8   8   8
#     4  10  24  44  67 101 140 177 223 282 344 410
#     4  12  22  38  74 102 128 174 226 274 334 400
#     4  10  24  44  66  97 138 178 225 286 343 404
#     4  11  24  41  68  97 131 179 226 276 339 404
#     4  11  25  44  66 100 141 179 222 277 339 412
#
# _framework density 22.013518999999999
#
# number of rings (size 3 to 8) (size 9 to 14) (size 15 to 20)
#    0.000    1.333    0.000    4.667    7.778    1.778 
#    0.000    7.778    0.000    0.000    0.000    0.000 
#    0.000    0.000    0.000    0.000    0.000    0.000 
#
# Total GULP energy -100611.399409 kJ/mol
# GULP energy per Si atom -5589.522189 kJ/mol
# Density = 2.196342 g / cm^3
# Si number density = 22.013519 Si / 1000 Ang^3
#
#
#
# Elastic Constant Matrix: (Units=GPa)
#
#
# Indices 1 2 3 4 5 6 
#
# 1 174.4219 55.7933 41.6226 0.0000 0.0000 0.0000
# 2 55.7933 125.8673 23.4760 0.0000 0.0000 0.0000
# 3 41.6226 23.4760 41.9416 0.0000 0.0000 0.0000
# 4 0.0000 0.0000 0.0000 18.5754 0.0000 0.0000
# 5 0.0000 0.0000 0.0000 0.0000 -50.9218 0.0000
# 6 0.0000 0.0000 0.0000 0.0000 0.0000 39.9497
#
#
#
# Elastic Compliance Matrix: (Units=1/GPa)
#
#
# Indices 1 2 3 4 5 6 
#
# 1 0.008081 -0.002329 -0.006716 0.000000 0.000000 0.000000
# 2 -0.002329 0.009543 -0.003029 0.000000 0.000000 0.000000
# 3 -0.006716 -0.003029 0.032203 0.000000 0.000000 0.000000
# 4 0.000000 0.000000 0.000000 0.053835 0.000000 0.000000
# 5 0.000000 0.000000 0.000000 0.000000 -0.019638 0.000000
# 6 0.000000 0.000000 0.000000 0.000000 0.000000 0.025031
#
#
# Mechanical properties :
#
#
# Convention : Reuss Voigt Hill
#
# Bulk Modulus (GPa) = 38.94496 64.89049 51.91773
# Shear Modulus (GPa) = 35.27020 16.27658 25.77339
#
# Velocity S-wave (km/s) = 4.00710 2.72212 3.42541
# Velocity P-wave (km/s) = 6.25611 6.27865 6.26739
#
# Compressibility (1/GPa) = 0.02567726
#
# Stress axis : x y z
#
# Youngs Moduli (GPa) = 123.74823 104.79428 31.05311
#
# Poissons Ratio (x) = 0.24412 0.20854
# Poissons Ratio (y) = 0.28827 0.09407
# Poissons Ratio (z) = 0.83104 0.31747
#
# Static dielectric constant tensor:
#      x y z
#    x 1.806080 0.000000 0.000000 
#    y 0.000000 1.800280 0.000000 
#    z 0.000000 0.000000 1.819430 
# 
# From -- ./inp_files/21836.got.cif
#   From: 2010.05.17/outbox.cif.g08.bks.cpg/sg46_11_cif.got.tgz:21836.got - 2010.06.03 19:58:25.
