data_PCOD9380768
_publ_section_title
;
Structure prediction by ZEFSAII (Michael W. Deem and Ramdas Pophale) SiO2 
 PCOD9380768
Probable space group: I M A 2
;
_chemical_formula_sum "Si O2"
_cell_formula_units_Z 36
_cell_length_a 18.401433
_cell_length_b 8.559967
_cell_length_c 9.702587
_cell_angle_alpha 90.000000
_cell_angle_beta 90.000000
_cell_angle_gamma 90.000000
_cell_volume 1528.309388
_symmetry_space_group_name_H-M "I M A 2"
_symmetry_group_IT_number 46
_symmetry_cell_setting 'orthorhombic'
loop_
_space_group_symop_operation_xyz
x,y,z
-x,-y,z
1/2-x,y,z
1/2+x,-y,z
1/2+x,1/2+y,1/2+z
1/2-x,1/2-y,1/2+z
-x,1/2+y,1/2+z
x,1/2-y,1/2+z
loop_
_atom_site_type_symbol
_atom_site_label
_atom_site_fract_x
_atom_site_fract_y
_atom_site_fract_z
Si Si1 0.517137 0.816121 0.338590
Si Si2 0.750000 0.647916 0.271961
Si Si3 0.099665 0.375180 0.111476
Si Si4 0.750000 0.420609 0.528009
Si Si5 0.626477 0.318246 0.980158
Si Si6 0.250000 0.016864 0.328964
O O1 0.547600 0.716162 0.214744
O O2 0.577085 0.812494 0.460587
O O3 0.441009 0.752201 0.396052
O O4 0.500000 0.000000 0.305996
O O5 0.820413 0.644714 0.174679
O O6 0.750000 0.504873 0.380432
O O7 0.750000 0.802375 0.366480
O O8 0.093123 0.562054 0.091356
O O9 0.821449 0.313230 0.539228
O O10 0.750000 0.523958 0.663789
O O11 0.680368 0.424113 0.886120
#
# Coordination Sequence:
#
# PCOD9380768 Si02
#       6
#     8   4   8   4   8   4
#     4  10  24  47  74 110 155 200 253 312 377 449
#     4  12  26  45  74 110 145 199 255 307 384 458
#     4  11  25  45  77 109 151 201 252 321 372 452
#     4  11  28  43  79 109 147 202 246 313 397 444
#     4  10  25  48  72 112 148 196 256 315 375 462
#     4  11  26  46  75 103 152 195 253 326 361 468
#
# _framework density 23.555439
#
# number of rings (size 3 to 8) (size 9 to 14) (size 15 to 20)
#    0.000    1.333    0.000    4.000   15.556    3.556 
#    0.000    3.333    0.000    0.000    0.000    0.000 
#    0.000    0.000    0.000    0.000    0.000    0.000 
#
# Total GULP energy -100763.688582 kJ/mol
# GULP energy per Si atom -5597.982699 kJ/mol
# Density = 2.350183 g / cm^3
# Si number density = 23.555439 Si / 1000 Ang^3
#
#
#
# Elastic Constant Matrix: (Units=GPa)
#
#
# Indices 1 2 3 4 5 6 
#
# 1 126.8592 29.4313 62.8207 0.0000 0.0000 0.0000
# 2 29.4313 77.0102 67.2511 0.0000 0.0000 0.0000
# 3 62.8207 67.2511 134.5466 0.0000 0.0000 0.0000
# 4 0.0000 0.0000 0.0000 34.7259 0.0000 0.0000
# 5 0.0000 0.0000 0.0000 0.0000 22.7087 0.0000
# 6 0.0000 0.0000 0.0000 0.0000 0.0000 30.1016
#
#
#
# Elastic Compliance Matrix: (Units=1/GPa)
#
#
# Indices 1 2 3 4 5 6 
#
# 1 0.010263 0.000466 -0.005025 0.000000 0.000000 0.000000
# 2 0.000466 0.023065 -0.011746 0.000000 0.000000 0.000000
# 3 -0.005025 -0.011746 0.015649 0.000000 0.000000 0.000000
# 4 0.000000 0.000000 0.000000 0.028797 0.000000 0.000000
# 5 0.000000 0.000000 0.000000 0.000000 0.044036 0.000000
# 6 0.000000 0.000000 0.000000 0.000000 0.000000 0.033221
#
#
# Mechanical properties :
#
#
# Convention : Reuss Voigt Hill
#
# Bulk Modulus (GPa) = 61.09755 73.04690 67.07222
# Shear Modulus (GPa) = 25.89377 29.43477 27.66427
#
# Velocity S-wave (km/s) = 3.31912 3.53880 3.43072
# Velocity P-wave (km/s) = 6.37831 6.91197 6.65050
#
# Compressibility (1/GPa) = 0.01636727
#
# Stress axis : x y z
#
# Youngs Moduli (GPa) = 97.43847 43.35598 63.90004
#
# Poissons Ratio (x) = -0.02019 0.32107
# Poissons Ratio (y) = -0.04537 0.75057
# Poissons Ratio (z) = 0.48958 0.50926
#
# Static dielectric constant tensor:
#      x y z
#    x 1.900850 0.000000 0.000000 
#    y 0.000000 1.884920 0.000000 
#    z 0.000000 0.000000 1.892770 
# 
# From -- ./inp_files/7183.got.cif
#   From: 2010.05.17/outbox.cif.g08.bks.cpg/sg46_4_cif.got.tgz:7183.got - 2010.06.03 19:58:25.
