data_PCOD9380154
_publ_section_title
;
Structure prediction by ZEFSAII (Michael W. Deem and Ramdas Pophale) SiO2 
 PCOD9380154
Probable space group: I M A 2
;
_chemical_formula_sum "Si O2"
_cell_formula_units_Z 40
_cell_length_a 14.777809
_cell_length_b 4.978533
_cell_length_c 25.136280
_cell_angle_alpha 90.000000
_cell_angle_beta 90.000000
_cell_angle_gamma 90.000000
_cell_volume 1849.321611
_symmetry_space_group_name_H-M "I M A 2"
_symmetry_group_IT_number 46
_symmetry_cell_setting 'orthorhombic'
loop_
_space_group_symop_operation_xyz
x,y,z
-x,-y,z
1/2-x,y,z
1/2+x,-y,z
1/2+x,1/2+y,1/2+z
1/2-x,1/2-y,1/2+z
-x,1/2+y,1/2+z
x,1/2-y,1/2+z
loop_
_atom_site_type_symbol
_atom_site_label
_atom_site_fract_x
_atom_site_fract_y
_atom_site_fract_z
Si Si1 0.250000 0.677310 0.177470
Si Si2 0.250000 0.326908 0.746094
Si Si3 0.063295 0.256335 0.432119
Si Si4 0.565643 0.740815 0.310725
Si Si5 0.403639 0.903175 0.101575
Si Si6 0.648681 0.926853 0.537445
O O1 0.250000 0.367490 0.194362
O O2 0.338176 0.766185 0.144309
O O3 0.250000 0.862033 0.229726
O O4 0.157128 0.269254 0.777344
O O5 0.095496 0.315134 0.372193
O O6 0.132630 0.179756 0.478057
O O7 0.000000 0.500000 0.450116
O O8 0.000000 0.000000 0.426637
O O9 0.500000 0.500000 0.293055
O O10 0.500000 0.000000 0.308434
O O11 0.414429 0.673316 0.056167
O O12 0.500000 0.000000 0.123596
O O13 0.361995 0.169943 0.075472
O O14 0.750000 0.036794 0.541975
#
# Coordination Sequence:
#
# PCOD9380154 Si02
#       6
#     4   4   8   8   8   8
#     4  12  26  46  64 100 126 166 230 278 324 388
#     4  12  26  44  74  92 134 170 220 288 334 384
#     4  10  21  38  62  95 133 171 213 255 311 393
#     4  10  23  44  68 100 135 171 219 269 329 398
#     4  12  25  44  66  92 132 175 212 266 328 381
#     4  12  22  39  65  98 136 170 214 260 314 392
#
# _framework density 21.629550999999999
#
# number of rings (size 3 to 8) (size 9 to 14) (size 15 to 20)
#    0.000    0.800    2.000    6.000    1.400    2.400 
#    0.000    0.000    0.000    0.000    0.000    0.000 
#    0.000    0.000    0.000    0.000    0.000    0.000 
#
# Total GULP energy -111842.067210 kJ/mol
# GULP energy per Si atom -5592.103360 kJ/mol
# Density = 2.158032 g / cm^3
# Si number density = 21.629551 Si / 1000 Ang^3
#
#
#
# Elastic Constant Matrix: (Units=GPa)
#
#
# Indices 1 2 3 4 5 6 
#
# 1 117.2320 9.9930 40.1069 0.0000 0.0000 0.0000
# 2 9.9930 104.1654 -2.6880 0.0000 0.0000 0.0000
# 3 40.1069 -2.6880 64.3145 0.0000 0.0000 0.0000
# 4 0.0000 0.0000 0.0000 32.5434 0.0000 0.0000
# 5 0.0000 0.0000 0.0000 0.0000 32.4654 0.0000
# 6 0.0000 0.0000 0.0000 0.0000 0.0000 19.8801
#
#
#
# Elastic Compliance Matrix: (Units=1/GPa)
#
#
# Indices 1 2 3 4 5 6 
#
# 1 0.011000 -0.001234 -0.006911 0.000000 0.000000 0.000000
# 2 -0.001234 0.009749 0.001177 0.000000 0.000000 0.000000
# 3 -0.006911 0.001177 0.019908 0.000000 0.000000 0.000000
# 4 0.000000 0.000000 0.000000 0.030728 0.000000 0.000000
# 5 0.000000 0.000000 0.000000 0.000000 0.030802 0.000000
# 6 0.000000 0.000000 0.000000 0.000000 0.000000 0.050302
#
#
# Mechanical properties :
#
#
# Convention : Reuss Voigt Hill
#
# Bulk Modulus (GPa) = 37.42480 42.28175 39.85328
# Shear Modulus (GPa) = 28.51762 32.86443 30.69102
#
# Velocity S-wave (km/s) = 3.63499 3.90221 3.77097
# Velocity P-wave (km/s) = 5.91251 6.31613 6.11765
#
# Compressibility (1/GPa) = 0.02672025
#
# Stress axis : x y z
#
# Youngs Moduli (GPa) = 90.91245 102.57645 50.23232
#
# Poissons Ratio (x) = 0.12654 0.34715
# Poissons Ratio (y) = 0.11215 -0.05911
# Poissons Ratio (z) = 0.62829 -0.12070
#
# Static dielectric constant tensor:
#      x y z
#    x 1.770380 0.000000 0.000000 
#    y 0.000000 1.758890 0.000000 
#    z 0.000000 0.000000 1.844800 
# 
# From -- ./inp_files/23553.got.cif
#   From: 2010.05.17/outbox.cif.g08.bks.cpg/sg46_12_cif.got.tgz:23553.got - 2010.06.03 19:58:25.
