data_PCOD9380837
_publ_section_title
;
Structure prediction by ZEFSAII (Michael W. Deem and Ramdas Pophale) SiO2 
 PCOD9380837
Probable space group: I M A 2
;
_chemical_formula_sum "Si O2"
_cell_formula_units_Z 48
_cell_length_a 8.529586
_cell_length_b 9.616191
_cell_length_c 32.239926
_cell_angle_alpha 90.000000
_cell_angle_beta 90.000000
_cell_angle_gamma 90.000000
_cell_volume 2644.387341
_symmetry_space_group_name_H-M "I M A 2"
_symmetry_group_IT_number 46
_symmetry_cell_setting 'orthorhombic'
loop_
_space_group_symop_operation_xyz
x,y,z
-x,-y,z
1/2-x,y,z
1/2+x,-y,z
1/2+x,1/2+y,1/2+z
1/2-x,1/2-y,1/2+z
-x,1/2+y,1/2+z
x,1/2-y,1/2+z
loop_
_atom_site_type_symbol
_atom_site_label
_atom_site_fract_x
_atom_site_fract_y
_atom_site_fract_z
Si Si1 0.060711 0.157073 0.824540
Si Si2 0.560761 0.844033 0.155008
Si Si3 0.938181 0.841458 0.915381
Si Si4 0.560506 0.655386 0.748503
Si Si5 0.063349 0.658500 0.502558
Si Si6 0.938371 0.843187 0.578003
O O1 0.250000 0.153050 0.823633
O O2 0.016974 0.217122 0.870085
O O3 0.004433 0.245828 0.785453
O O4 0.000000 0.000000 0.821544
O O5 0.750000 0.848930 0.154285
O O6 0.511407 0.803080 0.201775
O O7 0.508705 0.736873 0.119802
O O8 0.500000 0.000000 0.146720
O O9 0.750000 0.841387 0.919043
O O10 0.000000 0.000000 0.914157
O O11 0.010029 0.783064 0.957643
O O12 0.500000 0.500000 0.755329
O O13 0.750000 0.654748 0.749255
O O14 0.250000 0.653059 0.504219
O O15 0.000000 0.500000 0.506620
O O16 0.997860 0.753825 0.539092
O O17 0.750000 0.845206 0.577468
O O18 0.000000 0.000000 0.576746
#
# Coordination Sequence:
#
# PCOD9380837 Si02
#       6
#     8   8   8   8   8   8
#     4   9  18  31  50  75 105 136 170 211 255 300
#     4   9  19  35  56  77 101 133 172 212 252 300
#     4   9  16  29  49  74 102 134 171 214 255 298
#     4   9  18  34  52  75 104 135 170 210 252 300
#     4  11  21  35  56  80 104 136 175 217 259 307
#     4  11  23  38  54  77 107 138 170 212 262 313
#
# _framework density 18.151651999999999
#
# number of rings (size 3 to 8) (size 9 to 14) (size 15 to 20)
#    0.000    2.333    0.000    4.000    0.000    4.667 
#    0.000    0.833    0.000    2.000    0.000    0.000 
#    0.000    0.000    0.000    0.000    0.000    0.000 
#
# Total GULP energy -133839.772580 kJ/mol
# GULP energy per Si atom -5576.657191 kJ/mol
# Density = 1.811034 g / cm^3
# Si number density = 18.151652 Si / 1000 Ang^3
#
#
#
# Elastic Constant Matrix: (Units=GPa)
#
#
# Indices 1 2 3 4 5 6 
#
# 1 50.1609 25.1266 43.7813 0.0000 0.0000 0.0000
# 2 25.1266 88.1474 105.3778 0.0000 0.0000 0.0000
# 3 43.7813 105.3778 210.4349 0.0000 0.0000 0.0000
# 4 0.0000 0.0000 0.0000 28.3896 0.0000 0.0000
# 5 0.0000 0.0000 0.0000 0.0000 50.0240 0.0000
# 6 0.0000 0.0000 0.0000 0.0000 0.0000 26.7817
#
#
#
# Elastic Compliance Matrix: (Units=1/GPa)
#
#
# Indices 1 2 3 4 5 6 
#
# 1 0.024533 -0.002221 -0.003992 0.000000 0.000000 0.000000
# 2 -0.002221 0.028467 -0.013793 0.000000 0.000000 0.000000
# 3 -0.003992 -0.013793 0.012490 0.000000 0.000000 0.000000
# 4 0.000000 0.000000 0.000000 0.035224 0.000000 0.000000
# 5 0.000000 0.000000 0.000000 0.000000 0.019990 0.000000
# 6 0.000000 0.000000 0.000000 0.000000 0.000000 0.037339
#
#
# Mechanical properties :
#
#
# Convention : Reuss Voigt Hill
#
# Bulk Modulus (GPa) = 39.25044 77.47940 58.36492
# Shear Modulus (GPa) = 24.20757 32.66956 28.43856
#
# Velocity S-wave (km/s) = 3.65585 4.24702 3.96248
# Velocity P-wave (km/s) = 6.28418 8.17476 7.29101
#
# Compressibility (1/GPa) = 0.02547742
#
# Stress axis : x y z
#
# Youngs Moduli (GPa) = 40.76220 35.12837 80.06619
#
# Poissons Ratio (x) = 0.07801 0.31962
# Poissons Ratio (y) = 0.09053 1.10436
# Poissons Ratio (z) = 0.16272 0.48453
#
# Static dielectric constant tensor:
#      x y z
#    x 1.609830 0.000000 0.000000 
#    y 0.000000 1.576530 0.000000 
#    z 0.000000 0.000000 1.671490 
# 
# From -- ./inp_files/24994.got.cif
#   From: 2010.05.17/outbox.cif.g08.bks.cpg/sg46_13_cif.got.tgz:24994.got - 2010.06.03 19:58:25.
