data_PCOD9380699
_publ_section_title
;
Structure prediction by ZEFSAII (Michael W. Deem and Ramdas Pophale) SiO2 
 PCOD9380699
Probable space group: I M A 2
;
_chemical_formula_sum "Si O2"
_cell_formula_units_Z 36
_cell_length_a 15.702617
_cell_length_b 5.309261
_cell_length_c 19.046872
_cell_angle_alpha 90.000000
_cell_angle_beta 90.000000
_cell_angle_gamma 90.000000
_cell_volume 1587.924234
_symmetry_space_group_name_H-M "I M A 2"
_symmetry_group_IT_number 46
_symmetry_cell_setting 'orthorhombic'
loop_
_space_group_symop_operation_xyz
x,y,z
-x,-y,z
1/2-x,y,z
1/2+x,-y,z
1/2+x,1/2+y,1/2+z
1/2-x,1/2-y,1/2+z
-x,1/2+y,1/2+z
x,1/2-y,1/2+z
loop_
_atom_site_type_symbol
_atom_site_label
_atom_site_fract_x
_atom_site_fract_y
_atom_site_fract_z
Si Si1 0.902658 0.026574 0.309730
Si Si2 0.500000 0.000000 0.620107
Si Si3 0.904319 0.107942 0.041427
Si Si4 0.349864 0.469736 0.386004
Si Si5 0.156853 0.300416 0.671061
O O1 0.886102 0.805795 0.367230
O O2 0.847064 0.963992 0.241714
O O3 0.886604 0.305299 0.338666
O O4 0.000000 0.000000 0.289092
O O5 0.572136 0.114624 0.567783
O O6 0.433923 0.152763 0.669160
O O7 0.850803 0.974333 0.102175
O O8 0.866421 0.055798 0.965791
O O9 0.000000 0.000000 0.041743
O O10 0.250000 0.455838 0.373014
O O11 0.250000 0.167550 0.669651
#
# Coordination Sequence:
#
# PCOD9380699 Si02
#       5
#     8   4   8   8   8
#     4  12  27  48  72 104 145 194 239 296 367 434
#     4  10  24  44  70 104 138 186 246 296 364 432
#     4  10  23  44  69 100 138 186 235 290 357 428
#     4  12  27  46  72 107 145 187 241 301 361 430
#     4  11  25  45  71 104 142 187 242 301 360 434
#
# _framework density 22.671108
#
# number of rings (size 3 to 8) (size 9 to 14) (size 15 to 20)
#    0.000    0.889    0.000    6.667   14.000    1.778 
#    0.000    0.000    0.000    0.000    0.000    0.000 
#    0.000    0.000    0.000    0.000    0.000    0.000 
#
# Total GULP energy -100485.021598 kJ/mol
# GULP energy per Si atom -5582.501200 kJ/mol
# Density = 2.261951 g / cm^3
# Si number density = 22.671108 Si / 1000 Ang^3
#
#
#
# Elastic Constant Matrix: (Units=GPa)
#
#
# Indices 1 2 3 4 5 6 
#
# 1 138.1388 -0.4150 1.6564 0.0000 0.0000 0.0000
# 2 -0.4150 26.1927 -6.8757 0.0000 0.0000 0.0000
# 3 1.6564 -6.8757 81.0471 0.0000 0.0000 0.0000
# 4 0.0000 0.0000 0.0000 374.3980 0.0000 0.0000
# 5 0.0000 0.0000 0.0000 0.0000 53.0597 0.0000
# 6 0.0000 0.0000 0.0000 0.0000 0.0000 27.7708
#
#
#
# Elastic Compliance Matrix: (Units=1/GPa)
#
#
# Indices 1 2 3 4 5 6 
#
# 1 0.007241 0.000078 -0.000141 0.000000 0.000000 0.000000
# 2 0.000078 0.039049 0.003311 0.000000 0.000000 0.000000
# 3 -0.000141 0.003311 0.012622 0.000000 0.000000 0.000000
# 4 0.000000 0.000000 0.000000 0.002671 0.000000 0.000000
# 5 0.000000 0.000000 0.000000 0.000000 0.018847 0.000000
# 6 0.000000 0.000000 0.000000 0.000000 0.000000 0.036009
#
#
# Mechanical properties :
#
#
# Convention : Reuss Voigt Hill
#
# Bulk Modulus (GPa) = 15.28886 26.01223 20.65054
# Shear Modulus (GPa) = 37.95160 107.77988 72.86574
#
# Velocity S-wave (km/s) = 4.09590 6.90245 5.67540
# Velocity P-wave (km/s) = 5.39694 8.66163 7.21633
#
# Compressibility (1/GPa) = 0.06540708
#
# Stress axis : x y z
#
# Youngs Moduli (GPa) = 138.10196 25.60881 79.22487
#
# Poissons Ratio (x) = -0.00199 0.01120
# Poissons Ratio (y) = -0.01072 -0.26233
# Poissons Ratio (z) = 0.01953 -0.08479
#
# Static dielectric constant tensor:
#      x y z
#    x 1.818510 0.000000 0.000000 
#    y 0.000000 -38.218630 0.000000 
#    z 0.000000 0.000000 1.842940 
# 
# From -- ./inp_files/21830.got.cif
#   From: 2010.05.17/outbox.cif.g08.bks.cpg/sg46_11_cif.got.tgz:21830.got - 2010.06.03 19:58:25.
