data_PCOD9380912
_publ_section_title
;
Structure prediction by ZEFSAII (Michael W. Deem and Ramdas Pophale) SiO2 
 PCOD9380912
Probable space group: I M A 2
;
_chemical_formula_sum "Si O2"
_cell_formula_units_Z 48
_cell_length_a 16.893847
_cell_length_b 13.951514
_cell_length_c 9.826789
_cell_angle_alpha 90.000000
_cell_angle_beta 90.000000
_cell_angle_gamma 90.000000
_cell_volume 2316.122507
_symmetry_space_group_name_H-M "I M A 2"
_symmetry_group_IT_number 46
_symmetry_cell_setting 'orthorhombic'
loop_
_space_group_symop_operation_xyz
x,y,z
-x,-y,z
1/2-x,y,z
1/2+x,-y,z
1/2+x,1/2+y,1/2+z
1/2-x,1/2-y,1/2+z
-x,1/2+y,1/2+z
x,1/2-y,1/2+z
loop_
_atom_site_type_symbol
_atom_site_label
_atom_site_fract_x
_atom_site_fract_y
_atom_site_fract_z
Si Si1 0.909461 0.967540 0.090080
Si Si2 0.842739 0.676726 0.787105
Si Si3 0.657959 0.161234 0.172338
Si Si4 0.063628 0.740898 0.418597
Si Si5 0.050223 0.090669 0.507660
Si Si6 0.580037 0.618338 0.313530
O O1 0.892652 0.865903 0.161175
O O2 0.856259 0.047262 0.162264
O O3 0.892544 0.953885 0.930589
O O4 0.000000 0.000000 0.107690
O O5 0.750000 0.665239 0.764549
O O6 0.864811 0.787615 0.807386
O O7 0.874427 0.616439 0.915802
O O8 0.750000 0.183232 0.188225
O O9 0.608108 0.207076 0.295026
O O10 0.623476 0.200878 0.030396
O O11 0.006854 0.817729 0.492392
O O12 0.005826 0.658482 0.360721
O O13 0.073969 0.075324 0.663690
O O14 0.000000 0.000000 0.456672
#
# Coordination Sequence:
#
# PCOD9380912 Si02
#       6
#     8   8   8   8   8   8
#     4  12  23  42  68  96 128 173 227 270 322 402
#     4  11  24  42  64  96 132 168 212 270 336 389
#     4  12  25  41  67  98 134 176 222 280 340 397
#     4  11  22  44  64  94 132 173 225 268 328 403
#     4  11  23  40  66  94 125 173 218 266 321 392
#     4  11  23  40  68  93 124 173 220 268 323 390
#
# _framework density 20.724291999999998
#
# number of rings (size 3 to 8) (size 9 to 14) (size 15 to 20)
#    0.000    0.667    3.333    7.000    0.000    3.333 
#    0.000    0.833    0.000    0.000    0.000    0.000 
#    0.000    0.000    0.000    0.000    0.000    0.000 
#
# Total GULP energy -134340.266313 kJ/mol
# GULP energy per Si atom -5597.511096 kJ/mol
# Density = 2.067712 g / cm^3
# Si number density = 20.724292 Si / 1000 Ang^3
#
#
#
# Elastic Constant Matrix: (Units=GPa)
#
#
# Indices 1 2 3 4 5 6 
#
# 1 89.2326 7.0784 14.4396 0.0000 0.0000 0.0000
# 2 7.0784 53.7644 -2.8974 0.0000 0.0000 0.0000
# 3 14.4396 -2.8974 101.9976 0.0000 0.0000 0.0000
# 4 0.0000 0.0000 0.0000 36.8900 0.0000 0.0000
# 5 0.0000 0.0000 0.0000 0.0000 -9.1372 0.0000
# 6 0.0000 0.0000 0.0000 0.0000 0.0000 23.1475
#
#
#
# Elastic Compliance Matrix: (Units=1/GPa)
#
#
# Indices 1 2 3 4 5 6 
#
# 1 0.011609 -0.001619 -0.001689 0.000000 0.000000 0.000000
# 2 -0.001619 0.018854 0.000765 0.000000 0.000000 0.000000
# 3 -0.001689 0.000765 0.010065 0.000000 0.000000 0.000000
# 4 0.000000 0.000000 0.000000 0.027108 0.000000 0.000000
# 5 0.000000 0.000000 0.000000 0.000000 -0.109442 0.000000
# 6 0.000000 0.000000 0.000000 0.000000 0.000000 0.043201
#
#
# Mechanical properties :
#
#
# Convention : Reuss Voigt Hill
#
# Bulk Modulus (GPa) = 28.21690 31.35954 29.78822
# Shear Modulus (GPa) = 273.29394 25.27167 149.28280
#
# Velocity S-wave (km/s) = 11.49598 3.49581 8.49642
# Velocity P-wave (km/s) = 13.77879 5.60882 10.51936
#
# Compressibility (1/GPa) = 0.03543975
#
# Stress axis : x y z
#
# Youngs Moduli (GPa) = 86.14376 53.03893 99.35374
#
# Poissons Ratio (x) = 0.08589 0.16785
# Poissons Ratio (y) = 0.13950 -0.07599
# Poissons Ratio (z) = 0.14553 -0.04057
#
# Static dielectric constant tensor:
#      x y z
#    x 1.701070 0.000000 0.000000 
#    y 0.000000 1.753400 0.000000 
#    z 0.000000 0.000000 1.740430 
# 
# From -- ./inp_files/6583.got.cif
#   From: 2010.05.17/outbox.cif.g08.bks.cpg/sg46_4_cif.got.tgz:6583.got - 2010.06.03 19:58:25.
