data_PCOD9380506
_publ_section_title
;
Structure prediction by ZEFSAII (Michael W. Deem and Ramdas Pophale) SiO2 
 PCOD9380506
Probable space group: I M A 2
;
_chemical_formula_sum "Si O2"
_cell_formula_units_Z 56
_cell_length_a 15.987711
_cell_length_b 12.917690
_cell_length_c 12.462967
_cell_angle_alpha 90.000000
_cell_angle_beta 90.000000
_cell_angle_gamma 90.000000
_cell_volume 2573.905467
_symmetry_space_group_name_H-M "I M A 2"
_symmetry_group_IT_number 46
_symmetry_cell_setting 'orthorhombic'
loop_
_space_group_symop_operation_xyz
x,y,z
-x,-y,z
1/2-x,y,z
1/2+x,-y,z
1/2+x,1/2+y,1/2+z
1/2-x,1/2-y,1/2+z
-x,1/2+y,1/2+z
x,1/2-y,1/2+z
loop_
_atom_site_type_symbol
_atom_site_label
_atom_site_fract_x
_atom_site_fract_y
_atom_site_fract_z
Si Si1 0.658417 0.995757 0.340560
Si Si2 0.654049 0.077949 0.964632
Si Si3 0.846588 0.750904 0.390495
Si Si4 0.005251 0.725123 0.549241
Si Si5 0.077915 0.555842 0.046577
Si Si6 0.420240 0.451350 0.633138
Si Si7 0.651969 0.550362 0.252017
O O1 0.750000 0.022073 0.298241
O O2 0.655472 0.871985 0.360230
O O3 0.595277 0.010925 0.243024
O O4 0.644265 0.055916 0.450891
O O5 0.750000 0.117233 0.960667
O O6 0.631677 0.026732 0.850491
O O7 0.585321 0.162943 0.999922
O O8 0.651566 0.982380 0.050500
O O9 0.750000 0.730257 0.432747
O O10 0.928185 0.738544 0.465683
O O11 0.858623 0.666940 0.295678
O O12 0.953953 0.664653 0.642551
O O13 0.045837 0.833070 0.583137
O O14 0.104069 0.484737 0.146015
O O15 0.000000 0.500000 0.990135
O O16 0.500000 0.500000 0.574381
O O17 0.750000 0.537827 0.227437
#
# Coordination Sequence:
#
# PCOD9380506 Si02
#       7
#     8   8   8   8   8   8   8
#     4  11  24  42  64  94 137 179 223 283 348 417
#     4  10  22  43  70 100 131 175 234 289 343 409
#     4  10  22  40  67  99 131 174 230 284 342 411
#     4  11  24  42  69 100 136 180 225 289 348 420
#     4  12  26  42  63  98 137 184 223 276 352 416
#     4  10  22  40  67  97 126 172 224 287 343 403
#     4  10  23  43  68  96 132 176 228 285 336 407
#
# _framework density 21.756820000000001
#
# number of rings (size 3 to 8) (size 9 to 14) (size 15 to 20)
#    0.000    1.429    2.857    1.286    4.000    1.714 
#    2.571    0.000    0.000    0.000    0.000    0.000 
#    0.000    0.000    0.000    0.000    0.000    0.000 
#
# Total GULP energy -155934.969702 kJ/mol
# GULP energy per Si atom -5569.106061 kJ/mol
# Density = 2.170730 g / cm^3
# Si number density = 21.756820 Si / 1000 Ang^3
#
#
#
# Elastic Constant Matrix: (Units=GPa)
#
#
# Indices 1 2 3 4 5 6 
#
# 1 92.2562 7.3158 19.0692 0.0000 0.0000 0.0000
# 2 7.3158 51.7815 -4.3397 0.0000 0.0000 0.0000
# 3 19.0692 -4.3397 74.2792 0.0000 0.0000 0.0000
# 4 0.0000 0.0000 0.0000 22.5537 0.0000 0.0000
# 5 0.0000 0.0000 0.0000 0.0000 29.6730 0.0000
# 6 0.0000 0.0000 0.0000 0.0000 0.0000 30.1133
#
#
#
# Elastic Compliance Matrix: (Units=1/GPa)
#
#
# Indices 1 2 3 4 5 6 
#
# 1 0.011630 -0.001903 -0.003097 0.000000 0.000000 0.000000
# 2 -0.001903 0.019718 0.001640 0.000000 0.000000 0.000000
# 3 -0.003097 0.001640 0.014354 0.000000 0.000000 0.000000
# 4 0.000000 0.000000 0.000000 0.044339 0.000000 0.000000
# 5 0.000000 0.000000 0.000000 0.000000 0.033701 0.000000
# 6 0.000000 0.000000 0.000000 0.000000 0.000000 0.033208
#
#
# Mechanical properties :
#
#
# Convention : Reuss Voigt Hill
#
# Bulk Modulus (GPa) = 25.65164 29.15639 27.40401
# Shear Modulus (GPa) = 28.30257 29.55278 28.92768
#
# Velocity S-wave (km/s) = 3.61066 3.68954 3.65031
# Velocity P-wave (km/s) = 5.40354 5.61965 5.51265
#
# Compressibility (1/GPa) = 0.03898387
#
# Stress axis : x y z
#
# Youngs Moduli (GPa) = 85.98157 50.71454 69.66884
#
# Poissons Ratio (x) = 0.09650 0.21576
# Poissons Ratio (y) = 0.16360 -0.11429
# Poissons Ratio (z) = 0.26628 -0.08320
#
# Static dielectric constant tensor:
#      x y z
#    x 1.823930 0.000000 0.000000 
#    y 0.000000 1.894750 0.000000 
#    z 0.000000 0.000000 1.784980 
# 
# From -- ./inp_files/11167.got.cif
#   From: 2010.05.17/outbox.cif.g08.bks.cpg/sg46_6_cif.got.tgz:11167.got - 2010.06.03 19:58:25.
