data_PCOD9380187
_publ_section_title
;
Structure prediction by ZEFSAII (Michael W. Deem and Ramdas Pophale) SiO2 
 PCOD9380187
Probable space group: I M A 2
;
_chemical_formula_sum "Si O2"
_cell_formula_units_Z 48
_cell_length_a 27.617766
_cell_length_b 5.206035
_cell_length_c 16.045174
_cell_angle_alpha 90.000000
_cell_angle_beta 90.000000
_cell_angle_gamma 90.000000
_cell_volume 2306.959978
_symmetry_space_group_name_H-M "I M A 2"
_symmetry_group_IT_number 46
_symmetry_cell_setting 'orthorhombic'
loop_
_space_group_symop_operation_xyz
x,y,z
-x,-y,z
1/2-x,y,z
1/2+x,-y,z
1/2+x,1/2+y,1/2+z
1/2-x,1/2-y,1/2+z
-x,1/2+y,1/2+z
x,1/2-y,1/2+z
loop_
_atom_site_type_symbol
_atom_site_label
_atom_site_fract_x
_atom_site_fract_y
_atom_site_fract_z
Si Si1 0.888087 0.414104 0.285410
Si Si2 0.967824 0.747008 0.725816
Si Si3 0.806222 0.765934 0.232039
Si Si4 0.107513 0.975747 0.137479
Si Si5 0.860296 0.146174 0.961890
Si Si6 0.695157 0.625908 0.920731
O O1 0.923764 0.660649 0.285626
O O2 0.834123 0.506332 0.259294
O O3 0.902606 0.225120 0.211453
O O4 0.889157 0.295259 0.376884
O O5 0.937242 0.671346 0.643681
O O6 0.000000 0.500000 0.751014
O O7 0.000000 0.000000 0.715839
O O8 0.750000 0.734876 0.207878
O O9 0.807635 0.916402 0.320457
O O10 0.841152 0.892845 0.163120
O O11 0.111188 0.852467 0.047603
O O12 0.819446 0.363967 0.965285
O O13 0.838842 0.861397 0.947198
O O14 0.750000 0.700534 0.939552
#
# Coordination Sequence:
#
# PCOD9380187 Si02
#       6
#     8   8   8   8   8   8
#     4  10  22  43  65  94 130 170 215 266 325 378
#     4  11  23  43  73  94 124 167 209 268 334 392
#     4   9  20  37  61  92 129 176 219 260 312 374
#     4  11  23  41  66  96 129 173 214 264 325 382
#     4  11  24  39  63  92 130 170 214 267 315 380
#     4  10  21  39  59  87 129 175 221 266 309 359
#
# _framework density 20.806602000000002
#
# number of rings (size 3 to 8) (size 9 to 14) (size 15 to 20)
#    0.000    1.667    3.333    0.500    4.667    2.667 
#    0.000    1.667    0.000    0.000    0.000    0.000 
#    0.000    0.000    0.000    0.000    0.000    0.000 
#
# Total GULP energy -133851.966206 kJ/mol
# GULP energy per Si atom -5577.165259 kJ/mol
# Density = 2.075925 g / cm^3
# Si number density = 20.806602 Si / 1000 Ang^3
#
#
#
# Elastic Constant Matrix: (Units=GPa)
#
#
# Indices 1 2 3 4 5 6 
#
# 1 85.7245 32.3545 5.0249 0.0000 0.0000 0.0000
# 2 32.3545 86.9147 24.1378 0.0000 0.0000 0.0000
# 3 5.0249 24.1378 98.5750 0.0000 0.0000 0.0000
# 4 0.0000 0.0000 0.0000 18.8181 0.0000 0.0000
# 5 0.0000 0.0000 0.0000 0.0000 5.2942 0.0000
# 6 0.0000 0.0000 0.0000 0.0000 0.0000 34.5272
#
#
#
# Elastic Compliance Matrix: (Units=1/GPa)
#
#
# Indices 1 2 3 4 5 6 
#
# 1 0.013604 -0.005227 0.000586 0.000000 0.000000 0.000000
# 2 -0.005227 0.014353 -0.003248 0.000000 0.000000 0.000000
# 3 0.000586 -0.003248 0.010910 0.000000 0.000000 0.000000
# 4 0.000000 0.000000 0.000000 0.053140 0.000000 0.000000
# 5 0.000000 0.000000 0.000000 0.000000 0.188887 0.000000
# 6 0.000000 0.000000 0.000000 0.000000 0.000000 0.028963
#
#
# Mechanical properties :
#
#
# Convention : Reuss Voigt Hill
#
# Bulk Modulus (GPa) = 43.30933 43.80539 43.55736
# Shear Modulus (GPa) = 15.00013 25.70770 20.35391
#
# Velocity S-wave (km/s) = 2.68793 3.51886 3.13108
# Velocity P-wave (km/s) = 5.52211 6.13263 5.83536
#
# Compressibility (1/GPa) = 0.02308971
#
# Stress axis : x y z
#
# Youngs Moduli (GPa) = 73.50958 69.66998 91.65859
#
# Poissons Ratio (x) = 0.36416 -0.05375
# Poissons Ratio (y) = 0.38423 0.29773
# Poissons Ratio (z) = -0.04311 0.22630
#
# Static dielectric constant tensor:
#      x y z
#    x 1.775020 0.000000 0.000000 
#    y 0.000000 1.820440 0.000000 
#    z 0.000000 0.000000 1.755030 
# 
# From -- ./inp_files/17537.got.cif
#   From: 2010.05.17/outbox.cif.g08.bks.cpg/sg46_9_cif.got.tgz:17537.got - 2010.06.03 19:58:25.
