data_PCOD9380306
_publ_section_title
;
Structure prediction by ZEFSAII (Michael W. Deem and Ramdas Pophale) SiO2 
 PCOD9380306
Probable space group: I M A 2
;
_chemical_formula_sum "Si O2"
_cell_formula_units_Z 60
_cell_length_a 25.648347
_cell_length_b 5.635277
_cell_length_c 20.397975
_cell_angle_alpha 90.000000
_cell_angle_beta 90.000000
_cell_angle_gamma 90.000000
_cell_volume 2948.232330
_symmetry_space_group_name_H-M "I M A 2"
_symmetry_group_IT_number 46
_symmetry_cell_setting 'orthorhombic'
loop_
_space_group_symop_operation_xyz
x,y,z
-x,-y,z
1/2-x,y,z
1/2+x,-y,z
1/2+x,1/2+y,1/2+z
1/2-x,1/2-y,1/2+z
-x,1/2+y,1/2+z
x,1/2-y,1/2+z
loop_
_atom_site_type_symbol
_atom_site_label
_atom_site_fract_x
_atom_site_fract_y
_atom_site_fract_z
Si Si1 0.965108 0.193182 0.343940
Si Si2 0.937941 0.944821 0.522664
Si Si3 0.688698 0.564649 0.369896
Si Si4 0.599574 0.950631 0.667606
Si Si5 0.906623 0.056239 0.953705
Si Si6 0.192600 0.794310 0.730006
Si Si7 0.500000 0.000000 0.736910
Si Si8 0.370799 0.409193 0.781302
O O1 0.943076 0.395877 0.390487
O O2 0.003981 0.285400 0.288145
O O3 0.913852 0.088895 0.308784
O O4 0.000000 0.000000 0.381766
O O5 0.911031 0.891085 0.592972
O O6 0.925061 0.697959 0.483583
O O7 0.914901 0.196750 0.494576
O O8 0.000000 0.000000 0.530357
O O9 0.750000 0.607429 0.385774
O O10 0.653271 0.457684 0.427919
O O11 0.688250 0.411128 0.302505
O O12 0.654273 0.785894 0.344804
O O13 0.604871 0.749169 0.723523
O O14 0.650118 0.106520 0.680488
O O15 0.547181 0.077124 0.691648
O O16 0.250000 0.833654 0.704860
O O17 0.178297 0.525761 0.744716
#
# Coordination Sequence:
#
# PCOD9380306 Si02
#       8
#     8   8   8   8   8   8   4   8
#     4  12  24  37  67 103 142 176 223 293 361 426
#     4  12  29  48  70  96 143 197 239 280 338 414
#     4  10  22  42  68 101 137 175 227 294 361 418
#     4  11  24  43  66  99 135 185 237 286 344 424
#     4  12  27  47  67 102 140 188 239 285 342 421
#     4  10  21  40  69 102 135 172 220 293 364 412
#     4  12  22  38  64 102 136 168 230 292 362 424
#     4  11  20  39  68 104 137 173 226 294 363 425
#
# _framework density 20.351177
#
# number of rings (size 3 to 8) (size 9 to 14) (size 15 to 20)
#    0.000    0.800    4.667    2.800    5.600    0.533 
#    2.400    1.333    0.000    0.000    0.000    0.000 
#    0.000    0.000    0.000    0.000    0.000    0.000 
#
# Total GULP energy -167160.137918 kJ/mol
# GULP energy per Si atom -5572.004597 kJ/mol
# Density = 2.030486 g / cm^3
# Si number density = 20.351177 Si / 1000 Ang^3
#
#
#
# Elastic Constant Matrix: (Units=GPa)
#
#
# Indices 1 2 3 4 5 6 
#
# 1 145.4686 38.0423 60.1466 0.0000 0.0000 0.0000
# 2 38.0423 80.7168 40.6497 0.0000 0.0000 0.0000
# 3 60.1466 40.6497 87.7544 0.0000 0.0000 0.0000
# 4 0.0000 0.0000 0.0000 12.9579 0.0000 0.0000
# 5 0.0000 0.0000 0.0000 0.0000 -95.2449 0.0000
# 6 0.0000 0.0000 0.0000 0.0000 0.0000 18.2046
#
#
#
# Elastic Compliance Matrix: (Units=1/GPa)
#
#
# Indices 1 2 3 4 5 6 
#
# 1 0.009750 -0.001604 -0.005939 0.000000 0.000000 0.000000
# 2 -0.001604 0.016422 -0.006508 0.000000 0.000000 0.000000
# 3 -0.005939 -0.006508 0.018481 0.000000 0.000000 0.000000
# 4 0.000000 0.000000 0.000000 0.077173 0.000000 0.000000
# 5 0.000000 0.000000 0.000000 0.000000 -0.010499 0.000000
# 6 0.000000 0.000000 0.000000 0.000000 0.000000 0.054931
#
#
# Mechanical properties :
#
#
# Convention : Reuss Voigt Hill
#
# Bulk Modulus (GPa) = 60.42122 65.73524 63.07823
# Shear Modulus (GPa) = 25.01545 -1.14308 11.93619
#
# Velocity S-wave (km/s) = 3.50978 -0.75026 2.42443
# Velocity P-wave (km/s) = 6.79548 5.62317 6.23693
#
# Compressibility (1/GPa) = 0.01655048
#
# Stress axis : x y z
#
# Youngs Moduli (GPa) = 102.56933 60.89260 54.11012
#
# Poissons Ratio (x) = 0.09767 0.32138
# Poissons Ratio (y) = 0.16451 0.35214
# Poissons Ratio (z) = 0.60919 0.39628
#
# Static dielectric constant tensor:
#      x y z
#    x 1.983480 0.000000 0.000000 
#    y 0.000000 1.869240 0.000000 
#    z 0.000000 0.000000 1.721040 
# 
# From -- ./inp_files/22574.got.cif
#   From: 2010.05.17/outbox.cif.g08.bks.cpg/sg46_12_cif.got.tgz:22574.got - 2010.06.03 19:58:25.
