data_PCOD9380514
_publ_section_title
;
Structure prediction by ZEFSAII (Michael W. Deem and Ramdas Pophale) SiO2 
 PCOD9380514
Probable space group: I M A 2
;
_chemical_formula_sum "Si O2"
_cell_formula_units_Z 48
_cell_length_a 19.003081
_cell_length_b 8.475874
_cell_length_c 13.880877
_cell_angle_alpha 90.000000
_cell_angle_beta 90.000000
_cell_angle_gamma 90.000000
_cell_volume 2235.761212
_symmetry_space_group_name_H-M "I M A 2"
_symmetry_group_IT_number 46
_symmetry_cell_setting 'orthorhombic'
loop_
_space_group_symop_operation_xyz
x,y,z
-x,-y,z
1/2-x,y,z
1/2+x,-y,z
1/2+x,1/2+y,1/2+z
1/2-x,1/2-y,1/2+z
-x,1/2+y,1/2+z
x,1/2-y,1/2+z
loop_
_atom_site_type_symbol
_atom_site_label
_atom_site_fract_x
_atom_site_fract_y
_atom_site_fract_z
Si Si1 0.110245 0.964593 0.368980
Si Si2 0.750000 0.350307 0.977213
Si Si3 0.104157 0.320519 0.437129
Si Si4 0.000000 0.000000 0.799162
Si Si5 0.750000 0.397761 0.204507
Si Si6 0.901920 0.260599 0.700678
Si Si7 0.250000 0.484857 0.421951
Si Si8 0.482005 0.676785 0.029669
O O1 0.182222 0.905947 0.417399
O O2 0.099115 0.922240 0.258421
O O3 0.050629 0.864549 0.425660
O O4 0.109118 0.149069 0.388197
O O5 0.750000 0.159462 0.969249
O O6 0.750000 0.425591 0.086198
O O7 0.061516 0.432968 0.366237
O O8 0.180141 0.392963 0.454944
O O9 0.051971 0.281117 0.525634
O O10 0.961550 0.142092 0.742433
O O11 0.675883 0.308563 0.215464
O O12 0.750000 0.506375 0.302818
O O13 0.922109 0.264305 0.589422
O O14 0.500000 0.500000 0.066376
#
# Coordination Sequence:
#
# PCOD9380514 Si02
#       8
#     8   4   8   4   4   8   4   8
#     4  11  22  42  71 101 138 185 232 294 357 422
#     4  12  23  43  73 100 139 186 238 297 353 430
#     4  11  25  44  71 102 140 185 235 297 364 438
#     4  12  22  40  70  96 138 184 234 284 360 438
#     4  12  24  39  74 103 136 188 244 288 363 435
#     4  12  22  41  71 100 136 191 235 295 359 434
#     4  12  25  48  73 101 145 196 236 297 382 435
#     4  10  22  40  70 101 136 178 237 291 357 422
#
# _framework density 21.469197999999999
#
# number of rings (size 3 to 8) (size 9 to 14) (size 15 to 20)
#    0.000    0.667    7.500    0.500    0.000    0.000 
#    0.000    5.000    3.667    0.000    0.000    0.000 
#    0.000    0.000    0.000    0.000    0.000    0.000 
#
# Total GULP energy -133913.013571 kJ/mol
# GULP energy per Si atom -5579.708899 kJ/mol
# Density = 2.142033 g / cm^3
# Si number density = 21.469198 Si / 1000 Ang^3
#
#
#
# Elastic Constant Matrix: (Units=GPa)
#
#
# Indices 1 2 3 4 5 6 
#
# 1 137.9382 10.9559 -9.2899 0.0000 0.0000 0.0000
# 2 10.9559 44.2556 -0.3796 0.0000 0.0000 0.0000
# 3 -9.2899 -0.3796 50.0092 0.0000 0.0000 0.0000
# 4 0.0000 0.0000 0.0000 7.7798 0.0000 0.0000
# 5 0.0000 0.0000 0.0000 0.0000 14.2194 0.0000
# 6 0.0000 0.0000 0.0000 0.0000 0.0000 39.9968
#
#
#
# Elastic Compliance Matrix: (Units=1/GPa)
#
#
# Indices 1 2 3 4 5 6 
#
# 1 0.007489 -0.001842 0.001377 0.000000 0.000000 0.000000
# 2 -0.001842 0.023051 -0.000167 0.000000 0.000000 0.000000
# 3 0.001377 -0.000167 0.020251 0.000000 0.000000 0.000000
# 4 0.000000 0.000000 0.000000 0.128538 0.000000 0.000000
# 5 0.000000 0.000000 0.000000 0.000000 0.070326 0.000000
# 6 0.000000 0.000000 0.000000 0.000000 0.000000 0.025002
#
#
# Mechanical properties :
#
#
# Convention : Reuss Voigt Hill
#
# Bulk Modulus (GPa) = 20.19149 26.08622 23.13885
# Shear Modulus (GPa) = 17.09812 27.79364 22.44588
#
# Velocity S-wave (km/s) = 2.82512 3.60193 3.23691
# Velocity P-wave (km/s) = 4.47962 5.42913 4.97707
#
# Compressibility (1/GPa) = 0.04952582
#
# Stress axis : x y z
#
# Youngs Moduli (GPa) = 133.53490 43.38276 49.38062
#
# Poissons Ratio (x) = 0.07991 -0.06800
# Poissons Ratio (y) = 0.24598 0.00826
# Poissons Ratio (z) = -0.18390 0.00725
#
# Static dielectric constant tensor:
#      x y z
#    x 1.780820 0.000000 0.000000 
#    y 0.000000 1.768760 0.000000 
#    z 0.000000 0.000000 1.854580 
# 
# From -- ./inp_files/16608.got.cif
#   From: 2010.05.17/outbox.cif.g08.bks.cpg/sg46_9_cif.got.tgz:16608.got - 2010.06.03 19:58:25.
