data_PCOD9380396
_publ_section_title
;
Structure prediction by ZEFSAII (Michael W. Deem and Ramdas Pophale) SiO2 
 PCOD9380396
Probable space group: I M A 2
;
_chemical_formula_sum "Si O2"
_cell_formula_units_Z 32
_cell_length_a 21.204891
_cell_length_b 5.183119
_cell_length_c 15.633448
_cell_angle_alpha 90.000000
_cell_angle_beta 90.000000
_cell_angle_gamma 90.000000
_cell_volume 1718.232771
_symmetry_space_group_name_H-M "I M A 2"
_symmetry_group_IT_number 46
_symmetry_cell_setting 'orthorhombic'
loop_
_space_group_symop_operation_xyz
x,y,z
-x,-y,z
1/2-x,y,z
1/2+x,-y,z
1/2+x,1/2+y,1/2+z
1/2-x,1/2-y,1/2+z
-x,1/2+y,1/2+z
x,1/2-y,1/2+z
loop_
_atom_site_type_symbol
_atom_site_label
_atom_site_fract_x
_atom_site_fract_y
_atom_site_fract_z
Si Si1 0.128754 0.124464 0.209550
Si Si2 0.433779 0.355045 0.364838
Si Si3 0.320215 0.613043 0.285803
Si Si4 0.542916 0.754821 0.552564
O O1 0.076368 0.166791 0.284330
O O2 0.178480 0.346925 0.232868
O O3 0.097434 0.193378 0.119988
O O4 0.157513 0.844452 0.224633
O O5 0.500000 0.500000 0.356536
O O6 0.432336 0.212785 0.455730
O O7 0.375015 0.555398 0.355581
O O8 0.250000 0.664243 0.319452
O O9 0.500000 0.500000 0.551411
O O10 0.500000 0.000000 0.577278
#
# Coordination Sequence:
#
# PCOD9380396 Si02
#       4
#     8   8   8   8
#     4  10  22  37  64  80 127 157 206 246 317 355
#     4   9  23  37  64  91 124 154 203 257 313 365
#     4  10  22  40  61  85 121 166 209 249 303 371
#     4  11  23  36  61  96 128 153 206 258 317 377
#
# _framework density 18.623785000000002
#
# number of rings (size 3 to 8) (size 9 to 14) (size 15 to 20)
#    1.500    0.500    0.000    3.000   10.500    0.000 
#    0.000    2.500    0.000    0.000    0.000    0.000 
#    0.000    0.000    0.000    0.000    0.000    0.000 
#
# Total GULP energy -89073.597082 kJ/mol
# GULP energy per Si atom -5567.099818 kJ/mol
# Density = 1.858140 g / cm^3
# Si number density = 18.623785 Si / 1000 Ang^3
#
#
#
# Elastic Constant Matrix: (Units=GPa)
#
#
# Indices 1 2 3 4 5 6 
#
# 1 118.3859 10.6515 23.4531 0.0000 0.0000 0.0000
# 2 10.6515 83.6920 -11.2831 0.0000 0.0000 0.0000
# 3 23.4531 -11.2831 59.3628 0.0000 0.0000 0.0000
# 4 0.0000 0.0000 0.0000 35.5378 0.0000 0.0000
# 5 0.0000 0.0000 0.0000 0.0000 -10.2076 0.0000
# 6 0.0000 0.0000 0.0000 0.0000 0.0000 14.4882
#
#
#
# Elastic Compliance Matrix: (Units=1/GPa)
#
#
# Indices 1 2 3 4 5 6 
#
# 1 0.009406 -0.001743 -0.004047 0.000000 0.000000 0.000000
# 2 -0.001743 0.012586 0.003081 0.000000 0.000000 0.000000
# 3 -0.004047 0.003081 0.019030 0.000000 0.000000 0.000000
# 4 0.000000 0.000000 0.000000 0.028139 0.000000 0.000000
# 5 0.000000 0.000000 0.000000 0.000000 -0.097966 0.000000
# 6 0.000000 0.000000 0.000000 0.000000 0.000000 0.069022
#
#
# Mechanical properties :
#
#
# Convention : Reuss Voigt Hill
#
# Bulk Modulus (GPa) = 28.08758 34.12040 31.10399
# Shear Modulus (GPa) = 86.95298 23.87160 55.41229
#
# Velocity S-wave (km/s) = 6.84036 3.58408 5.46060
# Velocity P-wave (km/s) = 8.80351 5.95719 7.51631
#
# Compressibility (1/GPa) = 0.03560292
#
# Stress axis : x y z
#
# Youngs Moduli (GPa) = 106.32053 79.45535 52.54839
#
# Poissons Ratio (x) = 0.13846 0.21267
# Poissons Ratio (y) = 0.18528 -0.16188
# Poissons Ratio (z) = 0.43030 -0.24477
#
# Static dielectric constant tensor:
#      x y z
#    x 1.664820 0.000000 0.000000 
#    y 0.000000 1.639230 0.000000 
#    z 0.000000 0.000000 1.642370 
# 
# From -- ./inp_files/16283.got.cif
#   From: 2010.05.17/outbox.cif.g08.bks.cpg/sg46_9_cif.got.tgz:16283.got - 2010.06.03 19:58:25.
