data_PCOD9380978
_publ_section_title
;
Structure prediction by ZEFSAII (Michael W. Deem and Ramdas Pophale) SiO2 
 PCOD9380978
Probable space group: I M A 2
;
_chemical_formula_sum "Si O2"
_cell_formula_units_Z 48
_cell_length_a 29.594609
_cell_length_b 7.216854
_cell_length_c 9.438208
_cell_angle_alpha 90.000000
_cell_angle_beta 90.000000
_cell_angle_gamma 90.000000
_cell_volume 2015.812204
_symmetry_space_group_name_H-M "I M A 2"
_symmetry_group_IT_number 46
_symmetry_cell_setting 'orthorhombic'
loop_
_space_group_symop_operation_xyz
x,y,z
-x,-y,z
1/2-x,y,z
1/2+x,-y,z
1/2+x,1/2+y,1/2+z
1/2-x,1/2-y,1/2+z
-x,1/2+y,1/2+z
x,1/2-y,1/2+z
loop_
_atom_site_type_symbol
_atom_site_label
_atom_site_fract_x
_atom_site_fract_y
_atom_site_fract_z
Si Si1 0.160014 0.130144 0.412620
Si Si2 0.516371 0.805539 0.319946
Si Si3 0.928075 0.741404 0.565182
Si Si4 0.425751 0.844754 0.684030
Si Si5 0.301297 0.405438 0.603860
Si Si6 0.364905 0.701182 0.454955
O O1 0.118096 0.251311 0.475441
O O2 0.199143 0.224834 0.503908
O O3 0.170506 0.142646 0.246143
O O4 0.151939 0.913831 0.443650
O O5 0.535105 0.687183 0.448665
O O6 0.557451 0.853272 0.211838
O O7 0.473937 0.716527 0.242925
O O8 0.500000 0.000000 0.380558
O O9 0.931426 0.955332 0.614281
O O10 0.406044 0.705530 0.566750
O O11 0.387320 0.853692 0.805812
O O12 0.250000 0.457261 0.642791
O O13 0.325662 0.571168 0.517056
#
# Coordination Sequence:
#
# PCOD9380978 Si02
#       6
#     8   8   8   8   8   8
#     4  11  26  50  74 109 150 192 241 305 375 441
#     4  12  24  40  65 104 142 190 241 302 347 427
#     4  11  26  44  66 102 141 195 247 295 362 433
#     4  11  24  46  68 101 147 188 247 292 361 427
#     4  12  28  48  77 111 142 189 248 307 378 451
#     4  11  25  48  75 106 144 204 236 304 370 442
#
# _framework density 23.811741000000001
#
# number of rings (size 3 to 8) (size 9 to 14) (size 15 to 20)
#    0.000    0.667    1.667    6.000    9.333    2.667 
#    0.000    0.000    0.000    0.000    0.000    0.000 
#    0.000    0.000    0.000    0.000    0.000    0.000 
#
# Total GULP energy -134295.916246 kJ/mol
# GULP energy per Si atom -5595.663177 kJ/mol
# Density = 2.375754 g / cm^3
# Si number density = 23.811741 Si / 1000 Ang^3
#
#
#
# Elastic Constant Matrix: (Units=GPa)
#
#
# Indices 1 2 3 4 5 6 
#
# 1 103.4979 20.8023 31.1997 0.0000 0.0000 0.0000
# 2 20.8023 69.9833 11.0995 0.0000 0.0000 0.0000
# 3 31.1997 11.0995 146.9337 0.0000 0.0000 0.0000
# 4 0.0000 0.0000 0.0000 33.2385 0.0000 0.0000
# 5 0.0000 0.0000 0.0000 0.0000 -12.2377 0.0000
# 6 0.0000 0.0000 0.0000 0.0000 0.0000 29.1436
#
#
#
# Elastic Compliance Matrix: (Units=1/GPa)
#
#
# Indices 1 2 3 4 5 6 
#
# 1 0.010875 -0.002901 -0.002090 0.000000 0.000000 0.000000
# 2 -0.002901 0.015236 -0.000535 0.000000 0.000000 0.000000
# 3 -0.002090 -0.000535 0.007290 0.000000 0.000000 0.000000
# 4 0.000000 0.000000 0.000000 0.030086 0.000000 0.000000
# 5 0.000000 0.000000 0.000000 0.000000 -0.081715 0.000000
# 6 0.000000 0.000000 0.000000 0.000000 0.000000 0.034313
#
#
# Mechanical properties :
#
#
# Convention : Reuss Voigt Hill
#
# Bulk Modulus (GPa) = 44.74428 49.62424 47.18426
# Shear Modulus (GPa) = 144.56235 27.18309 85.87272
#
# Velocity S-wave (km/s) = 7.80015 3.38240 6.01178
# Velocity P-wave (km/s) = 9.99774 6.01163 8.24907
#
# Compressibility (1/GPa) = 0.02234922
#
# Stress axis : x y z
#
# Youngs Moduli (GPa) = 91.95234 65.63263 137.17418
#
# Poissons Ratio (x) = 0.19041 0.28670
# Poissons Ratio (y) = 0.26677 0.07338
# Poissons Ratio (z) = 0.19219 0.03511
#
# Static dielectric constant tensor:
#      x y z
#    x 1.962610 0.000000 0.000000 
#    y 0.000000 1.905200 0.000000 
#    z 0.000000 0.000000 1.877660 
# 
# From -- ./inp_files/8393.got.cif
#   From: 2010.05.17/outbox.cif.g08.bks.cpg/sg46_5_cif.got.tgz:8393.got - 2010.06.03 19:58:25.
