data_PCOD9380749
_publ_section_title
;
Structure prediction by ZEFSAII (Michael W. Deem and Ramdas Pophale) SiO2 
 PCOD9380749
Probable space group: I M A 2
;
_chemical_formula_sum "Si O2"
_cell_formula_units_Z 40
_cell_length_a 17.559232
_cell_length_b 8.855905
_cell_length_c 10.626564
_cell_angle_alpha 90.000000
_cell_angle_beta 90.000000
_cell_angle_gamma 90.000000
_cell_volume 1652.461418
_symmetry_space_group_name_H-M "I M A 2"
_symmetry_group_IT_number 46
_symmetry_cell_setting 'orthorhombic'
loop_
_space_group_symop_operation_xyz
x,y,z
-x,-y,z
1/2-x,y,z
1/2+x,-y,z
1/2+x,1/2+y,1/2+z
1/2-x,1/2-y,1/2+z
-x,1/2+y,1/2+z
x,1/2-y,1/2+z
loop_
_atom_site_type_symbol
_atom_site_label
_atom_site_fract_x
_atom_site_fract_y
_atom_site_fract_z
Si Si1 0.839730 0.083102 0.611300
Si Si2 0.840351 0.073698 0.105430
Si Si3 0.566895 0.659895 0.750716
Si Si4 0.544415 0.639377 0.026984
Si Si5 0.591372 0.527292 0.352458
O O1 0.750000 0.067389 0.616035
O O2 0.858028 0.253038 0.566818
O O3 0.873422 0.086106 0.752271
O O4 0.872742 0.940330 0.532989
O O5 0.750000 0.063939 0.131697
O O6 0.888151 0.992489 0.217175
O O7 0.865106 0.981229 0.982819
O O8 0.520228 0.653014 0.881841
O O9 0.531922 0.718519 0.617967
O O10 0.612435 0.810891 0.789625
O O11 0.500000 0.500000 0.088126
O O12 0.500000 0.500000 0.366949
#
# Coordination Sequence:
#
# PCOD9380749 Si02
#       5
#     8   8   8   8   8
#     4  10  24  45  69 102 143 189 238 296 360 433
#     4  11  26  45  72 104 140 191 243 294 361 429
#     4  11  24  47  67 106 141 186 239 293 359 426
#     4  11  26  46  73 106 144 192 242 297 365 425
#     4  11  25  45  72 104 143 184 240 300 363 427
#
# _framework density 24.206313999999999
#
# number of rings (size 3 to 8) (size 9 to 14) (size 15 to 20)
#    0.000    1.200    2.000    3.000    5.600    8.800 
#    0.000    0.000    0.000    0.000    0.000    0.000 
#    0.000    0.000    0.000    0.000    0.000    0.000 
#
# Total GULP energy -111466.725470 kJ/mol
# GULP energy per Si atom -5573.336273 kJ/mol
# Density = 2.415122 g / cm^3
# Si number density = 24.206314 Si / 1000 Ang^3
#
#
#
# Elastic Constant Matrix: (Units=GPa)
#
#
# Indices 1 2 3 4 5 6 
#
# 1 83.0354 16.9273 7.3182 0.0000 0.0000 0.0000
# 2 16.9273 75.8577 16.9672 0.0000 0.0000 0.0000
# 3 7.3182 16.9672 121.6323 0.0000 0.0000 0.0000
# 4 0.0000 0.0000 0.0000 40.7368 0.0000 0.0000
# 5 0.0000 0.0000 0.0000 0.0000 25.2862 0.0000
# 6 0.0000 0.0000 0.0000 0.0000 0.0000 29.0542
#
#
#
# Elastic Compliance Matrix: (Units=1/GPa)
#
#
# Indices 1 2 3 4 5 6 
#
# 1 0.012634 -0.002734 -0.000379 0.000000 0.000000 0.000000
# 2 -0.002734 0.014199 -0.001816 0.000000 0.000000 0.000000
# 3 -0.000379 -0.001816 0.008498 0.000000 0.000000 0.000000
# 4 0.000000 0.000000 0.000000 0.024548 0.000000 0.000000
# 5 0.000000 0.000000 0.000000 0.000000 0.039547 0.000000
# 6 0.000000 0.000000 0.000000 0.000000 0.000000 0.034418
#
#
# Mechanical properties :
#
#
# Convention : Reuss Voigt Hill
#
# Bulk Modulus (GPa) = 39.25910 40.32785 39.79348
# Shear Modulus (GPa) = 32.85295 34.96962 33.91128
#
# Velocity S-wave (km/s) = 3.68802 3.80498 3.74696
# Velocity P-wave (km/s) = 5.86422 6.00000 5.93250
#
# Compressibility (1/GPa) = 0.02547180
#
# Stress axis : x y z
#
# Youngs Moduli (GPa) = 79.15230 70.42758 117.67982
#
# Poissons Ratio (x) = 0.19258 0.04456
# Poissons Ratio (y) = 0.21644 0.21373
# Poissons Ratio (z) = 0.02997 0.12791
#
# Static dielectric constant tensor:
#      x y z
#    x 2.021980 0.000000 0.000000 
#    y 0.000000 2.123610 0.000000 
#    z 0.000000 0.000000 1.968130 
# 
# From -- ./inp_files/11604.got.cif
#   From: 2010.05.17/outbox.cif.g08.bks.cpg/sg46_6_cif.got.tgz:11604.got - 2010.06.03 19:58:25.
