data_PCOD9380637
_publ_section_title
;
Structure prediction by ZEFSAII (Michael W. Deem and Ramdas Pophale) SiO2 
 PCOD9380637
Probable space group: I M A 2
;
_chemical_formula_sum "Si O2"
_cell_formula_units_Z 56
_cell_length_a 19.813766
_cell_length_b 15.106293
_cell_length_c 9.132304
_cell_angle_alpha 90.000000
_cell_angle_beta 90.000000
_cell_angle_gamma 90.000000
_cell_volume 2733.413240
_symmetry_space_group_name_H-M "I M A 2"
_symmetry_group_IT_number 46
_symmetry_cell_setting 'orthorhombic'
loop_
_space_group_symop_operation_xyz
x,y,z
-x,-y,z
1/2-x,y,z
1/2+x,-y,z
1/2+x,1/2+y,1/2+z
1/2-x,1/2-y,1/2+z
-x,1/2+y,1/2+z
x,1/2-y,1/2+z
loop_
_atom_site_type_symbol
_atom_site_label
_atom_site_fract_x
_atom_site_fract_y
_atom_site_fract_z
Si Si1 0.100338 0.679733 0.343090
Si Si2 0.829686 0.168796 0.532301
Si Si3 0.675596 0.971340 0.400749
Si Si4 0.441325 0.428120 0.671837
Si Si5 0.955042 0.763113 0.347407
Si Si6 0.420926 0.484209 0.369444
Si Si7 0.613126 0.648429 0.124609
O O1 0.142198 0.756317 0.423256
O O2 0.124615 0.677112 0.176070
O O3 0.112483 0.579546 0.399410
O O4 0.020470 0.700814 0.357954
O O5 0.750000 0.183664 0.563644
O O6 0.835203 0.068920 0.469606
O O7 0.750000 0.970577 0.333662
O O8 0.617242 0.954456 0.283888
O O9 0.671168 0.891762 0.520510
O O10 0.500000 0.500000 0.667264
O O11 0.475112 0.340982 0.736207
O O12 0.410156 0.421288 0.509757
O O13 0.891812 0.718003 0.260182
O O14 0.936203 0.807555 0.502608
O O15 0.500000 0.500000 0.360404
O O16 0.404106 0.440210 0.215419
#
# Coordination Sequence:
#
# PCOD9380637 Si02
#       7
#     8   8   8   8   8   8   8
#     4  12  24  39  64  95 131 176 217 274 335 398
#     4  11  25  42  62  92 132 180 227 270 324 401
#     4  10  23  46  69  95 136 181 224 271 336 405
#     4  10  23  40  65 101 133 173 219 281 336 399
#     4  11  23  37  67  96 135 165 221 276 338 398
#     4  11  23  39  63  96 138 168 216 268 339 399
#     4  11  22  42  63 100 131 174 213 277 328 401
#
# _framework density 20.487207000000001
#
# number of rings (size 3 to 8) (size 9 to 14) (size 15 to 20)
#    0.000    1.143    2.857    3.000    8.000    3.429 
#    0.000    4.286    0.000    0.000    0.000    0.000 
#    0.000    0.000    0.000    0.000    0.000    0.000 
#
# Total GULP energy -156035.676297 kJ/mol
# GULP energy per Si atom -5572.702725 kJ/mol
# Density = 2.044058 g / cm^3
# Si number density = 20.487207 Si / 1000 Ang^3
#
#
#
# Elastic Constant Matrix: (Units=GPa)
#
#
# Indices 1 2 3 4 5 6 
#
# 1 69.7805 7.3542 31.1815 0.0000 0.0000 0.0000
# 2 7.3542 85.0937 19.9712 0.0000 0.0000 0.0000
# 3 31.1815 19.9712 104.3006 0.0000 0.0000 0.0000
# 4 0.0000 0.0000 0.0000 39.4364 0.0000 0.0000
# 5 0.0000 0.0000 0.0000 0.0000 -8.1403 0.0000
# 6 0.0000 0.0000 0.0000 0.0000 0.0000 20.3899
#
#
#
# Elastic Compliance Matrix: (Units=1/GPa)
#
#
# Indices 1 2 3 4 5 6 
#
# 1 0.016547 -0.000282 -0.004893 0.000000 0.000000 0.000000
# 2 -0.000282 0.012310 -0.002273 0.000000 0.000000 0.000000
# 3 -0.004893 -0.002273 0.011486 0.000000 0.000000 0.000000
# 4 0.000000 0.000000 0.000000 0.025357 0.000000 0.000000
# 5 0.000000 0.000000 0.000000 0.000000 -0.122845 0.000000
# 6 0.000000 0.000000 0.000000 0.000000 0.000000 0.049044
#
#
# Mechanical properties :
#
#
# Convention : Reuss Voigt Hill
#
# Bulk Modulus (GPa) = 39.29706 41.79873 40.54789
# Shear Modulus (GPa) = 327.33698 23.71506 175.52602
#
# Velocity S-wave (km/s) = 12.65398 3.40598 9.26617
# Velocity P-wave (km/s) = 15.25518 5.99285 11.58954
#
# Compressibility (1/GPa) = 0.02544720
#
# Stress axis : x y z
#
# Youngs Moduli (GPa) = 60.43502 81.23805 87.06545
#
# Poissons Ratio (x) = 0.02289 0.42600
# Poissons Ratio (y) = 0.01702 0.19788
# Poissons Ratio (z) = 0.29570 0.18464
#
# Static dielectric constant tensor:
#      x y z
#    x 1.703340 0.000000 0.000000 
#    y 0.000000 1.817110 0.000000 
#    z 0.000000 0.000000 1.765210 
# 
# From -- ./inp_files/7401.got.cif
#   From: 2010.05.17/outbox.cif.g08.bks.cpg/sg46_4_cif.got.tgz:7401.got - 2010.06.03 19:58:25.
