data_PCOD9380541
_publ_section_title
;
Structure prediction by ZEFSAII (Michael W. Deem and Ramdas Pophale) SiO2 
 PCOD9380541
Probable space group: I M A 2
;
_chemical_formula_sum "Si O2"
_cell_formula_units_Z 40
_cell_length_a 20.421332
_cell_length_b 9.295719
_cell_length_c 8.256222
_cell_angle_alpha 90.000000
_cell_angle_beta 90.000000
_cell_angle_gamma 90.000000
_cell_volume 1567.286580
_symmetry_space_group_name_H-M "I M A 2"
_symmetry_group_IT_number 46
_symmetry_cell_setting 'orthorhombic'
loop_
_space_group_symop_operation_xyz
x,y,z
-x,-y,z
1/2-x,y,z
1/2+x,-y,z
1/2+x,1/2+y,1/2+z
1/2-x,1/2-y,1/2+z
-x,1/2+y,1/2+z
x,1/2-y,1/2+z
loop_
_atom_site_type_symbol
_atom_site_label
_atom_site_fract_x
_atom_site_fract_y
_atom_site_fract_z
Si Si1 0.545398 0.243600 0.757950
Si Si2 0.321640 0.700987 0.424343
Si Si3 0.674866 0.583492 0.568904
Si Si4 0.100845 0.178566 0.748372
Si Si5 0.405673 0.937757 0.479495
O O1 0.611917 0.169190 0.826258
O O2 0.473559 0.193689 0.810030
O O3 0.551414 0.184117 0.576077
O O4 0.560221 0.409160 0.805294
O O5 0.250000 0.679365 0.349264
O O6 0.324472 0.590061 0.574079
O O7 0.333739 0.866704 0.470345
O O8 0.750000 0.632082 0.584791
O O9 0.630780 0.669199 0.694528
O O10 0.647326 0.620236 0.390068
O O11 0.096792 0.079769 0.585758
#
# Coordination Sequence:
#
# PCOD9380541 Si02
#       5
#     8   8   8   8   8
#     4  10  22  42  69 100 133 179 235 285 355 402
#     4   9  22  43  68  98 137 178 230 286 348 417
#     4  11  25  44  67 101 144 191 231 293 364 419
#     4  12  23  44  71  98 147 183 240 294 344 436
#     4  10  22  41  70 103 131 186 234 289 350 407
#
# _framework density 25.521816000000001
#
# number of rings (size 3 to 8) (size 9 to 14) (size 15 to 20)
#    1.200    0.400    2.000    2.400    0.000    4.000 
#    0.000    2.000    0.000    0.000    0.000    0.000 
#    0.000    0.000    0.000    0.000    0.000    0.000 
#
# Total GULP energy -111479.248245 kJ/mol
# GULP energy per Si atom -5573.962412 kJ/mol
# Density = 2.546373 g / cm^3
# Si number density = 25.521816 Si / 1000 Ang^3
#
#
#
# Elastic Constant Matrix: (Units=GPa)
#
#
# Indices 1 2 3 4 5 6 
#
# 1 193.1534 35.4633 27.1911 0.0000 0.0000 0.0000
# 2 35.4633 85.4315 -5.9449 0.0000 0.0000 0.0000
# 3 27.1911 -5.9449 20.9389 0.0000 0.0000 0.0000
# 4 0.0000 0.0000 0.0000 37.9634 0.0000 0.0000
# 5 0.0000 0.0000 0.0000 0.0000 36.6275 0.0000
# 6 0.0000 0.0000 0.0000 0.0000 0.0000 36.9034
#
#
#
# Elastic Compliance Matrix: (Units=1/GPa)
#
#
# Indices 1 2 3 4 5 6 
#
# 1 0.007376 -0.003803 -0.010658 0.000000 0.000000 0.000000
# 2 -0.003803 0.013903 0.008886 0.000000 0.000000 0.000000
# 3 -0.010658 0.008886 0.064122 0.000000 0.000000 0.000000
# 4 0.000000 0.000000 0.000000 0.026341 0.000000 0.000000
# 5 0.000000 0.000000 0.000000 0.000000 0.027302 0.000000
# 6 0.000000 0.000000 0.000000 0.000000 0.000000 0.027098
#
#
# Mechanical properties :
#
#
# Convention : Reuss Voigt Hill
#
# Bulk Modulus (GPa) = 13.46816 45.88254 29.67535
# Shear Modulus (GPa) = 24.74740 38.48647 31.61694
#
# Velocity S-wave (km/s) = 3.11731 3.88749 3.52351
# Velocity P-wave (km/s) = 4.27146 6.17794 5.31095
#
# Compressibility (1/GPa) = 0.07424922
#
# Stress axis : x y z
#
# Youngs Moduli (GPa) = 135.57541 71.92943 15.59538
#
# Poissons Ratio (x) = 0.27358 0.16622
# Poissons Ratio (y) = 0.51566 -0.13859
# Poissons Ratio (z) = 1.44499 -0.63919
#
# Static dielectric constant tensor:
#      x y z
#    x 1.950870 0.000000 0.000000 
#    y 0.000000 2.091260 0.000000 
#    z 0.000000 0.000000 2.273110 
# 
# From -- ./inp_files/7249.got.cif
#   From: 2010.05.17/outbox.cif.g08.bks.cpg/sg46_4_cif.got.tgz:7249.got - 2010.06.03 19:58:25.
