data_PCOD9380091
_publ_section_title
;
Structure prediction by ZEFSAII (Michael W. Deem and Ramdas Pophale) SiO2 
 PCOD9380091
Probable space group: I M A 2
;
_chemical_formula_sum "Si O2"
_cell_formula_units_Z 64
_cell_length_a 14.402140
_cell_length_b 17.930210
_cell_length_c 10.301817
_cell_angle_alpha 90.000000
_cell_angle_beta 90.000000
_cell_angle_gamma 90.000000
_cell_volume 2660.273175
_symmetry_space_group_name_H-M "I M A 2"
_symmetry_group_IT_number 46
_symmetry_cell_setting 'orthorhombic'
loop_
_space_group_symop_operation_xyz
x,y,z
-x,-y,z
1/2-x,y,z
1/2+x,-y,z
1/2+x,1/2+y,1/2+z
1/2-x,1/2-y,1/2+z
-x,1/2+y,1/2+z
x,1/2-y,1/2+z
loop_
_atom_site_type_symbol
_atom_site_label
_atom_site_fract_x
_atom_site_fract_y
_atom_site_fract_z
Si Si1 0.995378 0.420315 0.880280
Si Si2 0.152932 0.542191 0.089752
Si Si3 0.643038 0.878405 0.586498
Si Si4 0.025337 0.583747 0.456983
Si Si5 0.138082 0.241105 0.798545
Si Si6 0.360069 0.846606 0.186086
Si Si7 0.859929 0.832814 0.061855
Si Si8 0.146289 0.817705 0.773366
O O1 0.928380 0.365030 0.804706
O O2 0.000000 0.500000 0.805237
O O3 0.933258 0.443330 0.002199
O O4 0.087052 0.389237 0.952082
O O5 0.250000 0.540481 0.011648
O O6 0.145052 0.460674 0.149987
O O7 0.157452 0.609281 0.187239
O O8 0.750000 0.856812 0.556567
O O9 0.606859 0.825000 0.700122
O O10 0.101356 0.599726 0.571408
O O11 0.062911 0.651919 0.364313
O O12 0.000000 0.500000 0.404556
O O13 0.926022 0.602035 0.519358
O O14 0.250000 0.237910 0.795357
O O15 0.116916 0.229200 0.950086
O O16 0.113441 0.310920 0.708072
O O17 0.250000 0.860614 0.204552
O O18 0.370292 0.755497 0.183798
O O19 0.750000 0.847105 0.055762
O O20 0.250000 0.804959 0.838107
#
# Coordination Sequence:
#
# PCOD9380091 Si02
#       8
#     8   8   8   8   8   8   8   8
#     4  10  21  37  65  97 136 178 230 281 360 429
#     4   9  19  36  60  95 131 171 224 288 359 422
#     4   9  19  34  59  95 137 177 224 287 356 429
#     4  12  29  46  71 106 146 190 247 298 378 446
#     4   9  20  39  62  94 133 183 233 285 353 433
#     4  11  26  48  72 102 142 192 245 304 365 441
#     4  10  24  43  68 101 142 187 237 296 366 441
#     4  10  25  45  71 102 138 186 241 305 365 430
#
# _framework density 24.057680000000001
#
# number of rings (size 3 to 8) (size 9 to 14) (size 15 to 20)
#    0.000    2.000    0.000    1.125    8.750    2.000 
#    0.000    0.625    0.000    0.000    0.000    0.000 
#    0.000    0.000    0.000    0.000    0.000    0.000 
#
# Total GULP energy -178170.219049 kJ/mol
# GULP energy per Si atom -5567.819345 kJ/mol
# Density = 2.400292 g / cm^3
# Si number density = 24.057680 Si / 1000 Ang^3
#
#
#
# Elastic Constant Matrix: (Units=GPa)
#
#
# Indices 1 2 3 4 5 6 
#
# 1 141.1353 22.5292 34.6314 0.0000 0.0000 0.0000
# 2 22.5292 59.0845 -9.3923 0.0000 0.0000 0.0000
# 3 34.6314 -9.3923 73.3339 0.0000 0.0000 0.0000
# 4 0.0000 0.0000 0.0000 29.3109 0.0000 0.0000
# 5 0.0000 0.0000 0.0000 0.0000 582.3825 0.0000
# 6 0.0000 0.0000 0.0000 0.0000 0.0000 36.4080
#
#
#
# Elastic Compliance Matrix: (Units=1/GPa)
#
#
# Indices 1 2 3 4 5 6 
#
# 1 0.008911 -0.004151 -0.004740 0.000000 0.000000 0.000000
# 2 -0.004151 0.019211 0.004421 0.000000 0.000000 0.000000
# 3 -0.004740 0.004421 0.016441 0.000000 0.000000 0.000000
# 4 0.000000 0.000000 0.000000 0.034117 0.000000 0.000000
# 5 0.000000 0.000000 0.000000 0.000000 0.001717 0.000000
# 6 0.000000 0.000000 0.000000 0.000000 0.000000 0.027467
#
#
# Mechanical properties :
#
#
# Convention : Reuss Voigt Hill
#
# Bulk Modulus (GPa) = 28.07268 41.01004 34.54136
# Shear Modulus (GPa) = 38.85670 144.67264 91.76467
#
# Velocity S-wave (km/s) = 4.02325 7.76314 6.18275
# Velocity P-wave (km/s) = 5.76856 9.87110 8.08440
#
# Compressibility (1/GPa) = 0.03562182
#
# Stress axis : x y z
#
# Youngs Moduli (GPa) = 112.21911 52.05460 60.82404
#
# Poissons Ratio (x) = 0.21610 0.28830
# Poissons Ratio (y) = 0.46586 -0.26889
# Poissons Ratio (z) = 0.53191 -0.23013
#
# Static dielectric constant tensor:
#      x y z
#    x 0.199350 0.000000 0.000000 
#    y 0.000000 2.136320 0.000000 
#    z 0.000000 0.000000 1.968190 
# 
# From -- ./inp_files/11352.got.cif
#   From: 2010.05.17/outbox.cif.g08.bks.cpg/sg46_6_cif.got.tgz:11352.got - 2010.06.03 19:58:25.
