data_PCOD9380238
_publ_section_title
;
Structure prediction by ZEFSAII (Michael W. Deem and Ramdas Pophale) SiO2 
 PCOD9380238
Probable space group: I M A 2
;
_chemical_formula_sum "Si O2"
_cell_formula_units_Z 56
_cell_length_a 15.924164
_cell_length_b 13.187893
_cell_length_c 12.390443
_cell_angle_alpha 90.000000
_cell_angle_beta 90.000000
_cell_angle_gamma 90.000000
_cell_volume 2602.069491
_symmetry_space_group_name_H-M "I M A 2"
_symmetry_group_IT_number 46
_symmetry_cell_setting 'orthorhombic'
loop_
_space_group_symop_operation_xyz
x,y,z
-x,-y,z
1/2-x,y,z
1/2+x,-y,z
1/2+x,1/2+y,1/2+z
1/2-x,1/2-y,1/2+z
-x,1/2+y,1/2+z
x,1/2-y,1/2+z
loop_
_atom_site_type_symbol
_atom_site_label
_atom_site_fract_x
_atom_site_fract_y
_atom_site_fract_z
Si Si1 0.977806 0.263641 0.444280
Si Si2 0.847089 0.942712 0.485617
Si Si3 0.341730 0.354537 0.400713
Si Si4 0.544096 0.605417 0.779724
Si Si5 0.101632 0.300095 0.172554
Si Si6 0.430871 0.613680 0.127066
Si Si7 0.343369 0.590437 0.348386
O O1 0.943309 0.212849 0.552984
O O2 0.913400 0.347495 0.409095
O O3 0.071558 0.310251 0.447664
O O4 0.982600 0.175693 0.352785
O O5 0.750000 0.973698 0.483065
O O6 0.882346 0.919865 0.366476
O O7 0.857074 0.845800 0.565100
O O8 0.906410 0.027119 0.541169
O O9 0.250000 0.329454 0.450088
O O10 0.341947 0.316047 0.277233
O O11 0.347486 0.475245 0.388173
O O12 0.500000 0.500000 0.746478
O O13 0.574933 0.682030 0.686243
O O14 0.020995 0.376686 0.187632
O O15 0.363115 0.602456 0.221086
O O16 0.250000 0.629721 0.369810
#
# Coordination Sequence:
#
# PCOD9380238 Si02
#       7
#     8   8   8   8   8   8   8
#     4  11  23  39  68  93 137 179 215 277 332 396
#     4  12  24  39  67 102 133 165 220 286 330 390
#     4  10  21  39  65  99 133 171 217 273 329 387
#     4  11  22  42  63  90 128 173 220 267 330 402
#     4  11  22  38  66  90 128 171 213 272 327 392
#     4  12  22  41  65 100 125 171 223 271 331 388
#     4  11  23  40  67 100 136 173 226 279 328 395
#
# _framework density 21.521331
#
# number of rings (size 3 to 8) (size 9 to 14) (size 15 to 20)
#    0.000    0.857    7.143    1.714    0.000    4.000 
#    0.000    1.429    0.000    0.000    0.000    0.000 
#    0.000    0.000    0.000    0.000    0.000    0.000 
#
# Total GULP energy -156240.721919 kJ/mol
# GULP energy per Si atom -5580.025783 kJ/mol
# Density = 2.147235 g / cm^3
# Si number density = 21.521331 Si / 1000 Ang^3
#
#
#
# Elastic Constant Matrix: (Units=GPa)
#
#
# Indices 1 2 3 4 5 6 
#
# 1 136.2265 79.3146 19.2543 0.0000 0.0000 0.0000
# 2 79.3146 131.5181 37.5630 0.0000 0.0000 0.0000
# 3 19.2543 37.5630 70.7386 0.0000 0.0000 0.0000
# 4 0.0000 0.0000 0.0000 40.6630 0.0000 0.0000
# 5 0.0000 0.0000 0.0000 0.0000 8.9214 0.0000
# 6 0.0000 0.0000 0.0000 0.0000 0.0000 17.6806
#
#
#
# Elastic Compliance Matrix: (Units=1/GPa)
#
#
# Indices 1 2 3 4 5 6 
#
# 1 0.011338 -0.007021 0.000642 0.000000 0.000000 0.000000
# 2 -0.007021 0.013310 -0.005157 0.000000 0.000000 0.000000
# 3 0.000642 -0.005157 0.016700 0.000000 0.000000 0.000000
# 4 0.000000 0.000000 0.000000 0.024592 0.000000 0.000000
# 5 0.000000 0.000000 0.000000 0.000000 0.112090 0.000000
# 6 0.000000 0.000000 0.000000 0.000000 0.000000 0.056559
#
#
# Mechanical properties :
#
#
# Convention : Reuss Voigt Hill
#
# Bulk Modulus (GPa) = 54.71372 67.86078 61.28725
# Shear Modulus (GPa) = 18.95707 26.94308 22.95007
#
# Velocity S-wave (km/s) = 2.97113 3.54209 3.26910
# Velocity P-wave (km/s) = 6.10314 6.95190 6.54130
#
# Compressibility (1/GPa) = 0.01827695
#
# Stress axis : x y z
#
# Youngs Moduli (GPa) = 88.20176 75.12902 59.87946
#
# Poissons Ratio (x) = 0.52746 -0.03845
# Poissons Ratio (y) = 0.61925 0.30880
# Poissons Ratio (z) = -0.05664 0.38744
#
# Static dielectric constant tensor:
#      x y z
#    x 1.788250 0.000000 0.000000 
#    y 0.000000 1.821480 0.000000 
#    z 0.000000 0.000000 1.844220 
# 
# From -- ./inp_files/15956.got.cif
#   From: 2010.05.17/outbox.cif.g08.bks.cpg/sg46_8_cif.got.tgz:15956.got - 2010.06.03 19:58:25.
