data_PCOD9380669
_publ_section_title
;
Structure prediction by ZEFSAII (Michael W. Deem and Ramdas Pophale) SiO2 
 PCOD9380669
Probable space group: I M A 2
;
_chemical_formula_sum "Si O2"
_cell_formula_units_Z 64
_cell_length_a 16.634435
_cell_length_b 14.329159
_cell_length_c 12.275989
_cell_angle_alpha 90.000000
_cell_angle_beta 90.000000
_cell_angle_gamma 90.000000
_cell_volume 2926.073606
_symmetry_space_group_name_H-M "I M A 2"
_symmetry_group_IT_number 46
_symmetry_cell_setting 'orthorhombic'
loop_
_space_group_symop_operation_xyz
x,y,z
-x,-y,z
1/2-x,y,z
1/2+x,-y,z
1/2+x,1/2+y,1/2+z
1/2-x,1/2-y,1/2+z
-x,1/2+y,1/2+z
x,1/2-y,1/2+z
loop_
_atom_site_type_symbol
_atom_site_label
_atom_site_fract_x
_atom_site_fract_y
_atom_site_fract_z
Si Si1 0.847128 0.116057 0.702970
Si Si2 0.838728 0.886877 0.201940
Si Si3 0.348402 0.572008 0.807471
Si Si4 0.900255 0.309786 0.619736
Si Si5 0.342344 0.281185 0.928178
Si Si6 0.841474 0.441649 0.446476
Si Si7 0.564555 0.871033 0.005565
Si Si8 0.847319 0.528334 0.028628
O O1 0.750000 0.130271 0.695128
O O2 0.887561 0.199679 0.634289
O O3 0.866121 0.105848 0.831321
O O4 0.868394 0.019477 0.641968
O O5 0.750000 0.911990 0.165533
O O6 0.835592 0.829499 0.311061
O O7 0.877438 0.984996 0.233381
O O8 0.879690 0.835987 0.104607
O O9 0.250000 0.581043 0.804756
O O10 0.388987 0.656802 0.745040
O O11 0.370766 0.541414 0.929498
O O12 0.837578 0.364788 0.542604
O O13 0.978908 0.347262 0.556461
O O14 0.250000 0.253252 0.957468
O O15 0.405979 0.198667 0.913277
O O16 0.373501 0.365943 0.004993
O O17 0.750000 0.479247 0.431027
O O18 0.903731 0.525271 0.476802
O O19 0.750000 0.533810 0.021832
#
# Coordination Sequence:
#
# PCOD9380669 Si02
#       8
#     8   8   8   8   8   8   8   8
#     4  10  23  42  67  97 129 171 225 281 340 404
#     4   9  18  35  60  87 113 155 214 271 320 384
#     4   9  17  34  63  89 116 157 213 276 324 384
#     4  12  25  39  61  96 133 175 214 271 345 411
#     4   9  19  37  62  91 122 166 222 273 328 395
#     4  11  24  43  67  96 129 174 231 284 333 398
#     4  12  24  39  61  94 134 176 216 273 341 411
#     4   8  17  37  65  94 120 158 219 281 331 383
#
# _framework density 21.872313999999999
#
# number of rings (size 3 to 8) (size 9 to 14) (size 15 to 20)
#    0.000    2.000    1.250    4.125    1.750    2.000 
#    0.000    4.375    0.000    0.000    0.000    0.000 
#    0.000    0.000    0.000    0.000    0.000    0.000 
#
# Total GULP energy -178227.854565 kJ/mol
# GULP energy per Si atom -5569.620455 kJ/mol
# Density = 2.182253 g / cm^3
# Si number density = 21.872314 Si / 1000 Ang^3
#
#
#
# Elastic Constant Matrix: (Units=GPa)
#
#
# Indices 1 2 3 4 5 6 
#
# 1 59.3527 18.5129 4.1061 0.0000 0.0000 0.0000
# 2 18.5129 87.4576 28.4462 0.0000 0.0000 0.0000
# 3 4.1061 28.4462 65.1383 0.0000 0.0000 0.0000
# 4 0.0000 0.0000 0.0000 21.9505 0.0000 0.0000
# 5 0.0000 0.0000 0.0000 0.0000 10.6524 0.0000
# 6 0.0000 0.0000 0.0000 0.0000 0.0000 18.8572
#
#
#
# Elastic Compliance Matrix: (Units=1/GPa)
#
#
# Indices 1 2 3 4 5 6 
#
# 1 0.018061 -0.004024 0.000619 0.000000 0.000000 0.000000
# 2 -0.004024 0.014224 -0.005958 0.000000 0.000000 0.000000
# 3 0.000619 -0.005958 0.017915 0.000000 0.000000 0.000000
# 4 0.000000 0.000000 0.000000 0.045557 0.000000 0.000000
# 5 0.000000 0.000000 0.000000 0.000000 0.093876 0.000000
# 6 0.000000 0.000000 0.000000 0.000000 0.000000 0.053030
#
#
# Mechanical properties :
#
#
# Convention : Reuss Voigt Hill
#
# Bulk Modulus (GPa) = 31.77351 34.89767 33.33559
# Shear Modulus (GPa) = 18.39047 21.01759 19.70403
#
# Velocity S-wave (km/s) = 2.90282 3.10324 3.00470
# Velocity P-wave (km/s) = 5.07873 5.36935 5.22606
#
# Compressibility (1/GPa) = 0.03147276
#
# Stress axis : x y z
#
# Youngs Moduli (GPa) = 55.36833 70.30441 55.81981
#
# Poissons Ratio (x) = 0.28293 -0.03455
# Poissons Ratio (y) = 0.22283 0.33257
# Poissons Ratio (z) = -0.03427 0.41887
#
# Static dielectric constant tensor:
#      x y z
#    x 1.963310 0.000000 0.000000 
#    y 0.000000 1.881310 0.000000 
#    z 0.000000 0.000000 1.804160 
# 
# From -- ./inp_files/12001.got.cif
#   From: 2010.05.17/outbox.cif.g08.bks.cpg/sg46_7_cif.got.tgz:12001.got - 2010.06.03 19:58:25.
