data_PCOD9380227
_publ_section_title
;
Structure prediction by ZEFSAII (Michael W. Deem and Ramdas Pophale) SiO2 
 PCOD9380227
Probable space group: I M A 2
;
_chemical_formula_sum "Si O2"
_cell_formula_units_Z 48
_cell_length_a 27.112761
_cell_length_b 7.892595
_cell_length_c 9.633172
_cell_angle_alpha 90.000000
_cell_angle_beta 90.000000
_cell_angle_gamma 90.000000
_cell_volume 2061.402880
_symmetry_space_group_name_H-M "I M A 2"
_symmetry_group_IT_number 46
_symmetry_cell_setting 'orthorhombic'
loop_
_space_group_symop_operation_xyz
x,y,z
-x,-y,z
1/2-x,y,z
1/2+x,-y,z
1/2+x,1/2+y,1/2+z
1/2-x,1/2-y,1/2+z
-x,1/2+y,1/2+z
x,1/2-y,1/2+z
loop_
_atom_site_type_symbol
_atom_site_label
_atom_site_fract_x
_atom_site_fract_y
_atom_site_fract_z
Si Si1 0.379510 0.745199 0.973790
Si Si2 0.639408 0.454061 0.226165
Si Si3 0.006453 0.704302 0.523843
Si Si4 0.193277 0.257209 0.377899
Si Si5 0.945221 0.724310 0.265884
Si Si6 0.142958 0.415219 0.637553
O O1 0.362960 0.783042 0.817707
O O2 0.438795 0.745846 0.980016
O O3 0.359706 0.590005 0.064381
O O4 0.360488 0.909359 0.058242
O O5 0.682203 0.574608 0.284396
O O6 0.589271 0.558833 0.261799
O O7 0.000000 0.500000 0.526460
O O8 0.964605 0.766802 0.417441
O O9 0.993427 0.784742 0.671270
O O10 0.250000 0.245651 0.417625
O O11 0.160522 0.285975 0.515695
O O12 0.177633 0.109150 0.271536
O O13 0.910465 0.865944 0.197584
#
# Coordination Sequence:
#
# PCOD9380227 Si02
#       6
#     8   8   8   8   8   8
#     4  11  22  39  57  88 125 164 203 250 311 359
#     4  10  23  40  59  84 126 162 199 255 318 364
#     4  12  22  38  59  87 125 166 219 255 291 363
#     4  10  21  41  67  94 119 158 209 261 320 392
#     4  11  22  41  59  86 123 168 212 258 299 358
#     4  10  21  39  64  89 125 160 203 263 320 368
#
# _framework density 23.285115000000001
#
# number of rings (size 3 to 8) (size 9 to 14) (size 15 to 20)
#    0.000    1.333    3.333    3.500    0.000    4.000 
#    3.000    4.167    0.000    0.000    0.000    0.000 
#    0.000    0.000    0.000    0.000    0.000    0.000 
#
# Total GULP energy -134221.857647 kJ/mol
# GULP energy per Si atom -5592.577402 kJ/mol
# Density = 2.323212 g / cm^3
# Si number density = 23.285115 Si / 1000 Ang^3
#
#
#
# Elastic Constant Matrix: (Units=GPa)
#
#
# Indices 1 2 3 4 5 6 
#
# 1 61.2561 1.5664 -3.7158 0.0000 0.0000 0.0000
# 2 1.5664 45.5257 2.3694 0.0000 0.0000 0.0000
# 3 -3.7158 2.3694 81.8607 0.0000 0.0000 0.0000
# 4 0.0000 0.0000 0.0000 44.9341 0.0000 0.0000
# 5 0.0000 0.0000 0.0000 0.0000 20.7724 0.0000
# 6 0.0000 0.0000 0.0000 0.0000 0.0000 15.9656
#
#
#
# Elastic Compliance Matrix: (Units=1/GPa)
#
#
# Indices 1 2 3 4 5 6 
#
# 1 0.016387 -0.000603 0.000761 0.000000 0.000000 0.000000
# 2 -0.000603 0.022021 -0.000665 0.000000 0.000000 0.000000
# 3 0.000761 -0.000665 0.012270 0.000000 0.000000 0.000000
# 4 0.000000 0.000000 0.000000 0.022255 0.000000 0.000000
# 5 0.000000 0.000000 0.000000 0.000000 0.048141 0.000000
# 6 0.000000 0.000000 0.000000 0.000000 0.000000 0.062635
#
#
# Mechanical properties :
#
#
# Convention : Reuss Voigt Hill
#
# Bulk Modulus (GPa) = 20.13559 21.00917 20.57238
# Shear Modulus (GPa) = 24.84156 28.89592 26.86874
#
# Velocity S-wave (km/s) = 3.26980 3.52655 3.40060
# Velocity P-wave (km/s) = 4.78765 5.06204 4.92676
#
# Compressibility (1/GPa) = 0.04966331
#
# Stress axis : x y z
#
# Youngs Moduli (GPa) = 61.02575 45.41127 81.50178
#
# Poissons Ratio (x) = 0.02740 -0.06205
# Poissons Ratio (y) = 0.03682 0.05418
# Poissons Ratio (z) = -0.04646 0.03019
#
# Static dielectric constant tensor:
#      x y z
#    x 1.829200 0.000000 0.000000 
#    y 0.000000 1.936720 0.000000 
#    z 0.000000 0.000000 1.874350 
# 
# From -- ./inp_files/8390.got.cif
#   From: 2010.05.17/outbox.cif.g08.bks.cpg/sg46_5_cif.got.tgz:8390.got - 2010.06.03 19:58:25.
