data_PCOD9380971
_publ_section_title
;
Structure prediction by ZEFSAII (Michael W. Deem and Ramdas Pophale) SiO2 
 PCOD9380971
Probable space group: I M A 2
;
_chemical_formula_sum "Si O2"
_cell_formula_units_Z 48
_cell_length_a 25.746243
_cell_length_b 6.338543
_cell_length_c 13.647625
_cell_angle_alpha 90.000000
_cell_angle_beta 90.000000
_cell_angle_gamma 90.000000
_cell_volume 2227.205988
_symmetry_space_group_name_H-M "I M A 2"
_symmetry_group_IT_number 46
_symmetry_cell_setting 'orthorhombic'
loop_
_space_group_symop_operation_xyz
x,y,z
-x,-y,z
1/2-x,y,z
1/2+x,-y,z
1/2+x,1/2+y,1/2+z
1/2-x,1/2-y,1/2+z
-x,1/2+y,1/2+z
x,1/2-y,1/2+z
loop_
_atom_site_type_symbol
_atom_site_label
_atom_site_fract_x
_atom_site_fract_y
_atom_site_fract_z
Si Si1 0.554060 0.618104 0.871360
Si Si2 0.126529 0.743924 0.423809
Si Si3 0.310724 0.041020 0.554787
Si Si4 0.309668 0.351399 0.372205
Si Si5 0.621935 0.755254 0.713348
Si Si6 0.557769 0.944837 0.048179
O O1 0.500000 0.500000 0.854413
O O2 0.597551 0.435001 0.870762
O O3 0.573097 0.782537 0.787850
O O4 0.554584 0.742505 0.974839
O O5 0.154766 0.558370 0.365081
O O6 0.080935 0.634537 0.485395
O O7 0.170921 0.839334 0.493746
O O8 0.250000 0.030775 0.583883
O O9 0.316283 0.235888 0.477034
O O10 0.351504 0.071721 0.642602
O O11 0.250000 0.403439 0.359943
O O12 0.329852 0.202446 0.284792
O O13 0.597516 0.593879 0.636067
O O14 0.500000 0.000000 0.082722
#
# Coordination Sequence:
#
# PCOD9380971 Si02
#       6
#     8   8   8   8   8   8
#     4  12  25  45  69 101 141 184 232 287 351 412
#     4  12  21  46  70  92 142 182 227 280 350 418
#     4  11  24  44  68  97 137 181 227 286 354 415
#     4  11  24  44  68  97 137 181 227 286 354 415
#     4  12  22  46  67 103 135 172 232 292 334 404
#     4  12  25  45  69 101 141 184 232 287 351 412
#
# _framework density 21.551666999999998
#
# number of rings (size 3 to 8) (size 9 to 14) (size 15 to 20)
#    0.000    0.333    8.333    1.500    0.000    1.333 
#    0.000    2.500    0.000    0.000    0.000    0.000 
#    0.000    0.000    0.000    0.000    0.000    0.000 
#
# Total GULP energy -133858.031133 kJ/mol
# GULP energy per Si atom -5577.417964 kJ/mol
# Density = 2.150261 g / cm^3
# Si number density = 21.551667 Si / 1000 Ang^3
#
#
#
# Elastic Constant Matrix: (Units=GPa)
#
#
# Indices 1 2 3 4 5 6 
#
# 1 132.8985 43.9897 28.1890 0.0000 0.0000 0.0000
# 2 43.9897 74.6772 18.6489 0.0000 0.0000 0.0000
# 3 28.1890 18.6489 88.4206 0.0000 0.0000 0.0000
# 4 0.0000 0.0000 0.0000 13.4751 0.0000 0.0000
# 5 0.0000 0.0000 0.0000 0.0000 27.0947 0.0000
# 6 0.0000 0.0000 0.0000 0.0000 0.0000 33.7043
#
#
#
# Elastic Compliance Matrix: (Units=1/GPa)
#
#
# Indices 1 2 3 4 5 6 
#
# 1 0.009666 -0.005198 -0.001985 0.000000 0.000000 0.000000
# 2 -0.005198 0.016931 -0.001914 0.000000 0.000000 0.000000
# 3 -0.001985 -0.001914 0.012346 0.000000 0.000000 0.000000
# 4 0.000000 0.000000 0.000000 0.074211 0.000000 0.000000
# 5 0.000000 0.000000 0.000000 0.000000 0.036908 0.000000
# 6 0.000000 0.000000 0.000000 0.000000 0.000000 0.029670
#
#
# Mechanical properties :
#
#
# Convention : Reuss Voigt Hill
#
# Bulk Modulus (GPa) = 48.19541 53.07238 50.63389
# Shear Modulus (GPa) = 24.40902 28.53275 26.47089
#
# Velocity S-wave (km/s) = 3.36904 3.64252 3.50845
# Velocity P-wave (km/s) = 6.12741 6.50920 6.32119
#
# Compressibility (1/GPa) = 0.02074887
#
# Stress axis : x y z
#
# Youngs Moduli (GPa) = 103.45239 59.06333 80.99705
#
# Poissons Ratio (x) = 0.30703 0.16080
# Poissons Ratio (y) = 0.53777 0.15500
# Poissons Ratio (z) = 0.20538 0.11303
#
# Static dielectric constant tensor:
#      x y z
#    x 1.772880 0.000000 0.000000 
#    y 0.000000 1.770840 0.000000 
#    z 0.000000 0.000000 1.817680 
# 
# From -- ./inp_files/17558.got.cif
#   From: 2010.05.17/outbox.cif.g08.bks.cpg/sg46_9_cif.got.tgz:17558.got - 2010.06.03 19:58:25.
