data_PCOD9380936
_publ_section_title
;
Structure prediction by ZEFSAII (Michael W. Deem and Ramdas Pophale) SiO2 
 PCOD9380936
Probable space group: I M A 2
;
_chemical_formula_sum "Si O2"
_cell_formula_units_Z 56
_cell_length_a 17.271861
_cell_length_b 11.858745
_cell_length_c 12.839531
_cell_angle_alpha 90.000000
_cell_angle_beta 90.000000
_cell_angle_gamma 90.000000
_cell_volume 2629.826062
_symmetry_space_group_name_H-M "I M A 2"
_symmetry_group_IT_number 46
_symmetry_cell_setting 'orthorhombic'
loop_
_space_group_symop_operation_xyz
x,y,z
-x,-y,z
1/2-x,y,z
1/2+x,-y,z
1/2+x,1/2+y,1/2+z
1/2-x,1/2-y,1/2+z
-x,1/2+y,1/2+z
x,1/2-y,1/2+z
loop_
_atom_site_type_symbol
_atom_site_label
_atom_site_fract_x
_atom_site_fract_y
_atom_site_fract_z
Si Si1 0.066305 0.224037 0.368670
Si Si2 0.158026 0.217607 0.560900
Si Si3 0.074711 0.427209 0.663445
Si Si4 0.557935 0.105266 0.487242
Si Si5 0.840514 0.345229 0.189902
Si Si6 0.840509 0.392701 0.788272
Si Si7 0.416060 0.057391 0.736010
O O1 0.053378 0.142293 0.269425
O O2 0.076267 0.348314 0.323813
O O3 0.994779 0.207914 0.446752
O O4 0.884797 0.077790 0.393301
O O5 0.250000 0.222424 0.581021
O O6 0.114651 0.335091 0.589282
O O7 0.118206 0.123689 0.635284
O O8 0.139960 0.192887 0.440051
O O9 0.137190 0.518776 0.699744
O O10 0.000000 0.500000 0.627734
O O11 0.606142 0.137394 0.588682
O O12 0.500000 0.000000 0.499454
O O13 0.750000 0.338926 0.162070
O O14 0.863293 0.231798 0.249087
O O15 0.857622 0.455491 0.258737
O O16 0.750000 0.392551 0.808031
O O17 0.500000 0.000000 0.722047
#
# Coordination Sequence:
#
# PCOD9380936 Si02
#       7
#     8   8   8   8   8   8   8
#     4  11  23  41  68  98 129 171 217 271 330 388
#     4  11  26  44  69 101 135 174 220 279 339 392
#     4  11  23  44  69  98 130 172 223 275 327 392
#     4  12  22  41  67  98 125 165 224 270 320 385
#     4  11  25  42  65  95 131 172 211 265 330 388
#     4  11  23  42  67  94 134 173 215 271 326 390
#     4  11  24  42  68  96 131 173 219 273 322 392
#
# _framework density 21.294181999999999
#
# number of rings (size 3 to 8) (size 9 to 14) (size 15 to 20)
#    0.000    0.857    2.857    4.286    4.000    4.571 
#    2.571    0.000    0.000    0.000    0.000    0.000 
#    0.000    0.000    0.000    0.000    0.000    0.000 
#
# Total GULP energy -156601.798291 kJ/mol
# GULP energy per Si atom -5592.921368 kJ/mol
# Density = 2.124572 g / cm^3
# Si number density = 21.294182 Si / 1000 Ang^3
#
#
#
# Elastic Constant Matrix: (Units=GPa)
#
#
# Indices 1 2 3 4 5 6 
#
# 1 121.7817 49.7977 51.9940 0.0000 0.0000 0.0000
# 2 49.7977 134.1440 28.4554 0.0000 0.0000 0.0000
# 3 51.9940 28.4554 55.1181 0.0000 0.0000 0.0000
# 4 0.0000 0.0000 0.0000 16.5790 0.0000 0.0000
# 5 0.0000 0.0000 0.0000 0.0000 25.5739 0.0000
# 6 0.0000 0.0000 0.0000 0.0000 0.0000 37.4395
#
#
#
# Elastic Compliance Matrix: (Units=1/GPa)
#
#
# Indices 1 2 3 4 5 6 
#
# 1 0.014636 -0.002813 -0.012355 0.000000 0.000000 0.000000
# 2 -0.002813 0.008912 -0.001948 0.000000 0.000000 0.000000
# 3 -0.012355 -0.001948 0.030803 0.000000 0.000000 0.000000
# 4 0.000000 0.000000 0.000000 0.060317 0.000000 0.000000
# 5 0.000000 0.000000 0.000000 0.000000 0.039102 0.000000
# 6 0.000000 0.000000 0.000000 0.000000 0.000000 0.026710
#
#
# Mechanical properties :
#
#
# Convention : Reuss Voigt Hill
#
# Bulk Modulus (GPa) = 49.69917 63.50422 56.60170
# Shear Modulus (GPa) = 22.58180 27.97161 25.27670
#
# Velocity S-wave (km/s) = 3.26002 3.62827 3.44906
# Velocity P-wave (km/s) = 6.12864 6.88763 6.51919
#
# Compressibility (1/GPa) = 0.02012106
#
# Stress axis : x y z
#
# Youngs Moduli (GPa) = 68.32345 112.20894 32.46466
#
# Poissons Ratio (x) = 0.31560 0.40109
# Poissons Ratio (y) = 0.19217 0.06323
# Poissons Ratio (z) = 0.84411 0.21855
#
# Static dielectric constant tensor:
#      x y z
#    x 1.776200 0.000000 0.000000 
#    y 0.000000 1.780660 0.000000 
#    z 0.000000 0.000000 1.772660 
# 
# From -- ./inp_files/15927.got.cif
#   From: 2010.05.17/outbox.cif.g08.bks.cpg/sg46_8_cif.got.tgz:15927.got - 2010.06.03 19:58:25.
