data_PCOD9380057
_publ_section_title
;
Structure prediction by ZEFSAII (Michael W. Deem and Ramdas Pophale) SiO2 
 PCOD9380057
Probable space group: I M A 2
;
_chemical_formula_sum "Si O2"
_cell_formula_units_Z 60
_cell_length_a 24.090186
_cell_length_b 7.465775
_cell_length_c 17.199752
_cell_angle_alpha 90.000000
_cell_angle_beta 90.000000
_cell_angle_gamma 90.000000
_cell_volume 3093.408221
_symmetry_space_group_name_H-M "I M A 2"
_symmetry_group_IT_number 46
_symmetry_cell_setting 'orthorhombic'
loop_
_space_group_symop_operation_xyz
x,y,z
-x,-y,z
1/2-x,y,z
1/2+x,-y,z
1/2+x,1/2+y,1/2+z
1/2-x,1/2-y,1/2+z
-x,1/2+y,1/2+z
x,1/2-y,1/2+z
loop_
_atom_site_type_symbol
_atom_site_label
_atom_site_fract_x
_atom_site_fract_y
_atom_site_fract_z
Si Si1 0.000000 0.000000 0.568401
Si Si2 0.966089 0.671876 0.469208
Si Si3 0.113235 0.415861 0.160326
Si Si4 0.686424 0.062733 0.913166
Si Si5 0.388043 0.224141 0.830604
Si Si6 0.685180 0.228295 0.179361
Si Si7 0.141564 0.078374 0.068168
Si Si8 0.313236 0.928296 0.352818
O O1 0.000256 0.824062 0.513970
O O2 0.943864 0.978769 0.618991
O O3 0.938089 0.745521 0.391067
O O4 0.918931 0.596112 0.528175
O O5 0.000000 0.500000 0.445112
O O6 0.098449 0.314066 0.240920
O O7 0.152783 0.585577 0.172649
O O8 0.146741 0.271008 0.108631
O O9 0.750000 0.058197 0.885604
O O10 0.669334 0.272186 0.913062
O O11 0.646771 0.949061 0.858118
O O12 0.681477 0.970138 0.996755
O O13 0.350592 0.398108 0.844980
O O14 0.750000 0.239949 0.153928
O O15 0.685774 0.167031 0.268911
O O16 0.652482 0.077403 0.130277
O O17 0.250000 0.982613 0.371064
#
# Coordination Sequence:
#
# PCOD9380057 Si02
#       8
#     4   8   8   8   8   8   8   8
#     4  10  24  46  66  90 126 166 210 266 320 372
#     4  10  23  42  65  88 120 162 204 260 319 373
#     4  11  23  41  65  95 128 164 212 263 316 371
#     4  10  21  38  59  89 126 168 206 247 299 364
#     4  11  22  38  63  93 124 160 210 255 310 373
#     4  11  22  37  62  94 128 167 207 253 308 372
#     4  10  22  40  62  89 126 160 203 256 310 373
#     4  10  21  37  59  90 131 169 203 248 304 369
#
# _framework density 19.396082
#
# number of rings (size 3 to 8) (size 9 to 14) (size 15 to 20)
#    0.000    1.600    2.667    1.600    0.933    6.933 
#    0.000    0.000    1.467    0.000    0.000    0.000 
#    0.000    0.000    0.000    0.000    0.000    0.000 
#
# Total GULP energy -167414.842139 kJ/mol
# GULP energy per Si atom -5580.494738 kJ/mol
# Density = 1.935194 g / cm^3
# Si number density = 19.396082 Si / 1000 Ang^3
#
#
#
# Elastic Constant Matrix: (Units=GPa)
#
#
# Indices 1 2 3 4 5 6 
#
# 1 56.0101 63.0385 35.2001 0.0000 0.0000 0.0000
# 2 63.0385 137.6962 42.5718 0.0000 0.0000 0.0000
# 3 35.2001 42.5718 70.2603 0.0000 0.0000 0.0000
# 4 0.0000 0.0000 0.0000 30.7811 0.0000 0.0000
# 5 0.0000 0.0000 0.0000 0.0000 46.9451 0.0000
# 6 0.0000 0.0000 0.0000 0.0000 0.0000 40.2519
#
#
#
# Elastic Compliance Matrix: (Units=1/GPa)
#
#
# Indices 1 2 3 4 5 6 
#
# 1 0.043806 -0.016328 -0.012053 0.000000 0.000000 0.000000
# 2 -0.016328 0.015023 -0.000922 0.000000 0.000000 0.000000
# 3 -0.012053 -0.000922 0.020830 0.000000 0.000000 0.000000
# 4 0.000000 0.000000 0.000000 0.032487 0.000000 0.000000
# 5 0.000000 0.000000 0.000000 0.000000 0.021301 0.000000
# 6 0.000000 0.000000 0.000000 0.000000 0.000000 0.024844
#
#
# Mechanical properties :
#
#
# Convention : Reuss Voigt Hill
#
# Bulk Modulus (GPa) = 47.50172 60.62083 54.06128
# Shear Modulus (GPa) = 22.32985 31.80604 27.06794
#
# Velocity S-wave (km/s) = 3.39670 4.05386 3.73974
# Velocity P-wave (km/s) = 6.31878 7.29614 6.82498
#
# Compressibility (1/GPa) = 0.02105187
#
# Stress axis : x y z
#
# Youngs Moduli (GPa) = 22.82786 66.56591 48.00770
#
# Poissons Ratio (x) = 1.08691 0.57864
# Poissons Ratio (y) = 0.37274 0.04427
# Poissons Ratio (z) = 0.27515 0.06138
#
# Static dielectric constant tensor:
#      x y z
#    x 1.664880 0.000000 0.000000 
#    y 0.000000 1.660360 0.000000 
#    z 0.000000 0.000000 1.705070 
# 
# From -- ./inp_files/20490.got.cif
#   From: 2010.05.17/outbox.cif.g08.bks.cpg/sg46_11_cif.got.tgz:20490.got - 2010.06.03 19:58:25.
