data_PCOD9380988
_publ_section_title
;
Structure prediction by ZEFSAII (Michael W. Deem and Ramdas Pophale) SiO2 
 PCOD9380988
Probable space group: I M A 2
;
_chemical_formula_sum "Si O2"
_cell_formula_units_Z 32
_cell_length_a 23.156563
_cell_length_b 4.994806
_cell_length_c 10.350407
_cell_angle_alpha 90.000000
_cell_angle_beta 90.000000
_cell_angle_gamma 90.000000
_cell_volume 1197.154362
_symmetry_space_group_name_H-M "I M A 2"
_symmetry_group_IT_number 46
_symmetry_cell_setting 'orthorhombic'
loop_
_space_group_symop_operation_xyz
x,y,z
-x,-y,z
1/2-x,y,z
1/2+x,-y,z
1/2+x,1/2+y,1/2+z
1/2-x,1/2-y,1/2+z
-x,1/2+y,1/2+z
x,1/2-y,1/2+z
loop_
_atom_site_type_symbol
_atom_site_label
_atom_site_fract_x
_atom_site_fract_y
_atom_site_fract_z
Si Si1 0.932104 0.992355 0.737590
Si Si2 0.153915 0.575782 0.680728
Si Si3 0.250000 0.708616 0.998463
Si Si4 0.750000 0.726167 0.320761
Si Si5 0.440911 0.181006 0.999271
O O1 0.937307 0.949378 0.583959
O O2 0.885908 0.223944 0.765348
O O3 0.920931 0.776346 0.851973
O O4 0.000000 0.000000 0.766875
O O5 0.196666 0.747603 0.592633
O O6 0.193777 0.341927 0.743880
O O7 0.108679 0.463838 0.578991
O O8 0.250000 0.409392 0.947883
O O9 0.250000 0.921463 0.876761
O O10 0.500000 0.000000 0.017904
#
# Coordination Sequence:
#
# PCOD9380988 Si02
#       5
#     8   8   4   4   8
#     4  11  25  46  71 114 162 213 276 340 427 502
#     4  11  26  46  75 107 155 210 269 341 416 497
#     4  11  28  49  76 109 156 210 274 339 411 491
#     4  11  28  49  74 111 154 210 276 337 413 489
#     4  11  25  44  73 112 156 212 267 348 415 514
#
# _framework density 26.730053999999999
#
# number of rings (size 3 to 8) (size 9 to 14) (size 15 to 20)
#    0.000    1.000    2.500    1.500   10.500    5.000 
#    0.000    0.000    0.000    0.000    0.000    0.000 
#    0.000    0.000    0.000    0.000    0.000    0.000 
#
# Total GULP energy -89145.997906 kJ/mol
# GULP energy per Si atom -5571.624869 kJ/mol
# Density = 2.666921 g / cm^3
# Si number density = 26.730054 Si / 1000 Ang^3
#
#
#
# Elastic Constant Matrix: (Units=GPa)
#
#
# Indices 1 2 3 4 5 6 
#
# 1 193.2687 30.6739 16.8211 0.0000 0.0000 0.0000
# 2 30.6739 85.9149 25.2185 0.0000 0.0000 0.0000
# 3 16.8211 25.2185 114.7404 0.0000 0.0000 0.0000
# 4 0.0000 0.0000 0.0000 35.6075 0.0000 0.0000
# 5 0.0000 0.0000 0.0000 0.0000 1021.5490 0.0000
# 6 0.0000 0.0000 0.0000 0.0000 0.0000 39.6864
#
#
#
# Elastic Compliance Matrix: (Units=1/GPa)
#
#
# Indices 1 2 3 4 5 6 
#
# 1 0.005502 -0.001847 -0.000401 0.000000 0.000000 0.000000
# 2 -0.001847 0.013062 -0.002600 0.000000 0.000000 0.000000
# 3 -0.000401 -0.002600 0.009346 0.000000 0.000000 0.000000
# 4 0.000000 0.000000 0.000000 0.028084 0.000000 0.000000
# 5 0.000000 0.000000 0.000000 0.000000 0.000979 0.000000
# 6 0.000000 0.000000 0.000000 0.000000 0.000000 0.025198
#
#
# Mechanical properties :
#
#
# Convention : Reuss Voigt Hill
#
# Bulk Modulus (GPa) = 54.90159 59.92789 57.41474
# Shear Modulus (GPa) = 51.05335 240.78262 145.91798
#
# Velocity S-wave (km/s) = 4.37505 9.50131 7.39649
# Velocity P-wave (km/s) = 6.79009 11.95136 9.71957
#
# Compressibility (1/GPa) = 0.01821441
#
# Stress axis : x y z
#
# Youngs Moduli (GPa) = 181.74801 76.55806 107.00287
#
# Poissons Ratio (x) = 0.14139 0.04288
# Poissons Ratio (y) = 0.33565 0.27822
# Poissons Ratio (z) = 0.07283 0.19906
#
# Static dielectric constant tensor:
#      x y z
#    x -5.863670 0.000000 0.000000 
#    y 0.000000 2.750720 0.000000 
#    z 0.000000 0.000000 2.064140 
# 
# From -- ./inp_files/12171.got.cif
#   From: 2010.05.17/outbox.cif.g08.bks.cpg/sg46_7_cif.got.tgz:12171.got - 2010.06.03 19:58:25.
