data_PCOD9380735
_publ_section_title
;
Structure prediction by ZEFSAII (Michael W. Deem and Ramdas Pophale) SiO2 
 PCOD9380735
Probable space group: I M A 2
;
_chemical_formula_sum "Si O2"
_cell_formula_units_Z 60
_cell_length_a 17.505763
_cell_length_b 25.567692
_cell_length_c 5.064156
_cell_angle_alpha 90.000000
_cell_angle_beta 90.000000
_cell_angle_gamma 90.000000
_cell_volume 2266.624851
_symmetry_space_group_name_H-M "I M A 2"
_symmetry_group_IT_number 46
_symmetry_cell_setting 'orthorhombic'
loop_
_space_group_symop_operation_xyz
x,y,z
-x,-y,z
1/2-x,y,z
1/2+x,-y,z
1/2+x,1/2+y,1/2+z
1/2-x,1/2-y,1/2+z
-x,1/2+y,1/2+z
x,1/2-y,1/2+z
loop_
_atom_site_type_symbol
_atom_site_label
_atom_site_fract_x
_atom_site_fract_y
_atom_site_fract_z
Si Si1 0.508424 0.088845 0.780760
Si Si2 0.422299 0.026779 0.207172
Si Si3 0.162475 0.126567 0.428438
Si Si4 0.250000 0.788990 0.652635
Si Si5 0.040850 0.759922 0.938054
Si Si6 0.663483 0.070358 0.053677
Si Si7 0.405523 0.177133 0.944920
Si Si8 0.099786 0.659378 0.932135
O O1 0.477836 0.137504 0.956760
O O2 0.530443 0.118083 0.507045
O O3 0.449440 0.046799 0.912956
O O4 0.593710 0.070695 0.848691
O O5 0.388873 0.075389 0.371705
O O6 0.500000 0.000000 0.321279
O O7 0.356146 0.983688 0.202499
O O8 0.250000 0.110823 0.455530
O O9 0.135441 0.158557 0.681718
O O10 0.150163 0.164905 0.182350
O O11 0.250000 0.756932 0.927286
O O12 0.324346 0.823587 0.609537
O O13 0.075722 0.709417 0.713604
O O14 0.052715 0.790693 0.651938
O O15 0.949745 0.768607 0.962763
O O16 0.750000 0.070232 0.954449
O O17 0.647300 0.121286 0.227626
#
# Coordination Sequence:
#
# PCOD9380735 Si02
#       8
#     8   8   8   4   8   8   8   8
#     4  10  24  43  71 104 149 200 265 322 377 463
#     4   9  22  46  74 113 149 203 262 323 380 475
#     4  11  24  48  78 113 153 196 247 319 401 471
#     4  12  30  48  70 114 170 220 266 326 398 482
#     4  12  24  42  72 110 145 198 262 311 376 452
#     4  11  24  46  73 108 160 209 262 324 404 462
#     4  11  24  44  76 111 144 199 254 320 380 460
#     4  12  26  43  72 107 158 211 262 326 388 480
#
# _framework density 26.471079
#
# number of rings (size 3 to 8) (size 9 to 14) (size 15 to 20)
#    0.000    1.067    2.000    3.200    8.400    0.000 
#   12.000    0.000    0.000    8.000    0.000    0.000 
#    0.000    0.000    0.000    0.000    0.000    0.000 
#
# Total GULP energy -167101.799897 kJ/mol
# GULP energy per Si atom -5570.059997 kJ/mol
# Density = 2.641083 g / cm^3
# Si number density = 26.471079 Si / 1000 Ang^3
#
#
#
# Elastic Constant Matrix: (Units=GPa)
#
#
# Indices 1 2 3 4 5 6 
#
# 1 184.5369 64.6305 33.6965 0.0000 0.0000 0.0000
# 2 64.6305 117.0695 30.6742 0.0000 0.0000 0.0000
# 3 33.6965 30.6742 194.5212 0.0000 0.0000 0.0000
# 4 0.0000 0.0000 0.0000 28.2466 0.0000 0.0000
# 5 0.0000 0.0000 0.0000 0.0000 21.2927 0.0000
# 6 0.0000 0.0000 0.0000 0.0000 0.0000 37.0314
#
#
#
# Elastic Compliance Matrix: (Units=1/GPa)
#
#
# Indices 1 2 3 4 5 6 
#
# 1 0.006787 -0.003587 -0.000610 0.000000 0.000000 0.000000
# 2 -0.003587 0.010806 -0.001083 0.000000 0.000000 0.000000
# 3 -0.000610 -0.001083 0.005417 0.000000 0.000000 0.000000
# 4 0.000000 0.000000 0.000000 0.035403 0.000000 0.000000
# 5 0.000000 0.000000 0.000000 0.000000 0.046964 0.000000
# 6 0.000000 0.000000 0.000000 0.000000 0.000000 0.027004
#
#
# Mechanical properties :
#
#
# Convention : Reuss Voigt Hill
#
# Bulk Modulus (GPa) = 80.31725 83.79223 82.05474
# Shear Modulus (GPa) = 33.99282 41.78921 37.89102
#
# Velocity S-wave (km/s) = 3.58739 3.97756 3.78750
# Velocity P-wave (km/s) = 6.89685 7.26758 7.08464
#
# Compressibility (1/GPa) = 0.01245063
#
# Stress axis : x y z
#
# Youngs Moduli (GPa) = 147.34967 92.54301 184.59650
#
# Poissons Ratio (x) = 0.33194 0.11261
# Poissons Ratio (y) = 0.52852 0.19985
# Poissons Ratio (z) = 0.08989 0.10019
#
# Static dielectric constant tensor:
#      x y z
#    x 2.039930 0.000000 0.000000 
#    y 0.000000 2.209410 0.000000 
#    z 0.000000 0.000000 2.307060 
# 
# From -- ./inp_files/1814.got.cif
#   From: 2010.05.17/outbox.cif.g08.bks.cpg/sg46_1_cif.got.tgz:1814.got - 2010.06.03 19:58:25.
