data_PCOD9380384
_publ_section_title
;
Structure prediction by ZEFSAII (Michael W. Deem and Ramdas Pophale) SiO2 
 PCOD9380384
Probable space group: I M A 2
;
_chemical_formula_sum "Si O2"
_cell_formula_units_Z 48
_cell_length_a 22.728846
_cell_length_b 16.923460
_cell_length_c 5.488422
_cell_angle_alpha 90.000000
_cell_angle_beta 90.000000
_cell_angle_gamma 90.000000
_cell_volume 2111.125453
_symmetry_space_group_name_H-M "I M A 2"
_symmetry_group_IT_number 46
_symmetry_cell_setting 'orthorhombic'
loop_
_space_group_symop_operation_xyz
x,y,z
-x,-y,z
1/2-x,y,z
1/2+x,-y,z
1/2+x,1/2+y,1/2+z
1/2-x,1/2-y,1/2+z
-x,1/2+y,1/2+z
x,1/2-y,1/2+z
loop_
_atom_site_type_symbol
_atom_site_label
_atom_site_fract_x
_atom_site_fract_y
_atom_site_fract_z
Si Si1 0.890801 0.770482 0.872820
Si Si2 0.027812 0.714700 0.776509
Si Si3 0.684022 0.077456 0.798158
Si Si4 0.500000 0.000000 0.806543
Si Si5 0.611177 0.556068 0.568167
Si Si6 0.750000 0.298449 0.561867
Si Si7 0.586997 0.428734 0.938217
O O1 0.867802 0.784791 0.595430
O O2 0.878299 0.852703 0.017281
O O3 0.957750 0.737160 0.810065
O O4 0.050586 0.760269 0.541499
O O5 0.053910 0.626604 0.744820
O O6 0.750000 0.060516 0.708193
O O7 0.694447 0.144000 0.004983
O O8 0.643160 0.105170 0.578324
O O9 0.654582 0.000693 0.917154
O O10 0.546046 0.953175 0.963221
O O11 0.463170 0.942315 0.637229
O O12 0.606468 0.513799 0.829984
O O13 0.750000 0.261413 0.829439
#
# Coordination Sequence:
#
# PCOD9380384 Si02
#       7
#     8   8   8   4   8   4   8
#     4  10  23  40  64  94 138 180 220 282 351 412
#     4  10  23  38  58  90 135 178 221 274 341 406
#     4   9  25  45  68  99 133 186 240 298 354 424
#     4  10  22  36  58  98 136 172 236 278 340 424
#     4  11  24  40  69  96 138 187 239 287 358 436
#     4  10  24  46  74 100 142 182 232 304 364 418
#     4  11  24  38  67  96 137 187 236 284 352 433
#
# _framework density 22.736685999999999
#
# number of rings (size 3 to 8) (size 9 to 14) (size 15 to 20)
#    0.500    1.333    0.000    2.500   21.000    2.000 
#    0.000    0.000    0.000    1.000    0.000    0.000 
#    0.000    0.000    0.000    0.000    0.000    0.000 
#
# Total GULP energy -133647.977128 kJ/mol
# GULP energy per Si atom -5568.665714 kJ/mol
# Density = 2.268494 g / cm^3
# Si number density = 22.736686 Si / 1000 Ang^3
#
#
#
# Elastic Constant Matrix: (Units=GPa)
#
#
# Indices 1 2 3 4 5 6 
#
# 1 83.6397 18.2373 20.9134 0.0000 0.0000 0.0000
# 2 18.2373 62.9531 -4.0816 0.0000 0.0000 0.0000
# 3 20.9134 -4.0816 93.9788 0.0000 0.0000 0.0000
# 4 0.0000 0.0000 0.0000 0.6024 0.0000 0.0000
# 5 0.0000 0.0000 0.0000 0.0000 15.9232 0.0000
# 6 0.0000 0.0000 0.0000 0.0000 0.0000 22.9183
#
#
#
# Elastic Compliance Matrix: (Units=1/GPa)
#
#
# Indices 1 2 3 4 5 6 
#
# 1 0.013671 -0.004169 -0.003223 0.000000 0.000000 0.000000
# 2 -0.004169 0.017201 0.001675 0.000000 0.000000 0.000000
# 3 -0.003223 0.001675 0.011431 0.000000 0.000000 0.000000
# 4 0.000000 0.000000 0.000000 1.660031 0.000000 0.000000
# 5 0.000000 0.000000 0.000000 0.000000 0.062801 0.000000
# 6 0.000000 0.000000 0.000000 0.000000 0.000000 0.043633
#
#
# Mechanical properties :
#
#
# Convention : Reuss Voigt Hill
#
# Bulk Modulus (GPa) = 32.39667 34.52330 33.45999
# Shear Modulus (GPa) = 2.73150 21.58893 12.16022
#
# Velocity S-wave (km/s) = 1.09726 3.08477 2.31514
# Velocity P-wave (km/s) = 3.98558 5.28249 4.67918
#
# Compressibility (1/GPa) = 0.03086737
#
# Stress axis : x y z
#
# Youngs Moduli (GPa) = 73.14669 58.13508 87.48332
#
# Poissons Ratio (x) = 0.24239 0.28199
# Poissons Ratio (y) = 0.30498 -0.14653
# Poissons Ratio (z) = 0.23578 -0.09737
#
# Static dielectric constant tensor:
#      x y z
#    x 1.865470 0.000000 0.000000 
#    y 0.000000 2.360400 0.000000 
#    z 0.000000 0.000000 1.933140 
# 
# From -- ./inp_files/2546.got.cif
#   From: 2010.05.17/outbox.cif.g08.bks.cpg/sg46_2_cif.got.tgz:2546.got - 2010.06.03 19:58:25.
