data_PCOD9380646
_publ_section_title
;
Structure prediction by ZEFSAII (Michael W. Deem and Ramdas Pophale) SiO2 
 PCOD9380646
Probable space group: I M A 2
;
_chemical_formula_sum "Si O2"
_cell_formula_units_Z 48
_cell_length_a 24.993197
_cell_length_b 9.250972
_cell_length_c 9.887073
_cell_angle_alpha 90.000000
_cell_angle_beta 90.000000
_cell_angle_gamma 90.000000
_cell_volume 2286.003650
_symmetry_space_group_name_H-M "I M A 2"
_symmetry_group_IT_number 46
_symmetry_cell_setting 'orthorhombic'
loop_
_space_group_symop_operation_xyz
x,y,z
-x,-y,z
1/2-x,y,z
1/2+x,-y,z
1/2+x,1/2+y,1/2+z
1/2-x,1/2-y,1/2+z
-x,1/2+y,1/2+z
x,1/2-y,1/2+z
loop_
_atom_site_type_symbol
_atom_site_label
_atom_site_fract_x
_atom_site_fract_y
_atom_site_fract_z
Si Si1 0.686734 0.108205 0.313010
Si Si2 0.645452 0.615649 0.222232
Si Si3 0.359780 0.805690 0.588751
Si Si4 0.811785 0.696327 0.942165
Si Si5 0.479353 0.662246 0.969608
Si Si6 0.976166 0.839373 0.734533
O O1 0.750000 0.111588 0.280132
O O2 0.675833 0.194987 0.452774
O O3 0.652853 0.173618 0.189151
O O4 0.670718 0.944426 0.354713
O O5 0.651978 0.449807 0.176847
O O6 0.682306 0.667717 0.344212
O O7 0.585464 0.648307 0.271407
O O8 0.656999 0.701732 0.083031
O O9 0.420188 0.825206 0.532306
O O10 0.750000 0.671736 0.978469
O O11 0.500000 0.500000 0.942380
O O12 0.487113 0.751471 0.835291
O O13 0.518503 0.724304 0.084666
O O14 0.000000 0.000000 0.726403
#
# Coordination Sequence:
#
# PCOD9380646 Si02
#       6
#     8   8   8   8   8   8
#     4  10  23  41  64  94 128 167 215 262 316 379
#     4  11  22  41  66  92 128 170 208 262 319 374
#     4  11  22  41  66  92 128 169 209 263 319 373
#     4  10  23  42  64  95 130 166 215 263 316 381
#     4  11  23  43  64  93 128 166 211 262 314 378
#     4  11  23  42  62  94 128 164 214 260 312 381
#
# _framework density 20.997343000000001
#
# number of rings (size 3 to 8) (size 9 to 14) (size 15 to 20)
#    0.000    1.333    3.333    3.000    2.333    4.000 
#    3.000    0.000    0.000    0.000    0.000    0.000 
#    0.000    0.000    0.000    0.000    0.000    0.000 
#
# Total GULP energy -134040.513859 kJ/mol
# GULP energy per Si atom -5585.021411 kJ/mol
# Density = 2.094955 g / cm^3
# Si number density = 20.997343 Si / 1000 Ang^3
#
#
#
# Elastic Constant Matrix: (Units=GPa)
#
#
# Indices 1 2 3 4 5 6 
#
# 1 69.1489 14.5727 9.6843 0.0000 0.0000 0.0000
# 2 14.5727 28.4694 26.2935 0.0000 0.0000 0.0000
# 3 9.6843 26.2935 60.0391 0.0000 0.0000 0.0000
# 4 0.0000 0.0000 0.0000 19.4190 0.0000 0.0000
# 5 0.0000 0.0000 0.0000 0.0000 39.3663 0.0000
# 6 0.0000 0.0000 0.0000 0.0000 0.0000 22.8608
#
#
#
# Elastic Compliance Matrix: (Units=1/GPa)
#
#
# Indices 1 2 3 4 5 6 
#
# 1 0.016316 -0.009942 0.001722 0.000000 0.000000 0.000000
# 2 -0.009942 0.065040 -0.026880 0.000000 0.000000 0.000000
# 3 0.001722 -0.026880 0.028150 0.000000 0.000000 0.000000
# 4 0.000000 0.000000 0.000000 0.051496 0.000000 0.000000
# 5 0.000000 0.000000 0.000000 0.000000 0.025402 0.000000
# 6 0.000000 0.000000 0.000000 0.000000 0.000000 0.043743
#
#
# Mechanical properties :
#
#
# Convention : Reuss Voigt Hill
#
# Bulk Modulus (GPa) = 25.44148 28.75094 27.09621
# Shear Modulus (GPa) = 15.95155 23.46969 19.71062
#
# Velocity S-wave (km/s) = 2.75924 3.34690 3.06718
# Velocity P-wave (km/s) = 4.72166 5.35332 5.04738
#
# Compressibility (1/GPa) = 0.03930589
#
# Stress axis : x y z
#
# Youngs Moduli (GPa) = 61.29097 15.37505 35.52417
#
# Poissons Ratio (x) = 0.15286 -0.06119
# Poissons Ratio (y) = 0.60938 0.95489
# Poissons Ratio (z) = -0.10557 0.41328
#
# Static dielectric constant tensor:
#      x y z
#    x 1.724610 0.000000 0.000000 
#    y 0.000000 1.757380 0.000000 
#    z 0.000000 0.000000 1.726790 
# 
# From -- ./inp_files/12731.got.cif
#   From: 2010.05.17/outbox.cif.g08.bks.cpg/sg46_7_cif.got.tgz:12731.got - 2010.06.03 19:58:25.
