data_PCOD9380822
_publ_section_title
;
Structure prediction by ZEFSAII (Michael W. Deem and Ramdas Pophale) SiO2 
 PCOD9380822
Probable space group: I M A 2
;
_chemical_formula_sum "Si O2"
_cell_formula_units_Z 64
_cell_length_a 14.568388
_cell_length_b 10.845709
_cell_length_c 18.092113
_cell_angle_alpha 90.000000
_cell_angle_beta 90.000000
_cell_angle_gamma 90.000000
_cell_volume 2858.635211
_symmetry_space_group_name_H-M "I M A 2"
_symmetry_group_IT_number 46
_symmetry_cell_setting 'orthorhombic'
loop_
_space_group_symop_operation_xyz
x,y,z
-x,-y,z
1/2-x,y,z
1/2+x,-y,z
1/2+x,1/2+y,1/2+z
1/2-x,1/2-y,1/2+z
-x,1/2+y,1/2+z
x,1/2-y,1/2+z
loop_
_atom_site_type_symbol
_atom_site_label
_atom_site_fract_x
_atom_site_fract_y
_atom_site_fract_z
Si Si1 0.610093 0.493054 0.032320
Si Si2 0.110516 0.503154 0.203523
Si Si3 0.473631 0.864297 0.175318
Si Si4 0.649560 0.759150 0.255769
Si Si5 0.969836 0.366949 0.417342
Si Si6 0.854526 0.246532 0.289197
Si Si7 0.851115 0.719897 0.928578
Si Si8 0.854263 0.284019 0.542280
O O1 0.500000 0.500000 0.029825
O O2 0.638669 0.513624 0.117846
O O3 0.640627 0.355211 0.011701
O O4 0.645395 0.596226 0.976621
O O5 0.145696 0.389447 0.252180
O O6 0.143987 0.632536 0.236260
O O7 0.000000 0.500000 0.205298
O O8 0.565714 0.802008 0.205491
O O9 0.400621 0.863073 0.242574
O O10 0.424543 0.790822 0.110128
O O11 0.500000 0.000000 0.150251
O O12 0.750000 0.799707 0.228798
O O13 0.639022 0.801976 0.340405
O O14 0.922717 0.284243 0.354744
O O15 0.893765 0.376045 0.481031
O O16 0.000000 0.500000 0.388153
O O17 0.061074 0.302182 0.448828
O O18 0.750000 0.222039 0.312168
O O19 0.750000 0.777952 0.939213
O O20 0.750000 0.311779 0.564344
#
# Coordination Sequence:
#
# PCOD9380822 Si02
#       8
#     8   8   8   8   8   8   8   8
#     4  11  22  42  74 104 142 183 234 306 373 428
#     4  11  20  41  73 107 141 178 232 305 360 420
#     4  12  26  47  71 101 145 191 234 297 361 434
#     4  11  24  42  66 101 144 187 233 291 359 434
#     4  12  26  47  70 103 147 197 239 300 367 444
#     4  12  24  43  76 109 140 185 243 300 364 429
#     4  11  24  42  67 104 145 188 236 296 363 433
#     4  12  26  48  73 103 142 187 245 309 373 442
#
# _framework density 22.388307999999999
#
# number of rings (size 3 to 8) (size 9 to 14) (size 15 to 20)
#    0.000    0.500    5.000    3.750    0.000    6.000 
#    0.000    1.250    0.000    0.000    0.000    0.000 
#    0.000    0.000    0.000    0.000    0.000    0.000 
#
# Total GULP energy -179088.093860 kJ/mol
# GULP energy per Si atom -5596.502933 kJ/mol
# Density = 2.233735 g / cm^3
# Si number density = 22.388308 Si / 1000 Ang^3
#
#
#
# Elastic Constant Matrix: (Units=GPa)
#
#
# Indices 1 2 3 4 5 6 
#
# 1 169.0034 20.0345 21.7716 0.0000 0.0000 0.0000
# 2 20.0345 60.5469 10.8577 0.0000 0.0000 0.0000
# 3 21.7716 10.8577 88.9444 0.0000 0.0000 0.0000
# 4 0.0000 0.0000 0.0000 36.4266 0.0000 0.0000
# 5 0.0000 0.0000 0.0000 0.0000 58.3353 0.0000
# 6 0.0000 0.0000 0.0000 0.0000 0.0000 13.9683
#
#
#
# Elastic Compliance Matrix: (Units=1/GPa)
#
#
# Indices 1 2 3 4 5 6 
#
# 1 0.006306 -0.001850 -0.001318 0.000000 0.000000 0.000000
# 2 -0.001850 0.017429 -0.001675 0.000000 0.000000 0.000000
# 3 -0.001318 -0.001675 0.011770 0.000000 0.000000 0.000000
# 4 0.000000 0.000000 0.000000 0.027452 0.000000 0.000000
# 5 0.000000 0.000000 0.000000 0.000000 0.017142 0.000000
# 6 0.000000 0.000000 0.000000 0.000000 0.000000 0.071591
#
#
# Mechanical properties :
#
#
# Convention : Reuss Voigt Hill
#
# Bulk Modulus (GPa) = 38.73063 47.09136 42.91100
# Shear Modulus (GPa) = 29.41486 39.46809 34.44148
#
# Velocity S-wave (km/s) = 3.62864 4.20323 3.92646
# Velocity P-wave (km/s) = 5.90704 6.68100 6.30590
#
# Compressibility (1/GPa) = 0.02581936
#
# Stress axis : x y z
#
# Youngs Moduli (GPa) = 158.57559 57.37660 84.96209
#
# Poissons Ratio (x) = 0.10617 0.11196
# Poissons Ratio (y) = 0.29342 0.14228
# Poissons Ratio (z) = 0.20896 0.09609
#
# Static dielectric constant tensor:
#      x y z
#    x 1.820940 0.000000 0.000000 
#    y 0.000000 1.800760 0.000000 
#    z 0.000000 0.000000 1.838000 
# 
# From -- ./inp_files/19639.got.cif
#   From: 2010.05.17/outbox.cif.g08.bks.cpg/sg46_10_cif.got.tgz:19639.got - 2010.06.03 19:58:25.
