data_PCOD9380419
_publ_section_title
;
Structure prediction by ZEFSAII (Michael W. Deem and Ramdas Pophale) SiO2 
 PCOD9380419
Probable space group: I M A 2
;
_chemical_formula_sum "Si O2"
_cell_formula_units_Z 56
_cell_length_a 16.476312
_cell_length_b 11.395395
_cell_length_c 14.284641
_cell_angle_alpha 90.000000
_cell_angle_beta 90.000000
_cell_angle_gamma 90.000000
_cell_volume 2681.999677
_symmetry_space_group_name_H-M "I M A 2"
_symmetry_group_IT_number 46
_symmetry_cell_setting 'orthorhombic'
loop_
_space_group_symop_operation_xyz
x,y,z
-x,-y,z
1/2-x,y,z
1/2+x,-y,z
1/2+x,1/2+y,1/2+z
1/2-x,1/2-y,1/2+z
-x,1/2+y,1/2+z
x,1/2-y,1/2+z
loop_
_atom_site_type_symbol
_atom_site_label
_atom_site_fract_x
_atom_site_fract_y
_atom_site_fract_z
Si Si1 0.551603 0.850873 0.815750
Si Si2 0.082336 0.773618 0.186935
Si Si3 0.341391 0.976009 0.696220
Si Si4 0.842484 0.986560 0.147129
Si Si5 0.464229 0.336048 0.524761
Si Si6 0.659751 0.860540 0.339266
Si Si7 0.916187 0.931426 0.514734
O O1 0.491280 0.768248 0.754828
O O2 0.629137 0.771675 0.840683
O O3 0.588475 0.960249 0.758276
O O4 0.514347 0.870583 0.918524
O O5 0.141031 0.662337 0.191265
O O6 0.129912 0.894649 0.200562
O O7 0.042220 0.803822 0.086866
O O8 0.250000 0.999902 0.729702
O O9 0.353343 0.022152 0.590719
O O10 0.750000 0.999436 0.110007
O O11 0.907256 0.934640 0.072850
O O12 0.841668 0.894266 0.231310
O O13 0.420831 0.208784 0.527266
O O14 0.750000 0.870477 0.376990
O O15 0.605684 0.942943 0.405650
O O16 0.000000 0.000000 0.534341
#
# Coordination Sequence:
#
# PCOD9380419 Si02
#       7
#     8   8   8   8   8   8   8
#     4  11  24  42  69  99 132 175 229 277 332 406
#     4  12  24  43  65  97 131 177 225 277 337 412
#     4  12  24  42  66  95 136 175 219 282 343 405
#     4  11  25  43  65  97 133 173 222 278 344 404
#     4  11  24  42  70  96 131 176 225 278 330 399
#     4  10  22  38  63  98 130 167 216 274 337 393
#     4  11  21  39  66  98 130 168 221 277 333 405
#
# _framework density 20.879942
#
# number of rings (size 3 to 8) (size 9 to 14) (size 15 to 20)
#    0.000    0.857    4.286    2.143    4.000    6.857 
#    0.000    0.000    0.000    5.143    0.000    0.000 
#    0.000    0.000    0.000    0.000    0.000    0.000 
#
# Total GULP energy -156158.181696 kJ/mol
# GULP energy per Si atom -5577.077918 kJ/mol
# Density = 2.083242 g / cm^3
# Si number density = 20.879942 Si / 1000 Ang^3
#
#
#
# Elastic Constant Matrix: (Units=GPa)
#
#
# Indices 1 2 3 4 5 6 
#
# 1 79.9698 15.5638 14.4468 0.0000 0.0000 0.0000
# 2 15.5638 104.6887 10.2779 0.0000 0.0000 0.0000
# 3 14.4468 10.2779 93.4444 0.0000 0.0000 0.0000
# 4 0.0000 0.0000 0.0000 17.3022 0.0000 0.0000
# 5 0.0000 0.0000 0.0000 0.0000 16.4133 0.0000
# 6 0.0000 0.0000 0.0000 0.0000 0.0000 21.5660
#
#
#
# Elastic Compliance Matrix: (Units=1/GPa)
#
#
# Indices 1 2 3 4 5 6 
#
# 1 0.013184 -0.001779 -0.001843 0.000000 0.000000 0.000000
# 2 -0.001779 0.009896 -0.000813 0.000000 0.000000 0.000000
# 3 -0.001843 -0.000813 0.011076 0.000000 0.000000 0.000000
# 4 0.000000 0.000000 0.000000 0.057796 0.000000 0.000000
# 5 0.000000 0.000000 0.000000 0.000000 0.060926 0.000000
# 6 0.000000 0.000000 0.000000 0.000000 0.000000 0.046369
#
#
# Mechanical properties :
#
#
# Convention : Reuss Voigt Hill
#
# Bulk Modulus (GPa) = 39.54769 39.85333 39.70051
# Shear Modulus (GPa) = 23.08970 26.91060 25.00015
#
# Velocity S-wave (km/s) = 3.32901 3.59392 3.46400
# Velocity P-wave (km/s) = 5.81017 6.02909 5.92064
#
# Compressibility (1/GPa) = 0.02528593
#
# Stress axis : x y z
#
# Youngs Moduli (GPa) = 75.85045 101.04596 90.28618
#
# Poissons Ratio (x) = 0.17977 0.16636
# Poissons Ratio (y) = 0.13495 0.07344
# Poissons Ratio (z) = 0.13976 0.08220
#
# Static dielectric constant tensor:
#      x y z
#    x 1.791260 0.000000 0.000000 
#    y 0.000000 1.773520 0.000000 
#    z 0.000000 0.000000 1.765390 
# 
# From -- ./inp_files/15969.got.cif
#   From: 2010.05.17/outbox.cif.g08.bks.cpg/sg46_8_cif.got.tgz:15969.got - 2010.06.03 19:58:25.
