data_PCOD9380917
_publ_section_title
;
Structure prediction by ZEFSAII (Michael W. Deem and Ramdas Pophale) SiO2 
 PCOD9380917
Probable space group: I M A 2
;
_chemical_formula_sum "Si O2"
_cell_formula_units_Z 40
_cell_length_a 14.824990
_cell_length_b 15.694389
_cell_length_c 7.789867
_cell_angle_alpha 90.000000
_cell_angle_beta 90.000000
_cell_angle_gamma 90.000000
_cell_volume 1812.461811
_symmetry_space_group_name_H-M "I M A 2"
_symmetry_group_IT_number 46
_symmetry_cell_setting 'orthorhombic'
loop_
_space_group_symop_operation_xyz
x,y,z
-x,-y,z
1/2-x,y,z
1/2+x,-y,z
1/2+x,1/2+y,1/2+z
1/2-x,1/2-y,1/2+z
-x,1/2+y,1/2+z
x,1/2-y,1/2+z
loop_
_atom_site_type_symbol
_atom_site_label
_atom_site_fract_x
_atom_site_fract_y
_atom_site_fract_z
Si Si1 0.559778 0.581223 0.935000
Si Si2 0.100553 0.464390 0.324674
Si Si3 0.648613 0.350610 0.393171
Si Si4 0.529211 0.267779 0.098833
Si Si5 0.647564 0.664659 0.624754
O O1 0.500000 0.500000 0.886002
O O2 0.491346 0.661306 0.953893
O O3 0.631288 0.603962 0.788967
O O4 0.602043 0.562161 0.123878
O O5 0.155581 0.548277 0.374784
O O6 0.125953 0.387880 0.451216
O O7 0.000000 0.500000 0.356263
O O8 0.750000 0.314491 0.393611
O O9 0.589999 0.313148 0.548903
O O10 0.586755 0.318563 0.237187
O O11 0.428491 0.236795 0.141896
O O12 0.750000 0.696388 0.620483
#
# Coordination Sequence:
#
# PCOD9380917 Si02
#       5
#     8   8   8   8   8
#     4  11  24  46  72  97 140 187 227 284 350 404
#     4  11  22  48  74  97 141 187 228 287 348 410
#     4  12  25  44  73 103 134 183 233 286 353 412
#     4  12  23  47  69  98 147 176 227 297 340 410
#     4  12  27  44  72 107 140 185 233 281 352 421
#
# _framework density 22.069430000000001
#
# number of rings (size 3 to 8) (size 9 to 14) (size 15 to 20)
#    0.000    0.400    8.000    1.800    0.000    2.400 
#    0.000    0.000    0.000    0.000    0.000    0.000 
#    0.000    0.000    0.000    0.000    0.000    0.000 
#
# Total GULP energy -111751.640040 kJ/mol
# GULP energy per Si atom -5587.582002 kJ/mol
# Density = 2.201920 g / cm^3
# Si number density = 22.069430 Si / 1000 Ang^3
#
#
#
# Elastic Constant Matrix: (Units=GPa)
#
#
# Indices 1 2 3 4 5 6 
#
# 1 176.9417 32.4089 25.6776 0.0000 0.0000 0.0000
# 2 32.4089 91.4904 4.5829 0.0000 0.0000 0.0000
# 3 25.6776 4.5829 57.5602 0.0000 0.0000 0.0000
# 4 0.0000 0.0000 0.0000 10.8683 0.0000 0.0000
# 5 0.0000 0.0000 0.0000 0.0000 -45.3835 0.0000
# 6 0.0000 0.0000 0.0000 0.0000 0.0000 24.7999
#
#
#
# Elastic Compliance Matrix: (Units=1/GPa)
#
#
# Indices 1 2 3 4 5 6 
#
# 1 0.006436 -0.002145 -0.002700 0.000000 0.000000 0.000000
# 2 -0.002145 0.011689 0.000026 0.000000 0.000000 0.000000
# 3 -0.002700 0.000026 0.018576 0.000000 0.000000 0.000000
# 4 0.000000 0.000000 0.000000 0.092011 0.000000 0.000000
# 5 0.000000 0.000000 0.000000 0.000000 -0.022034 0.000000
# 6 0.000000 0.000000 0.000000 0.000000 0.000000 0.040323
#
#
# Mechanical properties :
#
#
# Convention : Reuss Voigt Hill
#
# Bulk Modulus (GPa) = 36.95157 50.14789 43.54973
# Shear Modulus (GPa) = 30.18256 15.61179 22.89718
#
# Velocity S-wave (km/s) = 3.70214 2.66257 3.22453
# Velocity P-wave (km/s) = 5.92066 5.67666 5.79994
#
# Compressibility (1/GPa) = 0.02706245
#
# Stress axis : x y z
#
# Youngs Moduli (GPa) = 155.36901 85.55410 53.83370
#
# Poissons Ratio (x) = 0.18349 0.14538
# Poissons Ratio (y) = 0.33322 -0.00141
# Poissons Ratio (z) = 0.41957 -0.00223
#
# Static dielectric constant tensor:
#      x y z
#    x 1.814810 0.000000 0.000000 
#    y 0.000000 1.824380 0.000000 
#    z 0.000000 0.000000 1.876530 
# 
# From -- ./inp_files/5402.got.cif
#   From: 2010.05.17/outbox.cif.g08.bks.cpg/sg46_3_cif.got.tgz:5402.got - 2010.06.03 19:58:25.
