data_PCOD9380464
_publ_section_title
;
Structure prediction by ZEFSAII (Michael W. Deem and Ramdas Pophale) SiO2 
 PCOD9380464
Probable space group: I M A 2
;
_chemical_formula_sum "Si O2"
_cell_formula_units_Z 40
_cell_length_a 7.895901
_cell_length_b 14.410937
_cell_length_c 14.254752
_cell_angle_alpha 90.000000
_cell_angle_beta 90.000000
_cell_angle_gamma 90.000000
_cell_volume 1622.010197
_symmetry_space_group_name_H-M "I M A 2"
_symmetry_group_IT_number 46
_symmetry_cell_setting 'orthorhombic'
loop_
_space_group_symop_operation_xyz
x,y,z
-x,-y,z
1/2-x,y,z
1/2+x,-y,z
1/2+x,1/2+y,1/2+z
1/2-x,1/2-y,1/2+z
-x,1/2+y,1/2+z
x,1/2-y,1/2+z
loop_
_atom_site_type_symbol
_atom_site_label
_atom_site_fract_x
_atom_site_fract_y
_atom_site_fract_z
Si Si1 0.048461 0.606576 0.807460
Si Si2 0.062268 0.599603 0.322700
Si Si3 0.002285 0.250197 0.666666
Si Si4 0.945278 0.893358 0.025405
Si Si5 0.548245 0.106649 0.527489
O O1 0.250000 0.621106 0.786779
O O2 0.000000 0.500000 0.790940
O O3 0.939272 0.673752 0.742583
O O4 0.023994 0.626241 0.917445
O O5 0.250000 0.583837 0.360883
O O6 0.000000 0.500000 0.285460
O O7 0.069370 0.676641 0.242926
O O8 0.957285 0.627089 0.414445
O O9 0.941221 0.324744 0.587842
O O10 0.063118 0.173273 0.592120
O O11 0.750000 0.880039 0.055192
O O12 0.000000 0.000000 0.038087
O O13 0.750000 0.120753 0.548928
O O14 0.500000 0.000000 0.542881
#
# Coordination Sequence:
#
# PCOD9380464 Si02
#       5
#     8   8   8   8   8
#     4  10  22  40  61  87 121 161 204 253 311 375
#     4  11  24  43  68  97 134 177 220 272 330 393
#     4  12  24  38  65  98 126 164 214 266 323 383
#     4  11  26  46  68  95 132 176 221 274 331 393
#     4  10  22  41  63  89 125 166 208 257 315 380
#
# _framework density 24.660755999999999
#
# number of rings (size 3 to 8) (size 9 to 14) (size 15 to 20)
#    0.000    1.200    0.000    6.600    0.000   11.200 
#    0.000    4.000    0.000    0.000    0.000    0.000 
#    0.000    0.000    0.000    0.000    0.000    0.000 
#
# Total GULP energy -111432.463864 kJ/mol
# GULP energy per Si atom -5571.623193 kJ/mol
# Density = 2.460463 g / cm^3
# Si number density = 24.660756 Si / 1000 Ang^3
#
#
#
# Elastic Constant Matrix: (Units=GPa)
#
#
# Indices 1 2 3 4 5 6 
#
# 1 125.5281 36.8067 40.7661 0.0000 0.0000 0.0000
# 2 36.8067 175.6030 102.4086 0.0000 0.0000 0.0000
# 3 40.7661 102.4086 171.9452 0.0000 0.0000 0.0000
# 4 0.0000 0.0000 0.0000 69.1463 0.0000 0.0000
# 5 0.0000 0.0000 0.0000 0.0000 -6.2262 0.0000
# 6 0.0000 0.0000 0.0000 0.0000 0.0000 -15.0898
#
#
#
# Elastic Compliance Matrix: (Units=1/GPa)
#
#
# Indices 1 2 3 4 5 6 
#
# 1 0.008734 -0.000955 -0.001502 0.000000 0.000000 0.000000
# 2 -0.000955 0.008830 -0.005032 0.000000 0.000000 0.000000
# 3 -0.001502 -0.005032 0.009169 0.000000 0.000000 0.000000
# 4 0.000000 0.000000 0.000000 0.014462 0.000000 0.000000
# 5 0.000000 0.000000 0.000000 0.000000 -0.160612 0.000000
# 6 0.000000 0.000000 0.000000 0.000000 0.000000 -0.066270
#
#
# Mechanical properties :
#
#
# Convention : Reuss Voigt Hill
#
# Bulk Modulus (GPa) = 85.07483 92.55989 88.81736
# Shear Modulus (GPa) = -29.97782 29.10573 -0.43604
#
# Velocity S-wave (km/s) = -3.49034 3.43920 -0.42095
# Velocity P-wave (km/s) = 4.28131 7.30654 5.98812
#
# Compressibility (1/GPa) = 0.01175436
#
# Stress axis : x y z
#
# Youngs Moduli (GPa) = 114.49381 113.25528 109.06027
#
# Poissons Ratio (x) = 0.10812 0.16383
# Poissons Ratio (y) = 0.10930 0.54884
# Poissons Ratio (z) = 0.17199 0.56996
#
# Static dielectric constant tensor:
#      x y z
#    x 2.111780 0.000000 0.000000 
#    y 0.000000 1.897600 0.000000 
#    z 0.000000 0.000000 1.885190 
# 
# From -- ./inp_files/13657.got.cif
#   From: 2010.05.17/outbox.cif.g08.bks.cpg/sg46_7_cif.got.tgz:13657.got - 2010.06.03 19:58:25.
