data_PCOD9380603
_publ_section_title
;
Structure prediction by ZEFSAII (Michael W. Deem and Ramdas Pophale) SiO2 
 PCOD9380603
Probable space group: I M A 2
;
_chemical_formula_sum "Si O2"
_cell_formula_units_Z 32
_cell_length_a 17.590767
_cell_length_b 4.727802
_cell_length_c 13.761208
_cell_angle_alpha 90.000000
_cell_angle_beta 90.000000
_cell_angle_gamma 90.000000
_cell_volume 1144.459993
_symmetry_space_group_name_H-M "I M A 2"
_symmetry_group_IT_number 46
_symmetry_cell_setting 'orthorhombic'
loop_
_space_group_symop_operation_xyz
x,y,z
-x,-y,z
1/2-x,y,z
1/2+x,-y,z
1/2+x,1/2+y,1/2+z
1/2-x,1/2-y,1/2+z
-x,1/2+y,1/2+z
x,1/2-y,1/2+z
loop_
_atom_site_type_symbol
_atom_site_label
_atom_site_fract_x
_atom_site_fract_y
_atom_site_fract_z
Si Si1 0.075963 0.691984 0.352760
Si Si2 0.920957 0.624969 0.687080
Si Si3 0.885885 0.343099 0.069169
Si Si4 0.750000 0.343344 0.354103
Si Si5 0.750000 0.837227 0.473039
O O1 0.073240 0.750381 0.468642
O O2 0.162255 0.575558 0.324705
O O3 0.000000 0.500000 0.331547
O O4 0.078246 0.991779 0.295129
O O5 0.860837 0.433155 0.628529
O O6 0.000000 0.500000 0.645103
O O7 0.919457 0.944896 0.651196
O O8 0.821374 0.541632 0.026898
O O9 0.750000 0.507435 0.456566
O O10 0.750000 0.005722 0.368963
#
# Coordination Sequence:
#
# PCOD9380603 Si02
#       5
#     8   8   8   4   4
#     4  11  26  50  80 114 155 205 254 321 388 452
#     4  12  27  44  69 111 147 193 261 308 372 470
#     4  11  25  46  73 105 151 199 246 317 384 443
#     4  10  24  44  74 112 147 192 260 308 371 466
#     4  10  22  44  70 106 147 198 256 306 375 466
#
# _framework density 27.960781999999998
#
# number of rings (size 3 to 8) (size 9 to 14) (size 15 to 20)
#    0.000    1.000    0.000    6.000    0.000   18.000 
#    0.000    0.000    0.000    1.500    0.000    1.750 
#    0.000    0.000    0.000    0.000    0.000    0.000 
#
# Total GULP energy -89146.957963 kJ/mol
# GULP energy per Si atom -5571.684873 kJ/mol
# Density = 2.789714 g / cm^3
# Si number density = 27.960782 Si / 1000 Ang^3
#
#
#
# Elastic Constant Matrix: (Units=GPa)
#
#
# Indices 1 2 3 4 5 6 
#
# 1 179.4567 31.1759 35.0897 0.0000 0.0000 0.0000
# 2 31.1759 170.8765 34.4120 0.0000 0.0000 0.0000
# 3 35.0897 34.4120 185.7532 0.0000 0.0000 0.0000
# 4 0.0000 0.0000 0.0000 58.8970 0.0000 0.0000
# 5 0.0000 0.0000 0.0000 0.0000 60.3798 0.0000
# 6 0.0000 0.0000 0.0000 0.0000 0.0000 27.2880
#
#
#
# Elastic Compliance Matrix: (Units=1/GPa)
#
#
# Indices 1 2 3 4 5 6 
#
# 1 0.005913 -0.000887 -0.000953 0.000000 0.000000 0.000000
# 2 -0.000887 0.006212 -0.000983 0.000000 0.000000 0.000000
# 3 -0.000953 -0.000983 0.005746 0.000000 0.000000 0.000000
# 4 0.000000 0.000000 0.000000 0.016979 0.000000 0.000000
# 5 0.000000 0.000000 0.000000 0.000000 0.016562 0.000000
# 6 0.000000 0.000000 0.000000 0.000000 0.000000 0.036646
#
#
# Mechanical properties :
#
#
# Convention : Reuss Voigt Hill
#
# Bulk Modulus (GPa) = 81.80163 81.93795 81.86979
# Shear Modulus (GPa) = 51.13645 58.34021 54.73833
#
# Velocity S-wave (km/s) = 4.28116 4.57278 4.42937
# Velocity P-wave (km/s) = 7.33193 7.56628 7.45003
#
# Compressibility (1/GPa) = 0.01222469
#
# Stress axis : x y z
#
# Youngs Moduli (GPa) = 169.12679 160.97847 174.04616
#
# Poissons Ratio (x) = 0.14277 0.16580
# Poissons Ratio (y) = 0.15000 0.17113
# Poissons Ratio (z) = 0.16112 0.15829
#
# Static dielectric constant tensor:
#      x y z
#    x 1.795150 0.000000 0.000000 
#    y 0.000000 2.227050 0.000000 
#    z 0.000000 0.000000 2.285810 
# 
# From -- ./inp_files/16289.got.cif
#   From: 2010.05.17/outbox.cif.g08.bks.cpg/sg46_9_cif.got.tgz:16289.got - 2010.06.03 19:58:25.
