data_PCOD9380363
_publ_section_title
;
Structure prediction by ZEFSAII (Michael W. Deem and Ramdas Pophale) SiO2 
 PCOD9380363
Probable space group: I M A 2
;
_chemical_formula_sum "Si O2"
_cell_formula_units_Z 48
_cell_length_a 23.489204
_cell_length_b 7.535568
_cell_length_c 13.500518
_cell_angle_alpha 90.000000
_cell_angle_beta 90.000000
_cell_angle_gamma 90.000000
_cell_volume 2389.652357
_symmetry_space_group_name_H-M "I M A 2"
_symmetry_group_IT_number 46
_symmetry_cell_setting 'orthorhombic'
loop_
_space_group_symop_operation_xyz
x,y,z
-x,-y,z
1/2-x,y,z
1/2+x,-y,z
1/2+x,1/2+y,1/2+z
1/2-x,1/2-y,1/2+z
-x,1/2+y,1/2+z
x,1/2-y,1/2+z
loop_
_atom_site_type_symbol
_atom_site_label
_atom_site_fract_x
_atom_site_fract_y
_atom_site_fract_z
Si Si1 0.250000 0.895843 0.195460
Si Si2 0.250000 0.209131 0.328646
Si Si3 0.158391 0.964214 0.036567
Si Si4 0.073170 0.673779 0.028134
Si Si5 0.980848 0.815656 0.349297
Si Si6 0.750000 0.395522 0.366724
Si Si7 0.639226 0.845666 0.459860
Si Si8 0.000000 0.500000 0.199276
O O1 0.194583 0.884910 0.127048
O O2 0.250000 0.765432 0.289541
O O3 0.250000 0.097861 0.230474
O O4 0.250000 0.417845 0.309468
O O5 0.305501 0.155047 0.391089
O O6 0.098260 0.868477 0.039507
O O7 0.194889 0.908537 0.938802
O O8 0.149878 0.177279 0.032475
O O9 0.125220 0.538819 0.003812
O O10 0.026581 0.688642 0.939987
O O11 0.045345 0.587923 0.124947
O O12 0.918313 0.813250 0.397202
O O13 0.981702 0.657007 0.272065
O O14 0.000000 0.000000 0.297881
#
# Coordination Sequence:
#
# PCOD9380363 Si02
#       8
#     4   4   8   8   8   4   8   4
#     4  11  23  39  58  98 127 163 219 264 313 394
#     4  10  22  38  66  92 124 174 212 260 332 375
#     4  10  23  38  64  91 127 171 212 263 323 379
#     4  11  23  43  63  94 130 168 217 272 326 387
#     4  10  23  44  64  92 131 165 219 272 320 389
#     4   9  21  43  60  90 131 171 209 258 323 377
#     4  10  21  43  65  89 131 167 210 274 324 379
#     4  12  24  40  68  96 122 174 220 256 338 386
#
# _framework density 20.086603
#
# number of rings (size 3 to 8) (size 9 to 14) (size 15 to 20)
#    0.000    1.667    2.500    2.500    0.000   11.333 
#    1.500    1.667    0.000    0.000    0.000    0.000 
#    0.000    0.000    0.000    0.000    0.000    0.000 
#
# Total GULP energy -133871.524415 kJ/mol
# GULP energy per Si atom -5577.980184 kJ/mol
# Density = 2.004088 g / cm^3
# Si number density = 20.086603 Si / 1000 Ang^3
#
#
#
# Elastic Constant Matrix: (Units=GPa)
#
#
# Indices 1 2 3 4 5 6 
#
# 1 80.9722 15.8276 -1.4994 0.0000 0.0000 0.0000
# 2 15.8276 43.9577 34.8496 0.0000 0.0000 0.0000
# 3 -1.4994 34.8496 54.3560 0.0000 0.0000 0.0000
# 4 0.0000 0.0000 0.0000 42.2597 0.0000 0.0000
# 5 0.0000 0.0000 0.0000 0.0000 48.6436 0.0000
# 6 0.0000 0.0000 0.0000 0.0000 0.0000 30.1785
#
#
#
# Elastic Compliance Matrix: (Units=1/GPa)
#
#
# Indices 1 2 3 4 5 6 
#
# 1 0.014730 -0.011441 0.007742 0.000000 0.000000 0.000000
# 2 -0.011441 0.055153 -0.035676 0.000000 0.000000 0.000000
# 3 0.007742 -0.035676 0.041484 0.000000 0.000000 0.000000
# 4 0.000000 0.000000 0.000000 0.023663 0.000000 0.000000
# 5 0.000000 0.000000 0.000000 0.000000 0.020558 0.000000
# 6 0.000000 0.000000 0.000000 0.000000 0.000000 0.033136
#
#
# Mechanical properties :
#
#
# Convention : Reuss Voigt Hill
#
# Bulk Modulus (GPa) = 30.66051 30.84907 30.75479
# Shear Modulus (GPa) = 17.96321 32.89020 25.42671
#
# Velocity S-wave (km/s) = 2.99371 4.05089 3.56174
# Velocity P-wave (km/s) = 5.21987 6.10500 5.67970
#
# Compressibility (1/GPa) = 0.03261524
#
# Stress axis : x y z
#
# Youngs Moduli (GPa) = 67.88999 18.13145 24.10567
#
# Poissons Ratio (x) = 0.20745 -0.18662
# Poissons Ratio (y) = 0.77675 0.86000
# Poissons Ratio (z) = -0.52559 0.64686
#
# Static dielectric constant tensor:
#      x y z
#    x 1.668340 0.000000 0.000000 
#    y 0.000000 1.707390 0.000000 
#    z 0.000000 0.000000 1.699690 
# 
# From -- ./inp_files/12755.got.cif
#   From: 2010.05.17/outbox.cif.g08.bks.cpg/sg46_7_cif.got.tgz:12755.got - 2010.06.03 19:58:25.
