data_PCOD9380307
_publ_section_title
;
Structure prediction by ZEFSAII (Michael W. Deem and Ramdas Pophale) SiO2 
 PCOD9380307
Probable space group: I M A 2
;
_chemical_formula_sum "Si O2"
_cell_formula_units_Z 40
_cell_length_a 22.053156
_cell_length_b 4.986907
_cell_length_c 14.567564
_cell_angle_alpha 90.000000
_cell_angle_beta 90.000000
_cell_angle_gamma 90.000000
_cell_volume 1602.097540
_symmetry_space_group_name_H-M "I M A 2"
_symmetry_group_IT_number 46
_symmetry_cell_setting 'orthorhombic'
loop_
_space_group_symop_operation_xyz
x,y,z
-x,-y,z
1/2-x,y,z
1/2+x,-y,z
1/2+x,1/2+y,1/2+z
1/2-x,1/2-y,1/2+z
-x,1/2+y,1/2+z
x,1/2-y,1/2+z
loop_
_atom_site_type_symbol
_atom_site_label
_atom_site_fract_x
_atom_site_fract_y
_atom_site_fract_z
Si Si1 0.037715 0.262852 0.416710
Si Si2 0.815840 0.036789 0.863678
Si Si3 0.652410 0.516988 0.969269
Si Si4 0.181726 0.151416 0.665446
Si Si5 0.455779 0.257962 0.204939
O O1 0.089635 0.168676 0.483116
O O2 0.057161 0.337490 0.312851
O O3 0.000000 0.500000 0.458565
O O4 0.000000 0.000000 0.400727
O O5 0.750000 0.149756 0.890776
O O6 0.859027 0.237285 0.918325
O O7 0.817448 0.731900 0.899817
O O8 0.820335 0.038848 0.754667
O O9 0.682054 0.499134 0.068224
O O10 0.250000 0.287297 0.671427
O O11 0.114477 0.291446 0.671438
O O12 0.500000 0.500000 0.168878
O O13 0.500000 0.000000 0.199011
#
# Coordination Sequence:
#
# PCOD9380307 Si02
#       5
#     8   8   8   8   8
#     4  10  21  40  69 102 138 190 241 297 363 441
#     4  11  25  45  68 101 148 195 241 306 368 429
#     4  12  25  45  73 104 146 194 250 302 369 444
#     4  11  26  47  76 114 151 198 253 307 372 451
#     4  10  23  43  72 105 143 193 244 299 368 442
#
# _framework density 24.967269000000002
#
# number of rings (size 3 to 8) (size 9 to 14) (size 15 to 20)
#    0.000    1.200    2.000    3.000    5.600    4.800 
#    0.000    5.000    0.000    0.000    0.000    0.000 
#    0.000    0.000    0.000    0.000    0.000    0.000 
#
# Total GULP energy -111485.343346 kJ/mol
# GULP energy per Si atom -5574.267167 kJ/mol
# Density = 2.491044 g / cm^3
# Si number density = 24.967269 Si / 1000 Ang^3
#
#
#
# Elastic Constant Matrix: (Units=GPa)
#
#
# Indices 1 2 3 4 5 6 
#
# 1 168.2333 12.7284 8.0608 0.0000 0.0000 0.0000
# 2 12.7284 104.4467 16.0569 0.0000 0.0000 0.0000
# 3 8.0608 16.0569 145.0231 0.0000 0.0000 0.0000
# 4 0.0000 0.0000 0.0000 7.4873 0.0000 0.0000
# 5 0.0000 0.0000 0.0000 0.0000 214.0003 0.0000
# 6 0.0000 0.0000 0.0000 0.0000 0.0000 27.9264
#
#
#
# Elastic Compliance Matrix: (Units=1/GPa)
#
#
# Indices 1 2 3 4 5 6 
#
# 1 0.006009 -0.000693 -0.000257 0.000000 0.000000 0.000000
# 2 -0.000693 0.009820 -0.001049 0.000000 0.000000 0.000000
# 3 -0.000257 -0.001049 0.007026 0.000000 0.000000 0.000000
# 4 0.000000 0.000000 0.000000 0.133559 0.000000 0.000000
# 5 0.000000 0.000000 0.000000 0.000000 0.004673 0.000000
# 6 0.000000 0.000000 0.000000 0.000000 0.000000 0.035808
#
#
# Mechanical properties :
#
#
# Convention : Reuss Voigt Hill
#
# Bulk Modulus (GPa) = 53.03036 54.59947 53.81492
# Shear Modulus (GPa) = 24.13380 75.27327 49.70354
#
# Velocity S-wave (km/s) = 3.11242 5.49675 4.46662
# Velocity P-wave (km/s) = 5.84827 7.88679 6.94276
#
# Compressibility (1/GPa) = 0.01885712
#
# Stress axis : x y z
#
# Youngs Moduli (GPa) = 166.42078 101.83397 142.33113
#
# Poissons Ratio (x) = 0.07054 0.03662
# Poissons Ratio (y) = 0.11528 0.14927
# Poissons Ratio (z) = 0.04282 0.10680
#
# Static dielectric constant tensor:
#      x y z
#    x 2.011290 0.000000 0.000000 
#    y 0.000000 1.886990 0.000000 
#    z 0.000000 0.000000 2.009630 
# 
# From -- ./inp_files/17264.got.cif
#   From: 2010.05.17/outbox.cif.g08.bks.cpg/sg46_9_cif.got.tgz:17264.got - 2010.06.03 19:58:25.
