data_PCOD9380717
_publ_section_title
;
Structure prediction by ZEFSAII (Michael W. Deem and Ramdas Pophale) SiO2 
 PCOD9380717
Probable space group: I M A 2
;
_chemical_formula_sum "Si O2"
_cell_formula_units_Z 24
_cell_length_a 7.892796
_cell_length_b 19.160961
_cell_length_c 8.930376
_cell_angle_alpha 90.000000
_cell_angle_beta 90.000000
_cell_angle_gamma 90.000000
_cell_volume 1350.572522
_symmetry_space_group_name_H-M "I M A 2"
_symmetry_group_IT_number 46
_symmetry_cell_setting 'orthorhombic'
loop_
_space_group_symop_operation_xyz
x,y,z
-x,-y,z
1/2-x,y,z
1/2+x,-y,z
1/2+x,1/2+y,1/2+z
1/2-x,1/2-y,1/2+z
-x,1/2+y,1/2+z
x,1/2-y,1/2+z
loop_
_atom_site_type_symbol
_atom_site_label
_atom_site_fract_x
_atom_site_fract_y
_atom_site_fract_z
Si Si1 0.057051 0.919547 0.250000
Si Si2 0.750000 0.822519 0.764289
Si Si3 0.940492 0.925550 0.573581
Si Si4 0.250000 0.170060 0.119969
O O1 0.250000 0.909868 0.197633
O O2 0.048675 0.905625 0.429352
O O3 0.917608 0.871425 0.171565
O O4 0.000000 0.000000 0.230293
O O5 0.909665 0.866349 0.696898
O O6 0.750000 0.745572 0.697420
O O7 0.750000 0.821907 0.941619
O O8 0.750000 0.937327 0.510248
O O9 0.000000 0.000000 0.636168
#
# Coordination Sequence:
#
# PCOD9380717 Si02
#       4
#     8   4   8   4
#     4  11  20  37  65  92 121 162 203 249 301 367
#     4  10  24  38  66  82 131 168 189 270 300 356
#     4   9  17  36  60  93 117 158 201 241 302 355
#     4  12  22  44  58  90 129 158 213 242 316 358
#
# _framework density 17.770240999999999
#
# number of rings (size 3 to 8) (size 9 to 14) (size 15 to 20)
#    1.000    0.667    3.333    5.000    0.000    1.333 
#    0.000   10.000    0.000    0.000    0.000    0.000 
#    0.000    0.000    0.000    0.000    0.000    0.000 
#
# Total GULP energy -66848.721058 kJ/mol
# GULP energy per Si atom -5570.726755 kJ/mol
# Density = 1.772980 g / cm^3
# Si number density = 17.770241 Si / 1000 Ang^3
#
#
#
# Elastic Constant Matrix: (Units=GPa)
#
#
# Indices 1 2 3 4 5 6 
#
# 1 134.8713 58.8980 45.1174 0.0000 0.0001 0.0000
# 2 58.8980 147.3159 98.2954 -0.0001 0.0001 0.0000
# 3 45.1174 98.2954 129.2869 0.0001 0.0001 -0.0003
# 4 0.0000 -0.0001 0.0001 31.4379 0.0000 0.0000
# 5 0.0001 0.0001 0.0001 0.0000 24.1105 0.0000
# 6 0.0000 0.0000 -0.0003 0.0000 0.0000 28.6539
#
#
#
# Elastic Compliance Matrix: (Units=1/GPa)
#
#
# Indices 1 2 3 4 5 6 
#
# 1 0.009026 -0.003059 -0.000824 0.000000 0.000000 0.000000
# 2 -0.003059 0.014814 -0.010195 0.000000 0.000000 0.000000
# 3 -0.000824 -0.010195 0.015774 0.000000 0.000000 0.000000
# 4 0.000000 0.000000 0.000000 0.031809 0.000000 0.000000
# 5 0.000000 0.000000 0.000000 0.000000 0.041476 0.000000
# 6 0.000000 0.000000 0.000000 0.000000 0.000000 0.034899
#
#
# Mechanical properties :
#
#
# Convention : Reuss Voigt Hill
#
# Bulk Modulus (GPa) = 87.28396 90.67731 88.98063
# Shear Modulus (GPa) = 27.81286 30.78468 29.29877
#
# Velocity S-wave (km/s) = 3.96047 4.16669 4.06489
# Velocity P-wave (km/s) = 8.37487 8.61898 8.49780
#
# Compressibility (1/GPa) = 0.01145686
#
# Stress axis : x y z
#
# Youngs Moduli (GPa) = 110.79205 67.50471 63.39593
#
# Poissons Ratio (x) = 0.20647 0.05226
# Poissons Ratio (y) = 0.33886 0.64635
# Poissons Ratio (z) = 0.09134 0.68824
#
# Static dielectric constant tensor:
#      x y z
#    x 1.625290 0.000000 0.000000 
#    y 0.000000 1.600710 0.000000 
#    z 0.000000 0.000000 1.590900 
# 
# From -- ./inp_files/3265.got.cif
#   From: 2010.05.17/outbox.cif.g08.bks.cpg/sg46_2_cif.got.tgz:3265.got - 2010.06.03 19:58:25.
