data_PCOD9380505
_publ_section_title
;
Structure prediction by ZEFSAII (Michael W. Deem and Ramdas Pophale) SiO2 
 PCOD9380505
Probable space group: I M A 2
;
_chemical_formula_sum "Si O2"
_cell_formula_units_Z 64
_cell_length_a 30.697287
_cell_length_b 9.211983
_cell_length_c 10.876405
_cell_angle_alpha 90.000000
_cell_angle_beta 90.000000
_cell_angle_gamma 90.000000
_cell_volume 3075.661195
_symmetry_space_group_name_H-M "I M A 2"
_symmetry_group_IT_number 46
_symmetry_cell_setting 'orthorhombic'
loop_
_space_group_symop_operation_xyz
x,y,z
-x,-y,z
1/2-x,y,z
1/2+x,-y,z
1/2+x,1/2+y,1/2+z
1/2-x,1/2-y,1/2+z
-x,1/2+y,1/2+z
x,1/2-y,1/2+z
loop_
_atom_site_type_symbol
_atom_site_label
_atom_site_fract_x
_atom_site_fract_y
_atom_site_fract_z
Si Si1 0.198262 0.807762 0.158470
Si Si2 0.852961 0.475296 0.245768
Si Si3 0.030432 0.800112 0.085759
Si Si4 0.634565 0.992034 0.306541
Si Si5 0.638269 0.796250 0.533529
Si Si6 0.923701 0.270975 0.335665
Si Si7 0.699306 0.952063 0.974030
Si Si8 0.434687 0.374864 0.612159
O O1 0.250000 0.787461 0.181226
O O2 0.171078 0.660783 0.179004
O O3 0.175724 0.930174 0.243316
O O4 0.192423 0.884270 0.025854
O O5 0.867499 0.592946 0.146161
O O6 0.891553 0.409374 0.330785
O O7 0.818908 0.549441 0.337132
O O8 0.056661 0.728057 0.197786
O O9 0.980132 0.790690 0.125950
O O10 0.048359 0.964800 0.083447
O O11 0.041307 0.756478 0.945603
O O12 0.649750 0.891024 0.415912
O O13 0.600933 0.901704 0.219842
O O14 0.605797 0.128255 0.351553
O O15 0.674020 0.671007 0.549832
O O16 0.593203 0.710740 0.511818
O O17 0.750000 0.922887 0.980303
#
# Coordination Sequence:
#
# PCOD9380505 Si02
#       8
#     8   8   8   8   8   8   8   8
#     4  10  23  44  68  93 128 178 231 276 333 408
#     4  11  25  42  70  98 135 174 228 278 349 412
#     4  10  22  41  64  95 128 182 224 278 332 408
#     4  10  22  40  67  92 130 173 221 275 341 404
#     4  12  24  42  67 101 133 175 216 285 350 412
#     4  10  22  41  67  94 131 173 230 279 328 404
#     4  11  25  43  65  94 136 175 223 283 339 415
#     4  10  22  41  62  89 137 177 215 269 345 408
#
# _framework density 20.808536
#
# number of rings (size 3 to 8) (size 9 to 14) (size 15 to 20)
#    0.000    1.500    1.250    2.625    8.750    1.500 
#    2.250    1.250    0.000    0.000    0.000    0.000 
#    0.000    0.000    0.000    0.000    0.000    0.000 
#
# Total GULP energy -178463.889896 kJ/mol
# GULP energy per Si atom -5576.996559 kJ/mol
# Density = 2.076117 g / cm^3
# Si number density = 20.808536 Si / 1000 Ang^3
#
#
#
# Elastic Constant Matrix: (Units=GPa)
#
#
# Indices 1 2 3 4 5 6 
#
# 1 94.3904 28.0844 14.7662 0.0000 0.0000 0.0000
# 2 28.0844 76.3560 14.9309 0.0000 0.0000 0.0000
# 3 14.7662 14.9309 52.6850 0.0000 0.0000 0.0000
# 4 0.0000 0.0000 0.0000 22.6166 0.0000 0.0000
# 5 0.0000 0.0000 0.0000 0.0000 19.3090 0.0000
# 6 0.0000 0.0000 0.0000 0.0000 0.0000 10.3660
#
#
#
# Elastic Compliance Matrix: (Units=1/GPa)
#
#
# Indices 1 2 3 4 5 6 
#
# 1 0.012146 -0.004025 -0.002264 0.000000 0.000000 0.000000
# 2 -0.004025 0.015199 -0.003179 0.000000 0.000000 0.000000
# 3 -0.002264 -0.003179 0.020516 0.000000 0.000000 0.000000
# 4 0.000000 0.000000 0.000000 0.044215 0.000000 0.000000
# 5 0.000000 0.000000 0.000000 0.000000 0.051789 0.000000
# 6 0.000000 0.000000 0.000000 0.000000 0.000000 0.096469
#
#
# Mechanical properties :
#
#
# Convention : Reuss Voigt Hill
#
# Bulk Modulus (GPa) = 34.57155 37.66605 36.11880
# Shear Modulus (GPa) = 18.59348 21.50164 20.04756
#
# Velocity S-wave (km/s) = 2.99247 3.21800 3.10728
# Velocity P-wave (km/s) = 5.34697 5.65225 5.50173
#
# Compressibility (1/GPa) = 0.02892552
#
# Stress axis : x y z
#
# Youngs Moduli (GPa) = 82.33224 65.79574 48.74207
#
# Poissons Ratio (x) = 0.26481 0.11033
# Poissons Ratio (y) = 0.33137 0.15496
# Poissons Ratio (z) = 0.18637 0.20918
#
# Static dielectric constant tensor:
#      x y z
#    x 1.748570 0.000000 0.000000 
#    y 0.000000 1.752560 0.000000 
#    z 0.000000 0.000000 1.769080 
# 
# From -- ./inp_files/13199.got.cif
#   From: 2010.05.17/outbox.cif.g08.bks.cpg/sg46_7_cif.got.tgz:13199.got - 2010.06.03 19:58:25.
