data_PCOD9380530
_publ_section_title
;
Structure prediction by ZEFSAII (Michael W. Deem and Ramdas Pophale) SiO2 
 PCOD9380530
Probable space group: I M A 2
;
_chemical_formula_sum "Si O2"
_cell_formula_units_Z 44
_cell_length_a 7.154281
_cell_length_b 25.783818
_cell_length_c 10.283294
_cell_angle_alpha 90.000000
_cell_angle_beta 90.000000
_cell_angle_gamma 90.000000
_cell_volume 1896.904529
_symmetry_space_group_name_H-M "I M A 2"
_symmetry_group_IT_number 46
_symmetry_cell_setting 'orthorhombic'
loop_
_space_group_symop_operation_xyz
x,y,z
-x,-y,z
1/2-x,y,z
1/2+x,-y,z
1/2+x,1/2+y,1/2+z
1/2-x,1/2-y,1/2+z
-x,1/2+y,1/2+z
x,1/2-y,1/2+z
loop_
_atom_site_type_symbol
_atom_site_label
_atom_site_fract_x
_atom_site_fract_y
_atom_site_fract_z
Si Si1 0.475907 0.704607 0.633940
Si Si2 0.975815 0.416209 0.678301
Si Si3 0.476269 0.712493 0.343332
Si Si4 0.250000 0.049757 0.954341
Si Si5 0.530783 0.439827 0.971106
Si Si6 0.023925 0.903419 0.748873
O O1 0.250000 0.707095 0.634536
O O2 0.520592 0.644588 0.656389
O O3 0.538685 0.720744 0.490638
O O4 0.541334 0.743583 0.744698
O O5 0.750000 0.423420 0.664453
O O6 0.087835 0.446720 0.569239
O O7 0.036825 0.429612 0.825133
O O8 0.250000 0.714382 0.343820
O O9 0.523124 0.654369 0.298956
O O10 0.412925 0.057728 0.841035
O O11 0.500000 0.500000 0.000927
O O12 0.750000 0.428277 0.962579
O O13 0.466763 0.408930 0.098081
O O14 0.250000 0.910957 0.759609
#
# Coordination Sequence:
#
# PCOD9380530 Si02
#       6
#     8   8   8   4   8   8
#     4   9  17  31  56  87 123 164 211 259 310 376
#     4  10  22  41  65  95 128 168 215 266 321 379
#     4   9  17  31  56  87 123 164 211 259 310 376
#     4  12  22  38  70  90 128 174 200 264 322 386
#     4  10  24  44  71  94 129 167 215 272 321 387
#     4  10  22  41  65  95 128 168 215 266 321 379
#
# _framework density 23.195684
#
# number of rings (size 3 to 8) (size 9 to 14) (size 15 to 20)
#    0.000    2.182    1.818    0.545    5.091    0.000 
#    0.000    1.818    0.000    0.000    0.000    0.000 
#    0.000    0.000    0.000    0.000    0.000    0.000 
#
# Total GULP energy -122534.623046 kJ/mol
# GULP energy per Si atom -5569.755593 kJ/mol
# Density = 2.314289 g / cm^3
# Si number density = 23.195684 Si / 1000 Ang^3
#
#
#
# Elastic Constant Matrix: (Units=GPa)
#
#
# Indices 1 2 3 4 5 6 
#
# 1 150.1113 3.5641 20.2193 0.0001 0.0000 0.0000
# 2 3.5641 71.9173 9.8186 0.0001 0.0000 0.0000
# 3 20.2193 9.8186 114.3264 0.0003 0.0002 -0.0001
# 4 0.0001 0.0001 0.0003 49.0785 0.0001 0.0000
# 5 0.0000 0.0000 0.0002 0.0001 42.2928 0.0000
# 6 0.0000 0.0000 -0.0001 0.0000 0.0000 -2.5000
#
#
#
# Elastic Compliance Matrix: (Units=1/GPa)
#
#
# Indices 1 2 3 4 5 6 
#
# 1 0.006826 -0.000176 -0.001192 0.000000 0.000000 0.000000
# 2 -0.000176 0.014074 -0.001178 0.000000 0.000000 0.000000
# 3 -0.001192 -0.001178 0.009059 0.000000 0.000000 0.000000
# 4 0.000000 0.000000 0.000000 0.020376 0.000000 0.000000
# 5 0.000000 0.000000 0.000000 0.000000 0.023645 0.000000
# 6 0.000000 0.000000 0.000000 0.000000 0.000000 -0.399997
#
#
# Mechanical properties :
#
#
# Convention : Reuss Voigt Hill
#
# Bulk Modulus (GPa) = 40.21103 44.83987 42.52545
# Shear Modulus (GPa) = -15.99299 37.95778 10.98240
#
# Velocity S-wave (km/s) = -2.62865 4.04965 2.17829
# Velocity P-wave (km/s) = 2.85660 6.42179 4.96988
#
# Compressibility (1/GPa) = 0.02486880
#
# Stress axis : x y z
#
# Youngs Moduli (GPa) = 146.48836 71.05127 110.38889
#
# Poissons Ratio (x) = 0.01247 0.13161
# Poissons Ratio (y) = 0.02571 0.13000
# Poissons Ratio (z) = 0.17465 0.08368
#
# Static dielectric constant tensor:
#      x y z
#    x 1.904840 0.000000 0.000000 
#    y 0.000000 1.840780 0.000000 
#    z 0.000000 0.000000 1.823000 
# 
# From -- ./inp_files/3854.got.cif
#   From: 2010.05.17/outbox.cif.g08.bks.cpg/sg46_2_cif.got.tgz:3854.got - 2010.06.03 19:58:25.
