data_PCOD9380711
_publ_section_title
;
Structure prediction by ZEFSAII (Michael W. Deem and Ramdas Pophale) SiO2 
 PCOD9380711
Probable space group: I M A 2
;
_chemical_formula_sum "Si O2"
_cell_formula_units_Z 32
_cell_length_a 16.917701
_cell_length_b 10.375580
_cell_length_c 7.682366
_cell_angle_alpha 90.000000
_cell_angle_beta 90.000000
_cell_angle_gamma 90.000000
_cell_volume 1348.493080
_symmetry_space_group_name_H-M "I M A 2"
_symmetry_group_IT_number 46
_symmetry_cell_setting 'orthorhombic'
loop_
_space_group_symop_operation_xyz
x,y,z
-x,-y,z
1/2-x,y,z
1/2+x,-y,z
1/2+x,1/2+y,1/2+z
1/2-x,1/2-y,1/2+z
-x,1/2+y,1/2+z
x,1/2-y,1/2+z
loop_
_atom_site_type_symbol
_atom_site_label
_atom_site_fract_x
_atom_site_fract_y
_atom_site_fract_z
Si Si1 0.560162 0.122012 0.693490
Si Si2 0.840642 0.545631 0.995219
Si Si3 0.840642 0.545631 0.391762
Si Si4 0.449907 0.131134 0.193490
O O1 0.617068 0.092955 0.528934
O O2 0.509617 0.249614 0.693490
O O3 0.500000 0.000000 0.693490
O O4 0.617068 0.092955 0.858046
O O5 0.750000 0.535674 0.938678
O O6 0.893641 0.622266 0.861181
O O7 0.159616 0.399189 0.193490
O O8 0.750000 0.535673 0.448302
O O9 0.893641 0.622266 0.525800
O O10 0.500000 0.000000 0.193491
#
# Coordination Sequence:
#
# PCOD9380711 Si02
#       4
#     8   8   8   8
#     4  10  23  46  69 108 149 192 247 318 375 448
#     4   9  22  48  73 105 153 204 253 313 384 461
#     4   9  22  48  73 105 153 204 253 313 384 461
#     4  12  25  42  75 114 143 196 261 314 377 456
#
# _framework density 23.730193
#
# number of rings (size 3 to 8) (size 9 to 14) (size 15 to 20)
#    1.500    0.500    0.000    2.250    0.000    8.000 
#    4.500   15.000    0.000    0.000    0.000    0.000 
#    0.000    0.000    0.000    0.000    0.000    0.000 
#
# Total GULP energy -89413.317069 kJ/mol
# GULP energy per Si atom -5588.332317 kJ/mol
# Density = 2.367618 g / cm^3
# Si number density = 23.730193 Si / 1000 Ang^3
#
#
#
# Elastic Constant Matrix: (Units=GPa)
#
#
# Indices 1 2 3 4 5 6 
#
# 1 220.3256 117.2015 75.9965 0.0000 0.0000 0.0000
# 2 117.2015 192.8538 66.0685 0.0000 0.0000 0.0000
# 3 75.9965 66.0685 134.9722 0.0000 0.0000 0.0000
# 4 0.0000 0.0000 0.0000 20.6305 0.0000 0.0000
# 5 0.0000 0.0000 0.0000 0.0000 45.7259 0.0000
# 6 0.0000 0.0000 0.0000 0.0000 0.0000 37.9039
#
#
#
# Elastic Compliance Matrix: (Units=1/GPa)
#
#
# Indices 1 2 3 4 5 6 
#
# 1 0.007264 -0.003621 -0.002318 0.000000 0.000000 0.000000
# 2 -0.003621 0.008035 -0.001894 0.000000 0.000000 0.000000
# 3 -0.002318 -0.001894 0.009641 0.000000 0.000000 0.000000
# 4 0.000000 0.000000 0.000000 0.048472 0.000000 0.000000
# 5 0.000000 0.000000 0.000000 0.000000 0.021869 0.000000
# 6 0.000000 0.000000 0.000000 0.000000 0.000000 0.026382
#
#
# Mechanical properties :
#
#
# Convention : Reuss Voigt Hill
#
# Bulk Modulus (GPa) = 107.82233 118.52052 113.17142
# Shear Modulus (GPa) = 35.60726 40.11108 37.85917
#
# Velocity S-wave (km/s) = 3.87784 4.11578 3.99858
# Velocity P-wave (km/s) = 8.09849 8.52289 8.31340
#
# Compressibility (1/GPa) = 0.00927452
#
# Stress axis : x y z
#
# Youngs Moduli (GPa) = 137.66200 124.46302 103.72068
#
# Poissons Ratio (x) = 0.45062 0.24041
# Poissons Ratio (y) = 0.49841 0.19648
# Poissons Ratio (z) = 0.31908 0.23577
#
# Static dielectric constant tensor:
#      x y z
#    x 1.930650 0.000000 0.000000 
#    y 0.000000 1.939460 0.000000 
#    z 0.000000 0.000000 2.021560 
# 
# From -- ./inp_files/10749.got.cif
#   From: 2010.05.17/outbox.cif.g08.bks.cpg/sg46_6_cif.got.tgz:10749.got - 2010.06.03 19:58:25.
