data_PCOD9380578
_publ_section_title
;
Structure prediction by ZEFSAII (Michael W. Deem and Ramdas Pophale) SiO2 
 PCOD9380578
Probable space group: I M A 2
;
_chemical_formula_sum "Si O2"
_cell_formula_units_Z 64
_cell_length_a 20.639781
_cell_length_b 15.794432
_cell_length_c 8.876490
_cell_angle_alpha 90.000000
_cell_angle_beta 90.000000
_cell_angle_gamma 90.000000
_cell_volume 2893.679086
_symmetry_space_group_name_H-M "I M A 2"
_symmetry_group_IT_number 46
_symmetry_cell_setting 'orthorhombic'
loop_
_space_group_symop_operation_xyz
x,y,z
-x,-y,z
1/2-x,y,z
1/2+x,-y,z
1/2+x,1/2+y,1/2+z
1/2-x,1/2-y,1/2+z
-x,1/2+y,1/2+z
x,1/2-y,1/2+z
loop_
_atom_site_type_symbol
_atom_site_label
_atom_site_fract_x
_atom_site_fract_y
_atom_site_fract_z
Si Si1 0.323130 0.438139 0.416640
Si Si2 0.441362 0.562271 0.413212
Si Si3 0.403475 0.847667 0.194559
Si Si4 0.979278 0.708452 0.898144
Si Si5 0.176360 0.369886 0.074160
Si Si6 0.421433 0.834065 0.624465
Si Si7 0.172524 0.950846 0.432302
Si Si8 0.599606 0.695640 0.595419
O O1 0.250000 0.464317 0.451072
O O2 0.373670 0.512849 0.409183
O O3 0.323515 0.398025 0.249031
O O4 0.349296 0.373730 0.543231
O O5 0.500000 0.500000 0.374718
O O6 0.444222 0.593690 0.583804
O O7 0.432669 0.636148 0.293810
O O8 0.453410 0.809896 0.314592
O O9 0.387692 0.758971 0.111144
O O10 0.350029 0.906339 0.275715
O O11 0.928522 0.685555 0.763761
O O12 0.955639 0.798247 0.965473
O O13 0.005365 0.664236 0.053376
O O14 0.250000 0.345246 0.033093
O O15 0.131306 0.288107 0.069593
O O16 0.158338 0.449662 0.967232
O O17 0.372120 0.900413 0.550417
O O18 0.250000 0.940957 0.453537
#
# Coordination Sequence:
#
# PCOD9380578 Si02
#       8
#     8   8   8   8   8   8   8   8
#     4  11  25  46  71 107 147 188 242 300 360 439
#     4  12  27  44  74 108 143 190 241 291 367 430
#     4  11  25  45  66 102 142 183 231 306 357 427
#     4  11  24  38  70  97 138 176 229 294 346 419
#     4  10  22  43  67  97 139 187 240 294 351 435
#     4  11  24  44  71 102 141 188 235 305 363 429
#     4  10  23  45  69  98 139 188 247 301 361 429
#     4  12  23  43  71 104 137 191 232 285 365 435
#
# _framework density 22.117173000000001
#
# number of rings (size 3 to 8) (size 9 to 14) (size 15 to 20)
#    0.000    1.000    3.750    2.625    3.500    3.000 
#    0.000    6.250    0.000    0.000    0.000    0.000 
#    0.000    0.000    0.000    0.000    0.000    0.000 
#
# Total GULP energy -178373.456009 kJ/mol
# GULP energy per Si atom -5574.170500 kJ/mol
# Density = 2.206683 g / cm^3
# Si number density = 22.117173 Si / 1000 Ang^3
#
#
#
# Elastic Constant Matrix: (Units=GPa)
#
#
# Indices 1 2 3 4 5 6 
#
# 1 122.6667 52.4788 36.6033 0.0000 0.0000 0.0000
# 2 52.4788 94.3768 31.0643 0.0000 0.0000 0.0000
# 3 36.6033 31.0643 93.0314 0.0000 0.0000 0.0000
# 4 0.0000 0.0000 0.0000 24.4485 0.0000 0.0000
# 5 0.0000 0.0000 0.0000 0.0000 25.2118 0.0000
# 6 0.0000 0.0000 0.0000 0.0000 0.0000 30.2732
#
#
#
# Elastic Compliance Matrix: (Units=1/GPa)
#
#
# Indices 1 2 3 4 5 6 
#
# 1 0.011239 -0.005386 -0.002624 0.000000 0.000000 0.000000
# 2 -0.005386 0.014485 -0.002718 0.000000 0.000000 0.000000
# 3 -0.002624 -0.002718 0.012689 0.000000 0.000000 0.000000
# 4 0.000000 0.000000 0.000000 0.040902 0.000000 0.000000
# 5 0.000000 0.000000 0.000000 0.000000 0.039664 0.000000
# 6 0.000000 0.000000 0.000000 0.000000 0.000000 0.033033
#
#
# Mechanical properties :
#
#
# Convention : Reuss Voigt Hill
#
# Bulk Modulus (GPa) = 58.96703 61.15196 60.05949
# Shear Modulus (GPa) = 27.91427 28.64861 28.28144
#
# Velocity S-wave (km/s) = 3.55647 3.60295 3.57978
# Velocity P-wave (km/s) = 6.60180 6.70950 6.65587
#
# Compressibility (1/GPa) = 0.01695863
#
# Stress axis : x y z
#
# Youngs Moduli (GPa) = 88.97342 69.03541 78.80977
#
# Poissons Ratio (x) = 0.37183 0.20677
# Poissons Ratio (y) = 0.47922 0.21418
# Poissons Ratio (z) = 0.23343 0.18761
#
# Static dielectric constant tensor:
#      x y z
#    x 1.885000 0.000000 0.000000 
#    y 0.000000 1.873000 0.000000 
#    z 0.000000 0.000000 1.941800 
# 
# From -- ./inp_files/7983.got.cif
#   From: 2010.05.17/outbox.cif.g08.bks.cpg/sg46_4_cif.got.tgz:7983.got - 2010.06.03 19:58:25.
