data_PCOD9380804
_publ_section_title
;
Structure prediction by ZEFSAII (Michael W. Deem and Ramdas Pophale) SiO2 
 PCOD9380804
Probable space group: I M A 2
;
_chemical_formula_sum "Si O2"
_cell_formula_units_Z 48
_cell_length_a 21.909215
_cell_length_b 14.444242
_cell_length_c 7.790913
_cell_angle_alpha 90.000000
_cell_angle_beta 90.000000
_cell_angle_gamma 90.000000
_cell_volume 2465.527937
_symmetry_space_group_name_H-M "I M A 2"
_symmetry_group_IT_number 46
_symmetry_cell_setting 'orthorhombic'
loop_
_space_group_symop_operation_xyz
x,y,z
-x,-y,z
1/2-x,y,z
1/2+x,-y,z
1/2+x,1/2+y,1/2+z
1/2-x,1/2-y,1/2+z
-x,1/2+y,1/2+z
x,1/2-y,1/2+z
loop_
_atom_site_type_symbol
_atom_site_label
_atom_site_fract_x
_atom_site_fract_y
_atom_site_fract_z
Si Si1 0.568751 0.534443 0.491010
Si Si2 0.879695 0.502263 0.838631
Si Si3 0.953130 0.911294 0.635774
Si Si4 0.250000 0.711784 0.481588
Si Si5 0.122767 0.649364 0.326615
Si Si6 0.437117 0.827395 0.470681
Si Si7 0.750000 0.097004 0.336931
O O1 0.500000 0.500000 0.528065
O O2 0.602173 0.558330 0.667759
O O3 0.565396 0.606010 0.331991
O O4 0.605336 0.447990 0.408609
O O5 0.810677 0.465355 0.840172
O O6 0.899480 0.558282 0.008121
O O7 0.922256 0.409085 0.836327
O O8 0.995503 0.835151 0.547357
O O9 0.000000 0.000000 0.644569
O O10 0.189632 0.679496 0.382425
O O11 0.250000 0.823612 0.483365
O O12 0.250000 0.659686 0.663892
O O13 0.077763 0.728021 0.398158
O O14 0.110179 0.650592 0.124738
#
# Coordination Sequence:
#
# PCOD9380804 Si02
#       7
#     8   8   8   4   8   8   4
#     4  11  19  36  57  74 102 152 187 233 281 319
#     4  11  21  35  52  76 106 148 190 227 269 321
#     4   9  19  37  54  73 103 144 190 235 278 323
#     4  12  24  36  46  76 120 157 186 217 260 328
#     4  12  21  34  55  78 115 154 187 225 270 327
#     4  11  21  36  52  82 111 146 195 233 276 330
#     4  12  24  34  50  78 110 153 196 217 262 338
#
# _framework density 19.468446
#
# number of rings (size 3 to 8) (size 9 to 14) (size 15 to 20)
#    0.000    1.000    8.333    3.500    0.000    0.000 
#    0.000    0.000    0.000    0.000    0.000    0.000 
#    0.000    6.667    0.000    0.000    0.000    0.000 
#
# Total GULP energy -134085.547348 kJ/mol
# GULP energy per Si atom -5586.897806 kJ/mol
# Density = 1.942414 g / cm^3
# Si number density = 19.468446 Si / 1000 Ang^3
#
#
#
# Elastic Constant Matrix: (Units=GPa)
#
#
# Indices 1 2 3 4 5 6 
#
# 1 131.3252 24.9483 50.2715 0.0000 0.0000 0.0000
# 2 24.9483 16.7276 8.5528 0.0000 0.0000 0.0000
# 3 50.2715 8.5528 117.2045 0.0000 0.0000 0.0000
# 4 0.0000 0.0000 0.0000 19.4919 0.0000 0.0000
# 5 0.0000 0.0000 0.0000 0.0000 27.0893 0.0000
# 6 0.0000 0.0000 0.0000 0.0000 0.0000 27.3451
#
#
#
# Elastic Compliance Matrix: (Units=1/GPa)
#
#
# Indices 1 2 3 4 5 6 
#
# 1 0.012249 -0.016186 -0.004073 0.000000 0.000000 0.000000
# 2 -0.016186 0.083487 0.000850 0.000000 0.000000 0.000000
# 3 -0.004073 0.000850 0.010217 0.000000 0.000000 0.000000
# 4 0.000000 0.000000 0.000000 0.051303 0.000000 0.000000
# 5 0.000000 0.000000 0.000000 0.000000 0.036915 0.000000
# 6 0.000000 0.000000 0.000000 0.000000 0.000000 0.036570
#
#
# Mechanical properties :
#
#
# Convention : Reuss Voigt Hill
#
# Bulk Modulus (GPa) = 14.89513 48.08916 31.49214
# Shear Modulus (GPa) = 17.12709 26.88425 22.00567
#
# Velocity S-wave (km/s) = 2.96925 3.72010 3.36568
# Velocity P-wave (km/s) = 4.40713 6.57319 5.59596
#
# Compressibility (1/GPa) = 0.06713606
#
# Stress axis : x y z
#
# Youngs Moduli (GPa) = 81.64255 11.97792 97.87746
#
# Poissons Ratio (x) = 0.19387 0.39861
# Poissons Ratio (y) = 1.32144 -0.08321
# Poissons Ratio (z) = 0.33249 -0.01018
#
# Static dielectric constant tensor:
#      x y z
#    x 1.680810 0.000000 0.000000 
#    y 0.000000 1.679390 0.000000 
#    z 0.000000 0.000000 1.764280 
# 
# From -- ./inp_files/7479.got.cif
#   From: 2010.05.17/outbox.cif.g08.bks.cpg/sg46_4_cif.got.tgz:7479.got - 2010.06.03 19:58:25.
