data_PCOD9380502
_publ_section_title
;
Structure prediction by ZEFSAII (Michael W. Deem and Ramdas Pophale) SiO2 
 PCOD9380502
Probable space group: I M A 2
;
_chemical_formula_sum "Si O2"
_cell_formula_units_Z 44
_cell_length_a 19.298549
_cell_length_b 7.289986
_cell_length_c 13.774682
_cell_angle_alpha 90.000000
_cell_angle_beta 90.000000
_cell_angle_gamma 90.000000
_cell_volume 1937.907006
_symmetry_space_group_name_H-M "I M A 2"
_symmetry_group_IT_number 46
_symmetry_cell_setting 'orthorhombic'
loop_
_space_group_symop_operation_xyz
x,y,z
-x,-y,z
1/2-x,y,z
1/2+x,-y,z
1/2+x,1/2+y,1/2+z
1/2-x,1/2-y,1/2+z
-x,1/2+y,1/2+z
x,1/2-y,1/2+z
loop_
_atom_site_type_symbol
_atom_site_label
_atom_site_fract_x
_atom_site_fract_y
_atom_site_fract_z
Si Si1 0.831468 0.616045 0.711720
Si Si2 0.000000 0.000000 0.546389
Si Si3 0.324969 0.656162 0.534989
Si Si4 0.090304 0.856544 0.845271
Si Si5 0.360100 0.533212 0.157150
Si Si6 0.552821 0.713160 0.862201
O O1 0.750000 0.587699 0.739273
O O2 0.847836 0.479626 0.622056
O O3 0.887039 0.611948 0.800600
O O4 0.840139 0.823337 0.671251
O O5 0.961128 0.861312 0.471061
O O6 0.060903 0.942760 0.619602
O O7 0.250000 0.587011 0.499454
O O8 0.378124 0.685076 0.448771
O O9 0.317964 0.856170 0.579768
O O10 0.145190 0.860442 0.759106
O O11 0.025630 0.725071 0.820577
O O12 0.071311 0.071821 0.857320
#
# Coordination Sequence:
#
# PCOD9380502 Si02
#       6
#     8   4   8   8   8   8
#     4  10  23  44  68  99 135 174 217 269 334 397
#     4  12  22  40  66  98 130 168 226 274 328 388
#     4  11  24  42  67  98 131 175 223 271 331 396
#     4  10  22  43  62  93 132 174 221 267 330 393
#     4  11  23  42  65  94 131 174 217 274 326 392
#     4  10  22  40  66  96 129 171 216 273 326 389
#
# _framework density 22.704909000000001
#
# number of rings (size 3 to 8) (size 9 to 14) (size 15 to 20)
#    0.000    1.455    1.818    3.818    2.545    3.636 
#    0.000    3.636    0.000    0.000    0.000    0.000 
#    0.000    0.000    0.000    0.000    0.000    0.000 
#
# Total GULP energy -122692.494158 kJ/mol
# GULP energy per Si atom -5576.931553 kJ/mol
# Density = 2.265323 g / cm^3
# Si number density = 22.704909 Si / 1000 Ang^3
#
#
#
# Elastic Constant Matrix: (Units=GPa)
#
#
# Indices 1 2 3 4 5 6 
#
# 1 133.7539 20.9128 49.7521 0.0000 0.0000 0.0000
# 2 20.9128 48.3228 22.9423 0.0000 0.0000 0.0000
# 3 49.7521 22.9423 78.6471 0.0000 0.0000 0.0000
# 4 0.0000 0.0000 0.0000 35.9607 0.0000 0.0000
# 5 0.0000 0.0000 0.0000 0.0000 -558.5612 0.0000
# 6 0.0000 0.0000 0.0000 0.0000 0.0000 -15.7988
#
#
#
# Elastic Compliance Matrix: (Units=1/GPa)
#
#
# Indices 1 2 3 4 5 6 
#
# 1 0.009872 -0.001518 -0.005802 0.000000 0.000000 0.000000
# 2 -0.001518 0.024254 -0.006115 0.000000 0.000000 0.000000
# 3 -0.005802 -0.006115 0.018169 0.000000 0.000000 0.000000
# 4 0.000000 0.000000 0.000000 0.027808 0.000000 0.000000
# 5 0.000000 0.000000 0.000000 0.000000 -0.001790 0.000000
# 6 0.000000 0.000000 0.000000 0.000000 0.000000 -0.063296
#
#
# Mechanical properties :
#
#
# Convention : Reuss Voigt Hill
#
# Bulk Modulus (GPa) = 39.33069 49.77093 44.55081
# Shear Modulus (GPa) = 99.27941 -96.53874 1.37033
#
# Velocity S-wave (km/s) = 6.61973 -6.52772 0.77772
# Velocity P-wave (km/s) = 8.70563 5.90310 4.52446
#
# Compressibility (1/GPa) = 0.02542544
#
# Stress axis : x y z
#
# Youngs Moduli (GPa) = 101.29701 41.22988 55.03734
#
# Poissons Ratio (x) = 0.06257 0.31934
# Poissons Ratio (y) = 0.15372 0.33657
# Poissons Ratio (z) = 0.58776 0.25213
#
# Static dielectric constant tensor:
#      x y z
#    x 4.540050 0.000000 0.000000 
#    y 0.000000 1.876000 0.000000 
#    z 0.000000 0.000000 1.828010 
# 
# From -- ./inp_files/16450.got.cif
#   From: 2010.05.17/outbox.cif.g08.bks.cpg/sg46_9_cif.got.tgz:16450.got - 2010.06.03 19:58:25.
