data_PCOD9380062
_publ_section_title
;
Structure prediction by ZEFSAII (Michael W. Deem and Ramdas Pophale) SiO2 
 PCOD9380062
Probable space group: I M A 2
;
_chemical_formula_sum "Si O2"
_cell_formula_units_Z 56
_cell_length_a 9.248750
_cell_length_b 20.734143
_cell_length_c 14.433984
_cell_angle_alpha 90.000000
_cell_angle_beta 90.000000
_cell_angle_gamma 90.000000
_cell_volume 2767.931572
_symmetry_space_group_name_H-M "I M A 2"
_symmetry_group_IT_number 46
_symmetry_cell_setting 'orthorhombic'
loop_
_space_group_symop_operation_xyz
x,y,z
-x,-y,z
1/2-x,y,z
1/2+x,-y,z
1/2+x,1/2+y,1/2+z
1/2-x,1/2-y,1/2+z
-x,1/2+y,1/2+z
x,1/2-y,1/2+z
loop_
_atom_site_type_symbol
_atom_site_label
_atom_site_fract_x
_atom_site_fract_y
_atom_site_fract_z
Si Si1 0.920938 0.065979 0.118190
Si Si2 0.577479 0.749489 0.911041
Si Si3 0.418876 0.616910 0.415690
Si Si4 0.092308 0.557138 0.902246
Si Si5 0.924747 0.345921 0.053117
Si Si6 0.078640 0.933995 0.712856
Si Si7 0.586548 0.172920 0.256858
O O1 0.750000 0.060157 0.140539
O O2 0.968762 0.133356 0.167379
O O3 0.937027 0.075535 0.008440
O O4 0.000000 0.000000 0.146349
O O5 0.750000 0.742512 0.912432
O O6 0.523989 0.822327 0.919604
O O7 0.512776 0.722472 0.813220
O O8 0.506569 0.710265 0.997851
O O9 0.250000 0.639169 0.413776
O O10 0.445623 0.578293 0.321474
O O11 0.250000 0.530808 0.921758
O O12 0.100178 0.614968 0.830556
O O13 0.000000 0.500000 0.864292
O O14 0.036922 0.589428 0.995566
O O15 0.750000 0.334944 0.044946
O O16 0.961700 0.368330 0.156793
O O17 0.250000 0.942210 0.696426
O O18 0.000000 0.000000 0.684823
O O19 0.750000 0.199084 0.238920
#
# Coordination Sequence:
#
# PCOD9380062 Si02
#       7
#     8   8   8   8   8   8   8
#     4  10  21  37  60  87 115 150 190 231 280 333
#     4  11  23  38  58  85 112 145 190 240 287 330
#     4  10  22  40  59  81 114 156 193 229 278 338
#     4   9  16  26  44  70 102 137 173 215 265 320
#     4   9  19  36  55  78 111 149 184 224 279 343
#     4  10  21  37  60  87 115 150 190 231 280 333
#     4   9  19  36  55  78 111 149 184 224 279 343
#
# _framework density 20.231712999999999
#
# number of rings (size 3 to 8) (size 9 to 14) (size 15 to 20)
#    0.000    2.286    0.000    3.429    0.000    5.714 
#    0.000    5.714    0.000    0.000    0.000    0.000 
#    0.000    0.000    0.000    0.000    0.000    0.000 
#
# Total GULP energy -156091.807311 kJ/mol
# GULP energy per Si atom -5574.707404 kJ/mol
# Density = 2.018566 g / cm^3
# Si number density = 20.231713 Si / 1000 Ang^3
#
#
#
# Elastic Constant Matrix: (Units=GPa)
#
#
# Indices 1 2 3 4 5 6 
#
# 1 58.2240 49.3771 14.2001 0.0000 0.0000 0.0000
# 2 49.3771 63.0015 0.1596 0.0000 0.0000 0.0000
# 3 14.2001 0.1596 84.0929 0.0000 0.0000 0.0000
# 4 0.0000 0.0000 0.0000 19.2843 0.0000 0.0000
# 5 0.0000 0.0000 0.0000 0.0000 13.6753 0.0000
# 6 0.0000 0.0000 0.0000 0.0000 0.0000 31.6589
#
#
#
# Elastic Compliance Matrix: (Units=1/GPa)
#
#
# Indices 1 2 3 4 5 6 
#
# 1 0.058244 -0.045624 -0.009749 0.000000 0.000000 0.000000
# 2 -0.045624 0.051611 0.007606 0.000000 0.000000 0.000000
# 3 -0.009749 0.007606 0.013523 0.000000 0.000000 0.000000
# 4 0.000000 0.000000 0.000000 0.051856 0.000000 0.000000
# 5 0.000000 0.000000 0.000000 0.000000 0.073124 0.000000
# 6 0.000000 0.000000 0.000000 0.000000 0.000000 0.031587
#
#
# Mechanical properties :
#
#
# Convention : Reuss Voigt Hill
#
# Bulk Modulus (GPa) = 35.91218 36.97690 36.44454
# Shear Modulus (GPa) = 12.99514 22.36249 17.67881
#
# Velocity S-wave (km/s) = 2.53714 3.32824 2.95925
# Velocity P-wave (km/s) = 5.13535 5.75204 5.45242
#
# Compressibility (1/GPa) = 0.02784571
#
# Stress axis : x y z
#
# Youngs Moduli (GPa) = 17.16911 19.37578 73.94617
#
# Poissons Ratio (x) = 0.88400 0.72087
# Poissons Ratio (y) = 0.78332 -0.56245
# Poissons Ratio (z) = 0.16738 -0.14738
#
# Static dielectric constant tensor:
#      x y z
#    x 1.718350 0.000000 0.000000 
#    y 0.000000 1.692880 0.000000 
#    z 0.000000 0.000000 1.786910 
# 
# From -- ./inp_files/14166.got.cif
#   From: 2010.05.17/outbox.cif.g08.bks.cpg/sg46_8_cif.got.tgz:14166.got - 2010.06.03 19:58:25.
