data_PCOD9380973
_publ_section_title
;
Structure prediction by ZEFSAII (Michael W. Deem and Ramdas Pophale) SiO2 
 PCOD9380973
Probable space group: I M A 2
;
_chemical_formula_sum "Si O2"
_cell_formula_units_Z 48
_cell_length_a 9.722227
_cell_length_b 8.522510
_cell_length_c 27.745223
_cell_angle_alpha 90.000000
_cell_angle_beta 90.000000
_cell_angle_gamma 90.000000
_cell_volume 2298.907495
_symmetry_space_group_name_H-M "I M A 2"
_symmetry_group_IT_number 46
_symmetry_cell_setting 'orthorhombic'
loop_
_space_group_symop_operation_xyz
x,y,z
-x,-y,z
1/2-x,y,z
1/2+x,-y,z
1/2+x,1/2+y,1/2+z
1/2-x,1/2-y,1/2+z
-x,1/2+y,1/2+z
x,1/2-y,1/2+z
loop_
_atom_site_type_symbol
_atom_site_label
_atom_site_fract_x
_atom_site_fract_y
_atom_site_fract_z
Si Si1 0.477375 0.185262 0.091290
Si Si2 0.750000 0.319798 0.130151
Si Si3 0.750000 0.318284 0.734468
Si Si4 0.912629 0.838990 0.491790
Si Si5 0.087371 0.838990 0.403057
Si Si6 0.750000 0.818283 0.660379
Si Si7 0.022625 0.685262 0.303557
Si Si8 0.750000 0.819798 0.264697
O O1 0.617990 0.278504 0.099017
O O2 0.379905 0.238035 0.134913
O O3 0.500000 0.000000 0.093064
O O4 0.417656 0.236822 0.040008
O O5 0.750000 0.211721 0.177787
O O6 0.750000 0.498651 0.147496
O O7 0.620095 0.238035 0.759934
O O8 0.750000 0.501350 0.747351
O O9 0.750000 0.864475 0.480649
O O10 0.000000 0.765642 0.447424
O O11 0.000000 0.000000 0.500716
O O12 0.250000 0.864476 0.414198
O O13 0.082344 0.736821 0.354839
O O14 0.000000 0.000000 0.394131
O O15 0.750000 0.788280 0.717060
O O16 0.000000 0.500000 0.301783
O O17 0.882010 0.778504 0.295830
#
# Coordination Sequence:
#
# PCOD9380973 Si02
#       8
#     8   4   4   8   8   4   8   4
#     4  12  26  44  67 102 140 178 225 282 340 402
#     4  12  26  42  75  94 141 180 228 281 333 407
#     4  12  24  48  65 104 131 184 230 277 341 399
#     4  11  24  44  71 103 138 178 228 277 340 408
#     4  11  24  44  71 103 138 178 228 277 340 408
#     4  12  24  48  65 104 131 184 230 277 341 399
#     4  12  26  44  67 102 140 178 225 282 340 402
#     4  12  26  42  75  94 141 180 228 281 333 407
#
# _framework density 20.879484000000001
#
# number of rings (size 3 to 8) (size 9 to 14) (size 15 to 20)
#    0.000    0.333    1.667    9.000    4.667    0.667 
#    0.000    1.667    0.000    0.000    0.000    0.000 
#    0.000    0.000    0.000    0.000    0.000    0.000 
#
# Total GULP energy -134283.442464 kJ/mol
# GULP energy per Si atom -5595.143436 kJ/mol
# Density = 2.083196 g / cm^3
# Si number density = 20.879484 Si / 1000 Ang^3
#
#
#
# Elastic Constant Matrix: (Units=GPa)
#
#
# Indices 1 2 3 4 5 6 
#
# 1 177.2359 20.1663 32.1664 0.0000 0.0000 0.0000
# 2 20.1663 115.3286 12.0897 0.0000 0.0000 0.0000
# 3 32.1664 12.0897 96.0295 0.0000 0.0000 0.0000
# 4 0.0000 0.0000 0.0000 -2.1221 0.0000 0.0000
# 5 0.0000 0.0000 0.0000 0.0000 51.4512 0.0000
# 6 0.0000 0.0000 0.0000 0.0000 0.0000 -398.9978
#
#
#
# Elastic Compliance Matrix: (Units=1/GPa)
#
#
# Indices 1 2 3 4 5 6 
#
# 1 0.006091 -0.000863 -0.001932 0.000000 0.000000 0.000000
# 2 -0.000863 0.008909 -0.000833 0.000000 0.000000 0.000000
# 3 -0.001932 -0.000833 0.011165 0.000000 0.000000 0.000000
# 4 0.000000 0.000000 0.000000 -0.471222 0.000000 0.000000
# 5 0.000000 0.000000 0.000000 0.000000 0.019436 0.000000
# 6 0.000000 0.000000 0.000000 0.000000 0.000000 -0.002506
#
#
# Mechanical properties :
#
#
# Convention : Reuss Voigt Hill
#
# Bulk Modulus (GPa) = 52.87797 57.49319 55.18558
# Shear Modulus (GPa) = -12.06069 -48.32230 -30.19150
#
# Velocity S-wave (km/s) = -2.40601 -4.81598 -3.80674
# Velocity P-wave (km/s) = 4.20259 1.82466 2.67698
#
# Compressibility (1/GPa) = 0.01891147
#
# Stress axis : x y z
#
# Youngs Moduli (GPa) = 164.17901 112.24619 89.56300
#
# Poissons Ratio (x) = 0.09682 0.17300
# Poissons Ratio (y) = 0.14161 0.07458
# Poissons Ratio (z) = 0.31713 0.09347
#
# Static dielectric constant tensor:
#      x y z
#    x 1.724400 0.000000 0.000000 
#    y 0.000000 1.718620 0.000000 
#    z 0.000000 0.000000 1.721060 
# 
# From -- ./inp_files/25109.got.cif
#   From: 2010.05.17/outbox.cif.g08.bks.cpg/sg46_13_cif.got.tgz:25109.got - 2010.06.03 19:58:25.
