data_PCOD9380207
_publ_section_title
;
Structure prediction by ZEFSAII (Michael W. Deem and Ramdas Pophale) SiO2 
 PCOD9380207
Probable space group: I M A 2
;
_chemical_formula_sum "Si O2"
_cell_formula_units_Z 56
_cell_length_a 27.360138
_cell_length_b 7.182348
_cell_length_c 14.162452
_cell_angle_alpha 90.000000
_cell_angle_beta 90.000000
_cell_angle_gamma 90.000000
_cell_volume 2783.063902
_symmetry_space_group_name_H-M "I M A 2"
_symmetry_group_IT_number 46
_symmetry_cell_setting 'orthorhombic'
loop_
_space_group_symop_operation_xyz
x,y,z
-x,-y,z
1/2-x,y,z
1/2+x,-y,z
1/2+x,1/2+y,1/2+z
1/2-x,1/2-y,1/2+z
-x,1/2+y,1/2+z
x,1/2-y,1/2+z
loop_
_atom_site_type_symbol
_atom_site_label
_atom_site_fract_x
_atom_site_fract_y
_atom_site_fract_z
Si Si1 0.305957 0.261628 0.782530
Si Si2 0.092449 0.425822 0.745886
Si Si3 0.410611 0.750338 0.123654
Si Si4 0.805694 0.404308 0.164437
Si Si5 0.944851 0.517008 0.283797
Si Si6 0.897659 0.279554 0.907096
Si Si7 0.195404 0.997779 0.453972
O O1 0.250000 0.313605 0.756134
O O2 0.349796 0.378118 0.736500
O O3 0.311994 0.315151 0.893001
O O4 0.311547 0.048708 0.750235
O O5 0.075128 0.543022 0.656041
O O6 0.083141 0.562411 0.835046
O O7 0.067825 0.229296 0.764093
O O8 0.353050 0.726093 0.154571
O O9 0.438470 0.599862 0.187276
O O10 0.417400 0.715343 0.013452
O O11 0.750000 0.325374 0.168100
O O12 0.809010 0.521850 0.066190
O O13 0.909478 0.416245 0.358874
O O14 0.000000 0.500000 0.318622
O O15 0.841376 0.339269 0.919364
O O16 0.250000 0.932560 0.434531
#
# Coordination Sequence:
#
# PCOD9380207 Si02
#       7
#     8   8   8   8   8   8   8
#     4   9  16  30  53  84 117 157 196 234 291 350
#     4  10  21  39  62  85 125 155 192 253 292 350
#     4  10  21  40  61  91 120 157 202 239 302 357
#     4   9  16  30  55  84 121 159 198 240 284 353
#     4  11  24  44  62  88 117 151 197 255 306 355
#     4   9  21  40  61  89 120 158 198 242 299 361
#     4   8  15  30  55  85 119 158 196 239 287 352
#
# _framework density 20.121708000000002
#
# number of rings (size 3 to 8) (size 9 to 14) (size 15 to 20)
#    0.000    2.571    1.429    0.000    0.000    4.000 
#    7.714    2.857    0.000    0.000    0.000    0.000 
#    0.000    0.000    0.000    0.000    0.000    0.000 
#
# Total GULP energy -156009.825634 kJ/mol
# GULP energy per Si atom -5571.779487 kJ/mol
# Density = 2.007591 g / cm^3
# Si number density = 20.121708 Si / 1000 Ang^3
#
#
#
# Elastic Constant Matrix: (Units=GPa)
#
#
# Indices 1 2 3 4 5 6 
#
# 1 48.7530 24.0826 24.9494 0.0000 0.0000 0.0000
# 2 24.0826 100.7812 27.9999 0.0000 0.0000 0.0000
# 3 24.9494 27.9999 67.1546 0.0000 0.0000 0.0000
# 4 0.0000 0.0000 0.0000 18.8713 0.0000 0.0000
# 5 0.0000 0.0000 0.0000 0.0000 13.7746 0.0000
# 6 0.0000 0.0000 0.0000 0.0000 0.0000 -5.1157
#
#
#
# Elastic Compliance Matrix: (Units=1/GPa)
#
#
# Indices 1 2 3 4 5 6 
#
# 1 0.026750 -0.004107 -0.008226 0.000000 0.000000 0.000000
# 2 -0.004107 0.011853 -0.003416 0.000000 0.000000 0.000000
# 3 -0.008226 -0.003416 0.019371 0.000000 0.000000 0.000000
# 4 0.000000 0.000000 0.000000 0.052991 0.000000 0.000000
# 5 0.000000 0.000000 0.000000 0.000000 0.072597 0.000000
# 6 0.000000 0.000000 0.000000 0.000000 0.000000 -0.195477
#
#
# Mechanical properties :
#
#
# Convention : Reuss Voigt Hill
#
# Bulk Modulus (GPa) = 37.76937 41.19474 39.48205
# Shear Modulus (GPa) = 176.00175 14.81650 95.40912
#
# Velocity S-wave (km/s) = 9.36261 2.71651 6.89340
# Velocity P-wave (km/s) = 11.64857 5.50967 9.11169
#
# Compressibility (1/GPa) = 0.02647648
#
# Stress axis : x y z
#
# Youngs Moduli (GPa) = 37.38359 84.36689 51.62226
#
# Poissons Ratio (x) = 0.34647 0.42463
# Poissons Ratio (y) = 0.15352 0.17636
# Poissons Ratio (z) = 0.30751 0.28823
#
# Static dielectric constant tensor:
#      x y z
#    x 1.755730 0.000000 0.000000 
#    y 0.000000 1.689600 0.000000 
#    z 0.000000 0.000000 1.720880 
# 
# From -- ./inp_files/17676.got.cif
#   From: 2010.05.17/outbox.cif.g08.bks.cpg/sg46_9_cif.got.tgz:17676.got - 2010.06.03 19:58:25.
