data_PCOD9380890
_publ_section_title
;
Structure prediction by ZEFSAII (Michael W. Deem and Ramdas Pophale) SiO2 
 PCOD9380890
Probable space group: I M A 2
;
_chemical_formula_sum "Si O2"
_cell_formula_units_Z 40
_cell_length_a 8.384473
_cell_length_b 17.663225
_cell_length_c 12.940793
_cell_angle_alpha 90.000000
_cell_angle_beta 90.000000
_cell_angle_gamma 90.000000
_cell_volume 1916.490461
_symmetry_space_group_name_H-M "I M A 2"
_symmetry_group_IT_number 46
_symmetry_cell_setting 'orthorhombic'
loop_
_space_group_symop_operation_xyz
x,y,z
-x,-y,z
1/2-x,y,z
1/2+x,-y,z
1/2+x,1/2+y,1/2+z
1/2-x,1/2-y,1/2+z
-x,1/2+y,1/2+z
x,1/2-y,1/2+z
loop_
_atom_site_type_symbol
_atom_site_label
_atom_site_fract_x
_atom_site_fract_y
_atom_site_fract_z
Si Si1 0.434040 0.083790 0.060900
Si Si2 0.565931 0.677893 0.175810
Si Si3 0.562308 0.334786 0.754952
Si Si4 0.562954 0.084577 0.855702
Si Si5 0.441374 0.588322 0.974604
O O1 0.250000 0.081250 0.030416
O O2 0.459059 0.123986 0.168693
O O3 0.500000 0.000000 0.077534
O O4 0.530668 0.122674 0.967129
O O5 0.750000 0.700892 0.162852
O O6 0.466539 0.747322 0.225207
O O7 0.544407 0.616284 0.265006
O O8 0.506259 0.638172 0.070560
O O9 0.750000 0.352024 0.741198
O O10 0.517588 0.366614 0.868293
O O11 0.750000 0.087500 0.830447
O O12 0.500000 0.000000 0.871308
O O13 0.500000 0.500000 0.974569
O O14 0.250000 0.585756 0.982676
#
# Coordination Sequence:
#
# PCOD9380890 Si02
#       5
#     8   8   8   8   8
#     4  11  22  39  64  95 129 168 214 265 323 389
#     4  12  26  43  66  96 134 174 221 275 333 397
#     4  11  25  44  67  96 133 175 220 273 334 396
#     4  11  22  40  65  93 128 168 215 266 323 390
#     4  11  25  46  72 100 135 179 229 279 337 406
#
# _framework density 20.871483999999999
#
# number of rings (size 3 to 8) (size 9 to 14) (size 15 to 20)
#    0.000    0.800    0.000    9.000    2.800    4.800 
#    0.000    0.000    0.000    0.000    0.000    0.000 
#    0.000    0.000    0.000    0.000    0.000    0.000 
#
# Total GULP energy -111685.170978 kJ/mol
# GULP energy per Si atom -5584.258549 kJ/mol
# Density = 2.082398 g / cm^3
# Si number density = 20.871484 Si / 1000 Ang^3
#
#
#
# Elastic Constant Matrix: (Units=GPa)
#
#
# Indices 1 2 3 4 5 6 
#
# 1 85.6494 5.6151 14.7483 0.0000 0.0000 0.0000
# 2 5.6151 74.7690 41.6160 0.0000 0.0000 0.0000
# 3 14.7483 41.6160 145.8247 0.0000 0.0000 0.0000
# 4 0.0000 0.0000 0.0000 33.6846 0.0000 0.0000
# 5 0.0000 0.0000 0.0000 0.0000 104.0051 0.0000
# 6 0.0000 0.0000 0.0000 0.0000 0.0000 32.8594
#
#
#
# Elastic Compliance Matrix: (Units=1/GPa)
#
#
# Indices 1 2 3 4 5 6 
#
# 1 0.011887 -0.000266 -0.001126 0.000000 0.000000 0.000000
# 2 -0.000266 0.015906 -0.004512 0.000000 0.000000 0.000000
# 3 -0.001126 -0.004512 0.008259 0.000000 0.000000 0.000000
# 4 0.000000 0.000000 0.000000 0.029687 0.000000 0.000000
# 5 0.000000 0.000000 0.000000 0.000000 0.009615 0.000000
# 6 0.000000 0.000000 0.000000 0.000000 0.000000 0.030433
#
#
# Mechanical properties :
#
#
# Convention : Reuss Voigt Hill
#
# Bulk Modulus (GPa) = 41.24894 47.80021 44.52458
# Shear Modulus (GPa) = 39.78444 50.39405 45.08925
#
# Velocity S-wave (km/s) = 4.37070 4.91908 4.65298
# Velocity P-wave (km/s) = 6.72881 7.43068 7.08844
#
# Compressibility (1/GPa) = 0.02424304
#
# Stress axis : x y z
#
# Youngs Moduli (GPa) = 84.12632 62.86893 121.07636
#
# Poissons Ratio (x) = 0.01671 0.13638
# Poissons Ratio (y) = 0.02236 0.54635
# Poissons Ratio (z) = 0.09476 0.28369
#
# Static dielectric constant tensor:
#      x y z
#    x 1.695360 0.000000 0.000000 
#    y 0.000000 2.053900 0.000000 
#    z 0.000000 0.000000 1.792420 
# 
# From -- ./inp_files/9042.got.cif
#   From: 2010.05.17/outbox.cif.g08.bks.cpg/sg46_5_cif.got.tgz:9042.got - 2010.06.03 19:58:25.
