data_PCOD9380421
_publ_section_title
;
Structure prediction by ZEFSAII (Michael W. Deem and Ramdas Pophale) SiO2 
 PCOD9380421
Probable space group: I M A 2
;
_chemical_formula_sum "Si O2"
_cell_formula_units_Z 64
_cell_length_a 16.040884
_cell_length_b 10.954747
_cell_length_c 18.442982
_cell_angle_alpha 90.000000
_cell_angle_beta 90.000000
_cell_angle_gamma 90.000000
_cell_volume 3240.871358
_symmetry_space_group_name_H-M "I M A 2"
_symmetry_group_IT_number 46
_symmetry_cell_setting 'orthorhombic'
loop_
_space_group_symop_operation_xyz
x,y,z
-x,-y,z
1/2-x,y,z
1/2+x,-y,z
1/2+x,1/2+y,1/2+z
1/2-x,1/2-y,1/2+z
-x,1/2+y,1/2+z
x,1/2-y,1/2+z
loop_
_atom_site_type_symbol
_atom_site_label
_atom_site_fract_x
_atom_site_fract_y
_atom_site_fract_z
Si Si1 0.845620 0.798395 0.599860
Si Si2 0.972226 0.636125 0.829850
Si Si3 0.348029 0.532580 0.460630
Si Si4 0.489278 0.368392 0.662295
Si Si5 0.346157 0.939119 0.667466
Si Si6 0.067200 0.890327 0.819112
Si Si7 0.347917 0.702610 0.595307
Si Si8 0.846452 0.743136 0.438546
O O1 0.750000 0.753636 0.615332
O O2 0.920757 0.710122 0.621238
O O3 0.849235 0.816252 0.513748
O O4 0.859715 0.923089 0.642737
O O5 0.955936 0.621660 0.744080
O O6 0.895943 0.686165 0.876980
O O7 0.000000 0.500000 0.854835
O O8 0.034445 0.752794 0.831819
O O9 0.250000 0.518809 0.474044
O O10 0.365198 0.585919 0.381410
O O11 0.374851 0.628244 0.523432
O O12 0.381237 0.392923 0.457870
O O13 0.500000 0.500000 0.627668
O O14 0.585252 0.326136 0.657984
O O15 0.250000 0.926325 0.690771
O O16 0.401013 0.906958 0.737118
O O17 0.355449 0.849649 0.597894
O O18 0.000000 0.000000 0.829572
O O19 0.250000 0.673861 0.610190
O O20 0.750000 0.728378 0.416253
#
# Coordination Sequence:
#
# PCOD9380421 Si02
#       8
#     8   8   8   8   8   8   8   8
#     4  10  23  41  67  99 130 170 223 274 331 396
#     4  11  25  43  60  96 134 172 219 270 330 402
#     4  10  22  38  64  95 126 169 222 272 328 393
#     4  11  23  40  64  90 128 170 218 265 324 389
#     4  10  22  41  65  94 131 174 220 274 331 396
#     4  12  22  39  66  95 131 170 223 272 334 386
#     4  10  22  40  61  93 132 169 213 271 326 386
#     4  10  22  44  66  94 132 174 220 275 332 397
#
# _framework density 19.747776000000002
#
# number of rings (size 3 to 8) (size 9 to 14) (size 15 to 20)
#    0.000    1.500    2.500    1.875    1.750    3.500 
#    0.000    4.375    0.000    0.000    0.000    0.000 
#    0.000    0.000    0.000    0.000    0.000    0.000 
#
# Total GULP energy -178193.567377 kJ/mol
# GULP energy per Si atom -5568.548981 kJ/mol
# Density = 1.970283 g / cm^3
# Si number density = 19.747776 Si / 1000 Ang^3
#
#
#
# Elastic Constant Matrix: (Units=GPa)
#
#
# Indices 1 2 3 4 5 6 
#
# 1 66.2569 52.3702 39.6631 0.0000 0.0000 0.0000
# 2 52.3702 112.7704 33.9647 0.0000 0.0000 0.0000
# 3 39.6631 33.9647 96.6947 0.0000 0.0000 0.0000
# 4 0.0000 0.0000 0.0000 30.5829 0.0000 0.0000
# 5 0.0000 0.0000 0.0000 0.0000 31.3153 0.0000
# 6 0.0000 0.0000 0.0000 0.0000 0.0000 33.4162
#
#
#
# Elastic Compliance Matrix: (Units=1/GPa)
#
#
# Indices 1 2 3 4 5 6 
#
# 1 0.028300 -0.010787 -0.007819 0.000000 0.000000 0.000000
# 2 -0.010787 0.014029 -0.000503 0.000000 0.000000 0.000000
# 3 -0.007819 -0.000503 0.013726 0.000000 0.000000 0.000000
# 4 0.000000 0.000000 0.000000 0.032698 0.000000 0.000000
# 5 0.000000 0.000000 0.000000 0.000000 0.031933 0.000000
# 6 0.000000 0.000000 0.000000 0.000000 0.000000 0.029926
#
#
# Mechanical properties :
#
#
# Convention : Reuss Voigt Hill
#
# Bulk Modulus (GPa) = 56.06744 58.63533 57.35139
# Shear Modulus (GPa) = 25.67059 29.04448 27.35754
#
# Velocity S-wave (km/s) = 3.60936 3.83923 3.72606
# Velocity P-wave (km/s) = 6.76929 7.02919 6.90046
#
# Compressibility (1/GPa) = 0.01783566
#
# Stress axis : x y z
#
# Youngs Moduli (GPa) = 35.33561 71.28273 72.85560
#
# Poissons Ratio (x) = 0.76896 0.56967
# Poissons Ratio (y) = 0.38118 0.03663
# Poissons Ratio (z) = 0.27630 0.03584
#
# Static dielectric constant tensor:
#      x y z
#    x 1.742740 0.000000 0.000000 
#    y 0.000000 1.774220 0.000000 
#    z 0.000000 0.000000 1.673660 
# 
# From -- ./inp_files/19648.got.cif
#   From: 2010.05.17/outbox.cif.g08.bks.cpg/sg46_10_cif.got.tgz:19648.got - 2010.06.03 19:58:25.
