data_PCOD9380133
_publ_section_title
;
Structure prediction by ZEFSAII (Michael W. Deem and Ramdas Pophale) SiO2 
 PCOD9380133
Probable space group: I M A 2
;
_chemical_formula_sum "Si O2"
_cell_formula_units_Z 64
_cell_length_a 15.232982
_cell_length_b 23.881793
_cell_length_c 8.744098
_cell_angle_alpha 90.000000
_cell_angle_beta 90.000000
_cell_angle_gamma 90.000000
_cell_volume 3181.023481
_symmetry_space_group_name_H-M "I M A 2"
_symmetry_group_IT_number 46
_symmetry_cell_setting 'orthorhombic'
loop_
_space_group_symop_operation_xyz
x,y,z
-x,-y,z
1/2-x,y,z
1/2+x,-y,z
1/2+x,1/2+y,1/2+z
1/2-x,1/2-y,1/2+z
-x,1/2+y,1/2+z
x,1/2-y,1/2+z
loop_
_atom_site_type_symbol
_atom_site_label
_atom_site_fract_x
_atom_site_fract_y
_atom_site_fract_z
Si Si1 0.854784 0.405267 0.674090
Si Si2 0.477417 0.691853 0.539798
Si Si3 0.519538 0.311851 0.176007
Si Si4 0.098466 0.484271 0.163353
Si Si5 0.350188 0.364235 0.036650
Si Si6 0.855266 0.978895 0.011072
Si Si7 0.352223 0.138453 0.172129
Si Si8 0.152382 0.599221 0.035637
O O1 0.750000 0.396758 0.647056
O O2 0.881139 0.463576 0.593865
O O3 0.912563 0.354999 0.608117
O O4 0.867499 0.409311 0.856420
O O5 0.473360 0.690629 0.357603
O O6 0.454000 0.752819 0.603230
O O7 0.576346 0.677671 0.593343
O O8 0.581198 0.360754 0.111135
O O9 0.420952 0.327268 0.125092
O O10 0.101909 0.473570 0.344894
O O11 0.151849 0.539412 0.118917
O O12 0.000000 0.500000 0.116428
O O13 0.132445 0.428905 0.080360
O O14 0.250000 0.350070 0.077033
O O15 0.361699 0.357755 0.854735
O O16 0.750000 0.981056 0.987124
O O17 0.872321 0.924623 0.114659
O O18 0.250000 0.150460 0.133399
O O19 0.250000 0.624085 0.048310
#
# Coordination Sequence:
#
# PCOD9380133 Si02
#       8
#     8   8   8   8   8   8   8   8
#     4  10  23  42  66  95 126 168 210 257 315 370
#     4  12  26  43  68  89 130 160 212 266 308 374
#     4  12  26  45  64  97 120 168 212 258 318 366
#     4  12  23  36  60  98 133 166 207 252 314 375
#     4  11  23  43  67  93 129 166 209 259 312 373
#     4  10  21  38  60  93 132 167 211 253 309 377
#     4  10  23  42  66  95 126 168 210 257 315 370
#     4  11  23  43  67  93 129 166 209 259 312 373
#
# _framework density 20.119312000000001
#
# number of rings (size 3 to 8) (size 9 to 14) (size 15 to 20)
#    0.000    1.000    1.250    5.625    1.750    6.000 
#    0.000    0.000    0.000    0.000    0.000    0.000 
#    0.000    0.000    0.000    0.000    0.000    0.000 
#
# Total GULP energy -179081.842990 kJ/mol
# GULP energy per Si atom -5596.307593 kJ/mol
# Density = 2.007352 g / cm^3
# Si number density = 20.119312 Si / 1000 Ang^3
#
#
#
# Elastic Constant Matrix: (Units=GPa)
#
#
# Indices 1 2 3 4 5 6 
#
# 1 49.8510 -11.6523 16.7956 0.0000 0.0000 0.0000
# 2 -11.6523 38.9470 -14.4477 0.0000 0.0000 0.0000
# 3 16.7956 -14.4477 76.1239 -0.0001 -0.0002 -0.0003
# 4 0.0000 0.0000 -0.0001 37.2852 -0.0001 -0.0001
# 5 0.0000 0.0000 -0.0002 -0.0001 31.8203 0.0000
# 6 0.0000 0.0000 -0.0003 -0.0001 0.0000 -14.9543
#
#
#
# Elastic Compliance Matrix: (Units=1/GPa)
#
#
# Indices 1 2 3 4 5 6 
#
# 1 0.022642 0.005294 -0.003991 0.000000 0.000000 0.000000
# 2 0.005294 0.028858 0.004309 0.000000 0.000000 0.000000
# 3 -0.003991 0.004309 0.014835 0.000000 0.000000 0.000000
# 4 0.000000 0.000000 0.000000 0.026820 0.000000 0.000000
# 5 0.000000 0.000000 0.000000 0.000000 0.031426 0.000000
# 6 0.000000 0.000000 0.000000 0.000000 0.000000 -0.066870
#
#
# Mechanical properties :
#
#
# Convention : Reuss Voigt Hill
#
# Bulk Modulus (GPa) = 12.89354 16.25703 14.57528
# Shear Modulus (GPa) = 69.11773 22.44532 45.78152
#
# Velocity S-wave (km/s) = 5.86758 3.34370 4.77540
# Velocity P-wave (km/s) = 7.23375 4.79635 6.13727
#
# Compressibility (1/GPa) = 0.07755819
#
# Stress axis : x y z
#
# Youngs Moduli (GPa) = 44.16627 34.65227 67.40896
#
# Poissons Ratio (x) = -0.18343 0.26902
# Poissons Ratio (y) = -0.23380 -0.29047
# Poissons Ratio (z) = 0.17626 -0.14932
#
# Static dielectric constant tensor:
#      x y z
#    x 1.734190 0.000000 0.000000 
#    y 0.000000 1.675690 0.000000 
#    z 0.000000 0.000000 1.666660 
# 
# From -- ./inp_files/6086.got.cif
#   From: 2010.05.17/outbox.cif.g08.bks.cpg/sg46_4_cif.got.tgz:6086.got - 2010.06.03 19:58:25.
