data_PCOD9380223
_publ_section_title
;
Structure prediction by ZEFSAII (Michael W. Deem and Ramdas Pophale) SiO2 
 PCOD9380223
Probable space group: I M A 2
;
_chemical_formula_sum "Si O2"
_cell_formula_units_Z 64
_cell_length_a 18.286668
_cell_length_b 11.874450
_cell_length_c 14.004086
_cell_angle_alpha 90.000000
_cell_angle_beta 90.000000
_cell_angle_gamma 90.000000
_cell_volume 3040.904999
_symmetry_space_group_name_H-M "I M A 2"
_symmetry_group_IT_number 46
_symmetry_cell_setting 'orthorhombic'
loop_
_space_group_symop_operation_xyz
x,y,z
-x,-y,z
1/2-x,y,z
1/2+x,-y,z
1/2+x,1/2+y,1/2+z
1/2-x,1/2-y,1/2+z
-x,1/2+y,1/2+z
x,1/2-y,1/2+z
loop_
_atom_site_type_symbol
_atom_site_label
_atom_site_fract_x
_atom_site_fract_y
_atom_site_fract_z
Si Si1 0.836017 0.940745 0.040380
Si Si2 0.077995 0.951103 0.727238
Si Si3 0.553768 0.238126 0.605042
Si Si4 0.661567 0.903052 0.373677
Si Si5 0.832034 0.824461 0.760995
Si Si6 0.613209 0.795223 0.558061
Si Si7 0.082652 0.959296 0.223508
Si Si8 0.564817 0.094420 0.934322
O O1 0.750000 0.936683 0.055070
O O2 0.867858 0.822044 0.006692
O O3 0.878121 0.972098 0.137774
O O4 0.860553 0.033499 0.964863
O O5 0.099283 0.871154 0.639035
O O6 0.064370 0.878692 0.823007
O O7 0.124770 0.057868 0.761834
O O8 0.000000 0.000000 0.699508
O O9 0.467452 0.209065 0.602965
O O10 0.575065 0.333948 0.681879
O O11 0.561191 0.297433 0.502138
O O12 0.750000 0.907265 0.377691
O O13 0.640404 0.788869 0.313825
O O14 0.627827 0.889510 0.479158
O O15 0.628942 0.009363 0.316863
O O16 0.750000 0.843314 0.797097
O O17 0.833003 0.799044 0.647922
O O18 0.000000 0.000000 0.237697
O O19 0.500000 0.000000 0.953020
#
# Coordination Sequence:
#
# PCOD9380223 Si02
#       8
#     8   8   8   8   8   8   8   8
#     4  11  19  35  65  96 127 166 211 271 332 388
#     4  11  24  41  62  90 127 171 215 264 318 386
#     4  11  22  41  63  92 127 172 220 262 319 392
#     4  11  24  40  67 105 136 171 218 279 348 400
#     4  11  23  42  65  93 130 167 213 273 330 391
#     4  12  21  38  64  98 134 165 211 271 338 400
#     4  11  21  40  62  93 134 172 218 269 326 401
#     4  10  21  39  63  90 126 165 217 272 312 381
#
# _framework density 21.046365999999999
#
# number of rings (size 3 to 8) (size 9 to 14) (size 15 to 20)
#    0.000    1.000    5.000    3.000    1.750    1.500 
#    4.500    3.125    0.000    0.000    0.000    0.000 
#    0.000    0.000    0.000    0.000    0.000    0.000 
#
# Total GULP energy -178535.074044 kJ/mol
# GULP energy per Si atom -5579.221064 kJ/mol
# Density = 2.099846 g / cm^3
# Si number density = 21.046366 Si / 1000 Ang^3
#
#
#
# Elastic Constant Matrix: (Units=GPa)
#
#
# Indices 1 2 3 4 5 6 
#
# 1 79.9573 31.3401 4.4978 0.0000 0.0000 0.0000
# 2 31.3401 51.5395 40.0277 0.0000 0.0000 0.0000
# 3 4.4978 40.0277 86.6802 0.0000 0.0000 0.0000
# 4 0.0000 0.0000 0.0000 27.7776 0.0000 0.0000
# 5 0.0000 0.0000 0.0000 0.0000 -6.5249 0.0000
# 6 0.0000 0.0000 0.0000 0.0000 0.0000 20.5814
#
#
#
# Elastic Compliance Matrix: (Units=1/GPa)
#
#
# Indices 1 2 3 4 5 6 
#
# 1 0.018581 -0.016450 0.006632 0.000000 0.000000 0.000000
# 2 -0.016450 0.044815 -0.019841 0.000000 0.000000 0.000000
# 3 0.006632 -0.019841 0.020355 0.000000 0.000000 0.000000
# 4 0.000000 0.000000 0.000000 0.036000 0.000000 0.000000
# 5 0.000000 0.000000 0.000000 0.000000 -0.153259 0.000000
# 6 0.000000 0.000000 0.000000 0.000000 0.000000 0.048588
#
#
# Mechanical properties :
#
#
# Convention : Reuss Voigt Hill
#
# Bulk Modulus (GPa) = 40.92777 41.10092 41.01435
# Shear Modulus (GPa) = 60.57560 17.85425 39.21492
#
# Velocity S-wave (km/s) = 5.37070 2.91577 4.32124
# Velocity P-wave (km/s) = 7.61236 5.55938 6.66539
#
# Compressibility (1/GPa) = 0.02443329
#
# Stress axis : x y z
#
# Youngs Moduli (GPa) = 53.81790 22.31407 49.12809
#
# Poissons Ratio (x) = 0.36706 -0.32582
# Poissons Ratio (y) = 0.88528 0.97476
# Poissons Ratio (z) = -0.35692 0.44274
#
# Static dielectric constant tensor:
#      x y z
#    x 1.771150 0.000000 0.000000 
#    y 0.000000 1.845680 0.000000 
#    z 0.000000 0.000000 1.804300 
# 
# From -- ./inp_files/16763.got.cif
#   From: 2010.05.17/outbox.cif.g08.bks.cpg/sg46_9_cif.got.tgz:16763.got - 2010.06.03 19:58:25.
