data_PCOD9380443
_publ_section_title
;
Structure prediction by ZEFSAII (Michael W. Deem and Ramdas Pophale) SiO2 
 PCOD9380443
Probable space group: I M A 2
;
_chemical_formula_sum "Si O2"
_cell_formula_units_Z 48
_cell_length_a 19.117239
_cell_length_b 5.395531
_cell_length_c 22.055589
_cell_angle_alpha 90.000000
_cell_angle_beta 90.000000
_cell_angle_gamma 90.000000
_cell_volume 2274.982300
_symmetry_space_group_name_H-M "I M A 2"
_symmetry_group_IT_number 46
_symmetry_cell_setting 'orthorhombic'
loop_
_space_group_symop_operation_xyz
x,y,z
-x,-y,z
1/2-x,y,z
1/2+x,-y,z
1/2+x,1/2+y,1/2+z
1/2-x,1/2-y,1/2+z
-x,1/2+y,1/2+z
x,1/2-y,1/2+z
loop_
_atom_site_type_symbol
_atom_site_label
_atom_site_fract_x
_atom_site_fract_y
_atom_site_fract_z
Si Si1 0.374718 0.702343 0.942760
Si Si2 0.330540 0.177186 0.211985
Si Si3 0.829725 0.172050 0.633820
Si Si4 0.960228 0.253155 0.050580
Si Si5 0.581493 0.563104 0.830571
Si Si6 0.673353 0.704812 0.421300
O O1 0.383547 0.658766 0.870349
O O2 0.339207 0.444851 0.962688
O O3 0.330942 0.946091 0.954493
O O4 0.446880 0.733495 0.978324
O O5 0.250000 0.213377 0.233468
O O6 0.348211 0.424059 0.172880
O O7 0.383121 0.127035 0.267207
O O8 0.331472 0.922833 0.173802
O O9 0.750000 0.135633 0.612573
O O10 0.884996 0.225065 0.581479
O O11 0.000000 0.500000 0.069818
O O12 0.000000 0.000000 0.066060
O O13 0.500000 0.500000 0.825734
O O14 0.607339 0.782560 0.875555
O O15 0.750000 0.731010 0.391932
#
# Coordination Sequence:
#
# PCOD9380443 Si02
#       6
#     8   8   8   8   8   8
#     4  10  24  39  64  93 133 167 215 261 336 387
#     4  10  22  42  66  93 130 172 219 275 329 385
#     4  10  24  45  67  95 129 171 223 280 331 385
#     4  12  25  44  71  97 132 177 218 274 334 400
#     4  10  24  40  64  96 135 174 213 268 331 403
#     4  10  22  39  61  91 126 170 218 260 312 388
#
# _framework density 21.099063000000001
#
# number of rings (size 3 to 8) (size 9 to 14) (size 15 to 20)
#    1.000    0.667    0.000    3.500    4.667    3.333 
#    0.000    1.667    0.000    0.000    0.000    0.000 
#    0.000    0.000    0.000    0.000    0.000    0.000 
#
# Total GULP energy -133662.074110 kJ/mol
# GULP energy per Si atom -5569.253088 kJ/mol
# Density = 2.105104 g / cm^3
# Si number density = 21.099063 Si / 1000 Ang^3
#
#
#
# Elastic Constant Matrix: (Units=GPa)
#
#
# Indices 1 2 3 4 5 6 
#
# 1 107.4819 49.3431 43.5169 0.0000 0.0000 0.0000
# 2 49.3431 191.4220 36.2504 0.0000 0.0000 0.0000
# 3 43.5169 36.2504 63.1797 0.0000 0.0000 0.0000
# 4 0.0000 0.0000 0.0000 6.5571 0.0000 0.0000
# 5 0.0000 0.0000 0.0000 0.0000 32.8172 0.0000
# 6 0.0000 0.0000 0.0000 0.0000 0.0000 23.1982
#
#
#
# Elastic Compliance Matrix: (Units=1/GPa)
#
#
# Indices 1 2 3 4 5 6 
#
# 1 0.013509 -0.001930 -0.008197 0.000000 0.000000 0.000000
# 2 -0.001930 0.006137 -0.002192 0.000000 0.000000 0.000000
# 3 -0.008197 -0.002192 0.022732 0.000000 0.000000 0.000000
# 4 0.000000 0.000000 0.000000 0.152506 0.000000 0.000000
# 5 0.000000 0.000000 0.000000 0.000000 0.030472 0.000000
# 6 0.000000 0.000000 0.000000 0.000000 0.000000 0.043107
#
#
# Mechanical properties :
#
#
# Convention : Reuss Voigt Hill
#
# Bulk Modulus (GPa) = 56.37242 68.92270 62.64756
# Shear Modulus (GPa) = 16.72171 28.04604 22.38388
#
# Velocity S-wave (km/s) = 2.81825 3.64985 3.26067
# Velocity P-wave (km/s) = 6.11278 7.10627 6.62816
#
# Compressibility (1/GPa) = 0.01773917
#
# Stress axis : x y z
#
# Youngs Moduli (GPa) = 74.02628 162.95748 43.99173
#
# Poissons Ratio (x) = 0.31448 0.36061
# Poissons Ratio (y) = 0.14286 0.09642
# Poissons Ratio (z) = 0.60681 0.35716
#
# Static dielectric constant tensor:
#      x y z
#    x 1.780370 0.000000 0.000000 
#    y 0.000000 1.838800 0.000000 
#    z 0.000000 0.000000 1.772210 
# 
# From -- ./inp_files/23744.got.cif
#   From: 2010.05.17/outbox.cif.g08.bks.cpg/sg46_12_cif.got.tgz:23744.got - 2010.06.03 19:58:25.
