data_PCOD9380698
_publ_section_title
;
Structure prediction by ZEFSAII (Michael W. Deem and Ramdas Pophale) SiO2 
 PCOD9380698
Probable space group: I M A 2
;
_chemical_formula_sum "Si O2"
_cell_formula_units_Z 48
_cell_length_a 14.740944
_cell_length_b 5.243616
_cell_length_c 27.070414
_cell_angle_alpha 90.000000
_cell_angle_beta 90.000000
_cell_angle_gamma 90.000000
_cell_volume 2092.430655
_symmetry_space_group_name_H-M "I M A 2"
_symmetry_group_IT_number 46
_symmetry_cell_setting 'orthorhombic'
loop_
_space_group_symop_operation_xyz
x,y,z
-x,-y,z
1/2-x,y,z
1/2+x,-y,z
1/2+x,1/2+y,1/2+z
1/2-x,1/2-y,1/2+z
-x,1/2+y,1/2+z
x,1/2-y,1/2+z
loop_
_atom_site_type_symbol
_atom_site_label
_atom_site_fract_x
_atom_site_fract_y
_atom_site_fract_z
Si Si1 0.140610 0.559560 0.709900
Si Si2 0.059043 0.754628 0.107201
Si Si3 0.600174 0.369837 0.004065
Si Si4 0.250000 0.491334 0.924681
Si Si5 0.500000 0.500000 0.444382
Si Si6 0.140629 0.443239 0.266316
Si Si7 0.418641 0.340512 0.860483
O O1 0.250000 0.555490 0.708935
O O2 0.106444 0.643226 0.656344
O O3 0.110381 0.282396 0.728991
O O4 0.111397 0.780846 0.747729
O O5 0.123099 0.674330 0.061341
O O6 0.000000 0.500000 0.118074
O O7 0.000000 0.000000 0.089575
O O8 0.500000 0.500000 0.004744
O O9 0.671865 0.502550 0.968822
O O10 0.581753 0.099368 0.977674
O O11 0.330449 0.484431 0.881466
O O12 0.534845 0.714834 0.407891
O O13 0.250000 0.441157 0.265871
O O14 0.110960 0.370804 0.321161
O O15 0.500000 0.500000 0.837112
#
# Coordination Sequence:
#
# PCOD9380698 Si02
#       7
#     8   8   8   4   4   8   8
#     4  10  23  44  69 100 137 175 230 290 345 426
#     4  11  24  43  71 100 138 181 228 289 357 420
#     4  11  24  45  67  99 141 178 231 292 349 425
#     4  12  22  46  68  94 142 184 232 286 366 424
#     4  12  22  46  64  96 142 172 228 302 338 414
#     4  10  23  44  68  98 139 182 229 289 351 421
#     4  12  26  43  67 102 137 181 239 293 356 433
#
# _framework density 22.939827000000001
#
# number of rings (size 3 to 8) (size 9 to 14) (size 15 to 20)
#    0.000    1.000    5.000    1.000    3.500    2.667 
#    3.000    0.000    5.500    0.000    0.000    0.000 
#    0.000    0.000    0.000    0.000    0.000    0.000 
#
# Total GULP energy -133655.232233 kJ/mol
# GULP energy per Si atom -5568.968010 kJ/mol
# Density = 2.288761 g / cm^3
# Si number density = 22.939827 Si / 1000 Ang^3
#
#
#
# Elastic Constant Matrix: (Units=GPa)
#
#
# Indices 1 2 3 4 5 6 
#
# 1 113.7246 22.1381 25.6969 0.0000 0.0000 0.0000
# 2 22.1381 56.1937 -24.9992 0.0000 0.0000 0.0000
# 3 25.6969 -24.9992 94.7148 0.0000 0.0000 0.0000
# 4 0.0000 0.0000 0.0000 13.8680 0.0000 0.0000
# 5 0.0000 0.0000 0.0000 0.0000 13.5091 0.0000
# 6 0.0000 0.0000 0.0000 0.0000 0.0000 12.5687
#
#
#
# Elastic Compliance Matrix: (Units=1/GPa)
#
#
# Indices 1 2 3 4 5 6 
#
# 1 0.011125 -0.006487 -0.004731 0.000000 0.000000 0.000000
# 2 -0.006487 0.023946 0.008080 0.000000 0.000000 0.000000
# 3 -0.004731 0.008080 0.013974 0.000000 0.000000 0.000000
# 4 0.000000 0.000000 0.000000 0.072109 0.000000 0.000000
# 5 0.000000 0.000000 0.000000 0.000000 0.074024 0.000000
# 6 0.000000 0.000000 0.000000 0.000000 0.000000 0.079563
#
#
# Mechanical properties :
#
#
# Convention : Reuss Voigt Hill
#
# Bulk Modulus (GPa) = 23.38062 34.47828 28.92945
# Shear Modulus (GPa) = 16.93351 24.10897 20.52124
#
# Velocity S-wave (km/s) = 2.71988 3.24538 2.99418
# Velocity P-wave (km/s) = 4.48084 5.39498 4.95902
#
# Compressibility (1/GPa) = 0.04277047
#
# Stress axis : x y z
#
# Youngs Moduli (GPa) = 89.88835 41.76043 71.56041
#
# Poissons Ratio (x) = 0.27091 0.33852
# Poissons Ratio (y) = 0.58313 -0.57824
# Poissons Ratio (z) = 0.42522 -0.33744
#
# Static dielectric constant tensor:
#      x y z
#    x 1.859780 0.000000 0.000000 
#    y 0.000000 1.914420 0.000000 
#    z 0.000000 0.000000 1.825140 
# 
# From -- ./inp_files/24605.got.cif
#   From: 2010.05.17/outbox.cif.g08.bks.cpg/sg46_13_cif.got.tgz:24605.got - 2010.06.03 19:58:25.
