data_PCOD9380580
_publ_section_title
;
Structure prediction by ZEFSAII (Michael W. Deem and Ramdas Pophale) SiO2 
 PCOD9380580
Probable space group: I M A 2
;
_chemical_formula_sum "Si O2"
_cell_formula_units_Z 44
_cell_length_a 14.432792
_cell_length_b 8.861173
_cell_length_c 16.489854
_cell_angle_alpha 90.000000
_cell_angle_beta 90.000000
_cell_angle_gamma 90.000000
_cell_volume 2108.911615
_symmetry_space_group_name_H-M "I M A 2"
_symmetry_group_IT_number 46
_symmetry_cell_setting 'orthorhombic'
loop_
_space_group_symop_operation_xyz
x,y,z
-x,-y,z
1/2-x,y,z
1/2+x,-y,z
1/2+x,1/2+y,1/2+z
1/2-x,1/2-y,1/2+z
-x,1/2+y,1/2+z
x,1/2-y,1/2+z
loop_
_atom_site_type_symbol
_atom_site_label
_atom_site_fract_x
_atom_site_fract_y
_atom_site_fract_z
Si Si1 0.250000 0.890004 0.623811
Si Si2 0.750000 0.935875 0.847741
Si Si3 0.750000 0.722630 0.086130
Si Si4 0.250000 0.094913 0.404013
Si Si5 0.093422 0.907760 0.747888
Si Si6 0.401765 0.924000 0.307844
Si Si7 0.750000 0.140489 0.010736
Si Si8 0.110518 0.020154 0.126934
O O1 0.155472 0.850527 0.671877
O O2 0.250000 0.818462 0.533676
O O3 0.250000 0.068457 0.632898
O O4 0.750000 0.756023 0.857477
O O5 0.841402 0.982446 0.799277
O O6 0.750000 0.048222 0.926832
O O7 0.841581 0.818974 0.107490
O O8 0.750000 0.661920 0.994379
O O9 0.335676 0.990554 0.376615
O O10 0.082302 0.755542 0.801245
O O11 0.000000 0.000000 0.727393
O O12 0.500000 0.000000 0.318965
O O13 0.364724 0.977977 0.219525
O O14 0.838947 0.082235 0.060574
O O15 0.000000 0.000000 0.120326
#
# Coordination Sequence:
#
# PCOD9380580 Si02
#       8
#     4   4   4   4   8   8   4   8
#     4  11  25  39  69  97 133 171 218 291 327 404
#     4  11  25  40  68  95 135 178 216 275 339 409
#     4  11  26  41  66 102 135 174 220 275 344 406
#     4  12  23  45  65  99 139 177 219 271 345 405
#     4  11  25  44  67  98 131 174 233 278 336 399
#     4  11  24  42  70  96 130 178 228 280 334 398
#     4  11  21  45  62  97 132 176 219 268 345 400
#     4  10  22  43  70  93 128 175 227 271 333 399
#
# _framework density 20.86384
#
# number of rings (size 3 to 8) (size 9 to 14) (size 15 to 20)
#    0.000    1.091    3.636    3.273   12.727    0.727 
#    3.273    0.909    0.000    0.000    0.000    0.000 
#    0.000    0.000    0.000    0.000    0.000    0.000 
#
# Total GULP energy -122673.706811 kJ/mol
# GULP energy per Si atom -5576.077582 kJ/mol
# Density = 2.081635 g / cm^3
# Si number density = 20.863840 Si / 1000 Ang^3
#
#
#
# Elastic Constant Matrix: (Units=GPa)
#
#
# Indices 1 2 3 4 5 6 
#
# 1 126.1985 34.2212 29.0344 0.0000 0.0000 0.0000
# 2 34.2212 141.5437 4.4540 0.0000 0.0000 0.0000
# 3 29.0344 4.4540 80.3789 0.0000 0.0000 0.0000
# 4 0.0000 0.0000 0.0000 39.1902 0.0000 0.0000
# 5 0.0000 0.0000 0.0000 0.0000 -18.3234 0.0000
# 6 0.0000 0.0000 0.0000 0.0000 0.0000 190.6623
#
#
#
# Elastic Compliance Matrix: (Units=1/GPa)
#
#
# Indices 1 2 3 4 5 6 
#
# 1 0.009244 -0.002133 -0.003221 0.000000 0.000000 0.000000
# 2 -0.002133 0.007570 0.000351 0.000000 0.000000 0.000000
# 3 -0.003221 0.000351 0.013585 0.000000 0.000000 0.000000
# 4 0.000000 0.000000 0.000000 0.025517 0.000000 0.000000
# 5 0.000000 0.000000 0.000000 0.000000 -0.054575 0.000000
# 6 0.000000 0.000000 0.000000 0.000000 0.000000 0.005245
#
#
# Mechanical properties :
#
#
# Convention : Reuss Voigt Hill
#
# Bulk Modulus (GPa) = 49.03823 53.72671 51.38247
# Shear Modulus (GPa) = 213.78262 60.99991 137.39126
#
# Velocity S-wave (km/s) = 10.13351 5.41300 8.12369
# Velocity P-wave (km/s) = 12.66777 8.05447 10.61477
#
# Compressibility (1/GPa) = 0.02039225
#
# Stress axis : x y z
#
# Youngs Moduli (GPa) = 108.18359 132.10531 73.61062
#
# Poissons Ratio (x) = 0.28184 0.23708
# Poissons Ratio (y) = 0.23081 -0.02585
# Poissons Ratio (z) = 0.34843 -0.04639
#
# Static dielectric constant tensor:
#      x y z
#    x 1.749670 0.000000 0.000000 
#    y 0.000000 1.828790 0.000000 
#    z 0.000000 0.000000 1.794510 
# 
# From -- ./inp_files/19370.got.cif
#   From: 2010.05.17/outbox.cif.g08.bks.cpg/sg46_10_cif.got.tgz:19370.got - 2010.06.03 19:58:25.
