data_PCOD9380775
_publ_section_title
;
Structure prediction by ZEFSAII (Michael W. Deem and Ramdas Pophale) SiO2 
 PCOD9380775
Probable space group: I M A 2
;
_chemical_formula_sum "Si O2"
_cell_formula_units_Z 64
_cell_length_a 18.468764
_cell_length_b 12.301346
_cell_length_c 12.479984
_cell_angle_alpha 90.000000
_cell_angle_beta 90.000000
_cell_angle_gamma 90.000000
_cell_volume 2835.335754
_symmetry_space_group_name_H-M "I M A 2"
_symmetry_group_IT_number 46
_symmetry_cell_setting 'orthorhombic'
loop_
_space_group_symop_operation_xyz
x,y,z
-x,-y,z
1/2-x,y,z
1/2+x,-y,z
1/2+x,1/2+y,1/2+z
1/2-x,1/2-y,1/2+z
-x,1/2+y,1/2+z
x,1/2-y,1/2+z
loop_
_atom_site_type_symbol
_atom_site_label
_atom_site_fract_x
_atom_site_fract_y
_atom_site_fract_z
Si Si1 0.573276 0.454293 0.231720
Si Si2 0.668860 0.199520 0.096190
Si Si3 0.168304 0.500516 0.434336
Si Si4 0.417417 0.635854 0.970985
Si Si5 0.098333 0.413159 0.831545
Si Si6 0.835823 0.658830 0.620982
Si Si7 0.917175 0.636097 0.054634
Si Si8 0.450903 0.707960 0.760374
O O1 0.500000 0.500000 0.280905
O O2 0.632618 0.477285 0.320447
O O3 0.547784 0.330374 0.217365
O O4 0.590486 0.523471 0.122667
O O5 0.750000 0.207442 0.142833
O O6 0.644403 0.317115 0.048952
O O7 0.608428 0.158404 0.180244
O O8 0.670320 0.111107 0.002723
O O9 0.250000 0.464471 0.413141
O O10 0.137673 0.411515 0.518473
O O11 0.498711 0.637532 0.018777
O O12 0.419548 0.725795 0.878070
O O13 0.152131 0.406338 0.732119
O O14 0.091277 0.528643 0.895005
O O15 0.023575 0.363074 0.780256
O O16 0.121132 0.346987 0.938298
O O17 0.750000 0.681982 0.610586
O O18 0.884535 0.767541 0.625261
#
# Coordination Sequence:
#
# PCOD9380775 Si02
#       8
#     8   8   8   8   8   8   8   8
#     4  12  24  41  68 103 138 178 233 290 356 424
#     4  11  23  42  68 101 143 186 236 294 358 438
#     4  10  25  45  65  97 140 185 234 288 352 431
#     4  11  23  44  69 102 139 182 236 296 361 426
#     4  11  24  44  74 102 143 184 238 302 364 431
#     4  11  26  46  70 101 143 192 240 294 363 444
#     4  11  25  44  70 103 141 181 234 303 362 422
#     4  11  23  40  68 102 136 182 233 295 360 420
#
# _framework density 22.572284
#
# number of rings (size 3 to 8) (size 9 to 14) (size 15 to 20)
#    0.000    1.000    1.250    6.000    5.250    3.500 
#    0.000    1.250    0.000    2.250    0.000    0.000 
#    0.000    0.000    0.000    0.000    0.000    0.000 
#
# Total GULP energy -178164.620260 kJ/mol
# GULP energy per Si atom -5567.644383 kJ/mol
# Density = 2.252091 g / cm^3
# Si number density = 22.572284 Si / 1000 Ang^3
#
#
#
# Elastic Constant Matrix: (Units=GPa)
#
#
# Indices 1 2 3 4 5 6 
#
# 1 69.2969 31.9111 34.2544 0.0000 0.0000 0.0000
# 2 31.9111 117.5093 18.8016 0.0000 0.0000 0.0000
# 3 34.2544 18.8016 120.1212 0.0000 0.0000 0.0000
# 4 0.0000 0.0000 0.0000 4.1860 0.0000 0.0000
# 5 0.0000 0.0000 0.0000 0.0000 8.1255 0.0000
# 6 0.0000 0.0000 0.0000 0.0000 0.0000 22.3884
#
#
#
# Elastic Compliance Matrix: (Units=1/GPa)
#
#
# Indices 1 2 3 4 5 6 
#
# 1 0.018735 -0.004342 -0.004663 0.000000 0.000000 0.000000
# 2 -0.004342 0.009735 -0.000286 0.000000 0.000000 0.000000
# 3 -0.004663 -0.000286 0.009699 0.000000 0.000000 0.000000
# 4 0.000000 0.000000 0.000000 0.238890 0.000000 0.000000
# 5 0.000000 0.000000 0.000000 0.000000 0.123070 0.000000
# 6 0.000000 0.000000 0.000000 0.000000 0.000000 0.044666
#
#
# Mechanical properties :
#
#
# Convention : Reuss Voigt Hill
#
# Bulk Modulus (GPa) = 51.05029 52.98461 52.01745
# Shear Modulus (GPa) = 10.64046 21.73733 16.18889
#
# Velocity S-wave (km/s) = 2.17352 3.10661 2.68097
# Velocity P-wave (km/s) = 5.38186 6.03260 5.71650
#
# Compressibility (1/GPa) = 0.01958853
#
# Stress axis : x y z
#
# Youngs Moduli (GPa) = 53.37611 102.72540 103.09960
#
# Poissons Ratio (x) = 0.44600 0.48075
# Poissons Ratio (y) = 0.23174 0.02945
# Poissons Ratio (z) = 0.24889 0.02934
#
# Static dielectric constant tensor:
#      x y z
#    x 1.867420 0.000000 0.000000 
#    y 0.000000 2.039720 0.000000 
#    z 0.000000 0.000000 1.942790 
# 
# From -- ./inp_files/11969.got.cif
#   From: 2010.05.17/outbox.cif.g08.bks.cpg/sg46_6_cif.got.tgz:11969.got - 2010.06.03 19:58:25.
