data_PCOD9380249
_publ_section_title
;
Structure prediction by ZEFSAII (Michael W. Deem and Ramdas Pophale) SiO2 
 PCOD9380249
Probable space group: I M A 2
;
_chemical_formula_sum "Si O2"
_cell_formula_units_Z 48
_cell_length_a 25.601501
_cell_length_b 6.402884
_cell_length_c 14.445817
_cell_angle_alpha 90.000000
_cell_angle_beta 90.000000
_cell_angle_gamma 90.000000
_cell_volume 2368.008033
_symmetry_space_group_name_H-M "I M A 2"
_symmetry_group_IT_number 46
_symmetry_cell_setting 'orthorhombic'
loop_
_space_group_symop_operation_xyz
x,y,z
-x,-y,z
1/2-x,y,z
1/2+x,-y,z
1/2+x,1/2+y,1/2+z
1/2-x,1/2-y,1/2+z
-x,1/2+y,1/2+z
x,1/2-y,1/2+z
loop_
_atom_site_type_symbol
_atom_site_label
_atom_site_fract_x
_atom_site_fract_y
_atom_site_fract_z
Si Si1 0.365991 0.421138 0.230260
Si Si2 0.902730 0.222112 0.563071
Si Si3 0.250000 0.918081 0.319317
Si Si4 0.334711 0.877968 0.901735
Si Si5 0.750000 0.707687 0.465381
Si Si6 0.500000 0.500000 0.060750
Si Si7 0.450085 0.388177 0.672796
Si Si8 0.250000 0.232142 0.682271
O O1 0.382699 0.578450 0.147926
O O2 0.375318 0.525916 0.329523
O O3 0.401318 0.213340 0.225726
O O4 0.304173 0.368587 0.218975
O O5 0.858548 0.261228 0.488628
O O6 0.924975 0.439921 0.603788
O O7 0.950285 0.101388 0.512552
O O8 0.200373 0.775603 0.340023
O O9 0.250000 0.100014 0.395687
O O10 0.250000 0.030478 0.220528
O O11 0.299600 0.063952 0.942481
O O12 0.750000 0.775237 0.571723
O O13 0.523503 0.690095 0.121340
O O14 0.500000 0.500000 0.721121
#
# Coordination Sequence:
#
# PCOD9380249 Si02
#       8
#     8   8   4   8   4   4   8   4
#     4  11  23  40  62 100 132 166 218 266 312 394
#     4  10  21  39  69  89 124 174 209 263 329 372
#     4  11  24  43  58  90 134 168 205 264 314 379
#     4  11  24  39  61  95 131 163 214 265 311 387
#     4  11  23  41  59  91 127 165 219 257 307 386
#     4   8  18  40  66  92 122 154 222 264 312 388
#     4   9  19  40  71  92 124 172 214 263 322 374
#     4  12  23  42  67  89 131 177 210 259 329 379
#
# _framework density 20.270202999999999
#
# number of rings (size 3 to 8) (size 9 to 14) (size 15 to 20)
#    0.000    1.667    1.667    2.500    4.667    2.000 
#    0.000    0.000   44.000    0.000    0.000    0.000 
#    0.000    0.000    0.000    0.000    0.000    0.000 
#
# Total GULP energy -133900.493135 kJ/mol
# GULP energy per Si atom -5579.187214 kJ/mol
# Density = 2.022407 g / cm^3
# Si number density = 20.270203 Si / 1000 Ang^3
#
#
#
# Elastic Constant Matrix: (Units=GPa)
#
#
# Indices 1 2 3 4 5 6 
#
# 1 83.3903 31.9493 4.8055 0.0000 0.0000 0.0000
# 2 31.9493 91.0350 0.8841 0.0000 0.0000 0.0000
# 3 4.8055 0.8841 55.5681 0.0000 0.0000 0.0000
# 4 0.0000 0.0000 0.0000 28.2952 0.0000 0.0000
# 5 0.0000 0.0000 0.0000 0.0000 -42.8150 0.0000
# 6 0.0000 0.0000 0.0000 0.0000 0.0000 -41.8930
#
#
#
# Elastic Compliance Matrix: (Units=1/GPa)
#
#
# Indices 1 2 3 4 5 6 
#
# 1 0.013925 -0.004876 -0.001127 0.000000 0.000000 0.000000
# 2 -0.004876 0.012694 0.000220 0.000000 0.000000 0.000000
# 3 -0.001127 0.000220 0.018090 0.000000 0.000000 0.000000
# 4 0.000000 0.000000 0.000000 0.035342 0.000000 0.000000
# 5 0.000000 0.000000 0.000000 0.000000 -0.023356 0.000000
# 6 0.000000 0.000000 0.000000 0.000000 0.000000 -0.023870
#
#
# Mechanical properties :
#
#
# Convention : Reuss Voigt Hill
#
# Bulk Modulus (GPa) = 30.17254 33.91901 32.04578
# Shear Modulus (GPa) = 90.19201 1.54109 45.86655
#
# Velocity S-wave (km/s) = 6.67768 0.87288 4.76201
# Velocity P-wave (km/s) = 8.62397 4.21730 6.78817
#
# Compressibility (1/GPa) = 0.03314272
#
# Stress axis : x y z
#
# Youngs Moduli (GPa) = 71.81387 78.77779 55.27953
#
# Poissons Ratio (x) = 0.38413 0.06228
# Poissons Ratio (y) = 0.35017 -0.01215
# Poissons Ratio (z) = 0.08091 -0.01731
#
# Static dielectric constant tensor:
#      x y z
#    x 1.753790 0.000000 0.000000 
#    y 0.000000 1.725370 0.000000 
#    z 0.000000 0.000000 1.665300 
# 
# From -- ./inp_files/17588.got.cif
#   From: 2010.05.17/outbox.cif.g08.bks.cpg/sg46_9_cif.got.tgz:17588.got - 2010.06.03 19:58:25.
