data_PCOD9380291
_publ_section_title
;
Structure prediction by ZEFSAII (Michael W. Deem and Ramdas Pophale) SiO2 
 PCOD9380291
Probable space group: I M A 2
;
_chemical_formula_sum "Si O2"
_cell_formula_units_Z 64
_cell_length_a 30.043583
_cell_length_b 10.923944
_cell_length_c 9.778611
_cell_angle_alpha 90.000000
_cell_angle_beta 90.000000
_cell_angle_gamma 90.000000
_cell_volume 3209.285548
_symmetry_space_group_name_H-M "I M A 2"
_symmetry_group_IT_number 46
_symmetry_cell_setting 'orthorhombic'
loop_
_space_group_symop_operation_xyz
x,y,z
-x,-y,z
1/2-x,y,z
1/2+x,-y,z
1/2+x,1/2+y,1/2+z
1/2-x,1/2-y,1/2+z
-x,1/2+y,1/2+z
x,1/2-y,1/2+z
loop_
_atom_site_type_symbol
_atom_site_label
_atom_site_fract_x
_atom_site_fract_y
_atom_site_fract_z
Si Si1 0.586747 0.785595 0.708570
Si Si2 0.327061 0.146526 0.251879
Si Si3 0.868396 0.473442 0.251567
Si Si4 0.197573 0.626736 0.804183
Si Si5 0.965342 0.660469 0.483711
Si Si6 0.347230 0.748861 0.060592
Si Si7 0.066471 0.608061 0.475597
Si Si8 0.199353 0.119836 0.934412
O O1 0.620587 0.675457 0.739677
O O2 0.553368 0.756423 0.589333
O O3 0.558700 0.816329 0.841497
O O4 0.616874 0.903117 0.675361
O O5 0.307531 0.256078 0.345268
O O6 0.316040 0.015425 0.316484
O O7 0.309776 0.145787 0.094553
O O8 0.849576 0.376306 0.146732
O O9 0.910924 0.415880 0.328395
O O10 0.834743 0.520901 0.370094
O O11 0.250000 0.640000 0.828129
O O12 0.185017 0.665560 0.649749
O O13 0.170792 0.711829 0.911258
O O14 0.947040 0.526785 0.530964
O O15 0.018224 0.669384 0.468721
O O16 0.395447 0.815245 0.052993
O O17 0.250000 0.077602 0.918597
#
# Coordination Sequence:
#
# PCOD9380291 Si02
#       8
#     8   8   8   8   8   8   8   8
#     4  10  21  40  65  96 124 165 208 261 326 379
#     4  11  24  42  68  97 136 172 215 275 330 384
#     4  10  23  41  65  91 131 173 209 267 327 386
#     4  12  27  44  65  94 129 176 226 270 320 389
#     4  10  22  39  71  92 129 162 214 264 320 398
#     4  12  25  44  67  89 132 174 220 272 322 388
#     4  10  22  45  63  94 128 174 209 261 331 382
#     4  11  23  41  67  98 131 173 221 270 326 383
#
# _framework density 19.942132000000001
#
# number of rings (size 3 to 8) (size 9 to 14) (size 15 to 20)
#    0.000    1.250    1.250    5.250    7.000    1.000 
#    0.000    0.000    0.000    0.000    0.000    0.000 
#    0.000    0.000    0.000    0.000    0.000    0.000 
#
# Total GULP energy -178737.515590 kJ/mol
# GULP energy per Si atom -5585.547362 kJ/mol
# Density = 1.989674 g / cm^3
# Si number density = 19.942132 Si / 1000 Ang^3
#
#
#
# Elastic Constant Matrix: (Units=GPa)
#
#
# Indices 1 2 3 4 5 6 
#
# 1 157.2513 41.6490 29.1318 0.0000 0.0000 0.0000
# 2 41.6490 71.4765 33.4705 0.0000 0.0000 0.0000
# 3 29.1318 33.4705 78.2110 0.0000 0.0000 0.0000
# 4 0.0000 0.0000 0.0000 21.8956 0.0000 0.0000
# 5 0.0000 0.0000 0.0000 0.0000 24.3993 0.0000
# 6 0.0000 0.0000 0.0000 0.0000 0.0000 2.9180
#
#
#
# Elastic Compliance Matrix: (Units=1/GPa)
#
#
# Indices 1 2 3 4 5 6 
#
# 1 0.007605 -0.003883 -0.001171 0.000000 0.000000 0.000000
# 2 -0.003883 0.019480 -0.006890 0.000000 0.000000 0.000000
# 3 -0.001171 -0.006890 0.016171 0.000000 0.000000 0.000000
# 4 0.000000 0.000000 0.000000 0.045671 0.000000 0.000000
# 5 0.000000 0.000000 0.000000 0.000000 0.040985 0.000000
# 6 0.000000 0.000000 0.000000 0.000000 0.000000 0.342700
#
#
# Mechanical properties :
#
#
# Convention : Reuss Voigt Hill
#
# Bulk Modulus (GPa) = 51.63348 57.27126 54.45237
# Shear Modulus (GPa) = 9.94127 23.35508 16.64818
#
# Velocity S-wave (km/s) = 2.23515 3.42591 2.89247
# Velocity P-wave (km/s) = 5.71043 6.66560 6.20642
#
# Compressibility (1/GPa) = 0.01936728
#
# Stress axis : x y z
#
# Youngs Moduli (GPa) = 131.50020 51.33591 61.84056
#
# Poissons Ratio (x) = 0.19933 0.07241
# Poissons Ratio (y) = 0.51060 0.42608
# Poissons Ratio (z) = 0.15397 0.35371
#
# Static dielectric constant tensor:
#      x y z
#    x 1.686080 0.000000 0.000000 
#    y 0.000000 1.732480 0.000000 
#    z 0.000000 0.000000 1.680560 
# 
# From -- ./inp_files/8483.got.cif
#   From: 2010.05.17/outbox.cif.g08.bks.cpg/sg46_5_cif.got.tgz:8483.got - 2010.06.03 19:58:25.
