data_PCOD9380428
_publ_section_title
;
Structure prediction by ZEFSAII (Michael W. Deem and Ramdas Pophale) SiO2 
 PCOD9380428
Probable space group: I M A 2
;
_chemical_formula_sum "Si O2"
_cell_formula_units_Z 64
_cell_length_a 28.163265
_cell_length_b 12.073445
_cell_length_c 8.905298
_cell_angle_alpha 90.000000
_cell_angle_beta 90.000000
_cell_angle_gamma 90.000000
_cell_volume 3028.047382
_symmetry_space_group_name_H-M "I M A 2"
_symmetry_group_IT_number 46
_symmetry_cell_setting 'orthorhombic'
loop_
_space_group_symop_operation_xyz
x,y,z
-x,-y,z
1/2-x,y,z
1/2+x,-y,z
1/2+x,1/2+y,1/2+z
1/2-x,1/2-y,1/2+z
-x,1/2+y,1/2+z
x,1/2-y,1/2+z
loop_
_atom_site_type_symbol
_atom_site_label
_atom_site_fract_x
_atom_site_fract_y
_atom_site_fract_z
Si Si1 0.193943 0.837679 0.589630
Si Si2 0.196205 0.908446 0.171946
Si Si3 0.118500 0.184921 0.965027
Si Si4 0.099473 0.879357 0.414515
Si Si5 0.044741 0.775526 0.689326
Si Si6 0.510917 0.625774 0.463121
Si Si7 0.196072 0.016122 0.848815
Si Si8 0.627425 0.595646 0.798610
O O1 0.250000 0.832464 0.544276
O O2 0.183663 0.721391 0.672137
O O3 0.154089 0.854802 0.462951
O O4 0.188553 0.940445 0.703415
O O5 0.250000 0.917572 0.223203
O O6 0.168417 0.008863 0.250711
O O7 0.193773 0.937260 0.994368
O O8 0.156311 0.107559 0.879040
O O9 0.132687 0.310113 0.923457
O O10 0.064973 0.152994 0.919852
O O11 0.118156 0.159165 0.142932
O O12 0.070571 0.847393 0.563027
O O13 0.081301 0.804531 0.276895
O O14 0.090622 0.005898 0.364124
O O15 0.006100 0.703001 0.599931
O O16 0.021006 0.847460 0.818663
O O17 0.500000 0.500000 0.506768
O O18 0.250000 0.062591 0.842549
#
# Coordination Sequence:
#
# PCOD9380428 Si02
#       8
#     8   8   8   8   8   8   8   8
#     4  10  22  38  67 103 141 182 227 282 351 428
#     4   9  20  39  63  97 138 177 224 277 336 407
#     4  11  25  45  71  95 138 180 242 286 354 416
#     4  11  24  43  67  99 140 177 230 287 360 420
#     4  10  25  44  67 100 133 178 227 293 359 430
#     4  11  24  44  70  97 132 179 234 293 357 422
#     4   9  21  41  65  97 136 180 224 279 341 408
#     4  11  25  42  67  99 132 185 224 290 344 419
#
# _framework density 21.135733999999999
#
# number of rings (size 3 to 8) (size 9 to 14) (size 15 to 20)
#    0.000    1.750    0.000    2.250    7.000    4.000 
#    0.000    2.500    0.000    0.000    0.000    0.000 
#    0.000    0.000    0.000    0.000    0.000    0.000 
#
# Total GULP energy -178648.188957 kJ/mol
# GULP energy per Si atom -5582.755905 kJ/mol
# Density = 2.108763 g / cm^3
# Si number density = 21.135734 Si / 1000 Ang^3
#
#
#
# Elastic Constant Matrix: (Units=GPa)
#
#
# Indices 1 2 3 4 5 6 
#
# 1 97.6042 31.8450 32.5289 0.0000 0.0000 0.0000
# 2 31.8450 109.4076 51.7063 0.0000 0.0000 0.0000
# 3 32.5289 51.7063 89.9018 0.0000 0.0000 0.0000
# 4 0.0000 0.0000 0.0000 37.3326 0.0000 0.0000
# 5 0.0000 0.0000 0.0000 0.0000 137.9186 0.0000
# 6 0.0000 0.0000 0.0000 0.0000 0.0000 14.0985
#
#
#
# Elastic Compliance Matrix: (Units=1/GPa)
#
#
# Indices 1 2 3 4 5 6 
#
# 1 0.011952 -0.001971 -0.003191 0.000000 0.000000 0.000000
# 2 -0.001971 0.012877 -0.006693 0.000000 0.000000 0.000000
# 3 -0.003191 -0.006693 0.016127 0.000000 0.000000 0.000000
# 4 0.000000 0.000000 0.000000 0.026786 0.000000 0.000000
# 5 0.000000 0.000000 0.000000 0.000000 0.007251 0.000000
# 6 0.000000 0.000000 0.000000 0.000000 0.000000 0.070929
#
#
# Mechanical properties :
#
#
# Convention : Reuss Voigt Hill
#
# Bulk Modulus (GPa) = 57.98263 58.78597 58.38430
# Shear Modulus (GPa) = 28.50941 49.92551 39.21746
#
# Velocity S-wave (km/s) = 3.67668 4.86546 4.31223
# Velocity P-wave (km/s) = 6.74663 7.70957 7.24412
#
# Compressibility (1/GPa) = 0.01724655
#
# Stress axis : x y z
#
# Youngs Moduli (GPa) = 83.66839 77.65874 62.00679
#
# Poissons Ratio (x) = 0.15304 0.19787
# Poissons Ratio (y) = 0.16489 0.41501
# Poissons Ratio (z) = 0.26699 0.51977
#
# Static dielectric constant tensor:
#      x y z
#    x 1.781360 0.000000 0.000000 
#    y 0.000000 1.720210 0.000000 
#    z 0.000000 0.000000 1.803590 
# 
# From -- ./inp_files/8486.got.cif
#   From: 2010.05.17/outbox.cif.g08.bks.cpg/sg46_5_cif.got.tgz:8486.got - 2010.06.03 19:58:25.
