data_PCOD9380519
_publ_section_title
;
Structure prediction by ZEFSAII (Michael W. Deem and Ramdas Pophale) SiO2 
 PCOD9380519
Probable space group: I M A 2
;
_chemical_formula_sum "Si O2"
_cell_formula_units_Z 56
_cell_length_a 22.724683
_cell_length_b 21.208531
_cell_length_c 5.313519
_cell_angle_alpha 90.000000
_cell_angle_beta 90.000000
_cell_angle_gamma 90.000000
_cell_volume 2560.888441
_symmetry_space_group_name_H-M "I M A 2"
_symmetry_group_IT_number 46
_symmetry_cell_setting 'orthorhombic'
loop_
_space_group_symop_operation_xyz
x,y,z
-x,-y,z
1/2-x,y,z
1/2+x,-y,z
1/2+x,1/2+y,1/2+z
1/2-x,1/2-y,1/2+z
-x,1/2+y,1/2+z
x,1/2-y,1/2+z
loop_
_atom_site_type_symbol
_atom_site_label
_atom_site_fract_x
_atom_site_fract_y
_atom_site_fract_z
Si Si1 0.628230 0.522157 0.781310
Si Si2 0.750000 0.930094 0.155398
Si Si3 0.450181 0.389125 0.507564
Si Si4 0.942853 0.488715 0.177368
Si Si5 0.250000 0.346138 0.161429
Si Si6 0.183053 0.707512 0.599954
Si Si7 0.379372 0.212006 0.695413
Si Si8 0.920848 0.392326 0.549070
O O1 0.693132 0.527128 0.685672
O O2 0.597239 0.588303 0.711223
O O3 0.597672 0.457698 0.684231
O O4 0.618963 0.514572 0.076347
O O5 0.750000 0.879709 0.387305
O O6 0.750000 0.896258 0.887903
O O7 0.460598 0.456723 0.374632
O O8 0.420963 0.343222 0.304111
O O9 0.513463 0.368326 0.615659
O O10 0.929828 0.417965 0.263338
O O11 0.000000 0.500000 0.996632
O O12 0.189533 0.307375 0.197903
O O13 0.250000 0.680647 0.593022
O O14 0.177660 0.746579 0.858821
O O15 0.131070 0.656739 0.583271
O O16 0.390514 0.234550 0.409982
#
# Coordination Sequence:
#
# PCOD9380519 Si02
#       8
#     8   4   8   8   4   8   8   8
#     4  11  22  40  63 101 130 177 210 277 332 405
#     4  12  26  39  74  94 138 171 222 273 336 394
#     4  10  22  41  63  93 137 171 217 274 341 386
#     4   9  19  38  64  93 129 171 211 263 335 399
#     4  12  24  49  64  96 130 185 220 279 334 390
#     4  10  24  47  70  93 132 175 215 271 331 385
#     4  12  26  43  67  95 128 176 234 279 322 391
#     4  10  23  40  67  99 129 173 218 272 326 412
#
# _framework density 21.867412000000002
#
# number of rings (size 3 to 8) (size 9 to 14) (size 15 to 20)
#    0.000    1.429    1.429    4.286    7.000    1.143 
#    1.286    0.000    0.000    0.000    0.000    0.000 
#    0.000    0.000    0.000    0.000    0.000    0.000 
#
# Total GULP energy -156053.524239 kJ/mol
# GULP energy per Si atom -5573.340151 kJ/mol
# Density = 2.181764 g / cm^3
# Si number density = 21.867412 Si / 1000 Ang^3
#
#
#
# Elastic Constant Matrix: (Units=GPa)
#
#
# Indices 1 2 3 4 5 6 
#
# 1 123.9722 39.1279 1.8141 0.0000 0.0000 0.0000
# 2 39.1279 68.3855 3.4873 0.0000 0.0000 0.0000
# 3 1.8141 3.4873 45.7298 0.0000 0.0000 0.0000
# 4 0.0000 0.0000 0.0000 30.0903 0.0000 0.0000
# 5 0.0000 0.0000 0.0000 0.0000 10.0225 0.0000
# 6 0.0000 0.0000 0.0000 0.0000 0.0000 38.0900
#
#
#
# Elastic Compliance Matrix: (Units=1/GPa)
#
#
# Indices 1 2 3 4 5 6 
#
# 1 0.009844 -0.005634 0.000039 0.000000 0.000000 0.000000
# 2 -0.005634 0.017905 -0.001142 0.000000 0.000000 0.000000
# 3 0.000039 -0.001142 0.021953 0.000000 0.000000 0.000000
# 4 0.000000 0.000000 0.000000 0.033233 0.000000 0.000000
# 5 0.000000 0.000000 0.000000 0.000000 0.099776 0.000000
# 6 0.000000 0.000000 0.000000 0.000000 0.000000 0.026254
#
#
# Mechanical properties :
#
#
# Convention : Reuss Voigt Hill
#
# Bulk Modulus (GPa) = 27.60305 36.32734 31.96519
# Shear Modulus (GPa) = 21.32060 28.55111 24.93586
#
# Velocity S-wave (km/s) = 3.12588 3.61729 3.38053
# Velocity P-wave (km/s) = 5.06739 5.83909 5.46688
#
# Compressibility (1/GPa) = 0.03622788
#
# Stress axis : x y z
#
# Youngs Moduli (GPa) = 101.58389 55.85019 45.55161
#
# Poissons Ratio (x) = 0.31468 -0.00178
# Poissons Ratio (y) = 0.57237 0.05202
# Poissons Ratio (z) = -0.00398 0.06378
#
# Static dielectric constant tensor:
#      x y z
#    x 2.042140 0.000000 0.000000 
#    y 0.000000 1.779690 0.000000 
#    z 0.000000 0.000000 2.218170 
# 
# From -- ./inp_files/2386.got.cif
#   From: 2010.05.17/outbox.cif.g08.bks.cpg/sg46_2_cif.got.tgz:2386.got - 2010.06.03 19:58:25.
