data_PCOD9380337
_publ_section_title
;
Structure prediction by ZEFSAII (Michael W. Deem and Ramdas Pophale) SiO2 
 PCOD9380337
Probable space group: I M A 2
;
_chemical_formula_sum "Si O2"
_cell_formula_units_Z 60
_cell_length_a 15.859702
_cell_length_b 5.304992
_cell_length_c 31.176801
_cell_angle_alpha 90.000000
_cell_angle_beta 90.000000
_cell_angle_gamma 90.000000
_cell_volume 2623.078616
_symmetry_space_group_name_H-M "I M A 2"
_symmetry_group_IT_number 46
_symmetry_cell_setting 'orthorhombic'
loop_
_space_group_symop_operation_xyz
x,y,z
-x,-y,z
1/2-x,y,z
1/2+x,-y,z
1/2+x,1/2+y,1/2+z
1/2-x,1/2-y,1/2+z
-x,1/2+y,1/2+z
x,1/2-y,1/2+z
loop_
_atom_site_type_symbol
_atom_site_label
_atom_site_fract_x
_atom_site_fract_y
_atom_site_fract_z
Si Si1 0.000000 0.500000 0.898890
Si Si2 0.094147 0.386020 0.351509
Si Si3 0.656323 0.848038 0.488517
Si Si4 0.620264 0.344704 0.435604
Si Si5 0.850127 0.579308 0.254767
Si Si6 0.907115 0.710129 0.077424
Si Si7 0.353292 0.921063 0.207015
Si Si8 0.598182 0.211354 0.111555
O O1 0.923858 0.605737 0.870120
O O2 0.973925 0.264909 0.927988
O O3 0.141831 0.551033 0.387750
O O4 0.133723 0.385474 0.305019
O O5 0.000000 0.500000 0.346527
O O6 0.750000 0.833576 0.507387
O O7 0.637712 0.583529 0.465170
O O8 0.593037 0.873447 0.528139
O O9 0.656663 0.088971 0.456712
O O10 0.750000 0.578563 0.248426
O O11 0.880670 0.310937 0.237279
O O12 0.882806 0.815826 0.227425
O O13 0.863262 0.486556 0.103758
O O14 0.000931 0.749381 0.096769
O O15 0.866302 0.984991 0.082612
O O16 0.250000 0.922929 0.204146
O O17 0.390535 0.873595 0.160148
#
# Coordination Sequence:
#
# PCOD9380337 Si02
#       8
#     4   8   8   8   8   8   8   8
#     4  10  22  44  64  96 130 172 230 284 336 390
#     4  10  23  44  66 102 136 178 228 276 335 397
#     4  12  26  43  64  98 136 177 230 284 341 402
#     4  11  24  44  68  93 134 181 227 275 342 398
#     4  10  23  42  65  97 135 176 217 270 335 398
#     4  10  23  41  61  94 127 161 220 273 335 397
#     4  10  22  41  65  94 130 171 216 270 333 401
#     4  10  21  42  63  91 127 164 220 265 336 408
#
# _framework density 22.873885000000001
#
# number of rings (size 3 to 8) (size 9 to 14) (size 15 to 20)
#    0.000    1.600    1.333    2.000    3.733    5.333 
#    7.200    0.000    0.000    0.000    0.000    0.000 
#    0.000    0.000    0.000    0.000    0.000    0.000 
#
# Total GULP energy -167407.478742 kJ/mol
# GULP energy per Si atom -5580.249291 kJ/mol
# Density = 2.282182 g / cm^3
# Si number density = 22.873885 Si / 1000 Ang^3
#
#
#
# Elastic Constant Matrix: (Units=GPa)
#
#
# Indices 1 2 3 4 5 6 
#
# 1 34.4205 9.6426 10.3863 0.0000 0.0000 0.0000
# 2 9.6426 142.8231 13.8098 0.0000 0.0000 0.0000
# 3 10.3863 13.8098 101.3172 0.0000 0.0000 0.0000
# 4 0.0000 0.0000 0.0000 38.4660 0.0000 0.0000
# 5 0.0000 0.0000 0.0000 0.0000 8.3841 0.0000
# 6 0.0000 0.0000 0.0000 0.0000 0.0000 2.9268
#
#
#
# Elastic Compliance Matrix: (Units=1/GPa)
#
#
# Indices 1 2 3 4 5 6 
#
# 1 0.030418 -0.001776 -0.002876 0.000000 0.000000 0.000000
# 2 -0.001776 0.007199 -0.000799 0.000000 0.000000 0.000000
# 3 -0.002876 -0.000799 0.010274 0.000000 0.000000 0.000000
# 4 0.000000 0.000000 0.000000 0.025997 0.000000 0.000000
# 5 0.000000 0.000000 0.000000 0.000000 0.119274 0.000000
# 6 0.000000 0.000000 0.000000 0.000000 0.000000 0.341672
#
#
# Mechanical properties :
#
#
# Convention : Reuss Voigt Hill
#
# Bulk Modulus (GPa) = 27.03546 38.47090 32.75318
# Shear Modulus (GPa) = 8.95954 26.27018 17.61486
#
# Velocity S-wave (km/s) = 1.98127 3.39260 2.77805
# Velocity P-wave (km/s) = 4.13267 5.67464 4.96389
#
# Compressibility (1/GPa) = 0.03698846
#
# Stress axis : x y z
#
# Youngs Moduli (GPa) = 32.87560 138.91169 97.33528
#
# Poissons Ratio (x) = 0.24664 0.27995
# Poissons Ratio (y) = 0.05837 0.07779
# Poissons Ratio (z) = 0.09456 0.11102
#
# Static dielectric constant tensor:
#      x y z
#    x 1.958400 0.000000 0.000000 
#    y 0.000000 1.989610 0.000000 
#    z 0.000000 0.000000 1.816090 
# 
# From -- ./inp_files/24677.got.cif
#   From: 2010.05.17/outbox.cif.g08.bks.cpg/sg46_13_cif.got.tgz:24677.got - 2010.06.03 19:58:25.
