data_PCOD9380614
_publ_section_title
;
Structure prediction by ZEFSAII (Michael W. Deem and Ramdas Pophale) SiO2 
 PCOD9380614
Probable space group: I M A 2
;
_chemical_formula_sum "Si O2"
_cell_formula_units_Z 36
_cell_length_a 26.305434
_cell_length_b 5.072287
_cell_length_c 10.733770
_cell_angle_alpha 90.000000
_cell_angle_beta 90.000000
_cell_angle_gamma 90.000000
_cell_volume 1432.193094
_symmetry_space_group_name_H-M "I M A 2"
_symmetry_group_IT_number 46
_symmetry_cell_setting 'orthorhombic'
loop_
_space_group_symop_operation_xyz
x,y,z
-x,-y,z
1/2-x,y,z
1/2+x,-y,z
1/2+x,1/2+y,1/2+z
1/2-x,1/2-y,1/2+z
-x,1/2+y,1/2+z
x,1/2-y,1/2+z
loop_
_atom_site_type_symbol
_atom_site_label
_atom_site_fract_x
_atom_site_fract_y
_atom_site_fract_z
Si Si1 0.051396 0.910004 0.383320
Si Si2 0.500000 0.500000 0.185136
Si Si3 0.605709 0.657184 0.215149
Si Si4 0.693179 0.735618 0.025607
Si Si5 0.349760 0.725940 0.400908
O O1 0.093313 0.747562 0.461363
O O2 0.025658 0.725782 0.276230
O O3 0.085459 0.147060 0.324931
O O4 0.000000 0.000000 0.451366
O O5 0.553365 0.625911 0.139932
O O6 0.650889 0.765656 0.131977
O O7 0.630820 0.385541 0.267705
O O8 0.750000 0.700108 0.074790
O O9 0.678562 0.494166 0.934785
O O10 0.687063 0.000731 0.948415
#
# Coordination Sequence:
#
# PCOD9380614 Si02
#       5
#     8   4   8   8   8
#     4   9  18  41  69 101 138 180 217 278 351 417
#     4   8  18  36  70 102 138 172 220 276 338 428
#     4  10  22  45  71  99 142 180 220 286 356 404
#     4  12  28  45  67 101 136 181 243 286 332 413
#     4  11  24  47  68  99 137 177 231 286 340 408
#
# _framework density 25.136274
#
# number of rings (size 3 to 8) (size 9 to 14) (size 15 to 20)
#    0.000    1.778    2.222    0.667    6.222    1.778 
#    2.000    0.000    0.000    0.000    0.000    0.000 
#    0.000    0.000    0.000    0.000    0.000    0.000 
#
# Total GULP energy -100283.365300 kJ/mol
# GULP energy per Si atom -5571.298072 kJ/mol
# Density = 2.507906 g / cm^3
# Si number density = 25.136274 Si / 1000 Ang^3
#
#
#
# Elastic Constant Matrix: (Units=GPa)
#
#
# Indices 1 2 3 4 5 6 
#
# 1 241.0960 33.8851 45.8210 0.0000 0.0000 0.0000
# 2 33.8851 140.1246 9.5131 0.0000 0.0000 0.0000
# 3 45.8210 9.5131 31.5322 0.0000 0.0000 0.0000
# 4 0.0000 0.0000 0.0000 20.0624 0.0000 0.0000
# 5 0.0000 0.0000 0.0000 0.0000 39.4702 0.0000
# 6 0.0000 0.0000 0.0000 0.0000 0.0000 31.9005
#
#
#
# Elastic Compliance Matrix: (Units=1/GPa)
#
#
# Indices 1 2 3 4 5 6 
#
# 1 0.005828 -0.000852 -0.008212 0.000000 0.000000 0.000000
# 2 -0.000852 0.007410 -0.000998 0.000000 0.000000 0.000000
# 3 -0.008212 -0.000998 0.043948 0.000000 0.000000 0.000000
# 4 0.000000 0.000000 0.000000 0.049844 0.000000 0.000000
# 5 0.000000 0.000000 0.000000 0.000000 0.025336 0.000000
# 6 0.000000 0.000000 0.000000 0.000000 0.000000 0.031348
#
#
# Mechanical properties :
#
#
# Convention : Reuss Voigt Hill
#
# Bulk Modulus (GPa) = 26.98113 65.68793 46.33453
# Shear Modulus (GPa) = 25.48520 39.85551 32.67036
#
# Velocity S-wave (km/s) = 3.18761 3.98625 3.60909
# Velocity P-wave (km/s) = 4.93001 6.88305 5.98671
#
# Compressibility (1/GPa) = 0.03706294
#
# Stress axis : x y z
#
# Youngs Moduli (GPa) = 171.57907 134.94837 22.75404
#
# Poissons Ratio (x) = 0.11496 0.18686
# Poissons Ratio (y) = 0.14616 0.02270
# Poissons Ratio (z) = 1.40905 0.13465
#
# Static dielectric constant tensor:
#      x y z
#    x 2.006560 0.000000 0.000000 
#    y 0.000000 2.163340 0.000000 
#    z 0.000000 0.000000 2.227560 
# 
# From -- ./inp_files/17231.got.cif
#   From: 2010.05.17/outbox.cif.g08.bks.cpg/sg46_9_cif.got.tgz:17231.got - 2010.06.03 19:58:25.
