data_PCOD9380112
_publ_section_title
;
Structure prediction by ZEFSAII (Michael W. Deem and Ramdas Pophale) SiO2 
 PCOD9380112
Probable space group: I M A 2
;
_chemical_formula_sum "Si O2"
_cell_formula_units_Z 56
_cell_length_a 14.252013
_cell_length_b 10.823873
_cell_length_c 15.103297
_cell_angle_alpha 90.000000
_cell_angle_beta 90.000000
_cell_angle_gamma 90.000000
_cell_volume 2329.864480
_symmetry_space_group_name_H-M "I M A 2"
_symmetry_group_IT_number 46
_symmetry_cell_setting 'orthorhombic'
loop_
_space_group_symop_operation_xyz
x,y,z
-x,-y,z
1/2-x,y,z
1/2+x,-y,z
1/2+x,1/2+y,1/2+z
1/2-x,1/2-y,1/2+z
-x,1/2+y,1/2+z
x,1/2-y,1/2+z
loop_
_atom_site_type_symbol
_atom_site_label
_atom_site_fract_x
_atom_site_fract_y
_atom_site_fract_z
Si Si1 0.143797 0.617982 0.915440
Si Si2 0.856721 0.556531 0.373077
Si Si3 0.856721 0.556531 0.756465
Si Si4 0.136772 0.080435 0.564771
Si Si5 0.862917 0.866208 0.064771
Si Si6 0.506060 0.250000 0.314771
Si Si7 0.856203 0.382018 0.214101
O O1 0.250000 0.657007 0.940259
O O2 0.147418 0.565977 0.814964
O O3 0.067261 0.723240 0.902891
O O4 0.114881 0.506225 0.980235
O O5 0.750000 0.609497 0.366634
O O6 0.883980 0.558603 0.475741
O O7 0.935571 0.637473 0.327300
O O8 0.852582 0.434022 0.314577
O O9 0.750000 0.609497 0.762907
O O10 0.883980 0.558603 0.653801
O O11 0.935571 0.637474 0.802242
O O12 0.250000 0.090678 0.564771
O O13 0.101579 0.222456 0.564771
O O14 0.114881 0.993775 0.649306
O O15 0.750000 0.854426 0.064771
O O16 0.567261 0.276759 0.226650
O O17 0.750000 0.342993 0.189283
#
# Coordination Sequence:
#
# PCOD9380112 Si02
#       7
#     8   8   8   8   8   8   8
#     4  10  22  40  60  85 119 154 192 238 288 343
#     4  10  21  38  59  84 115 150 191 240 289 341
#     4  10  21  38  59  84 115 150 191 240 289 341
#     4   9  18  35  60  87 113 147 193 242 288 339
#     4   9  18  35  61  87 112 149 195 240 289 339
#     4  12  22  36  58  86 118 156 190 232 290 346
#     4  10  22  40  60  85 119 154 192 238 288 343
#
# _framework density 24.035733
#
# number of rings (size 3 to 8) (size 9 to 14) (size 15 to 20)
#    0.000    2.000    0.000    3.429    0.000    5.714 
#    0.000    8.571    0.000    5.143    0.000    0.000 
#    0.000    0.000    0.000    0.000    0.000    0.000 
#
# Total GULP energy -156266.404972 kJ/mol
# GULP energy per Si atom -5580.943035 kJ/mol
# Density = 2.398103 g / cm^3
# Si number density = 24.035733 Si / 1000 Ang^3
#
#
#
# Elastic Constant Matrix: (Units=GPa)
#
#
# Indices 1 2 3 4 5 6 
#
# 1 103.8616 9.7634 12.1752 0.0000 0.0000 0.0000
# 2 9.7634 28.5181 26.9145 0.0000 0.0000 0.0000
# 3 12.1752 26.9145 119.4979 0.0000 0.0000 0.0000
# 4 0.0000 0.0000 0.0000 10.9419 0.0000 0.0000
# 5 0.0000 0.0000 0.0000 0.0000 66.8656 0.0000
# 6 0.0000 0.0000 0.0000 0.0000 0.0000 26.3908
#
#
#
# Elastic Compliance Matrix: (Units=1/GPa)
#
#
# Indices 1 2 3 4 5 6 
#
# 1 0.009958 -0.003113 -0.000313 0.000000 0.000000 0.000000
# 2 -0.003113 0.045505 -0.009932 0.000000 0.000000 0.000000
# 3 -0.000313 -0.009932 0.010637 0.000000 0.000000 0.000000
# 4 0.000000 0.000000 0.000000 0.091392 0.000000 0.000000
# 5 0.000000 0.000000 0.000000 0.000000 0.014955 0.000000
# 6 0.000000 0.000000 0.000000 0.000000 0.000000 0.037892
#
#
# Mechanical properties :
#
#
# Convention : Reuss Voigt Hill
#
# Bulk Modulus (GPa) = 25.39199 38.84264 32.11731
# Shear Modulus (GPa) = 19.98534 34.37461 27.17998
#
# Velocity S-wave (km/s) = 2.88668 3.78583 3.36641
# Velocity P-wave (km/s) = 4.65808 5.94184 5.33869
#
# Compressibility (1/GPa) = 0.03938250
#
# Stress axis : x y z
#
# Youngs Moduli (GPa) = 100.42584 21.97579 94.00963
#
# Poissons Ratio (x) = 0.06842 0.02946
# Poissons Ratio (y) = 0.31266 0.93368
# Poissons Ratio (z) = 0.03147 0.21826
#
# Static dielectric constant tensor:
#      x y z
#    x 1.980310 0.000000 0.000000 
#    y 0.000000 1.938450 0.000000 
#    z 0.000000 0.000000 1.936840 
# 
# From -- ./inp_files/15975.got.cif
#   From: 2010.05.17/outbox.cif.g08.bks.cpg/sg46_8_cif.got.tgz:15975.got - 2010.06.03 19:58:25.
