data_PCOD9380836
_publ_section_title
;
Structure prediction by ZEFSAII (Michael W. Deem and Ramdas Pophale) SiO2 
 PCOD9380836
Probable space group: I M A 2
;
_chemical_formula_sum "Si O2"
_cell_formula_units_Z 48
_cell_length_a 8.588606
_cell_length_b 9.504014
_cell_length_c 32.067152
_cell_angle_alpha 90.000000
_cell_angle_beta 90.000000
_cell_angle_gamma 90.000000
_cell_volume 2617.520778
_symmetry_space_group_name_H-M "I M A 2"
_symmetry_group_IT_number 46
_symmetry_cell_setting 'orthorhombic'
loop_
_space_group_symop_operation_xyz
x,y,z
-x,-y,z
1/2-x,y,z
1/2+x,-y,z
1/2+x,1/2+y,1/2+z
1/2-x,1/2-y,1/2+z
-x,1/2+y,1/2+z
x,1/2-y,1/2+z
loop_
_atom_site_type_symbol
_atom_site_label
_atom_site_fract_x
_atom_site_fract_y
_atom_site_fract_z
Si Si1 0.563040 0.340052 0.270880
Si Si2 0.936344 0.658284 0.518263
Si Si3 0.937516 0.158849 0.862797
Si Si4 0.063738 0.657703 0.608478
Si Si5 0.435816 0.340568 0.184280
Si Si6 0.937602 0.341907 0.942197
O O1 0.500000 0.500000 0.272021
O O2 0.750000 0.340730 0.266875
O O3 0.519410 0.283352 0.316710
O O4 0.490467 0.277491 0.228882
O O5 0.750000 0.654480 0.518639
O O6 0.000000 0.500000 0.511265
O O7 0.998377 0.705201 0.563565
O O8 0.997753 0.759033 0.482106
O O9 0.750000 0.150207 0.863610
O O10 0.988164 0.257560 0.900624
O O11 0.000000 0.000000 0.867713
O O12 0.250000 0.655565 0.607094
O O13 0.000000 0.500000 0.614822
O O14 0.004192 0.754158 0.645857
O O15 0.500000 0.500000 0.182139
O O16 0.250000 0.343300 0.182721
O O17 0.750000 0.342627 0.943679
O O18 0.000000 0.500000 0.941445
#
# Coordination Sequence:
#
# PCOD9380836 Si02
#       6
#     8   8   8   8   8   8
#     4   9  16  30  51  78 108 142 182 229 274 321
#     4  11  22  39  61  85 110 143 183 226 270 324
#     4   9  19  34  56  81 108 141 184 229 273 324
#     4  11  22  39  60  84 112 145 182 226 273 326
#     4  11  21  35  55  83 114 148 186 229 275 325
#     4  11  23  39  56  81 113 147 183 227 278 330
#
# _framework density 18.337963999999999
#
# number of rings (size 3 to 8) (size 9 to 14) (size 15 to 20)
#    0.000    1.667    0.000    8.000    0.000    4.000 
#    0.000    4.167    0.000    2.000    0.000    0.000 
#    0.000    0.000    0.000    0.000    0.000    0.000 
#
# Total GULP energy -134020.292365 kJ/mol
# GULP energy per Si atom -5584.178849 kJ/mol
# Density = 1.829623 g / cm^3
# Si number density = 18.337964 Si / 1000 Ang^3
#
#
#
# Elastic Constant Matrix: (Units=GPa)
#
#
# Indices 1 2 3 4 5 6 
#
# 1 139.3844 39.7622 75.7476 0.0000 0.0000 0.0000
# 2 39.7622 74.8793 99.2187 0.0000 0.0000 0.0000
# 3 75.7476 99.2187 221.6401 0.0000 0.0000 0.0000
# 4 0.0000 0.0000 0.0000 32.8087 0.0000 0.0000
# 5 0.0000 0.0000 0.0000 0.0000 33.6326 0.0000
# 6 0.0000 0.0000 0.0000 0.0000 0.0000 29.3411
#
#
#
# Elastic Compliance Matrix: (Units=1/GPa)
#
#
# Indices 1 2 3 4 5 6 
#
# 1 0.008899 -0.001710 -0.002276 0.000000 0.000000 0.000000
# 2 -0.001710 0.033155 -0.014258 0.000000 0.000000 0.000000
# 3 -0.002276 -0.014258 0.011672 0.000000 0.000000 0.000000
# 4 0.000000 0.000000 0.000000 0.030480 0.000000 0.000000
# 5 0.000000 0.000000 0.000000 0.000000 0.029733 0.000000
# 6 0.000000 0.000000 0.000000 0.000000 0.000000 0.034082
#
#
# Mechanical properties :
#
#
# Convention : Reuss Voigt Hill
#
# Bulk Modulus (GPa) = 58.00720 96.15121 77.07921
# Shear Modulus (GPa) = 26.28068 33.90151 30.09109
#
# Velocity S-wave (km/s) = 3.78978 4.30432 4.05522
# Velocity P-wave (km/s) = 7.13098 8.78918 8.00314
#
# Compressibility (1/GPa) = 0.01723924
#
# Stress axis : x y z
#
# Youngs Moduli (GPa) = 112.37230 30.16145 85.67399
#
# Poissons Ratio (x) = 0.05157 0.19498
# Poissons Ratio (y) = 0.19214 1.22151
# Poissons Ratio (z) = 0.25575 0.43003
#
# Static dielectric constant tensor:
#      x y z
#    x 1.612020 0.000000 0.000000 
#    y 0.000000 1.587850 0.000000 
#    z 0.000000 0.000000 1.661470 
# 
# From -- ./inp_files/24990.got.cif
#   From: 2010.05.17/outbox.cif.g08.bks.cpg/sg46_13_cif.got.tgz:24990.got - 2010.06.03 19:58:25.
