data_PCOD9380492
_publ_section_title
;
Structure prediction by ZEFSAII (Michael W. Deem and Ramdas Pophale) SiO2 
 PCOD9380492
Probable space group: I M A 2
;
_chemical_formula_sum "Si O2"
_cell_formula_units_Z 40
_cell_length_a 10.764987
_cell_length_b 29.156327
_cell_length_c 5.187901
_cell_angle_alpha 90.000000
_cell_angle_beta 90.000000
_cell_angle_gamma 90.000000
_cell_volume 1628.313419
_symmetry_space_group_name_H-M "I M A 2"
_symmetry_group_IT_number 46
_symmetry_cell_setting 'orthorhombic'
loop_
_space_group_symop_operation_xyz
x,y,z
-x,-y,z
1/2-x,y,z
1/2+x,-y,z
1/2+x,1/2+y,1/2+z
1/2-x,1/2-y,1/2+z
-x,1/2+y,1/2+z
x,1/2-y,1/2+z
loop_
_atom_site_type_symbol
_atom_site_label
_atom_site_fract_x
_atom_site_fract_y
_atom_site_fract_z
Si Si1 0.959273 0.844308 0.135830
Si Si2 0.750000 0.781343 0.364519
Si Si3 0.606724 0.415025 0.928655
Si Si4 0.380742 0.075126 0.808199
Si Si5 0.000000 0.500000 0.605321
Si Si6 0.609419 0.280316 0.291436
O O1 0.870578 0.812537 0.307492
O O2 0.076055 0.868003 0.276455
O O3 0.008787 0.815972 0.891036
O O4 0.881994 0.887306 0.032228
O O5 0.750000 0.758557 0.645662
O O6 0.750000 0.416799 0.005915
O O7 0.568772 0.460262 0.765666
O O8 0.505206 0.415483 0.152345
O O9 0.250000 0.078246 0.661795
O O10 0.399004 0.025390 0.930115
O O11 0.750000 0.298792 0.316623
O O12 0.597607 0.260274 0.005265
#
# Coordination Sequence:
#
# PCOD9380492 Si02
#       6
#     8   4   8   8   4   8
#     4  11  25  43  67 101 144 189 248 308 379 452
#     4  12  28  46  78 110 154 204 268 328 394 474
#     4  11  26  44  72 106 148 194 248 313 384 471
#     4  11  25  44  72 103 144 190 243 310 380 462
#     4  10  24  46  72 102 144 188 252 302 386 460
#     4  10  22  40  64  94 135 185 239 300 368 439
#
# _framework density 24.565296
#
# number of rings (size 3 to 8) (size 9 to 14) (size 15 to 20)
#    0.000    1.200    1.000    3.000    7.000    8.000 
#    0.000    0.000    0.000    0.000    0.000    0.000 
#    0.000    0.000    0.000    0.000    0.000    0.000 
#
# Total GULP energy -112026.507162 kJ/mol
# GULP energy per Si atom -5601.325358 kJ/mol
# Density = 2.450938 g / cm^3
# Si number density = 24.565296 Si / 1000 Ang^3
#
#
#
# Elastic Constant Matrix: (Units=GPa)
#
#
# Indices 1 2 3 4 5 6 
#
# 1 198.4890 37.3232 32.8686 -0.0012 -0.0343 -0.0479
# 2 37.3232 103.9283 12.7623 0.0006 -0.0846 -0.0541
# 3 32.8686 12.7623 62.4831 -0.0033 0.0163 -0.0999
# 4 -0.0012 0.0006 -0.0033 26.6533 -0.0106 0.0022
# 5 -0.0343 -0.0846 0.0163 -0.0106 57.0282 0.1049
# 6 -0.0479 -0.0541 -0.0999 0.0022 0.1049 -3.2610
#
#
#
# Elastic Compliance Matrix: (Units=1/GPa)
#
#
# Indices 1 2 3 4 5 6 
#
# 1 0.005816 -0.001757 -0.002700 0.000000 0.000002 0.000027
# 2 -0.001757 0.010400 -0.001200 0.000000 0.000015 -0.000110
# 3 -0.002700 -0.001200 0.017669 0.000002 -0.000008 -0.000482
# 4 0.000000 0.000000 0.000002 0.037519 0.000007 0.000025
# 5 0.000002 0.000015 -0.000008 0.000007 0.017534 0.000564
# 6 0.000027 -0.000110 -0.000482 0.000025 0.000564 -0.306616
#
#
# Mechanical properties :
#
#
# Convention : Reuss Voigt Hill
#
# Bulk Modulus (GPa) = 44.30641 58.97873 51.64257
# Shear Modulus (GPa) = -25.14592 34.88052 4.86730
#
# Velocity S-wave (km/s) = -3.20290 3.77226 1.40914
# Velocity P-wave (km/s) = 2.09696 6.56006 4.86988
#
# Compressibility (1/GPa) = 0.02257010
#
# Stress axis : x y z
#
# Youngs Moduli (GPa) = 171.95160 96.15100 56.59565
#
# Poissons Ratio (x) = 0.16893 0.15283
# Poissons Ratio (y) = 0.30210 0.06793
# Poissons Ratio (z) = 0.46433 0.11541
#
# Static dielectric constant tensor:
#      x y z
#    x 1.932000 0.000020 0.000010 
#    y 0.000020 1.948470 0.000000 
#    z 0.000010 0.000000 1.989360 
# 
# From -- ./inp_files/842.got.cif
#   From: 2010.05.17/outbox.cif.g08.bks.cpg/sg46_1_cif.got.tgz:842.got - 2010.06.03 19:58:25.
