data_PCOD9380470
_publ_section_title
;
Structure prediction by ZEFSAII (Michael W. Deem and Ramdas Pophale) SiO2 
 PCOD9380470
Probable space group: I M A 2
;
_chemical_formula_sum "Si O2"
_cell_formula_units_Z 56
_cell_length_a 8.881852
_cell_length_b 15.519960
_cell_length_c 20.029832
_cell_angle_alpha 90.000000
_cell_angle_beta 90.000000
_cell_angle_gamma 90.000000
_cell_volume 2761.031977
_symmetry_space_group_name_H-M "I M A 2"
_symmetry_group_IT_number 46
_symmetry_cell_setting 'orthorhombic'
loop_
_space_group_symop_operation_xyz
x,y,z
-x,-y,z
1/2-x,y,z
1/2+x,-y,z
1/2+x,1/2+y,1/2+z
1/2-x,1/2-y,1/2+z
-x,1/2+y,1/2+z
x,1/2-y,1/2+z
loop_
_atom_site_type_symbol
_atom_site_label
_atom_site_fract_x
_atom_site_fract_y
_atom_site_fract_z
Si Si1 0.585061 0.884672 0.440030
Si Si2 0.931090 0.405554 0.314006
Si Si3 0.928374 0.259032 0.727836
Si Si4 0.074698 0.321345 0.444514
Si Si5 0.076428 0.585958 0.065862
Si Si6 0.579298 0.915619 0.288634
Si Si7 0.069896 0.229232 0.088622
O O1 0.750000 0.899882 0.473791
O O2 0.572552 0.781422 0.430733
O O3 0.448581 0.915338 0.485849
O O4 0.590708 0.925770 0.368054
O O5 0.750000 0.410426 0.313276
O O6 0.977548 0.333649 0.258310
O O7 0.000000 0.500000 0.301756
O O8 0.984982 0.370842 0.386857
O O9 0.750000 0.254628 0.718534
O O10 0.976785 0.332137 0.779360
O O11 0.003714 0.294012 0.660079
O O12 0.250000 0.349272 0.441611
O O13 0.020965 0.323744 0.522229
O O14 0.250000 0.592038 0.084530
O O15 0.000000 0.500000 0.093813
O O16 0.987991 0.672508 0.083239
O O17 0.750000 0.902845 0.263191
O O18 0.500000 0.000000 0.259338
O O19 0.250000 0.227153 0.088785
#
# Coordination Sequence:
#
# PCOD9380470 Si02
#       7
#     8   8   8   8   8   8   8
#     4   9  18  33  55  84 117 153 190 235 295 355
#     4  11  24  40  64  95 128 168 215 265 321 379
#     4  11  24  42  62  91 126 164 211 261 317 384
#     4   9  18  37  62  89 120 155 201 251 305 367
#     4  11  21  33  52  80 116 154 195 244 296 359
#     4  11  22  37  59  87 120 158 197 246 304 364
#     4  10  22  40  62  86 117 162 206 254 318 380
#
# _framework density 20.282271999999999
#
# number of rings (size 3 to 8) (size 9 to 14) (size 15 to 20)
#    0.000    1.714    1.429    4.286    0.000    7.429 
#    0.000    2.143    0.000    3.429    0.000    0.000 
#    0.000    0.000    0.000    0.000    0.000    0.000 
#
# Total GULP energy -156162.530811 kJ/mol
# GULP energy per Si atom -5577.233243 kJ/mol
# Density = 2.023611 g / cm^3
# Si number density = 20.282272 Si / 1000 Ang^3
#
#
#
# Elastic Constant Matrix: (Units=GPa)
#
#
# Indices 1 2 3 4 5 6 
#
# 1 67.1858 13.2303 15.1586 0.0000 0.0000 0.0000
# 2 13.2303 61.3536 -12.4696 0.0000 0.0000 0.0000
# 3 15.1586 -12.4696 63.6284 0.0000 0.0000 0.0000
# 4 0.0000 0.0000 0.0000 7.1181 0.0000 0.0000
# 5 0.0000 0.0000 0.0000 0.0000 16.8546 0.0000
# 6 0.0000 0.0000 0.0000 0.0000 0.0000 30.5821
#
#
#
# Elastic Compliance Matrix: (Units=1/GPa)
#
#
# Indices 1 2 3 4 5 6 
#
# 1 0.016915 -0.004652 -0.004941 0.000000 0.000000 0.000000
# 2 -0.004652 0.018254 0.004686 0.000000 0.000000 0.000000
# 3 -0.004941 0.004686 0.017812 0.000000 0.000000 0.000000
# 4 0.000000 0.000000 0.000000 0.140486 0.000000 0.000000
# 5 0.000000 0.000000 0.000000 0.000000 0.059331 0.000000
# 6 0.000000 0.000000 0.000000 0.000000 0.000000 0.032699
#
#
# Mechanical properties :
#
#
# Convention : Reuss Voigt Hill
#
# Bulk Modulus (GPa) = 23.16639 24.88959 24.02799
# Shear Modulus (GPa) = 16.14459 22.66087 19.40273
#
# Velocity S-wave (km/s) = 2.82440 3.34619 3.09631
# Velocity P-wave (km/s) = 4.69927 5.21800 4.96541
#
# Compressibility (1/GPa) = 0.04316597
#
# Stress axis : x y z
#
# Youngs Moduli (GPa) = 59.11899 54.78125 56.14264
#
# Poissons Ratio (x) = 0.25483 0.27743
# Poissons Ratio (y) = 0.27501 -0.26307
# Poissons Ratio (z) = 0.29213 -0.25669
#
# Static dielectric constant tensor:
#      x y z
#    x 1.731470 0.000000 0.000000 
#    y 0.000000 1.771420 0.000000 
#    z 0.000000 0.000000 1.812470 
# 
# From -- ./inp_files/21123.got.cif
#   From: 2010.05.17/outbox.cif.g08.bks.cpg/sg46_11_cif.got.tgz:21123.got - 2010.06.03 19:58:25.
