data_PCOD9380104
_publ_section_title
;
Structure prediction by ZEFSAII (Michael W. Deem and Ramdas Pophale) SiO2 
 PCOD9380104
Probable space group: I M A 2
;
_chemical_formula_sum "Si O2"
_cell_formula_units_Z 64
_cell_length_a 18.901741
_cell_length_b 11.368678
_cell_length_c 15.152768
_cell_angle_alpha 90.000000
_cell_angle_beta 90.000000
_cell_angle_gamma 90.000000
_cell_volume 3256.145087
_symmetry_space_group_name_H-M "I M A 2"
_symmetry_group_IT_number 46
_symmetry_cell_setting 'orthorhombic'
loop_
_space_group_symop_operation_xyz
x,y,z
-x,-y,z
1/2-x,y,z
1/2+x,-y,z
1/2+x,1/2+y,1/2+z
1/2-x,1/2-y,1/2+z
-x,1/2+y,1/2+z
x,1/2-y,1/2+z
loop_
_atom_site_type_symbol
_atom_site_label
_atom_site_fract_x
_atom_site_fract_y
_atom_site_fract_z
Si Si1 0.828564 0.576218 0.512890
Si Si2 0.560875 0.235276 0.638094
Si Si3 0.920400 0.499209 0.668118
Si Si4 0.326962 0.357228 0.012327
Si Si5 0.015599 0.130787 0.475127
Si Si6 0.080740 0.451842 0.346319
Si Si7 0.833329 0.029866 0.675166
Si Si8 0.036419 0.205582 0.294993
O O1 0.750000 0.528002 0.499229
O O2 0.860554 0.550253 0.607418
O O3 0.824033 0.717012 0.512350
O O4 0.881473 0.526005 0.439457
O O5 0.594010 0.360129 0.667524
O O6 0.515058 0.221478 0.547580
O O7 0.621611 0.137279 0.634464
O O8 0.504536 0.224354 0.717417
O O9 0.930221 0.588258 0.750893
O O10 0.000000 0.500000 0.627451
O O11 0.250000 0.400428 0.978482
O O12 0.336874 0.418632 0.108109
O O13 0.399818 0.379000 0.962415
O O14 0.988379 0.162421 0.377263
O O15 0.000000 0.000000 0.507890
O O16 0.127105 0.503292 0.266701
O O17 0.083187 0.310420 0.333960
O O18 0.000000 0.500000 0.345995
O O19 0.750000 0.056291 0.687271
#
# Coordination Sequence:
#
# PCOD9380104 Si02
#       8
#     8   8   8   8   8   8   8   8
#     4  11  23  40  62  92 128 169 211 260 319 383
#     4  11  23  39  65  94 126 164 216 259 318 382
#     4  10  22  41  63  90 127 162 211 262 314 380
#     4  10  21  38  58  87 124 158 202 257 312 372
#     4  12  22  39  67  93 128 169 210 264 320 379
#     4  12  23  37  65  94 127 166 216 267 321 377
#     4  11  23  40  61  93 130 166 209 267 323 380
#     4  11  24  40  65  98 128 162 219 264 320 374
#
# _framework density 19.655145000000001
#
# number of rings (size 3 to 8) (size 9 to 14) (size 15 to 20)
#    0.000    1.000    3.750    4.875    1.750    0.500 
#    0.000    1.250    0.000    3.000    0.000    0.000 
#    0.000    0.000    0.000    0.000    0.000    0.000 
#
# Total GULP energy -178144.208254 kJ/mol
# GULP energy per Si atom -5567.006508 kJ/mol
# Density = 1.961041 g / cm^3
# Si number density = 19.655145 Si / 1000 Ang^3
#
#
#
# Elastic Constant Matrix: (Units=GPa)
#
#
# Indices 1 2 3 4 5 6 
#
# 1 103.0367 26.2408 41.3358 0.0000 0.0000 0.0000
# 2 26.2408 63.4206 20.0530 0.0000 0.0000 0.0000
# 3 41.3358 20.0530 101.9057 0.0000 0.0000 0.0000
# 4 0.0000 0.0000 0.0000 18.6445 0.0000 0.0000
# 5 0.0000 0.0000 0.0000 0.0000 14.1345 0.0000
# 6 0.0000 0.0000 0.0000 0.0000 0.0000 22.5453
#
#
#
# Elastic Compliance Matrix: (Units=1/GPa)
#
#
# Indices 1 2 3 4 5 6 
#
# 1 0.012383 -0.003770 -0.004281 0.000000 0.000000 0.000000
# 2 -0.003770 0.017962 -0.002005 0.000000 0.000000 0.000000
# 3 -0.004281 -0.002005 0.011944 0.000000 0.000000 0.000000
# 4 0.000000 0.000000 0.000000 0.053635 0.000000 0.000000
# 5 0.000000 0.000000 0.000000 0.000000 0.070749 0.000000
# 6 0.000000 0.000000 0.000000 0.000000 0.000000 0.044355
#
#
# Mechanical properties :
#
#
# Convention : Reuss Voigt Hill
#
# Bulk Modulus (GPa) = 45.09347 49.29135 47.19241
# Shear Modulus (GPa) = 20.96157 23.11377 22.03767
#
# Velocity S-wave (km/s) = 3.26922 3.43296 3.35209
# Velocity P-wave (km/s) = 6.10267 6.39110 6.24855
#
# Compressibility (1/GPa) = 0.02217616
#
# Stress axis : x y z
#
# Youngs Moduli (GPa) = 80.75720 55.67428 83.72347
#
# Poissons Ratio (x) = 0.20989 0.35842
# Poissons Ratio (y) = 0.30445 0.16789
# Poissons Ratio (z) = 0.34572 0.11164
#
# Static dielectric constant tensor:
#      x y z
#    x 1.735240 0.000000 0.000000 
#    y 0.000000 1.773630 0.000000 
#    z 0.000000 0.000000 1.741550 
# 
# From -- ./inp_files/16808.got.cif
#   From: 2010.05.17/outbox.cif.g08.bks.cpg/sg46_9_cif.got.tgz:16808.got - 2010.06.03 19:58:25.
