data_PCOD9380944
_publ_section_title
;
Structure prediction by ZEFSAII (Michael W. Deem and Ramdas Pophale) SiO2 
 PCOD9380944
Probable space group: I M A 2
;
_chemical_formula_sum "Si O2"
_cell_formula_units_Z 28
_cell_length_a 13.423407
_cell_length_b 10.696289
_cell_length_c 8.712495
_cell_angle_alpha 90.000000
_cell_angle_beta 90.000000
_cell_angle_gamma 90.000000
_cell_volume 1250.945614
_symmetry_space_group_name_H-M "I M A 2"
_symmetry_group_IT_number 46
_symmetry_cell_setting 'orthorhombic'
loop_
_space_group_symop_operation_xyz
x,y,z
-x,-y,z
1/2-x,y,z
1/2+x,-y,z
1/2+x,1/2+y,1/2+z
1/2-x,1/2-y,1/2+z
-x,1/2+y,1/2+z
x,1/2-y,1/2+z
loop_
_atom_site_type_symbol
_atom_site_label
_atom_site_fract_x
_atom_site_fract_y
_atom_site_fract_z
Si Si1 0.867287 0.408887 0.350060
Si Si2 0.500000 0.000000 0.291076
Si Si3 0.543607 0.189890 0.535595
Si Si4 0.867446 0.645705 0.548076
O O1 0.750000 0.393353 0.323602
O O2 0.900237 0.317702 0.489326
O O3 0.924073 0.365386 0.197799
O O4 0.883925 0.551403 0.404457
O O5 0.438538 0.908187 0.400956
O O6 0.576388 0.922023 0.187895
O O7 0.426897 0.225787 0.529264
O O8 0.750000 0.660187 0.571626
#
# Coordination Sequence:
#
# PCOD9380944 Si02
#       4
#     8   4   8   8
#     4  11  23  43  74 101 135 184 234 286 349 415
#     4  12  26  42  70 100 142 182 234 284 342 416
#     4  12  24  44  69 103 139 181 231 289 344 414
#     4  11  25  48  72 100 140 185 231 291 353 410
#
# _framework density 22.383067
#
# number of rings (size 3 to 8) (size 9 to 14) (size 15 to 20)
#    0.000    0.571    5.714    0.857    4.000    5.714 
#    0.000    0.000    0.000    0.000    0.000    0.000 
#    0.000    0.000    0.000    0.000    0.000    0.000 
#
# Total GULP energy -78399.334740 kJ/mol
# GULP energy per Si atom -5599.952481 kJ/mol
# Density = 2.233212 g / cm^3
# Si number density = 22.383067 Si / 1000 Ang^3
#
#
#
# Elastic Constant Matrix: (Units=GPa)
#
#
# Indices 1 2 3 4 5 6 
#
# 1 128.9117 21.8106 55.1683 0.0000 0.0000 0.0000
# 2 21.8106 43.4833 29.6134 0.0000 0.0000 0.0000
# 3 55.1683 29.6134 133.3627 0.0000 0.0000 0.0000
# 4 0.0000 0.0000 0.0000 36.2078 0.0000 0.0000
# 5 0.0000 0.0000 0.0000 0.0000 18.0799 0.0000
# 6 0.0000 0.0000 0.0000 0.0000 0.0000 32.4456
#
#
#
# Elastic Compliance Matrix: (Units=1/GPa)
#
#
# Indices 1 2 3 4 5 6 
#
# 1 0.009651 -0.002500 -0.003437 0.000000 0.000000 0.000000
# 2 -0.002500 0.027742 -0.005126 0.000000 0.000000 0.000000
# 3 -0.003437 -0.005126 0.010059 0.000000 0.000000 0.000000
# 4 0.000000 0.000000 0.000000 0.027618 0.000000 0.000000
# 5 0.000000 0.000000 0.000000 0.000000 0.055310 0.000000
# 6 0.000000 0.000000 0.000000 0.000000 0.000000 0.030821
#
#
# Mechanical properties :
#
#
# Convention : Reuss Voigt Hill
#
# Bulk Modulus (GPa) = 39.48615 57.66025 48.57320
# Shear Modulus (GPa) = 26.07292 30.62435 28.34863
#
# Velocity S-wave (km/s) = 3.41669 3.70292 3.56268
# Velocity P-wave (km/s) = 5.76580 6.64069 6.21865
#
# Compressibility (1/GPa) = 0.02532534
#
# Stress axis : x y z
#
# Youngs Moduli (GPa) = 103.61372 36.04600 99.41828
#
# Poissons Ratio (x) = 0.09012 0.34173
# Poissons Ratio (y) = 0.25904 0.50962
# Poissons Ratio (z) = 0.35615 0.18477
#
# Static dielectric constant tensor:
#      x y z
#    x 1.808440 0.000000 0.000000 
#    y 0.000000 1.893010 0.000000 
#    z 0.000000 0.000000 1.811550 
# 
# From -- ./inp_files/5166.got.cif
#   From: 2010.05.17/outbox.cif.g08.bks.cpg/sg46_3_cif.got.tgz:5166.got - 2010.06.03 19:58:25.
