data_PCOD9380631
_publ_section_title
;
Structure prediction by ZEFSAII (Michael W. Deem and Ramdas Pophale) SiO2 
 PCOD9380631
Probable space group: I M A 2
;
_chemical_formula_sum "Si O2"
_cell_formula_units_Z 56
_cell_length_a 14.273497
_cell_length_b 30.910071
_cell_length_c 5.364491
_cell_angle_alpha 90.000000
_cell_angle_beta 90.000000
_cell_angle_gamma 90.000000
_cell_volume 2366.785564
_symmetry_space_group_name_H-M "I M A 2"
_symmetry_group_IT_number 46
_symmetry_cell_setting 'orthorhombic'
loop_
_space_group_symop_operation_xyz
x,y,z
-x,-y,z
1/2-x,y,z
1/2+x,-y,z
1/2+x,1/2+y,1/2+z
1/2-x,1/2-y,1/2+z
-x,1/2+y,1/2+z
x,1/2-y,1/2+z
loop_
_atom_site_type_symbol
_atom_site_label
_atom_site_fract_x
_atom_site_fract_y
_atom_site_fract_z
Si Si1 0.250000 0.953505 0.649480
Si Si2 0.849815 0.150891 0.039450
Si Si3 0.952490 0.958127 0.009283
Si Si4 0.470641 0.365505 0.228714
Si Si5 0.363196 0.223756 0.705206
Si Si6 0.640586 0.267844 0.882705
Si Si7 0.417501 0.916236 0.377648
Si Si8 0.250000 0.491402 0.644662
O O1 0.347104 0.928119 0.599444
O O2 0.250000 0.988008 0.419968
O O3 0.250000 0.974576 0.917698
O O4 0.750000 0.157863 0.909304
O O5 0.858637 0.184999 0.264274
O O6 0.852616 0.104696 0.169029
O O7 0.938665 0.153134 0.867308
O O8 0.023194 0.952784 0.242635
O O9 0.847101 0.966273 0.100880
O O10 0.949335 0.912179 0.860995
O O11 0.000000 0.000000 0.870619
O O12 0.398432 0.326005 0.219035
O O13 0.505839 0.380938 0.959268
O O14 0.250000 0.222644 0.705538
O O15 0.392188 0.248282 0.449292
O O16 0.750000 0.255418 0.920532
O O17 0.599200 0.239381 0.655934
#
# Coordination Sequence:
#
# PCOD9380631 Si02
#       8
#     4   8   8   8   8   8   8   4
#     4  12  26  48  78 102 150 202 266 294 394 456
#     4  10  23  40  61  95 140 190 242 294 364 444
#     4  11  25  48  72 111 160 197 261 316 398 464
#     4  11  27  43  74 109 148 204 254 329 385 476
#     4  10  25  52  83 114 152 199 259 334 406 470
#     4   9  19  35  54  81 120 167 218 275 337 404
#     4  11  25  43  69 105 147 199 249 317 369 472
#     4  12  28  48  78 110 140 208 248 326 378 468
#
# _framework density 23.660784
#
# number of rings (size 3 to 8) (size 9 to 14) (size 15 to 20)
#    0.000    1.429    2.143    0.857   12.000    1.714 
#    1.286    0.000    0.000    0.000    0.000    0.000 
#    0.000    0.000    0.000    0.000    0.000    0.000 
#
# Total GULP energy -156514.483328 kJ/mol
# GULP energy per Si atom -5589.802976 kJ/mol
# Density = 2.360693 g / cm^3
# Si number density = 23.660784 Si / 1000 Ang^3
#
#
#
# Elastic Constant Matrix: (Units=GPa)
#
#
# Indices 1 2 3 4 5 6 
#
# 1 100.3134 62.3430 10.6585 0.0544 -0.0862 -0.0198
# 2 62.3430 154.3108 57.0890 0.0236 0.0028 -0.0083
# 3 10.6585 57.0890 99.2065 0.1459 -0.1728 -0.0066
# 4 0.0544 0.0236 0.1459 45.7189 -0.0293 -0.0210
# 5 -0.0862 0.0028 -0.1728 -0.0293 24.3663 0.0167
# 6 -0.0198 -0.0083 -0.0066 -0.0210 0.0167 52.5579
#
#
#
# Elastic Compliance Matrix: (Units=1/GPa)
#
#
# Indices 1 2 3 4 5 6 
#
# 1 0.013670 -0.006326 0.002172 -0.000020 0.000064 0.000004
# 2 -0.006326 0.011161 -0.005743 0.000020 -0.000064 -0.000001
# 3 0.002172 -0.005743 0.013152 -0.000042 0.000102 0.000001
# 4 -0.000020 0.000020 -0.000042 0.021873 0.000026 0.000009
# 5 0.000064 -0.000064 0.000102 0.000026 0.041041 -0.000013
# 6 0.000004 -0.000001 0.000001 0.000009 -0.000013 0.019027
#
#
# Mechanical properties :
#
#
# Convention : Reuss Voigt Hill
#
# Bulk Modulus (GPa) = 54.98218 68.22352 61.60285
# Shear Modulus (GPa) = 34.29806 39.44462 36.87134
#
# Velocity S-wave (km/s) = 3.81146 4.08743 3.95185
# Velocity P-wave (km/s) = 6.53129 7.15351 6.84947
#
# Compressibility (1/GPa) = 0.01818771
#
# Stress axis : x y z
#
# Youngs Moduli (GPa) = 73.15451 89.59755 76.03521
#
# Poissons Ratio (x) = 0.56681 -0.16515
# Poissons Ratio (y) = 0.46279 0.43668
# Poissons Ratio (z) = -0.15889 0.51457
#
# Static dielectric constant tensor:
#      x y z
#    x 1.900840 -0.000010 0.000000 
#    y -0.000010 1.974410 -0.000030 
#    z 0.000000 -0.000030 1.926650 
# 
# From -- ./inp_files/1456.got.cif
#   From: 2010.05.17/outbox.cif.g08.bks.cpg/sg46_1_cif.got.tgz:1456.got - 2010.06.03 19:58:25.
