data_PCOD9380080
_publ_section_title
;
Structure prediction by ZEFSAII (Michael W. Deem and Ramdas Pophale) SiO2 
 PCOD9380080
Probable space group: I M A 2
;
_chemical_formula_sum "Si O2"
_cell_formula_units_Z 64
_cell_length_a 18.523220
_cell_length_b 19.265228
_cell_length_c 7.899092
_cell_angle_alpha 90.000000
_cell_angle_beta 90.000000
_cell_angle_gamma 90.000000
_cell_volume 2818.823024
_symmetry_space_group_name_H-M "I M A 2"
_symmetry_group_IT_number 46
_symmetry_cell_setting 'orthorhombic'
loop_
_space_group_symop_operation_xyz
x,y,z
-x,-y,z
1/2-x,y,z
1/2+x,-y,z
1/2+x,1/2+y,1/2+z
1/2-x,1/2-y,1/2+z
-x,1/2+y,1/2+z
x,1/2-y,1/2+z
loop_
_atom_site_type_symbol
_atom_site_label
_atom_site_fract_x
_atom_site_fract_y
_atom_site_fract_z
Si Si1 0.447276 0.939073 0.087050
Si Si2 0.519865 0.680969 0.451936
Si Si3 0.045124 0.902380 0.633215
Si Si4 0.893134 0.554170 0.094402
Si Si5 0.667420 0.870897 0.929203
Si Si6 0.603364 0.289147 0.907433
Si Si7 0.168614 0.025228 0.250707
Si Si8 0.332471 0.657608 0.555811
O O1 0.401214 0.974260 0.237649
O O2 0.377749 0.907753 0.986934
O O3 0.500000 0.000000 0.021117
O O4 0.496876 0.870328 0.106749
O O5 0.490361 0.632603 0.299213
O O6 0.605418 0.687228 0.451600
O O7 0.474593 0.750859 0.428794
O O8 0.099435 0.848605 0.547368
O O9 0.970041 0.914219 0.532687
O O10 0.084289 0.976025 0.647940
O O11 0.857088 0.589616 0.258155
O O12 0.840426 0.557911 0.935032
O O13 0.750000 0.847052 0.917248
O O14 0.662406 0.922849 0.090735
O O15 0.629938 0.321375 0.732686
O O16 0.656764 0.225441 0.943154
O O17 0.250000 0.994858 0.241862
O O18 0.250000 0.641687 0.575441
#
# Coordination Sequence:
#
# PCOD9380080 Si02
#       8
#     8   8   8   8   8   8   8   8
#     4  11  22  36  63  91 122 164 210 262 314 374
#     4  10  21  39  62  90 123 164 217 265 307 385
#     4  10  21  37  61  95 119 164 210 263 314 378
#     4  10  22  36  63  93 131 156 213 265 325 381
#     4  10  21  39  62  90 129 166 203 264 330 378
#     4  11  22  40  64  89 123 168 217 255 307 383
#     4  11  22  36  58  93 129 162 202 255 325 385
#     4  11  24  41  61  90 131 168 207 259 315 376
#
# _framework density 22.704512000000001
#
# number of rings (size 3 to 8) (size 9 to 14) (size 15 to 20)
#    0.000    1.500    2.500    2.625    5.250    0.000 
#    0.000    1.875    0.000    3.750    0.000    0.000 
#    0.000    0.000    0.000    0.000    0.000    0.000 
#
# Total GULP energy -178410.931894 kJ/mol
# GULP energy per Si atom -5575.341622 kJ/mol
# Density = 2.265284 g / cm^3
# Si number density = 22.704512 Si / 1000 Ang^3
#
#
#
# Elastic Constant Matrix: (Units=GPa)
#
#
# Indices 1 2 3 4 5 6 
#
# 1 172.7829 32.2700 21.3075 0.0000 0.0000 0.0000
# 2 32.2700 60.3903 -1.1351 0.0000 0.0000 0.0000
# 3 21.3075 -1.1351 82.5751 0.0000 0.0000 0.0000
# 4 0.0000 0.0000 0.0000 11.6773 0.0000 0.0000
# 5 0.0000 0.0000 0.0000 0.0000 21.7871 0.0000
# 6 0.0000 0.0000 0.0000 0.0000 0.0000 13.1869
#
#
#
# Elastic Compliance Matrix: (Units=1/GPa)
#
#
# Indices 1 2 3 4 5 6 
#
# 1 0.006679 -0.003602 -0.001773 0.000000 0.000000 0.000000
# 2 -0.003602 0.018506 0.001184 0.000000 0.000000 0.000000
# 3 -0.001773 0.001184 0.012584 0.000000 0.000000 0.000000
# 4 0.000000 0.000000 0.000000 0.085636 0.000000 0.000000
# 5 0.000000 0.000000 0.000000 0.000000 0.045899 0.000000
# 6 0.000000 0.000000 0.000000 0.000000 0.000000 0.075833
#
#
# Mechanical properties :
#
#
# Convention : Reuss Voigt Hill
#
# Bulk Modulus (GPa) = 34.02934 46.73701 40.38318
# Shear Modulus (GPa) = 18.98867 26.88399 22.93633
#
# Velocity S-wave (km/s) = 2.89509 3.44478 3.18183
# Velocity P-wave (km/s) = 5.11819 6.03752 5.59676
#
# Compressibility (1/GPa) = 0.02938641
#
# Stress axis : x y z
#
# Youngs Moduli (GPa) = 149.72203 54.03610 79.46632
#
# Poissons Ratio (x) = 0.19466 0.14089
# Poissons Ratio (y) = 0.53935 -0.09408
# Poissons Ratio (z) = 0.26545 -0.06397
#
# Static dielectric constant tensor:
#      x y z
#    x 1.883510 0.000000 0.000000 
#    y 0.000000 1.877760 0.000000 
#    z 0.000000 0.000000 1.964760 
# 
# From -- ./inp_files/6922.got.cif
#   From: 2010.05.17/outbox.cif.g08.bks.cpg/sg46_4_cif.got.tgz:6922.got - 2010.06.03 19:58:25.
