data_PCOD9380031
_publ_section_title
;
Structure prediction by ZEFSAII (Michael W. Deem and Ramdas Pophale) SiO2 
 PCOD9380031
Probable space group: I M A 2
;
_chemical_formula_sum "Si O2"
_cell_formula_units_Z 64
_cell_length_a 8.794027
_cell_length_b 28.562104
_cell_length_c 14.775736
_cell_angle_alpha 90.000000
_cell_angle_beta 90.000000
_cell_angle_gamma 90.000000
_cell_volume 3711.308991
_symmetry_space_group_name_H-M "I M A 2"
_symmetry_group_IT_number 46
_symmetry_cell_setting 'orthorhombic'
loop_
_space_group_symop_operation_xyz
x,y,z
-x,-y,z
1/2-x,y,z
1/2+x,-y,z
1/2+x,1/2+y,1/2+z
1/2-x,1/2-y,1/2+z
-x,1/2+y,1/2+z
x,1/2-y,1/2+z
loop_
_atom_site_type_symbol
_atom_site_label
_atom_site_fract_x
_atom_site_fract_y
_atom_site_fract_z
Si Si1 0.070104 0.632298 0.274300
Si Si2 0.932840 0.676536 0.655797
Si Si3 0.433438 0.551408 0.959863
Si Si4 0.433412 0.325176 0.448156
Si Si5 0.428742 0.216468 0.445704
Si Si6 0.931934 0.948498 0.654716
Si Si7 0.069651 0.634916 0.828422
Si Si8 0.569810 0.716157 0.161405
O O1 0.250000 0.625286 0.270502
O O2 0.013978 0.642159 0.375846
O O3 0.985653 0.588508 0.228910
O O4 0.022564 0.678138 0.216820
O O5 0.750000 0.676280 0.657166
O O6 0.978843 0.666357 0.552415
O O7 0.977872 0.730174 0.679329
O O8 0.995570 0.641819 0.730677
O O9 0.500000 0.500000 0.941113
O O10 0.250000 0.549292 0.966612
O O11 0.477497 0.588620 0.883309
O O12 0.501255 0.566433 0.056930
O O13 0.250000 0.329869 0.441589
O O14 0.468883 0.270587 0.427268
O O15 0.250000 0.210605 0.423498
O O16 0.522447 0.179452 0.388863
O O17 0.445982 0.208742 0.553447
O O18 0.750000 0.950782 0.649638
O O19 0.000000 0.000000 0.672711
O O20 0.250000 0.633691 0.818460
O O21 0.750000 0.711562 0.183586
#
# Coordination Sequence:
#
# PCOD9380031 Si02
#       8
#     8   8   8   8   8   8   8   8
#     4  12  23  33  50  78 107 138 173 210 255 309
#     4   9  19  35  54  73  99 137 180 218 256 303
#     4  10  21  37  55  79 108 136 167 207 254 308
#     4   9  19  36  53  72  99 135 178 220 254 294
#     4   9  18  32  51  73 101 137 176 211 250 302
#     4  11  22  38  59  81 106 135 166 207 255 306
#     4  11  22  32  48  76 107 134 167 211 258 306
#     4   9  18  33  51  74 103 138 177 216 254 300
#
# _framework density 17.244589999999999
#
# number of rings (size 3 to 8) (size 9 to 14) (size 15 to 20)
#    0.000    2.000    0.000    6.750    0.000    9.000 
#    0.000    2.500    0.000    0.750    0.000    1.750 
#    0.000    0.000    0.000    0.000    0.000    0.000 
#
# Total GULP energy -178748.108868 kJ/mol
# GULP energy per Si atom -5585.878402 kJ/mol
# Density = 1.720534 g / cm^3
# Si number density = 17.244590 Si / 1000 Ang^3
#
#
#
# Elastic Constant Matrix: (Units=GPa)
#
#
# Indices 1 2 3 4 5 6 
#
# 1 63.5611 37.5552 39.3973 0.0000 0.0000 0.0000
# 2 37.5552 76.1657 72.0644 0.0001 0.0000 0.0000
# 3 39.3973 72.0644 90.4565 0.0002 0.0001 0.0001
# 4 0.0000 0.0001 0.0002 32.0267 0.0000 0.0000
# 5 0.0000 0.0000 0.0001 0.0000 20.1619 0.0000
# 6 0.0000 0.0000 0.0001 0.0000 0.0000 25.8137
#
#
#
# Elastic Compliance Matrix: (Units=1/GPa)
#
#
# Indices 1 2 3 4 5 6 
#
# 1 0.022536 -0.007412 -0.003910 0.000000 0.000000 0.000000
# 2 -0.007412 0.055760 -0.041194 0.000000 0.000000 0.000000
# 3 -0.003910 -0.041194 0.045577 0.000000 0.000000 0.000000
# 4 0.000000 0.000000 0.000000 0.031224 0.000000 0.000000
# 5 0.000000 0.000000 0.000000 0.000000 0.049598 0.000000
# 6 0.000000 0.000000 0.000000 0.000000 0.000000 0.038739
#
#
# Mechanical properties :
#
#
# Convention : Reuss Voigt Hill
#
# Bulk Modulus (GPa) = 53.08081 58.69076 55.88578
# Shear Modulus (GPa) = 14.09450 21.01156 17.55303
#
# Velocity S-wave (km/s) = 2.86200 3.49441 3.19389
# Velocity P-wave (km/s) = 6.46292 7.09855 6.78818
#
# Compressibility (1/GPa) = 0.01883920
#
# Stress axis : x y z
#
# Youngs Moduli (GPa) = 44.37318 17.93387 21.94108
#
# Poissons Ratio (x) = 0.13293 0.08579
# Poissons Ratio (y) = 0.32891 0.90385
# Poissons Ratio (z) = 0.17350 0.73878
#
# Static dielectric constant tensor:
#      x y z
#    x 1.576410 0.000000 0.000000 
#    y 0.000000 1.568770 0.000000 
#    z 0.000000 0.000000 1.590480 
# 
# From -- ./inp_files/14513.got.cif
#   From: 2010.05.17/outbox.cif.g08.bks.cpg/sg46_8_cif.got.tgz:14513.got - 2010.06.03 19:58:25.
