data_PCOD9380922
_publ_section_title
;
Structure prediction by ZEFSAII (Michael W. Deem and Ramdas Pophale) SiO2 
 PCOD9380922
Probable space group: I M A 2
;
_chemical_formula_sum "Si O2"
_cell_formula_units_Z 64
_cell_length_a 13.998283
_cell_length_b 25.006772
_cell_length_c 8.862587
_cell_angle_alpha 90.000000
_cell_angle_beta 90.000000
_cell_angle_gamma 90.000000
_cell_volume 3102.365165
_symmetry_space_group_name_H-M "I M A 2"
_symmetry_group_IT_number 46
_symmetry_cell_setting 'orthorhombic'
loop_
_space_group_symop_operation_xyz
x,y,z
-x,-y,z
1/2-x,y,z
1/2+x,-y,z
1/2+x,1/2+y,1/2+z
1/2-x,1/2-y,1/2+z
-x,1/2+y,1/2+z
x,1/2-y,1/2+z
loop_
_atom_site_type_symbol
_atom_site_label
_atom_site_fract_x
_atom_site_fract_y
_atom_site_fract_z
Si Si1 0.857466 0.402514 0.470150
Si Si2 0.636069 0.720774 0.382820
Si Si3 0.445587 0.316764 0.063123
Si Si4 0.134479 0.514858 0.047685
Si Si5 0.364747 0.412371 0.884848
Si Si6 0.862643 0.976825 0.879764
Si Si7 0.443927 0.121529 0.064130
Si Si8 0.139121 0.631728 0.117098
O O1 0.750000 0.391417 0.524038
O O2 0.871065 0.466896 0.468112
O O3 0.863574 0.383452 0.295273
O O4 0.941721 0.374280 0.559740
O O5 0.750000 0.728347 0.382827
O O6 0.599744 0.703064 0.219153
O O7 0.584145 0.774542 0.436053
O O8 0.606345 0.673904 0.498198
O O9 0.559092 0.324793 0.081242
O O10 0.399487 0.373313 0.017157
O O11 0.250000 0.516072 0.053042
O O12 0.106199 0.490086 0.209379
O O13 0.108054 0.576628 0.034234
O O14 0.105555 0.473143 0.920841
O O15 0.250000 0.410588 0.877470
O O16 0.406929 0.392168 0.728775
O O17 0.750000 0.962828 0.877577
O O18 0.917923 0.928185 0.954443
O O19 0.250000 0.644621 0.080946
#
# Coordination Sequence:
#
# PCOD9380922 Si02
#       8
#     8   8   8   8   8   8   8   8
#     4   9  19  38  63  93 128 169 213 263 309 372
#     4  12  25  42  67  95 126 165 214 270 325 384
#     4  12  25  45  67  94 125 168 218 264 331 383
#     4   8  17  35  62  93 128 171 212 258 310 369
#     4  11  23  39  60  93 138 174 214 267 320 382
#     4   9  17  33  60  91 127 167 216 259 307 373
#     4  12  22  38  61  96 130 177 217 256 321 381
#     4   9  19  42  70  97 128 167 216 265 312 379
#
# _framework density 20.629421000000001
#
# number of rings (size 3 to 8) (size 9 to 14) (size 15 to 20)
#    0.000    1.750    1.250    5.625    0.000    1.500 
#    4.500    1.875    0.000    0.000    0.000    0.000 
#    0.000    0.000    0.000    0.000    0.000    0.000 
#
# Total GULP energy -178957.368408 kJ/mol
# GULP energy per Si atom -5592.417763 kJ/mol
# Density = 2.058247 g / cm^3
# Si number density = 20.629421 Si / 1000 Ang^3
#
#
#
# Elastic Constant Matrix: (Units=GPa)
#
#
# Indices 1 2 3 4 5 6 
#
# 1 158.6867 59.2519 15.4774 -0.0002 0.0001 0.0000
# 2 59.2519 70.1719 18.0054 0.0002 -0.0002 0.0000
# 3 15.4774 18.0054 31.8776 0.0030 -0.0012 0.0002
# 4 -0.0002 0.0002 0.0030 -5.3259 0.0000 0.0001
# 5 0.0001 -0.0002 -0.0012 0.0000 33.1171 -0.0001
# 6 0.0000 0.0000 0.0002 0.0001 -0.0001 34.0043
#
#
#
# Elastic Compliance Matrix: (Units=1/GPa)
#
#
# Indices 1 2 3 4 5 6 
#
# 1 0.009204 -0.007748 -0.000093 -0.000001 0.000000 0.000000
# 2 -0.007748 0.023188 -0.009336 -0.000004 0.000000 0.000000
# 3 -0.000093 -0.009336 0.036688 0.000021 0.000001 0.000000
# 4 -0.000001 -0.000004 0.000021 -0.187761 0.000000 0.000001
# 5 0.000000 0.000000 0.000001 0.000000 0.030196 0.000000
# 6 0.000000 0.000000 0.000000 0.000001 0.000000 0.029408
#
#
# Mechanical properties :
#
#
# Convention : Reuss Voigt Hill
#
# Bulk Modulus (GPa) = 28.79509 49.57838 39.18674
# Shear Modulus (GPa) = -380.23943 23.55919 -178.34012
#
# Velocity S-wave (km/s) = -13.59114 3.38304 -9.30790
# Velocity P-wave (km/s) = 15.24151 6.27256 9.82239
#
# Compressibility (1/GPa) = 0.03472814
#
# Stress axis : x y z
#
# Youngs Moduli (GPa) = 108.65275 43.12554 27.25689
#
# Poissons Ratio (x) = 0.33412 0.00252
# Poissons Ratio (y) = 0.84180 0.25446
# Poissons Ratio (z) = 0.01005 0.40260
#
# Static dielectric constant tensor:
#      x y z
#    x 1.754820 0.000000 0.000000 
#    y 0.000000 1.724630 0.000000 
#    z 0.000000 0.000000 1.717870 
# 
# From -- ./inp_files/6083.got.cif
#   From: 2010.05.17/outbox.cif.g08.bks.cpg/sg46_4_cif.got.tgz:6083.got - 2010.06.03 19:58:25.
