data_PCOD9380123
_publ_section_title
;
Structure prediction by ZEFSAII (Michael W. Deem and Ramdas Pophale) SiO2 
 PCOD9380123
Probable space group: I M A 2
;
_chemical_formula_sum "Si O2"
_cell_formula_units_Z 56
_cell_length_a 9.136107
_cell_length_b 20.838290
_cell_length_c 14.328932
_cell_angle_alpha 90.000000
_cell_angle_beta 90.000000
_cell_angle_gamma 90.000000
_cell_volume 2727.954213
_symmetry_space_group_name_H-M "I M A 2"
_symmetry_group_IT_number 46
_symmetry_cell_setting 'orthorhombic'
loop_
_space_group_symop_operation_xyz
x,y,z
-x,-y,z
1/2-x,y,z
1/2+x,-y,z
1/2+x,1/2+y,1/2+z
1/2-x,1/2-y,1/2+z
-x,1/2+y,1/2+z
x,1/2-y,1/2+z
loop_
_atom_site_type_symbol
_atom_site_label
_atom_site_fract_x
_atom_site_fract_y
_atom_site_fract_z
Si Si1 0.078832 0.108193 0.121110
Si Si2 0.918357 0.152540 0.470351
Si Si3 0.075799 0.641910 0.257213
Si Si4 0.918977 0.259115 0.614274
Si Si5 0.920460 0.563072 0.101991
Si Si6 0.923838 0.567555 0.408989
Si Si7 0.920909 0.062875 0.303352
O O1 0.250000 0.103476 0.143348
O O2 0.027117 0.181832 0.118375
O O3 0.987338 0.074734 0.202119
O O4 0.054505 0.078219 0.019294
O O5 0.750000 0.131674 0.497534
O O6 0.926861 0.223705 0.513093
O O7 0.936027 0.128137 0.364901
O O8 0.045226 0.116352 0.525499
O O9 0.250000 0.635413 0.267295
O O10 0.050528 0.706962 0.196818
O O11 0.006879 0.586508 0.192834
O O12 0.996518 0.627719 0.354688
O O13 0.750000 0.280430 0.626924
O O14 0.750000 0.554323 0.119401
O O15 0.000000 0.500000 0.067729
O O16 0.750000 0.564933 0.389358
O O17 0.000000 0.500000 0.382628
O O18 0.750000 0.048622 0.297850
O O19 0.000000 0.000000 0.345098
#
# Coordination Sequence:
#
# PCOD9380123 Si02
#       7
#     8   8   8   8   8   8   8
#     4  11  25  42  61  86 119 159 203 250 298 349
#     4   9  20  38  59  86 118 153 194 240 292 353
#     4  10  21  38  60  86 117 154 194 240 294 354
#     4   9  20  40  63  88 120 157 197 238 291 355
#     4  11  20  31  51  80 116 155 192 236 290 349
#     4  11  24  41  61  88 119 155 199 248 300 353
#     4  11  23  40  63  90 121 157 200 248 299 353
#
# _framework density 20.528203000000001
#
# number of rings (size 3 to 8) (size 9 to 14) (size 15 to 20)
#    0.000    1.714    0.000    5.143    0.000    9.714 
#    0.000    4.286    0.000    0.000    0.000    0.000 
#    0.000    0.000    0.000    0.000    0.000    0.000 
#
# Total GULP energy -156271.409073 kJ/mol
# GULP energy per Si atom -5581.121753 kJ/mol
# Density = 2.048148 g / cm^3
# Si number density = 20.528203 Si / 1000 Ang^3
#
#
#
# Elastic Constant Matrix: (Units=GPa)
#
#
# Indices 1 2 3 4 5 6 
#
# 1 87.3978 35.2090 43.6460 -0.0001 0.0000 0.0000
# 2 35.2090 60.3247 14.1437 -0.0001 0.0000 0.0000
# 3 43.6460 14.1437 79.8656 0.0000 0.0000 0.0000
# 4 -0.0001 -0.0001 0.0000 27.3578 0.0000 0.0000
# 5 0.0000 0.0000 0.0000 0.0000 21.6048 0.0000
# 6 0.0000 0.0000 0.0000 0.0000 0.0000 15.7514
#
#
#
# Elastic Compliance Matrix: (Units=1/GPa)
#
#
# Indices 1 2 3 4 5 6 
#
# 1 0.019808 -0.009414 -0.009158 0.000000 0.000000 0.000000
# 2 -0.009414 0.021769 0.001289 0.000000 0.000000 0.000000
# 3 -0.009158 0.001289 0.017297 0.000000 0.000000 0.000000
# 4 0.000000 0.000000 0.000000 0.036553 0.000000 0.000000
# 5 0.000000 0.000000 0.000000 0.000000 0.046286 0.000000
# 6 0.000000 0.000000 0.000000 0.000000 0.000000 0.063486
#
#
# Mechanical properties :
#
#
# Convention : Reuss Voigt Hill
#
# Bulk Modulus (GPa) = 41.13538 45.95395 43.54466
# Shear Modulus (GPa) = 20.17218 21.91545 21.04381
#
# Velocity S-wave (km/s) = 3.13814 3.27093 3.20522
# Velocity P-wave (km/s) = 5.76303 6.05802 5.91237
#
# Compressibility (1/GPa) = 0.02430997
#
# Stress axis : x y z
#
# Youngs Moduli (GPa) = 50.48558 45.93673 57.81265
#
# Poissons Ratio (x) = 0.43244 0.52943
# Poissons Ratio (y) = 0.47526 -0.07455
# Poissons Ratio (z) = 0.46233 -0.05923
#
# Static dielectric constant tensor:
#      x y z
#    x 1.683550 0.000000 0.000000 
#    y 0.000000 1.726370 0.000000 
#    z 0.000000 0.000000 1.784040 
# 
# From -- ./inp_files/14201.got.cif
#   From: 2010.05.17/outbox.cif.g08.bks.cpg/sg46_8_cif.got.tgz:14201.got - 2010.06.03 19:58:25.
