data_PCOD9380374
_publ_section_title
;
Structure prediction by ZEFSAII (Michael W. Deem and Ramdas Pophale) SiO2 
 PCOD9380374
Probable space group: I M A 2
;
_chemical_formula_sum "Si O2"
_cell_formula_units_Z 24
_cell_length_a 15.671805
_cell_length_b 9.385442
_cell_length_c 8.467176
_cell_angle_alpha 90.000000
_cell_angle_beta 90.000000
_cell_angle_gamma 90.000000
_cell_volume 1245.409966
_symmetry_space_group_name_H-M "I M A 2"
_symmetry_group_IT_number 46
_symmetry_cell_setting 'orthorhombic'
loop_
_space_group_symop_operation_xyz
x,y,z
-x,-y,z
1/2-x,y,z
1/2+x,-y,z
1/2+x,1/2+y,1/2+z
1/2-x,1/2-y,1/2+z
-x,1/2+y,1/2+z
x,1/2-y,1/2+z
loop_
_atom_site_type_symbol
_atom_site_label
_atom_site_fract_x
_atom_site_fract_y
_atom_site_fract_z
Si Si1 0.593428 0.443694 0.753980
Si Si2 0.652914 0.159950 0.925021
Si Si3 0.250000 0.443617 0.236309
Si Si4 0.750000 0.869224 0.368471
O O1 0.500000 0.500000 0.792088
O O2 0.614767 0.302190 0.853001
O O3 0.600691 0.401938 0.570112
O O4 0.666547 0.558903 0.791759
O O5 0.750000 0.191586 0.985544
O O6 0.670062 0.041608 0.789943
O O7 0.250000 0.298851 0.336521
O O8 0.250000 0.405178 0.053763
#
# Coordination Sequence:
#
# PCOD9380374 Si02
#       4
#     8   8   4   4
#     4  12  25  41  72 100 136 180 235 281 340 411
#     4  10  21  45  67  95 132 190 219 276 347 405
#     4  10  23  38  75  88 134 186 226 276 349 406
#     4  12  21  44  63 102 134 178 232 288 339 398
#
# _framework density 19.270762000000001
#
# number of rings (size 3 to 8) (size 9 to 14) (size 15 to 20)
#    1.000    0.000    3.333    4.000    0.000    5.333 
#    0.000    3.333    0.000    0.000    0.000    0.000 
#    0.000    0.000    0.000    0.000    0.000    0.000 
#
# Total GULP energy -67048.403797 kJ/mol
# GULP energy per Si atom -5587.366983 kJ/mol
# Density = 1.922690 g / cm^3
# Si number density = 19.270762 Si / 1000 Ang^3
#
#
#
# Elastic Constant Matrix: (Units=GPa)
#
#
# Indices 1 2 3 4 5 6 
#
# 1 118.7258 60.0586 1.0434 0.0000 0.0000 0.0000
# 2 60.0586 132.8909 1.1911 0.0000 0.0000 0.0000
# 3 1.0434 1.1911 27.1480 0.0000 0.0000 0.0000
# 4 0.0000 0.0000 0.0000 40.6271 0.0000 0.0000
# 5 0.0000 0.0000 0.0000 0.0000 9.8883 0.0000
# 6 0.0000 0.0000 0.0000 0.0000 0.0000 12.1174
#
#
#
# Elastic Compliance Matrix: (Units=1/GPa)
#
#
# Indices 1 2 3 4 5 6 
#
# 1 0.010920 -0.004933 -0.000203 0.000000 0.000000 0.000000
# 2 -0.004933 0.009757 -0.000238 0.000000 0.000000 0.000000
# 3 -0.000203 -0.000238 0.036853 0.000000 0.000000 0.000000
# 4 0.000000 0.000000 0.000000 0.024614 0.000000 0.000000
# 5 0.000000 0.000000 0.000000 0.000000 0.101129 0.000000
# 6 0.000000 0.000000 0.000000 0.000000 0.000000 0.082526
#
#
# Mechanical properties :
#
#
# Convention : Reuss Voigt Hill
#
# Bulk Modulus (GPa) = 21.37664 44.81676 33.09670
# Shear Modulus (GPa) = 17.11488 26.95800 22.03644
#
# Velocity S-wave (km/s) = 2.98338 3.74425 3.38526
# Velocity P-wave (km/s) = 4.79419 6.48070 5.70016
#
# Compressibility (1/GPa) = 0.04678004
#
# Stress axis : x y z
#
# Youngs Moduli (GPa) = 91.57352 102.49344 27.13450
#
# Poissons Ratio (x) = 0.50565 0.00552
# Poissons Ratio (y) = 0.45177 0.00647
# Poissons Ratio (z) = 0.01861 0.02444
#
# Static dielectric constant tensor:
#      x y z
#    x 1.669690 0.000000 0.000000 
#    y 0.000000 1.657260 0.000000 
#    z 0.000000 0.000000 1.671260 
# 
# From -- ./inp_files/5127.got.cif
#   From: 2010.05.17/outbox.cif.g08.bks.cpg/sg46_3_cif.got.tgz:5127.got - 2010.06.03 19:58:25.
