data_PCOD9380037
_publ_section_title
;
Structure prediction by ZEFSAII (Michael W. Deem and Ramdas Pophale) SiO2 
 PCOD9380037
Probable space group: I M A 2
;
_chemical_formula_sum "Si O2"
_cell_formula_units_Z 56
_cell_length_a 19.495186
_cell_length_b 14.493096
_cell_length_c 10.321678
_cell_angle_alpha 90.000000
_cell_angle_beta 90.000000
_cell_angle_gamma 90.000000
_cell_volume 2916.344727
_symmetry_space_group_name_H-M "I M A 2"
_symmetry_group_IT_number 46
_symmetry_cell_setting 'orthorhombic'
loop_
_space_group_symop_operation_xyz
x,y,z
-x,-y,z
1/2-x,y,z
1/2+x,-y,z
1/2+x,1/2+y,1/2+z
1/2-x,1/2-y,1/2+z
-x,1/2+y,1/2+z
x,1/2-y,1/2+z
loop_
_atom_site_type_symbol
_atom_site_label
_atom_site_fract_x
_atom_site_fract_y
_atom_site_fract_z
Si Si1 0.671665 0.116386 0.030070
Si Si2 0.571619 0.792787 0.844989
Si Si3 0.027267 0.401367 0.109524
Si Si4 0.322964 0.589564 0.835011
Si Si5 0.431814 0.720333 0.956185
Si Si6 0.606970 0.594195 0.839465
Si Si7 0.428173 0.450663 0.547881
O O1 0.750000 0.121396 0.978930
O O2 0.676504 0.119972 0.185788
O O3 0.632958 0.019549 0.007884
O O4 0.620839 0.196917 0.983444
O O5 0.574934 0.855503 0.717669
O O6 0.493972 0.753561 0.864589
O O7 0.619949 0.703607 0.836661
O O8 0.581423 0.856064 0.970712
O O9 0.000000 0.500000 0.156845
O O10 0.062680 0.419100 0.970217
O O11 0.968593 0.325379 0.080378
O O12 0.250000 0.617851 0.894212
O O13 0.387868 0.637809 0.897087
O O14 0.332100 0.479560 0.844746
O O15 0.571252 0.568857 0.702290
O O16 0.500000 0.500000 0.513846
#
# Coordination Sequence:
#
# PCOD9380037 Si02
#       7
#     8   8   8   8   8   8   8
#     4  10  22  38  58  83 116 155 196 236 286 348
#     4  11  23  34  58  90 118 148 186 243 295 338
#     4  11  21  34  54  88 122 146 180 241 296 337
#     4  10  21  37  57  80 111 155 199 237 282 346
#     4  11  20  35  57  86 115 152 188 237 290 352
#     4  10  21  37  58  83 113 150 196 237 285 337
#     4  11  21  38  60  86 115 154 197 239 283 342
#
# _framework density 19.202120000000001
#
# number of rings (size 3 to 8) (size 9 to 14) (size 15 to 20)
#    0.000    1.429    2.857    3.857    6.000    0.000 
#    0.000    0.714    0.000    5.143    0.000    0.000 
#    0.000    0.000    0.000    0.000    0.000    0.000 
#
# Total GULP energy -156146.786869 kJ/mol
# GULP energy per Si atom -5576.670960 kJ/mol
# Density = 1.915842 g / cm^3
# Si number density = 19.202120 Si / 1000 Ang^3
#
#
#
# Elastic Constant Matrix: (Units=GPa)
#
#
# Indices 1 2 3 4 5 6 
#
# 1 50.4393 4.7588 14.5002 0.0000 0.0000 0.0000
# 2 4.7588 92.7144 24.5780 0.0000 0.0000 0.0000
# 3 14.5002 24.5780 52.6419 0.0000 0.0000 0.0000
# 4 0.0000 0.0000 0.0000 19.8726 0.0000 0.0000
# 5 0.0000 0.0000 0.0000 0.0000 4.3271 0.0000
# 6 0.0000 0.0000 0.0000 0.0000 0.0000 -2.4193
#
#
#
# Elastic Compliance Matrix: (Units=1/GPa)
#
#
# Indices 1 2 3 4 5 6 
#
# 1 0.021554 0.000534 -0.006186 0.000000 0.000000 0.000000
# 2 0.000534 0.012323 -0.005900 0.000000 0.000000 0.000000
# 3 -0.006186 -0.005900 0.023455 0.000000 0.000000 0.000000
# 4 0.000000 0.000000 0.000000 0.050321 0.000000 0.000000
# 5 0.000000 0.000000 0.000000 0.000000 0.231104 0.000000
# 6 0.000000 0.000000 0.000000 0.000000 0.000000 -0.413345
#
#
# Mechanical properties :
#
#
# Convention : Reuss Voigt Hill
#
# Bulk Modulus (GPa) = 29.21770 31.49661 30.35716
# Shear Modulus (GPa) = -124.76499 14.48664 -55.13917
#
# Velocity S-wave (km/s) = -8.06943 2.74967 -5.36447
# Velocity P-wave (km/s) = 8.46002 5.14968 4.74620
#
# Compressibility (1/GPa) = 0.03422583
#
# Stress axis : x y z
#
# Youngs Moduli (GPa) = 46.39540 81.15207 42.63481
#
# Poissons Ratio (x) = -0.04330 0.26375
# Poissons Ratio (y) = -0.02476 0.25156
# Poissons Ratio (z) = 0.28701 0.47882
#
# Static dielectric constant tensor:
#      x y z
#    x 1.679630 0.000000 0.000000 
#    y 0.000000 1.688230 0.000000 
#    z 0.000000 0.000000 1.666480 
# 
# From -- ./inp_files/12408.got.cif
#   From: 2010.05.17/outbox.cif.g08.bks.cpg/sg46_7_cif.got.tgz:12408.got - 2010.06.03 19:58:25.
