data_PCOD9380046
_publ_section_title
;
Structure prediction by ZEFSAII (Michael W. Deem and Ramdas Pophale) SiO2 
 PCOD9380046
Probable space group: I M A 2
;
_chemical_formula_sum "Si O2"
_cell_formula_units_Z 40
_cell_length_a 15.906566
_cell_length_b 21.960324
_cell_length_c 5.101936
_cell_angle_alpha 90.000000
_cell_angle_beta 90.000000
_cell_angle_gamma 90.000000
_cell_volume 1782.174320
_symmetry_space_group_name_H-M "I M A 2"
_symmetry_group_IT_number 46
_symmetry_cell_setting 'orthorhombic'
loop_
_space_group_symop_operation_xyz
x,y,z
-x,-y,z
1/2-x,y,z
1/2+x,-y,z
1/2+x,1/2+y,1/2+z
1/2-x,1/2-y,1/2+z
-x,1/2+y,1/2+z
x,1/2-y,1/2+z
loop_
_atom_site_type_symbol
_atom_site_label
_atom_site_fract_x
_atom_site_fract_y
_atom_site_fract_z
Si Si1 0.750000 0.137947 0.718310
Si Si2 0.750000 0.052782 0.216998
Si Si3 0.925053 0.612051 0.241420
Si Si4 0.086127 0.032398 0.235873
Si Si5 0.924923 0.292366 0.239781
Si Si6 0.651856 0.778025 0.462369
O O1 0.750000 0.105266 0.436538
O O2 0.667691 0.178992 0.752850
O O3 0.750000 0.085036 0.935605
O O4 0.833824 0.011980 0.246144
O O5 0.897755 0.584335 0.517969
O O6 0.860003 0.658758 0.108095
O O7 0.009766 0.651843 0.265209
O O8 0.932337 0.559810 0.022316
O O9 0.000000 0.000000 0.147031
O O10 0.935744 0.242191 0.465091
O O11 0.750000 0.766701 0.419600
O O12 0.615122 0.770244 0.172443
#
# Coordination Sequence:
#
# PCOD9380046 Si02
#       6
#     4   4   8   8   8   8
#     4  12  24  45  68  98 134 173 218 280 338 396
#     4  12  26  45  70  94 136 177 226 282 334 378
#     4  12  24  41  67  90 132 166 219 262 322 379
#     4  12  26  44  65  95 127 173 225 272 323 386
#     4  12  24  42  69 102 135 173 216 269 339 410
#     4  10  21  37  58  87 122 156 196 244 301 368
#
# _framework density 22.444496000000001
#
# number of rings (size 3 to 8) (size 9 to 14) (size 15 to 20)
#    0.000    0.400    0.000    9.600    2.800    0.000 
#    0.000    0.000    0.000    0.000    0.000    0.000 
#    0.000    0.000    0.000    0.000    0.000    0.000 
#
# Total GULP energy -111988.829056 kJ/mol
# GULP energy per Si atom -5599.441453 kJ/mol
# Density = 2.239341 g / cm^3
# Si number density = 22.444496 Si / 1000 Ang^3
#
#
#
# Elastic Constant Matrix: (Units=GPa)
#
#
# Indices 1 2 3 4 5 6 
#
# 1 118.2002 17.2144 8.3608 0.0000 0.0000 0.0000
# 2 17.2144 45.9369 -12.5114 0.0000 0.0000 0.0000
# 3 8.3608 -12.5114 55.7303 0.0000 0.0000 0.0000
# 4 0.0000 0.0000 0.0000 -12.6760 0.0000 0.0000
# 5 0.0000 0.0000 0.0000 0.0000 22.4917 0.0000
# 6 0.0000 0.0000 0.0000 0.0000 0.0000 59.9008
#
#
#
# Elastic Compliance Matrix: (Units=1/GPa)
#
#
# Indices 1 2 3 4 5 6 
#
# 1 0.009217 -0.004080 -0.002299 0.000000 0.000000 0.000000
# 2 -0.004080 0.024993 0.006223 0.000000 0.000000 0.000000
# 3 -0.002299 0.006223 0.019685 0.000000 0.000000 0.000000
# 4 0.000000 0.000000 0.000000 -0.078889 0.000000 0.000000
# 5 0.000000 0.000000 0.000000 0.000000 0.044461 0.000000
# 6 0.000000 0.000000 0.000000 0.000000 0.000000 0.016694
#
#
# Mechanical properties :
#
#
# Convention : Reuss Voigt Hill
#
# Bulk Modulus (GPa) = 18.66240 27.33276 22.99758
# Shear Modulus (GPa) = 92.02338 27.73021 59.87679
#
# Velocity S-wave (km/s) = 6.41010 3.51878 5.17065
# Velocity P-wave (km/s) = 7.94474 5.35850 6.77615
#
# Compressibility (1/GPa) = 0.05358368
#
# Stress axis : x y z
#
# Youngs Moduli (GPa) = 108.49481 40.01146 50.79889
#
# Poissons Ratio (x) = 0.16325 0.11677
# Poissons Ratio (y) = 0.44267 -0.31612
# Poissons Ratio (z) = 0.24940 -0.24899
#
# Static dielectric constant tensor:
#      x y z
#    x 1.827190 0.000000 0.000000 
#    y 0.000000 1.910650 0.000000 
#    z 0.000000 0.000000 1.795080 
# 
# From -- ./inp_files/1648.got.cif
#   From: 2010.05.17/outbox.cif.g08.bks.cpg/sg46_1_cif.got.tgz:1648.got - 2010.06.03 19:58:25.
