data_PCOD9380589
_publ_section_title
;
Structure prediction by ZEFSAII (Michael W. Deem and Ramdas Pophale) SiO2 
 PCOD9380589
Probable space group: I M A 2
;
_chemical_formula_sum "Si O2"
_cell_formula_units_Z 24
_cell_length_a 7.919548
_cell_length_b 24.235658
_cell_length_c 4.969586
_cell_angle_alpha 90.000000
_cell_angle_beta 90.000000
_cell_angle_gamma 90.000000
_cell_volume 953.839759
_symmetry_space_group_name_H-M "I M A 2"
_symmetry_group_IT_number 46
_symmetry_cell_setting 'orthorhombic'
loop_
_space_group_symop_operation_xyz
x,y,z
-x,-y,z
1/2-x,y,z
1/2+x,-y,z
1/2+x,1/2+y,1/2+z
1/2-x,1/2-y,1/2+z
-x,1/2+y,1/2+z
x,1/2-y,1/2+z
loop_
_atom_site_type_symbol
_atom_site_label
_atom_site_fract_x
_atom_site_fract_y
_atom_site_fract_z
Si Si1 0.546518 0.283649 0.578190
Si Si2 0.750000 0.983258 0.154969
Si Si3 0.250000 0.935990 0.654500
Si Si4 0.934080 0.611391 0.907179
O O1 0.750000 0.289479 0.587820
O O2 0.499078 0.267123 0.276686
O O3 0.471299 0.337532 0.714234
O O4 0.750000 0.019060 0.888284
O O5 0.593860 0.941745 0.211654
O O6 0.750000 0.026797 0.391533
O O7 0.417083 0.898955 0.619644
O O8 0.750000 0.617234 0.042091
#
# Coordination Sequence:
#
# PCOD9380589 Si02
#       4
#     8   4   4   8
#     4  10  22  43  72 104 142 190 238 301 378 443
#     4  10  28  44  72 106 138 200 252 282 387 432
#     4  12  24  52  68 100 156 188 242 318 345 456
#     4  10  25  48  72 111 141 198 245 305 374 438
#
# _framework density 25.161459000000001
#
# number of rings (size 3 to 8) (size 9 to 14) (size 15 to 20)
#    1.000    0.667    1.667    1.000    0.000   12.000 
#    3.000    0.000    0.000    0.000    0.000    0.000 
#    0.000    0.000    0.000    0.000    0.000    0.000 
#
# Total GULP energy -67195.331518 kJ/mol
# GULP energy per Si atom -5599.610960 kJ/mol
# Density = 2.510419 g / cm^3
# Si number density = 25.161459 Si / 1000 Ang^3
#
#
#
# Elastic Constant Matrix: (Units=GPa)
#
#
# Indices 1 2 3 4 5 6 
#
# 1 173.0908 9.2939 -9.2612 -0.0080 -0.0003 0.0002
# 2 9.2939 89.1916 13.6107 -0.0023 -0.0028 0.0017
# 3 -9.2612 13.6107 147.2249 0.0023 -0.0243 0.0000
# 4 -0.0080 -0.0023 0.0023 44.9170 0.0001 0.0010
# 5 -0.0003 -0.0028 -0.0243 0.0001 7.2204 -0.0011
# 6 0.0002 0.0017 0.0000 0.0010 -0.0011 51.1776
#
#
#
# Elastic Compliance Matrix: (Units=1/GPa)
#
#
# Indices 1 2 3 4 5 6 
#
# 1 0.005836 -0.000674 0.000429 0.000001 0.000001 0.000000
# 2 -0.000674 0.011450 -0.001101 0.000001 0.000001 0.000000
# 3 0.000429 -0.001101 0.006921 0.000000 0.000023 0.000000
# 4 0.000001 0.000001 0.000000 0.022263 0.000000 0.000000
# 5 0.000001 0.000001 0.000023 0.000000 0.138496 0.000003
# 6 0.000000 0.000000 0.000000 0.000000 0.000003 0.019540
#
#
# Mechanical properties :
#
#
# Convention : Reuss Voigt Hill
#
# Bulk Modulus (GPa) = 46.47439 48.53269 47.50354
# Shear Modulus (GPa) = 23.32426 47.05395 35.18910
#
# Velocity S-wave (km/s) = 3.04794 4.32913 3.74375
# Velocity P-wave (km/s) = 5.55852 6.65724 6.13254
#
# Compressibility (1/GPa) = 0.02151723
#
# Stress axis : x y z
#
# Youngs Moduli (GPa) = 171.33661 87.33614 144.48524
#
# Poissons Ratio (x) = 0.05884 -0.06205
# Poissons Ratio (y) = 0.11543 0.15907
# Poissons Ratio (z) = -0.07358 0.09615
#
# Static dielectric constant tensor:
#      x y z
#    x 2.055300 0.000000 0.000000 
#    y 0.000000 1.866580 0.000000 
#    z 0.000000 0.000000 1.903350 
# 
# From -- ./inp_files/305.got.cif
#   From: 2010.05.17/outbox.cif.g08.bks.cpg/sg46_1_cif.got.tgz:305.got - 2010.06.03 19:58:25.
