data_PCOD9380203
_publ_section_title
;
Structure prediction by ZEFSAII (Michael W. Deem and Ramdas Pophale) SiO2 
 PCOD9380203
Probable space group: I M A 2
;
_chemical_formula_sum "Si O2"
_cell_formula_units_Z 40
_cell_length_a 17.462710
_cell_length_b 7.503898
_cell_length_c 15.229863
_cell_angle_alpha 90.000000
_cell_angle_beta 90.000000
_cell_angle_gamma 90.000000
_cell_volume 1995.696798
_symmetry_space_group_name_H-M "I M A 2"
_symmetry_group_IT_number 46
_symmetry_cell_setting 'orthorhombic'
loop_
_space_group_symop_operation_xyz
x,y,z
-x,-y,z
1/2-x,y,z
1/2+x,-y,z
1/2+x,1/2+y,1/2+z
1/2-x,1/2-y,1/2+z
-x,1/2+y,1/2+z
x,1/2-y,1/2+z
loop_
_atom_site_type_symbol
_atom_site_label
_atom_site_fract_x
_atom_site_fract_y
_atom_site_fract_z
Si Si1 0.477628 0.304810 0.643990
Si Si2 0.991833 0.786517 0.447557
Si Si3 0.663283 0.833837 0.859286
Si Si4 0.410340 0.821585 0.780163
Si Si5 0.834431 0.541271 0.710955
O O1 0.500000 0.500000 0.678705
O O2 0.508275 0.273613 0.546817
O O3 0.518796 0.174943 0.711747
O O4 0.386957 0.334765 0.648002
O O5 0.907630 0.709188 0.423936
O O6 0.050668 0.718282 0.374227
O O7 0.000000 0.000000 0.444730
O O8 0.750000 0.863827 0.894599
O O9 0.638992 0.001885 0.798102
O O10 0.666228 0.658257 0.799164
O O11 0.361742 0.655890 0.740831
O O12 0.750000 0.525533 0.673089
#
# Coordination Sequence:
#
# PCOD9380203 Si02
#       5
#     8   8   8   8   8
#     4  10  22  38  62  93 123 163 211 259 311 376
#     4  12  23  39  64  93 126 167 212 261 312 376
#     4  11  23  39  63  90 121 164 205 253 315 372
#     4  11  21  42  65  91 122 165 209 262 311 378
#     4  10  21  39  61  91 125 161 203 255 311 369
#
# _framework density 20.043123000000001
#
# number of rings (size 3 to 8) (size 9 to 14) (size 15 to 20)
#    0.000    1.200    4.000    3.000    2.800    0.800 
#    0.000    0.000    0.000    4.800    0.000    0.000 
#    0.000    0.000    0.000    0.000    0.000    0.000 
#
# Total GULP energy -111393.931342 kJ/mol
# GULP energy per Si atom -5569.696567 kJ/mol
# Density = 1.999750 g / cm^3
# Si number density = 20.043123 Si / 1000 Ang^3
#
#
#
# Elastic Constant Matrix: (Units=GPa)
#
#
# Indices 1 2 3 4 5 6 
#
# 1 99.2555 27.7133 -0.2081 0.0000 0.0000 0.0000
# 2 27.7133 126.7099 1.2936 0.0000 0.0000 0.0000
# 3 -0.2081 1.2936 55.0774 0.0000 0.0000 0.0000
# 4 0.0000 0.0000 0.0000 21.4786 0.0000 0.0000
# 5 0.0000 0.0000 0.0000 0.0000 24.6073 0.0000
# 6 0.0000 0.0000 0.0000 0.0000 0.0000 24.3941
#
#
#
# Elastic Compliance Matrix: (Units=1/GPa)
#
#
# Indices 1 2 3 4 5 6 
#
# 1 0.010731 -0.002348 0.000096 0.000000 0.000000 0.000000
# 2 -0.002348 0.008408 -0.000206 0.000000 0.000000 0.000000
# 3 0.000096 -0.000206 0.018161 0.000000 0.000000 0.000000
# 4 0.000000 0.000000 0.000000 0.046558 0.000000 0.000000
# 5 0.000000 0.000000 0.000000 0.000000 0.040638 0.000000
# 6 0.000000 0.000000 0.000000 0.000000 0.000000 0.040993
#
#
# Mechanical properties :
#
#
# Convention : Reuss Voigt Hill
#
# Bulk Modulus (GPa) = 30.88067 37.62672 34.25369
# Shear Modulus (GPa) = 27.59364 30.91227 29.25295
#
# Velocity S-wave (km/s) = 3.71443 3.93146 3.82449
# Velocity P-wave (km/s) = 5.81692 6.27870 6.05222
#
# Compressibility (1/GPa) = 0.03238272
#
# Stress axis : x y z
#
# Youngs Moduli (GPa) = 93.18982 118.93889 55.06161
#
# Poissons Ratio (x) = 0.27926 -0.00527
# Poissons Ratio (y) = 0.21881 0.01136
# Poissons Ratio (z) = -0.00892 0.02454
#
# Static dielectric constant tensor:
#      x y z
#    x 1.855690 0.000000 0.000000 
#    y 0.000000 1.729760 0.000000 
#    z 0.000000 0.000000 1.686190 
# 
# From -- ./inp_files/16370.got.cif
#   From: 2010.05.17/outbox.cif.g08.bks.cpg/sg46_9_cif.got.tgz:16370.got - 2010.06.03 19:58:25.
