data_PCOD9380431
_publ_section_title
;
Structure prediction by ZEFSAII (Michael W. Deem and Ramdas Pophale) SiO2 
 PCOD9380431
Probable space group: I M A 2
;
_chemical_formula_sum "Si O2"
_cell_formula_units_Z 40
_cell_length_a 11.338797
_cell_length_b 18.650733
_cell_length_c 7.964189
_cell_angle_alpha 90.000000
_cell_angle_beta 90.000000
_cell_angle_gamma 90.000000
_cell_volume 1684.241805
_symmetry_space_group_name_H-M "I M A 2"
_symmetry_group_IT_number 46
_symmetry_cell_setting 'orthorhombic'
loop_
_space_group_symop_operation_xyz
x,y,z
-x,-y,z
1/2-x,y,z
1/2+x,-y,z
1/2+x,1/2+y,1/2+z
1/2-x,1/2-y,1/2+z
-x,1/2+y,1/2+z
x,1/2-y,1/2+z
loop_
_atom_site_type_symbol
_atom_site_label
_atom_site_fract_x
_atom_site_fract_y
_atom_site_fract_z
Si Si1 0.250000 0.640239 0.598920
Si Si2 0.952007 0.078099 0.275084
Si Si3 0.116929 0.296659 0.887957
Si Si4 0.114539 0.143413 0.767774
Si Si5 0.750000 0.280626 0.252869
Si Si6 0.381797 0.594631 0.155783
O O1 0.363372 0.593753 0.625272
O O2 0.250000 0.689837 0.439452
O O3 0.250000 0.696671 0.751999
O O4 0.895901 0.072662 0.462870
O O5 0.038556 0.146131 0.288436
O O6 0.000000 0.000000 0.243888
O O7 0.250000 0.298588 0.818878
O O8 0.082222 0.213033 0.879757
O O9 0.119779 0.325608 0.077692
O O10 0.250000 0.119245 0.808766
O O11 0.005765 0.086811 0.754819
O O12 0.639768 0.318775 0.162928
O O13 0.250000 0.568212 0.215392
#
# Coordination Sequence:
#
# PCOD9380431 Si02
#       6
#     4   8   8   8   4   8
#     4  12  22  40  62  98 128 166 213 278 329 382
#     4  11  23  37  60  87 122 167 215 253 314 390
#     4   9  19  33  54  81 115 148 192 242 307 373
#     4   9  17  32  52  82 116 151 187 249 313 372
#     4  10  22  38  70  94 130 154 215 288 347 370
#     4   9  19  38  59  90 120 155 209 266 325 371
#
# _framework density 23.749559000000001
#
# number of rings (size 3 to 8) (size 9 to 14) (size 15 to 20)
#    0.600    1.600    1.000    2.400    1.400    4.800 
#    0.000    1.000    0.000    0.000    0.000    0.000 
#    0.000    0.000    0.000    0.000    0.000    0.000 
#
# Total GULP energy -111536.429798 kJ/mol
# GULP energy per Si atom -5576.821490 kJ/mol
# Density = 2.369550 g / cm^3
# Si number density = 23.749559 Si / 1000 Ang^3
#
#
#
# Elastic Constant Matrix: (Units=GPa)
#
#
# Indices 1 2 3 4 5 6 
#
# 1 131.6879 38.6166 26.1348 -0.0001 0.0000 0.0000
# 2 38.6166 77.7169 27.6896 0.0000 0.0000 -0.0001
# 3 26.1348 27.6896 47.1749 -0.0003 0.0002 -0.0001
# 4 -0.0001 0.0000 -0.0003 17.1581 0.0001 0.0000
# 5 0.0000 0.0000 0.0002 0.0001 23.2689 0.0000
# 6 0.0000 -0.0001 -0.0001 0.0000 0.0000 -20.9298
#
#
#
# Elastic Compliance Matrix: (Units=1/GPa)
#
#
# Indices 1 2 3 4 5 6 
#
# 1 0.009226 -0.003494 -0.003060 0.000000 0.000000 0.000000
# 2 -0.003494 0.017593 -0.008391 0.000000 0.000000 0.000000
# 3 -0.003060 -0.008391 0.027818 0.000000 0.000000 0.000000
# 4 0.000000 0.000000 0.000000 0.058282 0.000000 0.000000
# 5 0.000000 0.000000 0.000000 0.000000 0.042976 0.000000
# 6 0.000000 0.000000 0.000000 0.000000 0.000000 -0.047779
#
#
# Mechanical properties :
#
#
# Convention : Reuss Voigt Hill
#
# Bulk Modulus (GPa) = 40.40889 49.05131 44.73010
# Shear Modulus (GPa) = 34.18728 14.84201 24.51465
#
# Velocity S-wave (km/s) = 3.79818 2.50259 3.21630
# Velocity P-wave (km/s) = 6.02382 5.38971 5.71557
#
# Compressibility (1/GPa) = 0.02474703
#
# Stress axis : x y z
#
# Youngs Moduli (GPa) = 108.39434 56.84179 35.94786
#
# Poissons Ratio (x) = 0.19859 0.11001
# Poissons Ratio (y) = 0.37870 0.30163
# Poissons Ratio (z) = 0.33172 0.47694
#
# Static dielectric constant tensor:
#      x y z
#    x 2.046290 0.000000 0.000000 
#    y 0.000000 1.871670 0.000000 
#    z 0.000000 0.000000 1.954830 
# 
# From -- ./inp_files/4472.got.cif
#   From: 2010.05.17/outbox.cif.g08.bks.cpg/sg46_3_cif.got.tgz:4472.got - 2010.06.03 19:58:25.
