data_PCOD9380279
_publ_section_title
;
Structure prediction by ZEFSAII (Michael W. Deem and Ramdas Pophale) SiO2 
 PCOD9380279
Probable space group: I M A 2
;
_chemical_formula_sum "Si O2"
_cell_formula_units_Z 60
_cell_length_a 21.674118
_cell_length_b 5.430371
_cell_length_c 21.890600
_cell_angle_alpha 90.000000
_cell_angle_beta 90.000000
_cell_angle_gamma 90.000000
_cell_volume 2576.490824
_symmetry_space_group_name_H-M "I M A 2"
_symmetry_group_IT_number 46
_symmetry_cell_setting 'orthorhombic'
loop_
_space_group_symop_operation_xyz
x,y,z
-x,-y,z
1/2-x,y,z
1/2+x,-y,z
1/2+x,1/2+y,1/2+z
1/2-x,1/2-y,1/2+z
-x,1/2+y,1/2+z
x,1/2-y,1/2+z
loop_
_atom_site_type_symbol
_atom_site_label
_atom_site_fract_x
_atom_site_fract_y
_atom_site_fract_z
Si Si1 0.182526 0.145375 0.200980
Si Si2 0.434570 0.429346 0.536655
Si Si3 0.321768 0.543918 0.869753
Si Si4 0.862278 0.553492 0.096931
Si Si5 0.317210 0.789327 0.997780
Si Si6 0.429257 0.829245 0.171516
Si Si7 0.500000 0.500000 0.250949
Si Si8 0.866379 0.944643 0.808851
O O1 0.250000 0.029719 0.208686
O O2 0.176526 0.237079 0.130800
O O3 0.174203 0.363784 0.249890
O O4 0.122689 0.973538 0.209277
O O5 0.500000 0.500000 0.508181
O O6 0.415246 0.150673 0.551011
O O7 0.376359 0.536391 0.500693
O O8 0.437191 0.545012 0.605429
O O9 0.250000 0.505497 0.853345
O O10 0.324174 0.603790 0.941505
O O11 0.357071 0.293410 0.852565
O O12 0.344791 0.796066 0.837356
O O13 0.898017 0.426608 0.151927
O O14 0.820887 0.363918 0.060400
O O15 0.250000 0.913204 0.991708
O O16 0.488884 0.740457 0.208286
O O17 0.437780 0.469739 0.289379
#
# Coordination Sequence:
#
# PCOD9380279 Si02
#       8
#     8   8   8   8   8   8   4   8
#     4  11  23  39  64 100 142 177 229 297 363 431
#     4  10  22  39  67  99 138 181 232 284 355 436
#     4  11  26  51  76 103 140 189 249 301 364 423
#     4  10  21  40  65 102 136 180 229 283 364 427
#     4  10  24  44  71  99 137 185 237 297 358 428
#     4  10  22  39  63  97 138 187 223 280 357 436
#     4  12  24  46  70  96 144 186 244 282 360 438
#     4  12  27  46  73 106 137 193 241 302 354 426
#
# _framework density 23.287486999999999
#
# number of rings (size 3 to 8) (size 9 to 14) (size 15 to 20)
#    0.000    1.333    1.333    3.200    3.733    9.067 
#    1.200    1.333    0.000    0.000    0.000    0.000 
#    0.000    0.000    0.000    0.000    0.000    0.000 
#
# Total GULP energy -167653.828226 kJ/mol
# GULP energy per Si atom -5588.460941 kJ/mol
# Density = 2.323448 g / cm^3
# Si number density = 23.287487 Si / 1000 Ang^3
#
#
#
# Elastic Constant Matrix: (Units=GPa)
#
#
# Indices 1 2 3 4 5 6 
#
# 1 147.7975 16.2359 18.3101 0.0000 0.0000 0.0000
# 2 16.2359 69.7470 2.3952 0.0000 0.0000 0.0000
# 3 18.3101 2.3952 50.9200 0.0000 0.0000 0.0000
# 4 0.0000 0.0000 0.0000 26.9709 0.0000 0.0000
# 5 0.0000 0.0000 0.0000 0.0000 23.7541 0.0000
# 6 0.0000 0.0000 0.0000 0.0000 0.0000 32.4268
#
#
#
# Elastic Compliance Matrix: (Units=1/GPa)
#
#
# Indices 1 2 3 4 5 6 
#
# 1 0.007256 -0.001602 -0.002534 0.000000 0.000000 0.000000
# 2 -0.001602 0.014714 -0.000116 0.000000 0.000000 0.000000
# 3 -0.002534 -0.000116 0.020555 0.000000 0.000000 0.000000
# 4 0.000000 0.000000 0.000000 0.037077 0.000000 0.000000
# 5 0.000000 0.000000 0.000000 0.000000 0.042098 0.000000
# 6 0.000000 0.000000 0.000000 0.000000 0.000000 0.030839
#
#
# Mechanical properties :
#
#
# Convention : Reuss Voigt Hill
#
# Bulk Modulus (GPa) = 29.39292 38.03855 33.71573
# Shear Modulus (GPa) = 29.00507 32.06523 30.53515
#
# Velocity S-wave (km/s) = 3.53302 3.71473 3.62501
# Velocity P-wave (km/s) = 5.41222 5.89650 5.65954
#
# Compressibility (1/GPa) = 0.03402180
#
# Stress axis : x y z
#
# Youngs Moduli (GPa) = 137.81887 67.96040 48.64951
#
# Poissons Ratio (x) = 0.10888 0.12327
# Poissons Ratio (y) = 0.22079 0.00565
# Poissons Ratio (z) = 0.34920 0.00789
#
# Static dielectric constant tensor:
#      x y z
#    x 1.888960 0.000000 0.000000 
#    y 0.000000 1.946240 0.000000 
#    z 0.000000 0.000000 1.879930 
# 
# From -- ./inp_files/23884.got.cif
#   From: 2010.05.17/outbox.cif.g08.bks.cpg/sg46_12_cif.got.tgz:23884.got - 2010.06.03 19:58:25.
