data_PCOD9380675
_publ_section_title
;
Structure prediction by ZEFSAII (Michael W. Deem and Ramdas Pophale) SiO2 
 PCOD9380675
Probable space group: I M A 2
;
_chemical_formula_sum "Si O2"
_cell_formula_units_Z 48
_cell_length_a 17.194352
_cell_length_b 10.693612
_cell_length_c 11.826504
_cell_angle_alpha 90.000000
_cell_angle_beta 90.000000
_cell_angle_gamma 90.000000
_cell_volume 2174.536084
_symmetry_space_group_name_H-M "I M A 2"
_symmetry_group_IT_number 46
_symmetry_cell_setting 'orthorhombic'
loop_
_space_group_symop_operation_xyz
x,y,z
-x,-y,z
1/2-x,y,z
1/2+x,-y,z
1/2+x,1/2+y,1/2+z
1/2-x,1/2-y,1/2+z
-x,1/2+y,1/2+z
x,1/2-y,1/2+z
loop_
_atom_site_type_symbol
_atom_site_label
_atom_site_fract_x
_atom_site_fract_y
_atom_site_fract_z
Si Si1 0.000000 0.000000 0.894771
Si Si2 0.482109 0.708754 0.224846
Si Si3 0.750000 0.583790 0.275869
Si Si4 0.628700 0.844692 0.588685
Si Si5 0.161708 0.882898 0.183066
Si Si6 0.645739 0.916336 0.000183
Si Si7 0.077167 0.073522 0.352624
O O1 0.040307 0.899389 0.813266
O O2 0.945334 0.921101 0.975946
O O3 0.539106 0.655502 0.129199
O O4 0.403945 0.775854 0.182405
O O5 0.539864 0.808012 0.287425
O O6 0.818262 0.584283 0.177873
O O7 0.815425 0.592952 0.378381
O O8 0.660665 0.702457 0.579082
O O9 0.628419 0.891633 0.460268
O O10 0.250000 0.842311 0.212282
O O11 0.165129 0.955933 0.064259
O O12 0.127796 0.985975 0.270320
O O13 0.000000 0.000000 0.389896
#
# Coordination Sequence:
#
# PCOD9380675 Si02
#       7
#     4   8   4   8   8   8   8
#     4  12  24  46  74  98 150 184 258 302 360 438
#     4  11  24  45  71 107 137 193 244 294 364 440
#     4  12  26  40  66 110 140 186 244 302 356 424
#     4  12  23  41  68 102 149 180 240 301 361 420
#     4  11  25  46  73 104 146 191 240 290 373 447
#     4  12  24  43  70 103 145 195 233 307 367 426
#     4  10  23  42  70 103 139 189 239 290 360 429
#
# _framework density 22.073671999999998
#
# number of rings (size 3 to 8) (size 9 to 14) (size 15 to 20)
#    0.000    0.667    5.833    1.500    3.500    0.000 
#    1.500    0.000    0.000    0.000    0.000    0.000 
#    0.000    0.000    0.000    0.000    0.000    0.000 
#
# Total GULP energy -133624.490900 kJ/mol
# GULP energy per Si atom -5567.687121 kJ/mol
# Density = 2.202343 g / cm^3
# Si number density = 22.073672 Si / 1000 Ang^3
#
#
#
# Elastic Constant Matrix: (Units=GPa)
#
#
# Indices 1 2 3 4 5 6 
#
# 1 133.0590 14.7252 33.7810 0.0000 0.0000 0.0000
# 2 14.7252 30.6892 2.4220 0.0000 0.0000 0.0000
# 3 33.7810 2.4220 83.2687 0.0000 0.0000 0.0000
# 4 0.0000 0.0000 0.0000 26.0893 0.0000 0.0000
# 5 0.0000 0.0000 0.0000 0.0000 238.0985 0.0000
# 6 0.0000 0.0000 0.0000 0.0000 0.0000 -16.1164
#
#
#
# Elastic Compliance Matrix: (Units=1/GPa)
#
#
# Indices 1 2 3 4 5 6 
#
# 1 0.008835 -0.003965 -0.003469 0.000000 0.000000 0.000000
# 2 -0.003965 0.034440 0.000607 0.000000 0.000000 0.000000
# 3 -0.003469 0.000607 0.013399 0.000000 0.000000 0.000000
# 4 0.000000 0.000000 0.000000 0.038330 0.000000 0.000000
# 5 0.000000 0.000000 0.000000 0.000000 0.004200 0.000000
# 6 0.000000 0.000000 0.000000 0.000000 0.000000 -0.062048
#
#
# Mechanical properties :
#
#
# Convention : Reuss Voigt Hill
#
# Bulk Modulus (GPa) = 23.24561 38.76370 31.00465
# Shear Modulus (GPa) = 76.74700 62.68685 69.71692
#
# Velocity S-wave (km/s) = 5.90288 5.33485 5.62604
# Velocity P-wave (km/s) = 7.55066 7.45296 7.50197
#
# Compressibility (1/GPa) = 0.04301888
#
# Stress axis : x y z
#
# Youngs Moduli (GPa) = 113.18636 29.03636 74.63270
#
# Poissons Ratio (x) = 0.11514 0.25889
# Poissons Ratio (y) = 0.44883 -0.04530
# Poissons Ratio (z) = 0.39263 -0.01763
#
# Static dielectric constant tensor:
#      x y z
#    x 1.804410 0.000000 0.000000 
#    y 0.000000 1.852030 0.000000 
#    z 0.000000 0.000000 1.781380 
# 
# From -- ./inp_files/11828.got.cif
#   From: 2010.05.17/outbox.cif.g08.bks.cpg/sg46_6_cif.got.tgz:11828.got - 2010.06.03 19:58:25.
