data_PCOD9380013
_publ_section_title
;
Structure prediction by ZEFSAII (Michael W. Deem and Ramdas Pophale) SiO2 
 PCOD9380013
Probable space group: I M A 2
;
_chemical_formula_sum "Si O2"
_cell_formula_units_Z 48
_cell_length_a 8.818045
_cell_length_b 20.830847
_cell_length_c 14.730171
_cell_angle_alpha 90.000000
_cell_angle_beta 90.000000
_cell_angle_gamma 90.000000
_cell_volume 2705.746021
_symmetry_space_group_name_H-M "I M A 2"
_symmetry_group_IT_number 46
_symmetry_cell_setting 'orthorhombic'
loop_
_space_group_symop_operation_xyz
x,y,z
-x,-y,z
1/2-x,y,z
1/2+x,-y,z
1/2+x,1/2+y,1/2+z
1/2-x,1/2-y,1/2+z
-x,1/2+y,1/2+z
x,1/2-y,1/2+z
loop_
_atom_site_type_symbol
_atom_site_label
_atom_site_fract_x
_atom_site_fract_y
_atom_site_fract_z
Si Si1 0.568504 0.931617 0.396860
Si Si2 0.432082 0.569530 0.512501
Si Si3 0.932584 0.809622 0.517803
Si Si4 0.932074 0.120823 0.211887
Si Si5 0.568176 0.684913 0.396945
Si Si6 0.068507 0.772154 0.708755
O O1 0.750000 0.935327 0.395877
O O2 0.523101 0.874275 0.464847
O O3 0.510970 0.912919 0.296631
O O4 0.500000 0.000000 0.423299
O O5 0.500000 0.500000 0.492208
O O6 0.250000 0.568411 0.506668
O O7 0.474123 0.589531 0.615668
O O8 0.497205 0.623386 0.445694
O O9 0.750000 0.809649 0.528545
O O10 0.972986 0.748196 0.455713
O O11 0.009255 0.801840 0.615130
O O12 0.750000 0.115584 0.222450
O O13 0.971935 0.196307 0.209966
O O14 0.750000 0.679875 0.395433
O O15 0.505592 0.694968 0.296056
O O16 0.250000 0.777017 0.713603
#
# Coordination Sequence:
#
# PCOD9380013 Si02
#       6
#     8   8   8   8   8   8
#     4  11  23  39  59  87 121 159 198 242 295 353
#     4  11  23  40  59  88 123 160 201 245 298 356
#     4  10  22  39  60  86 118 156 199 243 295 353
#     4  10  21  36  58  89 123 156 192 241 298 353
#     4  11  22  39  62  88 119 158 199 247 296 352
#     4  11  22  37  61  92 121 152 196 249 296 347
#
# _framework density 17.740023999999998
#
# number of rings (size 3 to 8) (size 9 to 14) (size 15 to 20)
#    0.000    1.333    3.333    2.500    0.000    5.333 
#    0.000    0.833    0.000    2.000    0.000    0.000 
#    0.000    0.000    0.000    0.000    0.000    0.000 
#
# Total GULP energy -134176.022300 kJ/mol
# GULP energy per Si atom -5590.667596 kJ/mol
# Density = 1.769965 g / cm^3
# Si number density = 17.740024 Si / 1000 Ang^3
#
#
#
# Elastic Constant Matrix: (Units=GPa)
#
#
# Indices 1 2 3 4 5 6 
#
# 1 48.2266 60.1734 56.2366 0.0000 0.0000 0.0000
# 2 60.1734 177.5864 88.8385 0.0000 0.0000 0.0000
# 3 56.2366 88.8385 151.0755 0.0000 0.0000 0.0000
# 4 0.0000 0.0000 0.0000 20.5035 0.0000 0.0000
# 5 0.0000 0.0000 0.0000 0.0000 27.6172 0.0000
# 6 0.0000 0.0000 0.0000 0.0000 0.0000 28.4194
#
#
#
# Elastic Compliance Matrix: (Units=1/GPa)
#
#
# Indices 1 2 3 4 5 6 
#
# 1 0.046659 -0.010089 -0.011435 0.000000 0.000000 0.000000
# 2 -0.010089 0.010160 -0.002219 0.000000 0.000000 0.000000
# 3 -0.011435 -0.002219 0.012181 0.000000 0.000000 0.000000
# 4 0.000000 0.000000 0.000000 0.048772 0.000000 0.000000
# 5 0.000000 0.000000 0.000000 0.000000 0.036209 0.000000
# 6 0.000000 0.000000 0.000000 0.000000 0.000000 0.035187
#
#
# Mechanical properties :
#
#
# Convention : Reuss Voigt Hill
#
# Bulk Modulus (GPa) = 46.48499 87.48727 66.98613
# Shear Modulus (GPa) = 20.50653 26.75069 23.62861
#
# Velocity S-wave (km/s) = 3.40361 3.88742 3.65353
# Velocity P-wave (km/s) = 6.45805 8.34103 7.45919
#
# Compressibility (1/GPa) = 0.02151232
#
# Stress axis : x y z
#
# Youngs Moduli (GPa) = 21.43226 98.42950 82.09781
#
# Poissons Ratio (x) = 0.99307 0.93882
# Poissons Ratio (y) = 0.21623 0.18214
# Poissons Ratio (z) = 0.24509 0.21838
#
# Static dielectric constant tensor:
#      x y z
#    x 1.587510 0.000000 0.000000 
#    y 0.000000 1.589470 0.000000 
#    z 0.000000 0.000000 1.567610 
# 
# From -- ./inp_files/9321.got.cif
#   From: 2010.05.17/outbox.cif.g08.bks.cpg/sg46_5_cif.got.tgz:9321.got - 2010.06.03 19:58:25.
