data_PCOD9380328
_publ_section_title
;
Structure prediction by ZEFSAII (Michael W. Deem and Ramdas Pophale) SiO2 
 PCOD9380328
Probable space group: I M A 2
;
_chemical_formula_sum "Si O2"
_cell_formula_units_Z 56
_cell_length_a 15.983028
_cell_length_b 14.432410
_cell_length_c 10.004669
_cell_angle_alpha 90.000000
_cell_angle_beta 90.000000
_cell_angle_gamma 90.000000
_cell_volume 2307.813146
_symmetry_space_group_name_H-M "I M A 2"
_symmetry_group_IT_number 46
_symmetry_cell_setting 'orthorhombic'
loop_
_space_group_symop_operation_xyz
x,y,z
-x,-y,z
1/2-x,y,z
1/2+x,-y,z
1/2+x,1/2+y,1/2+z
1/2-x,1/2-y,1/2+z
-x,1/2+y,1/2+z
x,1/2-y,1/2+z
loop_
_atom_site_type_symbol
_atom_site_label
_atom_site_fract_x
_atom_site_fract_y
_atom_site_fract_z
Si Si1 0.250000 0.369726 0.182420
Si Si2 0.409515 0.009595 0.637834
Si Si3 0.599698 0.408156 0.505117
Si Si4 0.662103 0.142936 0.277431
Si Si5 0.414828 0.047721 0.341059
Si Si6 0.912250 0.874838 0.071537
Si Si7 0.847859 0.165408 0.730446
Si Si8 0.750000 0.728813 0.454204
O O1 0.167515 0.433657 0.199564
O O2 0.250000 0.289137 0.294534
O O3 0.250000 0.327833 0.031034
O O4 0.500000 0.000000 0.708952
O O5 0.424989 0.064157 0.497856
O O6 0.384908 0.901260 0.616264
O O7 0.660440 0.368470 0.617648
O O8 0.508737 0.358788 0.526989
O O9 0.596505 0.517168 0.534181
O O10 0.638006 0.395907 0.360912
O O11 0.750000 0.169203 0.340816
O O12 0.645551 0.040128 0.328613
O O13 0.609895 0.238175 0.280001
O O14 0.500000 0.000000 0.291667
O O15 0.400135 0.127825 0.233833
O O16 0.836431 0.818774 0.005871
O O17 0.750000 0.177819 0.699597
#
# Coordination Sequence:
#
# PCOD9380328 Si02
#       8
#     4   8   8   8   8   8   8   4
#     4  12  30  56  74 115 151 198 264 313 387 466
#     4  11  27  47  75 100 146 197 240 306 379 443
#     4  10  21  41  67  95 136 177 227 287 350 435
#     4  10  22  37  63 103 133 176 225 281 346 413
#     4  10  21  45  68 101 136 182 241 288 364 439
#     4  10  22  43  72  98 131 179 238 293 358 436
#     4  11  24  40  65  98 141 179 229 291 354 432
#     4  12  30  48  78 109 145 192 252 317 377 450
#
# _framework density 24.265395000000002
#
# number of rings (size 3 to 8) (size 9 to 14) (size 15 to 20)
#    0.000    1.429    3.571    1.286   14.000    1.143 
#    2.571    0.000    0.000    0.000    0.000    0.000 
#    0.000    0.000    0.000    0.000    0.000    0.000 
#
# Total GULP energy -155920.068161 kJ/mol
# GULP energy per Si atom -5568.573863 kJ/mol
# Density = 2.421017 g / cm^3
# Si number density = 24.265395 Si / 1000 Ang^3
#
#
#
# Elastic Constant Matrix: (Units=GPa)
#
#
# Indices 1 2 3 4 5 6 
#
# 1 114.2522 30.9976 -12.6369 0.0000 0.0000 0.0000
# 2 30.9976 42.9325 -17.5579 0.0000 0.0000 0.0000
# 3 -12.6369 -17.5579 68.0043 0.0000 0.0000 0.0000
# 4 0.0000 0.0000 0.0000 22.5322 0.0000 0.0000
# 5 0.0000 0.0000 0.0000 0.0000 13.3996 0.0000
# 6 0.0000 0.0000 0.0000 0.0000 0.0000 3.5582
#
#
#
# Elastic Compliance Matrix: (Units=1/GPa)
#
#
# Indices 1 2 3 4 5 6 
#
# 1 0.010885 -0.007862 -0.000007 0.000000 0.000000 0.000000
# 2 -0.007862 0.031721 0.006729 0.000000 0.000000 0.000000
# 3 -0.000007 0.006729 0.016441 0.000000 0.000000 0.000000
# 4 0.000000 0.000000 0.000000 0.044381 0.000000 0.000000
# 5 0.000000 0.000000 0.000000 0.000000 0.074629 0.000000
# 6 0.000000 0.000000 0.000000 0.000000 0.000000 0.281042
#
#
# Mechanical properties :
#
#
# Convention : Reuss Voigt Hill
#
# Bulk Modulus (GPa) = 17.61613 25.19940 21.40777
# Shear Modulus (GPa) = 10.41014 22.85707 16.63361
#
# Velocity S-wave (km/s) = 2.07351 3.07247 2.62102
# Velocity P-wave (km/s) = 3.60668 4.79523 4.24278
#
# Compressibility (1/GPa) = 0.05676615
#
# Stress axis : x y z
#
# Youngs Moduli (GPa) = 91.87166 31.52535 60.82374
#
# Poissons Ratio (x) = 0.24785 0.00043
# Poissons Ratio (y) = 0.72228 -0.40928
# Poissons Ratio (z) = 0.00066 -0.21213
#
# Static dielectric constant tensor:
#      x y z
#    x 1.994880 0.000000 0.000000 
#    y 0.000000 2.553720 0.000000 
#    z 0.000000 0.000000 1.988970 
# 
# From -- ./inp_files/11176.got.cif
#   From: 2010.05.17/outbox.cif.g08.bks.cpg/sg46_6_cif.got.tgz:11176.got - 2010.06.03 19:58:25.
