data_PCOD9380300
_publ_section_title
;
Structure prediction by ZEFSAII (Michael W. Deem and Ramdas Pophale) SiO2 
 PCOD9380300
Probable space group: I M A 2
;
_chemical_formula_sum "Si O2"
_cell_formula_units_Z 36
_cell_length_a 14.481947
_cell_length_b 7.667840
_cell_length_c 15.222343
_cell_angle_alpha 90.000000
_cell_angle_beta 90.000000
_cell_angle_gamma 90.000000
_cell_volume 1690.368922
_symmetry_space_group_name_H-M "I M A 2"
_symmetry_group_IT_number 46
_symmetry_cell_setting 'orthorhombic'
loop_
_space_group_symop_operation_xyz
x,y,z
-x,-y,z
1/2-x,y,z
1/2+x,-y,z
1/2+x,1/2+y,1/2+z
1/2-x,1/2-y,1/2+z
-x,1/2+y,1/2+z
x,1/2-y,1/2+z
loop_
_atom_site_type_symbol
_atom_site_label
_atom_site_fract_x
_atom_site_fract_y
_atom_site_fract_z
Si Si1 0.849615 0.921231 0.449320
Si Si2 0.066744 0.165363 0.623642
Si Si3 0.477394 0.301790 0.798021
Si Si4 0.000000 0.500000 0.521040
Si Si5 0.142349 0.673950 0.395012
O O1 0.750000 0.869091 0.413781
O O2 0.856466 0.878452 0.551731
O O3 0.927381 0.825934 0.391788
O O4 0.859211 0.129257 0.435287
O O5 0.085938 0.214364 0.724250
O O6 0.016918 0.332943 0.581524
O O7 0.000000 0.000000 0.622600
O O8 0.500000 0.500000 0.770786
O O9 0.572683 0.196062 0.812318
O O10 0.910672 0.455124 0.461062
O O11 0.250000 0.630451 0.378300
#
# Coordination Sequence:
#
# PCOD9380300 Si02
#       5
#     8   8   8   4   8
#     4  10  21  42  68  97 136 175 219 273 327 392
#     4  12  23  40  66  97 133 174 219 273 329 387
#     4  10  21  40  67  95 133 174 218 274 330 390
#     4  12  22  42  68  96 128 176 224 266 334 392
#     4  10  22  43  69  96 130 175 223 276 334 391
#
# _framework density 21.297127
#
# number of rings (size 3 to 8) (size 9 to 14) (size 15 to 20)
#    0.000    1.333    5.556    0.667    1.556    1.778 
#    0.000    2.222    0.000    0.000    0.000    0.000 
#    0.000    0.000    0.000    0.000    0.000    0.000 
#
# Total GULP energy -100466.233538 kJ/mol
# GULP energy per Si atom -5581.457419 kJ/mol
# Density = 2.124865 g / cm^3
# Si number density = 21.297127 Si / 1000 Ang^3
#
#
#
# Elastic Constant Matrix: (Units=GPa)
#
#
# Indices 1 2 3 4 5 6 
#
# 1 124.5347 14.1257 35.8945 0.0000 0.0000 0.0000
# 2 14.1257 97.0728 23.3846 0.0000 0.0000 0.0000
# 3 35.8945 23.3846 104.4538 0.0000 0.0000 0.0000
# 4 0.0000 0.0000 0.0000 26.6796 0.0000 0.0000
# 5 0.0000 0.0000 0.0000 0.0000 13.0395 0.0000
# 6 0.0000 0.0000 0.0000 0.0000 0.0000 21.5616
#
#
#
# Elastic Compliance Matrix: (Units=1/GPa)
#
#
# Indices 1 2 3 4 5 6 
#
# 1 0.008945 -0.000593 -0.002941 0.000000 0.000000 0.000000
# 2 -0.000593 0.010928 -0.002243 0.000000 0.000000 0.000000
# 3 -0.002941 -0.002243 0.011086 0.000000 0.000000 0.000000
# 4 0.000000 0.000000 0.000000 0.037482 0.000000 0.000000
# 5 0.000000 0.000000 0.000000 0.000000 0.076690 0.000000
# 6 0.000000 0.000000 0.000000 0.000000 0.000000 0.046379
#
#
# Mechanical properties :
#
#
# Convention : Reuss Voigt Hill
#
# Bulk Modulus (GPa) = 51.53156 52.54123 52.03640
# Shear Modulus (GPa) = 23.86271 29.09991 26.48131
#
# Velocity S-wave (km/s) = 3.35097 3.70046 3.53004
# Velocity P-wave (km/s) = 6.26267 6.55607 6.41105
#
# Compressibility (1/GPa) = 0.01940558
#
# Stress axis : x y z
#
# Youngs Moduli (GPa) = 111.79613 91.50699 90.20104
#
# Poissons Ratio (x) = 0.05428 0.26528
# Poissons Ratio (y) = 0.06631 0.20229
# Poissons Ratio (z) = 0.32879 0.20522
#
# Static dielectric constant tensor:
#      x y z
#    x 1.767650 0.000000 0.000000 
#    y 0.000000 1.793410 0.000000 
#    z 0.000000 0.000000 1.782090 
# 
# From -- ./inp_files/15632.got.cif
#   From: 2010.05.17/outbox.cif.g08.bks.cpg/sg46_8_cif.got.tgz:15632.got - 2010.06.03 19:58:25.
