data_PCOD9380426
_publ_section_title
;
Structure prediction by ZEFSAII (Michael W. Deem and Ramdas Pophale) SiO2 
 PCOD9380426
Probable space group: I M A 2
;
_chemical_formula_sum "Si O2"
_cell_formula_units_Z 36
_cell_length_a 20.591725
_cell_length_b 9.409172
_cell_length_c 8.259320
_cell_angle_alpha 90.000000
_cell_angle_beta 90.000000
_cell_angle_gamma 90.000000
_cell_volume 1600.252189
_symmetry_space_group_name_H-M "I M A 2"
_symmetry_group_IT_number 46
_symmetry_cell_setting 'orthorhombic'
loop_
_space_group_symop_operation_xyz
x,y,z
-x,-y,z
1/2-x,y,z
1/2+x,-y,z
1/2+x,1/2+y,1/2+z
1/2-x,1/2-y,1/2+z
-x,1/2+y,1/2+z
x,1/2-y,1/2+z
loop_
_atom_site_type_symbol
_atom_site_label
_atom_site_fract_x
_atom_site_fract_y
_atom_site_fract_z
Si Si1 0.113150 0.330836 0.473940
Si Si2 0.822979 0.584800 0.800981
Si Si3 0.425107 0.951820 0.742741
Si Si4 0.901089 0.340112 0.886171
Si Si5 0.000000 0.000000 0.150429
O O1 0.162467 0.373979 0.615316
O O2 0.125875 0.170530 0.415415
O O3 0.117462 0.416788 0.305236
O O4 0.044605 0.388728 0.548363
O O5 0.750000 0.624564 0.845528
O O6 0.835962 0.417614 0.825178
O O7 0.408773 0.827472 0.869937
O O8 0.410189 0.886961 0.569582
O O9 0.500000 0.000000 0.739285
O O10 0.954942 0.407375 0.767566
#
# Coordination Sequence:
#
# PCOD9380426 Si02
#       5
#     8   8   8   8   4
#     4  11  24  40  70 102 138 179 234 286 355 410
#     4  11  25  46  70 100 139 190 242 288 338 418
#     4  12  26  42  66 103 140 177 221 285 363 430
#     4  11  25  41  67  99 138 181 226 284 354 417
#     4  10  22  38  66 104 138 180 216 288 356 424
#
# _framework density 22.496454
#
# number of rings (size 3 to 8) (size 9 to 14) (size 15 to 20)
#    0.000    0.889    2.222    4.667    9.333    0.000 
#    0.000    6.667    0.000    0.000    0.000    0.000 
#    0.000    0.000    0.000    0.000    0.000    0.000 
#
# Total GULP energy -100615.241301 kJ/mol
# GULP energy per Si atom -5589.735628 kJ/mol
# Density = 2.244525 g / cm^3
# Si number density = 22.496454 Si / 1000 Ang^3
#
#
#
# Elastic Constant Matrix: (Units=GPa)
#
#
# Indices 1 2 3 4 5 6 
#
# 1 69.9074 22.4960 15.8109 0.0000 0.0000 0.0000
# 2 22.4960 98.7384 7.1204 0.0000 0.0000 0.0000
# 3 15.8109 7.1204 112.5608 0.0000 0.0000 0.0000
# 4 0.0000 0.0000 0.0000 39.2144 0.0000 0.0000
# 5 0.0000 0.0000 0.0000 0.0000 5.7273 0.0000
# 6 0.0000 0.0000 0.0000 0.0000 0.0000 16.1820
#
#
#
# Elastic Compliance Matrix: (Units=1/GPa)
#
#
# Indices 1 2 3 4 5 6 
#
# 1 0.015877 -0.003472 -0.002010 0.000000 0.000000 0.000000
# 2 -0.003472 0.010934 -0.000204 0.000000 0.000000 0.000000
# 3 -0.002010 -0.000204 0.009179 0.000000 0.000000 0.000000
# 4 0.000000 0.000000 0.000000 0.025501 0.000000 0.000000
# 5 0.000000 0.000000 0.000000 0.000000 0.174603 0.000000
# 6 0.000000 0.000000 0.000000 0.000000 0.000000 0.061797
#
#
# Mechanical properties :
#
#
# Convention : Reuss Voigt Hill
#
# Bulk Modulus (GPa) = 40.62340 41.34015 40.98177
# Shear Modulus (GPa) = 15.74958 27.94337 21.84647
#
# Velocity S-wave (km/s) = 2.64879 3.52820 3.11964
# Velocity P-wave (km/s) = 5.23944 5.91724 5.58863
#
# Compressibility (1/GPa) = 0.02461635
#
# Stress axis : x y z
#
# Youngs Moduli (GPa) = 62.98536 91.46137 108.93973
#
# Poissons Ratio (x) = 0.31758 0.21902
# Poissons Ratio (y) = 0.21870 0.02221
# Poissons Ratio (z) = 0.12663 0.01865
#
# Static dielectric constant tensor:
#      x y z
#    x 1.821390 0.000000 0.000000 
#    y 0.000000 1.884850 0.000000 
#    z 0.000000 0.000000 1.863280 
# 
# From -- ./inp_files/7140.got.cif
#   From: 2010.05.17/outbox.cif.g08.bks.cpg/sg46_4_cif.got.tgz:7140.got - 2010.06.03 19:58:25.
