data_PCOD9380902
_publ_section_title
;
Structure prediction by ZEFSAII (Michael W. Deem and Ramdas Pophale) SiO2 
 PCOD9380902
Probable space group: I M A 2
;
_chemical_formula_sum "Si O2"
_cell_formula_units_Z 48
_cell_length_a 19.331896
_cell_length_b 8.125337
_cell_length_c 14.682704
_cell_angle_alpha 90.000000
_cell_angle_beta 90.000000
_cell_angle_gamma 90.000000
_cell_volume 2306.332273
_symmetry_space_group_name_H-M "I M A 2"
_symmetry_group_IT_number 46
_symmetry_cell_setting 'orthorhombic'
loop_
_space_group_symop_operation_xyz
x,y,z
-x,-y,z
1/2-x,y,z
1/2+x,-y,z
1/2+x,1/2+y,1/2+z
1/2-x,1/2-y,1/2+z
-x,1/2+y,1/2+z
x,1/2-y,1/2+z
loop_
_atom_site_type_symbol
_atom_site_label
_atom_site_fract_x
_atom_site_fract_y
_atom_site_fract_z
Si Si1 0.927154 0.402229 0.405320
Si Si2 0.170227 0.378781 0.138685
Si Si3 0.329116 0.195364 0.950464
Si Si4 0.938196 0.370029 0.056497
Si Si5 0.400838 0.352139 0.787512
Si Si6 0.557890 0.297926 0.742103
O O1 0.868823 0.525201 0.439658
O O2 0.927326 0.237879 0.466591
O O3 0.912015 0.351387 0.301120
O O4 0.000000 0.500000 0.411642
O O5 0.250000 0.420999 0.160002
O O6 0.127112 0.531976 0.098195
O O7 0.134183 0.282792 0.221883
O O8 0.169729 0.252110 0.054240
O O9 0.250000 0.184329 0.919705
O O10 0.368697 0.326480 0.886718
O O11 0.957191 0.244860 0.138010
O O12 0.000000 0.500000 0.043289
O O13 0.482847 0.321134 0.788358
O O14 0.396176 0.538933 0.751910
#
# Coordination Sequence:
#
# PCOD9380902 Si02
#       6
#     8   8   8   8   8   8
#     4  12  24  40  65  96 127 166 211 266 314 373
#     4  11  24  43  64  90 129 171 210 255 316 378
#     4  11  24  43  64  90 129 171 210 255 316 378
#     4  12  24  40  65  96 127 166 211 266 314 373
#     4  11  22  41  65  94 122 168 204 257 313 377
#     4  11  24  38  66  95 130 153 211 266 309 364
#
# _framework density 20.812266999999999
#
# number of rings (size 3 to 8) (size 9 to 14) (size 15 to 20)
#    0.000    0.667    3.333    5.000    4.667    0.667 
#    0.000    3.333    0.000    0.000    0.000    0.000 
#    0.000    0.000    0.000    0.000    0.000    0.000 
#
# Total GULP energy -134229.998245 kJ/mol
# GULP energy per Si atom -5592.916594 kJ/mol
# Density = 2.076490 g / cm^3
# Si number density = 20.812267 Si / 1000 Ang^3
#
#
#
# Elastic Constant Matrix: (Units=GPa)
#
#
# Indices 1 2 3 4 5 6 
#
# 1 69.7676 27.4232 -5.3208 0.0000 0.0000 0.0000
# 2 27.4232 91.8812 4.8461 0.0000 0.0000 0.0000
# 3 -5.3208 4.8461 70.1011 0.0000 0.0000 0.0000
# 4 0.0000 0.0000 0.0000 36.2955 0.0000 0.0000
# 5 0.0000 0.0000 0.0000 0.0000 21.9592 0.0000
# 6 0.0000 0.0000 0.0000 0.0000 0.0000 27.6881
#
#
#
# Elastic Compliance Matrix: (Units=1/GPa)
#
#
# Indices 1 2 3 4 5 6 
#
# 1 0.016413 -0.004983 0.001590 0.000000 0.000000 0.000000
# 2 -0.004983 0.012436 -0.001238 0.000000 0.000000 0.000000
# 3 0.001590 -0.001238 0.014471 0.000000 0.000000 0.000000
# 4 0.000000 0.000000 0.000000 0.027552 0.000000 0.000000
# 5 0.000000 0.000000 0.000000 0.000000 0.045539 0.000000
# 6 0.000000 0.000000 0.000000 0.000000 0.000000 0.036117
#
#
# Mechanical properties :
#
#
# Convention : Reuss Voigt Hill
#
# Bulk Modulus (GPa) = 29.35995 31.73853 30.54924
# Shear Modulus (GPa) = 28.87811 30.84198 29.86004
#
# Velocity S-wave (km/s) = 3.72903 3.85374 3.79190
# Velocity P-wave (km/s) = 5.71651 5.92324 5.82079
#
# Compressibility (1/GPa) = 0.03406001
#
# Stress axis : x y z
#
# Youngs Moduli (GPa) = 60.92711 80.41154 69.10189
#
# Poissons Ratio (x) = 0.40066 -0.10989
# Poissons Ratio (y) = 0.30357 0.08554
# Poissons Ratio (z) = -0.09689 0.09954
#
# Static dielectric constant tensor:
#      x y z
#    x 1.733190 0.000000 0.000000 
#    y 0.000000 1.776250 0.000000 
#    z 0.000000 0.000000 1.731470 
# 
# From -- ./inp_files/16506.got.cif
#   From: 2010.05.17/outbox.cif.g08.bks.cpg/sg46_9_cif.got.tgz:16506.got - 2010.06.03 19:58:25.
