data_PCOD9380615
_publ_section_title
;
Structure prediction by ZEFSAII (Michael W. Deem and Ramdas Pophale) SiO2 
 PCOD9380615
Probable space group: I M A 2
;
_chemical_formula_sum "Si O2"
_cell_formula_units_Z 40
_cell_length_a 21.276537
_cell_length_b 9.430939
_cell_length_c 9.014760
_cell_angle_alpha 90.000000
_cell_angle_beta 90.000000
_cell_angle_gamma 90.000000
_cell_volume 1808.881211
_symmetry_space_group_name_H-M "I M A 2"
_symmetry_group_IT_number 46
_symmetry_cell_setting 'orthorhombic'
loop_
_space_group_symop_operation_xyz
x,y,z
-x,-y,z
1/2-x,y,z
1/2+x,-y,z
1/2+x,1/2+y,1/2+z
1/2-x,1/2-y,1/2+z
-x,1/2+y,1/2+z
x,1/2-y,1/2+z
loop_
_atom_site_type_symbol
_atom_site_label
_atom_site_fract_x
_atom_site_fract_y
_atom_site_fract_z
Si Si1 0.460786 0.154875 0.261840
Si Si2 0.546588 0.345229 0.471128
Si Si3 0.116355 0.930121 0.452485
Si Si4 0.250000 0.355525 0.261450
Si Si5 0.250000 0.059078 0.416751
Si Si6 0.112994 0.428299 0.271668
O O1 0.499839 0.250189 0.375022
O O2 0.404348 0.265747 0.230896
O O3 0.430289 0.017779 0.341975
O O4 0.508196 0.140249 0.123470
O O5 0.605473 0.237308 0.471320
O O6 0.570796 0.489252 0.393549
O O7 0.186610 0.968543 0.403408
O O8 0.104083 0.990117 0.617166
O O9 0.250000 0.191523 0.306464
O O10 0.185695 0.426029 0.318851
O O11 0.250000 0.376858 0.083930
#
# Coordination Sequence:
#
# PCOD9380615 Si02
#       6
#     8   8   8   4   4   8
#     4  12  24  43  70  98 144 182 230 287 353 427
#     4  12  26  43  68 104 142 185 234 286 361 419
#     4  11  24  46  70 103 142 186 234 296 351 422
#     4  10  22  45  72 102 136 186 240 293 351 421
#     4  10  22  45  72 100 140 184 238 293 353 423
#     4  11  24  46  70 102 144 184 235 297 350 423
#
# _framework density 22.113116000000002
#
# number of rings (size 3 to 8) (size 9 to 14) (size 15 to 20)
#    0.000    0.800    6.000    1.200    0.000    4.000 
#    3.600    0.000    0.000    0.000    0.000    0.000 
#    0.000    0.000    0.000    0.000    0.000    0.000 
#
# Total GULP energy -111679.214902 kJ/mol
# GULP energy per Si atom -5583.960745 kJ/mol
# Density = 2.206279 g / cm^3
# Si number density = 22.113116 Si / 1000 Ang^3
#
#
#
# Elastic Constant Matrix: (Units=GPa)
#
#
# Indices 1 2 3 4 5 6 
#
# 1 161.0016 56.1519 70.7008 0.0000 0.0000 0.0000
# 2 56.1519 156.5715 50.7942 0.0000 0.0000 0.0000
# 3 70.7008 50.7942 102.6434 0.0000 0.0000 0.0000
# 4 0.0000 0.0000 0.0000 32.6563 0.0000 0.0000
# 5 0.0000 0.0000 0.0000 0.0000 27.0982 0.0000
# 6 0.0000 0.0000 0.0000 0.0000 0.0000 34.4593
#
#
#
# Elastic Compliance Matrix: (Units=1/GPa)
#
#
# Indices 1 2 3 4 5 6 
#
# 1 0.009183 -0.001479 -0.005594 0.000000 0.000000 0.000000
# 2 -0.001479 0.007846 -0.002864 0.000000 0.000000 0.000000
# 3 -0.005594 -0.002864 0.015013 0.000000 0.000000 0.000000
# 4 0.000000 0.000000 0.000000 0.030622 0.000000 0.000000
# 5 0.000000 0.000000 0.000000 0.000000 0.036903 0.000000
# 6 0.000000 0.000000 0.000000 0.000000 0.000000 0.029020
#
#
# Mechanical properties :
#
#
# Convention : Reuss Voigt Hill
#
# Bulk Modulus (GPa) = 82.17578 86.16781 84.17180
# Shear Modulus (GPa) = 32.78330 35.01405 33.89867
#
# Velocity S-wave (km/s) = 3.85454 3.98352 3.91956
# Velocity P-wave (km/s) = 7.55329 7.75947 7.65707
#
# Compressibility (1/GPa) = 0.01216904
#
# Stress axis : x y z
#
# Youngs Moduli (GPa) = 108.89464 127.44674 66.60990
#
# Poissons Ratio (x) = 0.18846 0.37259
# Poissons Ratio (y) = 0.16103 0.19079
# Poissons Ratio (z) = 0.60911 0.36505
#
# Static dielectric constant tensor:
#      x y z
#    x 1.919420 0.000000 0.000000 
#    y 0.000000 1.911860 0.000000 
#    z 0.000000 0.000000 1.814080 
# 
# From -- ./inp_files/7741.got.cif
#   From: 2010.05.17/outbox.cif.g08.bks.cpg/sg46_4_cif.got.tgz:7741.got - 2010.06.03 19:58:25.
