data_PCOD9380010
_publ_section_title
;
Structure prediction by ZEFSAII (Michael W. Deem and Ramdas Pophale) SiO2 
 PCOD9380010
Probable space group: I M A 2
;
_chemical_formula_sum "Si O2"
_cell_formula_units_Z 64
_cell_length_a 8.509824
_cell_length_b 25.723123
_cell_length_c 15.445631
_cell_angle_alpha 90.000000
_cell_angle_beta 90.000000
_cell_angle_gamma 90.000000
_cell_volume 3381.037033
_symmetry_space_group_name_H-M "I M A 2"
_symmetry_group_IT_number 46
_symmetry_cell_setting 'orthorhombic'
loop_
_space_group_symop_operation_xyz
x,y,z
-x,-y,z
1/2-x,y,z
1/2+x,-y,z
1/2+x,1/2+y,1/2+z
1/2-x,1/2-y,1/2+z
-x,1/2+y,1/2+z
x,1/2-y,1/2+z
loop_
_atom_site_type_symbol
_atom_site_label
_atom_site_fract_x
_atom_site_fract_y
_atom_site_fract_z
Si Si1 0.438212 0.164197 0.531480
Si Si2 0.560144 0.235839 0.247466
Si Si3 0.938664 0.058561 0.201547
Si Si4 0.937754 0.943403 0.843381
Si Si5 0.439611 0.863256 0.353786
Si Si6 0.438173 0.851993 0.723405
Si Si7 0.439149 0.280057 0.554746
Si Si8 0.440290 0.106114 0.021764
O O1 0.250000 0.163530 0.537025
O O2 0.493754 0.131098 0.449748
O O3 0.506956 0.146917 0.623644
O O4 0.492630 0.224427 0.518036
O O5 0.750000 0.234818 0.243817
O O6 0.508761 0.192945 0.316376
O O7 0.510387 0.295552 0.261131
O O8 0.495854 0.219095 0.153917
O O9 0.750000 0.058410 0.199291
O O10 0.988767 0.093581 0.283678
O O11 0.998885 0.083932 0.112412
O O12 0.000000 0.000000 0.208656
O O13 0.750000 0.944533 0.844492
O O14 0.992726 0.899045 0.777785
O O15 0.993788 0.927528 0.939862
O O16 0.000000 0.000000 0.819643
O O17 0.250000 0.863733 0.357964
O O18 0.250000 0.854031 0.726196
O O19 0.250000 0.279762 0.553243
O O20 0.492001 0.333702 0.511208
O O21 0.250000 0.105143 0.024093
#
# Coordination Sequence:
#
# PCOD9380010 Si02
#       8
#     8   8   8   8   8   8   8   8
#     4  10  21  36  58  87 120 156 194 240 294 349
#     4   9  18  34  55  83 116 151 190 233 286 346
#     4  11  23  39  60  84 117 156 198 243 289 344
#     4  11  24  41  61  85 117 153 199 249 294 349
#     4  10  21  37  56  84 119 155 195 241 291 347
#     4  10  21  39  62  86 116 153 195 244 298 351
#     4   9  18  33  53  83 119 153 189 230 282 341
#     4  10  21  37  58  86 120 156 193 236 287 346
#
# _framework density 18.929103000000001
#
# number of rings (size 3 to 8) (size 9 to 14) (size 15 to 20)
#    0.000    2.000    1.250    1.875    1.750    4.500 
#    0.000    0.625    0.000    1.500    0.000    0.000 
#    0.000    0.000    0.000    0.000    0.000    0.000 
#
# Total GULP energy -178679.284893 kJ/mol
# GULP energy per Si atom -5583.727653 kJ/mol
# Density = 1.888602 g / cm^3
# Si number density = 18.929103 Si / 1000 Ang^3
#
#
#
# Elastic Constant Matrix: (Units=GPa)
#
#
# Indices 1 2 3 4 5 6 
#
# 1 23.9992 27.5203 16.7703 0.0000 0.0000 0.0000
# 2 27.5203 128.4285 62.3192 0.0000 0.0000 0.0000
# 3 16.7703 62.3192 92.2546 0.0001 0.0000 0.0000
# 4 0.0000 0.0000 0.0001 27.7021 0.0000 0.0000
# 5 0.0000 0.0000 0.0000 0.0000 29.6001 0.0000
# 6 0.0000 0.0000 0.0000 0.0000 0.0000 18.2287
#
#
#
# Elastic Compliance Matrix: (Units=1/GPa)
#
#
# Indices 1 2 3 4 5 6 
#
# 1 0.055823 -0.010470 -0.003075 0.000000 0.000000 0.000000
# 2 -0.010470 0.013547 -0.007248 0.000000 0.000000 0.000000
# 3 -0.003075 -0.007248 0.016295 0.000000 0.000000 0.000000
# 4 0.000000 0.000000 0.000000 0.036098 0.000000 0.000000
# 5 0.000000 0.000000 0.000000 0.000000 0.033784 0.000000
# 6 0.000000 0.000000 0.000000 0.000000 0.000000 0.054859
#
#
# Mechanical properties :
#
#
# Convention : Reuss Voigt Hill
#
# Bulk Modulus (GPa) = 22.68668 50.87796 36.78232
# Shear Modulus (GPa) = 18.74881 24.31102 21.52991
#
# Velocity S-wave (km/s) = 3.15060 3.58763 3.37619
# Velocity P-wave (km/s) = 5.02455 6.64063 5.88830
#
# Compressibility (1/GPa) = 0.04407872
#
# Stress axis : x y z
#
# Youngs Moduli (GPa) = 17.91383 73.81731 61.36987
#
# Poissons Ratio (x) = 0.77285 0.18872
# Poissons Ratio (y) = 0.18755 0.44480
# Poissons Ratio (z) = 0.05509 0.53502
#
# Static dielectric constant tensor:
#      x y z
#    x 1.635360 0.000000 0.000000 
#    y 0.000000 1.665050 0.000000 
#    z 0.000000 0.000000 1.634650 
# 
# From -- ./inp_files/14490.got.cif
#   From: 2010.05.17/outbox.cif.g08.bks.cpg/sg46_8_cif.got.tgz:14490.got - 2010.06.03 19:58:25.
