data_PCOD9380604
_publ_section_title
;
Structure prediction by ZEFSAII (Michael W. Deem and Ramdas Pophale) SiO2 
 PCOD9380604
Probable space group: I M A 2
;
_chemical_formula_sum "Si O2"
_cell_formula_units_Z 32
_cell_length_a 25.270068
_cell_length_b 6.948907
_cell_length_c 8.806936
_cell_angle_alpha 90.000000
_cell_angle_beta 90.000000
_cell_angle_gamma 90.000000
_cell_volume 1546.492258
_symmetry_space_group_name_H-M "I M A 2"
_symmetry_group_IT_number 46
_symmetry_cell_setting 'orthorhombic'
loop_
_space_group_symop_operation_xyz
x,y,z
-x,-y,z
1/2-x,y,z
1/2+x,-y,z
1/2+x,1/2+y,1/2+z
1/2-x,1/2-y,1/2+z
-x,1/2+y,1/2+z
x,1/2-y,1/2+z
loop_
_atom_site_type_symbol
_atom_site_label
_atom_site_fract_x
_atom_site_fract_y
_atom_site_fract_z
Si Si1 0.809852 0.665829 0.397920
Si Si2 0.559235 0.074712 0.394013
Si Si3 0.653687 0.519028 0.718275
Si Si4 0.386028 0.611006 0.217637
O O1 0.750000 0.598975 0.371658
O O2 0.826797 0.622510 0.568519
O O3 0.813557 0.890596 0.355944
O O4 0.852624 0.556682 0.293996
O O5 0.570563 0.292372 0.332374
O O6 0.586350 0.060692 0.559056
O O7 0.500000 0.000000 0.398903
O O8 0.592732 0.952520 0.270439
O O9 0.654607 0.290211 0.694570
#
# Coordination Sequence:
#
# PCOD9380604 Si02
#       4
#     8   8   8   8
#     4  12  24  41  68  96 134 181 218 276 338 390
#     4  10  22  44  70  97 127 179 214 273 343 392
#     4  10  23  43  63 101 133 165 231 274 314 415
#     4  10  22  46  65  96 136 167 225 275 328 407
#
# _framework density 20.691987000000001
#
# number of rings (size 3 to 8) (size 9 to 14) (size 15 to 20)
#    1.500    0.000    2.500    2.250    0.000    6.000 
#    0.000    3.750    0.000    0.000    0.000    0.000 
#    0.000    0.000    0.000    0.000    0.000    0.000 
#
# Total GULP energy -89124.878897 kJ/mol
# GULP energy per Si atom -5570.304931 kJ/mol
# Density = 2.064489 g / cm^3
# Si number density = 20.691987 Si / 1000 Ang^3
#
#
#
# Elastic Constant Matrix: (Units=GPa)
#
#
# Indices 1 2 3 4 5 6 
#
# 1 119.9928 39.0849 17.1079 0.0000 0.0000 0.0000
# 2 39.0849 54.0675 0.9956 0.0000 0.0000 0.0000
# 3 17.1079 0.9956 22.1055 0.0000 0.0000 0.0000
# 4 0.0000 0.0000 0.0000 31.2331 0.0000 0.0000
# 5 0.0000 0.0000 0.0000 0.0000 2.2299 0.0000
# 6 0.0000 0.0000 0.0000 0.0000 0.0000 22.5882
#
#
#
# Elastic Compliance Matrix: (Units=1/GPa)
#
#
# Indices 1 2 3 4 5 6 
#
# 1 0.012566 -0.008912 -0.009324 0.000000 0.000000 0.000000
# 2 -0.008912 0.024832 0.005779 0.000000 0.000000 0.000000
# 3 -0.009324 0.005779 0.052193 0.000000 0.000000 0.000000
# 4 0.000000 0.000000 0.000000 0.032017 0.000000 0.000000
# 5 0.000000 0.000000 0.000000 0.000000 0.448453 0.000000
# 6 0.000000 0.000000 0.000000 0.000000 0.000000 0.044271
#
#
# Mechanical properties :
#
#
# Convention : Reuss Voigt Hill
#
# Bulk Modulus (GPa) = 15.46148 34.50474 24.98311
# Shear Modulus (GPa) = 7.56652 20.47538 14.02095
#
# Velocity S-wave (km/s) = 1.91434 3.14910 2.60590
# Velocity P-wave (km/s) = 3.51776 5.47120 4.59938
#
# Compressibility (1/GPa) = 0.06467687
#
# Stress axis : x y z
#
# Youngs Moduli (GPa) = 79.57892 40.27128 19.15956
#
# Poissons Ratio (x) = 0.35891 0.17864
# Poissons Ratio (y) = 0.70923 -0.11072
# Poissons Ratio (z) = 0.74198 -0.23273
#
# Static dielectric constant tensor:
#      x y z
#    x 1.720310 0.000000 0.000000 
#    y 0.000000 1.802190 0.000000 
#    z 0.000000 0.000000 1.739520 
# 
# From -- ./inp_files/8297.got.cif
#   From: 2010.05.17/outbox.cif.g08.bks.cpg/sg46_5_cif.got.tgz:8297.got - 2010.06.03 19:58:25.
