data_PCOD9380708
_publ_section_title
;
Structure prediction by ZEFSAII (Michael W. Deem and Ramdas Pophale) SiO2 
 PCOD9380708
Probable space group: I M A 2
;
_chemical_formula_sum "Si O2"
_cell_formula_units_Z 40
_cell_length_a 19.903986
_cell_length_b 5.169798
_cell_length_c 15.959483
_cell_angle_alpha 90.000000
_cell_angle_beta 90.000000
_cell_angle_gamma 90.000000
_cell_volume 1642.224210
_symmetry_space_group_name_H-M "I M A 2"
_symmetry_group_IT_number 46
_symmetry_cell_setting 'orthorhombic'
loop_
_space_group_symop_operation_xyz
x,y,z
-x,-y,z
1/2-x,y,z
1/2+x,-y,z
1/2+x,1/2+y,1/2+z
1/2-x,1/2-y,1/2+z
-x,1/2+y,1/2+z
x,1/2-y,1/2+z
loop_
_atom_site_type_symbol
_atom_site_label
_atom_site_fract_x
_atom_site_fract_y
_atom_site_fract_z
Si Si1 0.820903 0.752058 0.464650
Si Si2 0.570515 0.928636 0.168965
Si Si3 0.911157 0.437872 0.059894
Si Si4 0.429387 0.631235 0.399288
Si Si5 0.825893 0.073350 0.294499
O O1 0.750000 0.613094 0.477171
O O2 0.883249 0.565165 0.452036
O O3 0.837302 0.951191 0.538391
O O4 0.817713 0.912284 0.379306
O O5 0.557542 0.679221 0.110714
O O6 0.500000 0.000000 0.214092
O O7 0.587758 0.181516 0.114597
O O8 0.634548 0.896628 0.228234
O O9 0.938918 0.360427 0.967540
O O10 0.500000 0.500000 0.376225
O O11 0.381779 0.713211 0.321667
O O12 0.750000 0.159013 0.269898
#
# Coordination Sequence:
#
# PCOD9380708 Si02
#       5
#     8   8   8   8   8
#     4  10  23  45  73 105 143 191 245 304 367 444
#     4  12  27  44  73 104 153 192 247 298 371 439
#     4  11  25  46  70 107 143 190 240 307 365 438
#     4  11  24  43  81 108 148 189 254 309 381 440
#     4  10  26  47  69 106 153 198 249 308 373 450
#
# _framework density 24.357211
#
# number of rings (size 3 to 8) (size 9 to 14) (size 15 to 20)
#    0.000    1.200    2.000    1.800    8.400    4.000 
#    0.000    0.000    0.000    0.000    0.000    0.000 
#    0.000    0.000    0.000    0.000    0.000    0.000 
#
# Total GULP energy -111691.373134 kJ/mol
# GULP energy per Si atom -5584.568657 kJ/mol
# Density = 2.430177 g / cm^3
# Si number density = 24.357211 Si / 1000 Ang^3
#
#
#
# Elastic Constant Matrix: (Units=GPa)
#
#
# Indices 1 2 3 4 5 6 
#
# 1 215.0884 50.1743 39.2426 0.0000 0.0000 0.0000
# 2 50.1743 119.5478 17.6250 0.0000 0.0000 0.0000
# 3 39.2426 17.6250 49.9928 0.0000 0.0000 0.0000
# 4 0.0000 0.0000 0.0000 18.2796 0.0000 0.0000
# 5 0.0000 0.0000 0.0000 0.0000 37.7868 0.0000
# 6 0.0000 0.0000 0.0000 0.0000 0.0000 25.4223
#
#
#
# Elastic Compliance Matrix: (Units=1/GPa)
#
#
# Indices 1 2 3 4 5 6 
#
# 1 0.005793 -0.001857 -0.003892 0.000000 0.000000 0.000000
# 2 -0.001857 0.009419 -0.001863 0.000000 0.000000 0.000000
# 3 -0.003892 -0.001863 0.023715 0.000000 0.000000 0.000000
# 4 0.000000 0.000000 0.000000 0.054706 0.000000 0.000000
# 5 0.000000 0.000000 0.000000 0.000000 0.026464 0.000000
# 6 0.000000 0.000000 0.000000 0.000000 0.000000 0.039336
#
#
# Mechanical properties :
#
#
# Convention : Reuss Voigt Hill
#
# Bulk Modulus (GPa) = 42.19067 66.52364 54.35716
# Shear Modulus (GPa) = 27.38867 34.80356 31.09611
#
# Velocity S-wave (km/s) = 3.35693 3.78416 3.57693
# Velocity P-wave (km/s) = 5.69074 6.81646 6.27888
#
# Compressibility (1/GPa) = 0.02370192
#
# Stress axis : x y z
#
# Youngs Moduli (GPa) = 172.63253 106.16831 42.16768
#
# Poissons Ratio (x) = 0.19719 0.16413
# Poissons Ratio (y) = 0.32064 0.07855
# Poissons Ratio (z) = 0.67192 0.19776
#
# Static dielectric constant tensor:
#      x y z
#    x 1.923450 0.000000 0.000000 
#    y 0.000000 1.978820 0.000000 
#    z 0.000000 0.000000 1.955880 
# 
# From -- ./inp_files/19776.got.cif
#   From: 2010.05.17/outbox.cif.g08.bks.cpg/sg46_10_cif.got.tgz:19776.got - 2010.06.03 19:58:25.
