data_PCOD9380345
_publ_section_title
;
Structure prediction by ZEFSAII (Michael W. Deem and Ramdas Pophale) SiO2 
 PCOD9380345
Probable space group: I M A 2
;
_chemical_formula_sum "Si O2"
_cell_formula_units_Z 56
_cell_length_a 22.782994
_cell_length_b 15.345385
_cell_length_c 7.434189
_cell_angle_alpha 90.000000
_cell_angle_beta 90.000000
_cell_angle_gamma 90.000000
_cell_volume 2599.095173
_symmetry_space_group_name_H-M "I M A 2"
_symmetry_group_IT_number 46
_symmetry_cell_setting 'orthorhombic'
loop_
_space_group_symop_operation_xyz
x,y,z
-x,-y,z
1/2-x,y,z
1/2+x,-y,z
1/2+x,1/2+y,1/2+z
1/2-x,1/2-y,1/2+z
-x,1/2+y,1/2+z
x,1/2-y,1/2+z
loop_
_atom_site_type_symbol
_atom_site_label
_atom_site_fract_x
_atom_site_fract_y
_atom_site_fract_z
Si Si1 0.915315 0.130048 0.572680
Si Si2 0.860877 0.637297 0.441302
Si Si3 0.183382 0.310997 0.070524
Si Si4 0.315565 0.545870 0.586856
Si Si5 0.494543 0.099909 0.881504
Si Si6 0.683445 0.000043 0.498228
Si Si7 0.584730 0.174037 0.151009
O O1 0.972439 0.106525 0.690066
O O2 0.924991 0.141622 0.356817
O O3 0.897290 0.225094 0.645847
O O4 0.865285 0.056372 0.601431
O O5 0.819519 0.657300 0.273781
O O6 0.855288 0.724725 0.558000
O O7 0.838360 0.548660 0.528637
O O8 0.926847 0.624834 0.373119
O O9 0.250000 0.290377 0.016187
O O10 0.164565 0.399336 0.969134
O O11 0.250000 0.563155 0.516010
O O12 0.311947 0.542793 0.803029
O O13 0.364781 0.617846 0.552905
O O14 0.500000 0.000000 0.944465
O O15 0.527252 0.159540 0.028999
O O16 0.750000 0.999330 0.575454
#
# Coordination Sequence:
#
# PCOD9380345 Si02
#       7
#     8   8   8   8   8   8   8
#     4  11  24  44  69  97 140 176 228 281 340 400
#     4  12  25  40  65  94 134 179 224 279 345 405
#     4  11  23  40  63  96 131 170 222 278 340 410
#     4  10  21  42  67  96 130 172 222 281 348 410
#     4  12  26  47  67  99 138 180 238 279 335 414
#     4   9  21  42  67  96 132 173 224 283 348 410
#     4  11  24  44  69  99 136 180 220 288 337 409
#
# _framework density 21.545959
#
# number of rings (size 3 to 8) (size 9 to 14) (size 15 to 20)
#    0.000    1.143    2.857    3.000    2.000    2.286 
#    2.571    0.000    0.000    0.000    0.000    0.000 
#    0.000    0.000    0.000    0.000    0.000    0.000 
#
# Total GULP energy -156430.943184 kJ/mol
# GULP energy per Si atom -5586.819399 kJ/mol
# Density = 2.149692 g / cm^3
# Si number density = 21.545959 Si / 1000 Ang^3
#
#
#
# Elastic Constant Matrix: (Units=GPa)
#
#
# Indices 1 2 3 4 5 6 
#
# 1 110.3455 41.7649 11.2803 0.0000 0.0000 0.0000
# 2 41.7649 105.7554 -15.0281 0.0000 0.0000 0.0000
# 3 11.2803 -15.0281 52.6970 0.0000 0.0000 0.0000
# 4 0.0000 0.0000 0.0000 30.0667 0.0000 0.0000
# 5 0.0000 0.0000 0.0000 0.0000 26.7982 0.0000
# 6 0.0000 0.0000 0.0000 0.0000 0.0000 32.6255
#
#
#
# Elastic Compliance Matrix: (Units=1/GPa)
#
#
# Indices 1 2 3 4 5 6 
#
# 1 0.011365 -0.005038 -0.003870 0.000000 0.000000 0.000000
# 2 -0.005038 0.012089 0.004526 0.000000 0.000000 0.000000
# 3 -0.003870 0.004526 0.021095 0.000000 0.000000 0.000000
# 4 0.000000 0.000000 0.000000 0.033259 0.000000 0.000000
# 5 0.000000 0.000000 0.000000 0.000000 0.037316 0.000000
# 6 0.000000 0.000000 0.000000 0.000000 0.000000 0.030651
#
#
# Mechanical properties :
#
#
# Convention : Reuss Voigt Hill
#
# Bulk Modulus (GPa) = 27.94440 38.31466 33.12953
# Shear Modulus (GPa) = 30.03600 33.28349 31.65974
#
# Velocity S-wave (km/s) = 3.73774 3.93462 3.83744
# Velocity P-wave (km/s) = 5.62365 6.20185 5.91981
#
# Compressibility (1/GPa) = 0.03578534
#
# Stress axis : x y z
#
# Youngs Moduli (GPa) = 87.99033 82.72289 47.40374
#
# Poissons Ratio (x) = 0.41676 0.18343
# Poissons Ratio (y) = 0.44330 -0.21454
# Poissons Ratio (z) = 0.34048 -0.37439
#
# Static dielectric constant tensor:
#      x y z
#    x 1.792380 0.000000 0.000000 
#    y 0.000000 1.871200 0.000000 
#    z 0.000000 0.000000 1.837020 
# 
# From -- ./inp_files/7406.got.cif
#   From: 2010.05.17/outbox.cif.g08.bks.cpg/sg46_4_cif.got.tgz:7406.got - 2010.06.03 19:58:25.
