data_PCOD9380527
_publ_section_title
;
Structure prediction by ZEFSAII (Michael W. Deem and Ramdas Pophale) SiO2 
 PCOD9380527
Probable space group: I M A 2
;
_chemical_formula_sum "Si O2"
_cell_formula_units_Z 32
_cell_length_a 17.403152
_cell_length_b 6.769894
_cell_length_c 13.419164
_cell_angle_alpha 90.000000
_cell_angle_beta 90.000000
_cell_angle_gamma 90.000000
_cell_volume 1581.012278
_symmetry_space_group_name_H-M "I M A 2"
_symmetry_group_IT_number 46
_symmetry_cell_setting 'orthorhombic'
loop_
_space_group_symop_operation_xyz
x,y,z
-x,-y,z
1/2-x,y,z
1/2+x,-y,z
1/2+x,1/2+y,1/2+z
1/2-x,1/2-y,1/2+z
-x,1/2+y,1/2+z
x,1/2-y,1/2+z
loop_
_atom_site_type_symbol
_atom_site_label
_atom_site_fract_x
_atom_site_fract_y
_atom_site_fract_z
Si Si1 0.840093 0.680995 0.418690
Si Si2 0.420474 0.034647 0.561640
Si Si3 0.928802 0.649689 0.732088
Si Si4 0.840722 0.374268 0.586946
O O1 0.750000 0.669879 0.391492
O O2 0.893659 0.735839 0.326104
O O3 0.861237 0.485685 0.482779
O O4 0.856248 0.856811 0.496592
O O5 0.385142 0.829675 0.595984
O O6 0.500000 0.000000 0.502460
O O7 0.445505 0.181640 0.650149
O O8 0.864619 0.514560 0.678113
O O9 0.000000 0.500000 0.750403
O O10 0.750000 0.343349 0.586782
#
# Coordination Sequence:
#
# PCOD9380527 Si02
#       4
#     8   8   8   8
#     4  10  23  40  62  92 128 167 214 267 321 383
#     4  11  22  41  63  90 126 168 217 267 320 382
#     4  11  22  41  64  98 130 166 217 267 326 391
#     4  10  22  41  65  92 130 174 216 266 322 382
#
# _framework density 20.240196000000001
#
# number of rings (size 3 to 8) (size 9 to 14) (size 15 to 20)
#    0.000    1.500    2.500    2.250    0.000    5.000 
#    4.500    2.500    0.000    0.000    0.000    0.000 
#    0.000    0.000    0.000    0.000    0.000    0.000 
#
# Total GULP energy -89285.803697 kJ/mol
# GULP energy per Si atom -5580.362731 kJ/mol
# Density = 2.019413 g / cm^3
# Si number density = 20.240196 Si / 1000 Ang^3
#
#
#
# Elastic Constant Matrix: (Units=GPa)
#
#
# Indices 1 2 3 4 5 6 
#
# 1 91.5453 32.3867 29.3726 0.0000 0.0000 0.0000
# 2 32.3867 91.8527 3.8104 0.0000 0.0000 0.0000
# 3 29.3726 3.8104 71.8357 0.0000 0.0000 0.0000
# 4 0.0000 0.0000 0.0000 10.2053 0.0000 0.0000
# 5 0.0000 0.0000 0.0000 0.0000 27.6997 0.0000
# 6 0.0000 0.0000 0.0000 0.0000 0.0000 35.3914
#
#
#
# Elastic Compliance Matrix: (Units=1/GPa)
#
#
# Indices 1 2 3 4 5 6 
#
# 1 0.014458 -0.004863 -0.005654 0.000000 0.000000 0.000000
# 2 -0.004863 0.012547 0.001323 0.000000 0.000000 0.000000
# 3 -0.005654 0.001323 0.016162 0.000000 0.000000 0.000000
# 4 0.000000 0.000000 0.000000 0.097988 0.000000 0.000000
# 5 0.000000 0.000000 0.000000 0.000000 0.036102 0.000000
# 6 0.000000 0.000000 0.000000 0.000000 0.000000 0.028255
#
#
# Mechanical properties :
#
#
# Convention : Reuss Voigt Hill
#
# Bulk Modulus (GPa) = 40.35655 42.93034 41.64345
# Shear Modulus (GPa) = 21.53688 27.30356 24.42022
#
# Velocity S-wave (km/s) = 3.26554 3.67683 3.47727
# Velocity P-wave (km/s) = 5.84811 6.26753 6.06145
#
# Compressibility (1/GPa) = 0.02477913
#
# Stress axis : x y z
#
# Youngs Moduli (GPa) = 69.16533 79.70110 61.87263
#
# Poissons Ratio (x) = 0.38761 0.34981
# Poissons Ratio (y) = 0.33637 -0.08186
# Poissons Ratio (z) = 0.39104 -0.10545
#
# Static dielectric constant tensor:
#      x y z
#    x 1.737520 0.000000 0.000000 
#    y 0.000000 1.695730 0.000000 
#    z 0.000000 0.000000 1.726760 
# 
# From -- ./inp_files/10750.got.cif
#   From: 2010.05.17/outbox.cif.g08.bks.cpg/sg46_6_cif.got.tgz:10750.got - 2010.06.03 19:58:25.
