data_PCOD9380499
_publ_section_title
;
Structure prediction by ZEFSAII (Michael W. Deem and Ramdas Pophale) SiO2 
 PCOD9380499
Probable space group: I M A 2
;
_chemical_formula_sum "Si O2"
_cell_formula_units_Z 48
_cell_length_a 14.970664
_cell_length_b 11.544408
_cell_length_c 13.835919
_cell_angle_alpha 90.000000
_cell_angle_beta 90.000000
_cell_angle_gamma 90.000000
_cell_volume 2391.226644
_symmetry_space_group_name_H-M "I M A 2"
_symmetry_group_IT_number 46
_symmetry_cell_setting 'orthorhombic'
loop_
_space_group_symop_operation_xyz
x,y,z
-x,-y,z
1/2-x,y,z
1/2+x,-y,z
1/2+x,1/2+y,1/2+z
1/2-x,1/2-y,1/2+z
-x,1/2+y,1/2+z
x,1/2-y,1/2+z
loop_
_atom_site_type_symbol
_atom_site_label
_atom_site_fract_x
_atom_site_fract_y
_atom_site_fract_z
Si Si1 0.098897 0.530804 0.420120
Si Si2 0.147872 0.105948 0.218114
Si Si3 0.514597 0.867590 0.394901
Si Si4 0.352131 0.737470 0.298869
Si Si5 0.649320 0.787719 0.009516
Si Si6 0.854256 0.360211 0.614340
O O1 0.144611 0.606927 0.338010
O O2 0.144157 0.411470 0.453629
O O3 0.093312 0.610331 0.517135
O O4 0.000000 0.500000 0.387333
O O5 0.250000 0.120294 0.252997
O O6 0.075989 0.131540 0.298847
O O7 0.137230 0.974025 0.181444
O O8 0.136550 0.182682 0.122236
O O9 0.421395 0.808824 0.364449
O O10 0.572055 0.794524 0.470779
O O11 0.500000 0.000000 0.425413
O O12 0.250000 0.780697 0.307705
O O13 0.377787 0.755827 0.186171
O O14 0.750000 0.740937 0.996043
O O15 0.750000 0.349656 0.584785
#
# Coordination Sequence:
#
# PCOD9380499 Si02
#       6
#     8   8   8   8   8   8
#     4  11  21  38  64  93 120 164 212 266 312 366
#     4   9  19  37  62  90 119 156 206 258 306 367
#     4  12  23  36  63  94 125 166 206 261 314 375
#     4  11  23  37  57  90 129 164 205 257 315 370
#     4  10  22  40  65  94 124 164 212 261 314 373
#     4   9  19  35  59  89 119 159 203 253 307 367
#
# _framework density 20.073378999999999
#
# number of rings (size 3 to 8) (size 9 to 14) (size 15 to 20)
#    0.000    1.667    3.333    3.000    4.667    0.667 
#    0.000    0.000    7.333    0.000    0.000    0.000 
#    0.000    0.000    0.000    0.000    0.000    0.000 
#
# Total GULP energy -134060.164812 kJ/mol
# GULP energy per Si atom -5585.840201 kJ/mol
# Density = 2.002769 g / cm^3
# Si number density = 20.073379 Si / 1000 Ang^3
#
#
#
# Elastic Constant Matrix: (Units=GPa)
#
#
# Indices 1 2 3 4 5 6 
#
# 1 98.6330 37.7065 28.7544 0.0000 0.0000 0.0000
# 2 37.7065 82.4305 40.2583 0.0000 0.0000 0.0000
# 3 28.7544 40.2583 52.3847 0.0000 0.0000 0.0000
# 4 0.0000 0.0000 0.0000 31.6490 0.0000 0.0000
# 5 0.0000 0.0000 0.0000 0.0000 17.5538 0.0000
# 6 0.0000 0.0000 0.0000 0.0000 0.0000 28.6148
#
#
#
# Elastic Compliance Matrix: (Units=1/GPa)
#
#
# Indices 1 2 3 4 5 6 
#
# 1 0.012801 -0.003880 -0.004045 0.000000 0.000000 0.000000
# 2 -0.003880 0.020597 -0.013699 0.000000 0.000000 0.000000
# 3 -0.004045 -0.013699 0.031838 0.000000 0.000000 0.000000
# 4 0.000000 0.000000 0.000000 0.031597 0.000000 0.000000
# 5 0.000000 0.000000 0.000000 0.000000 0.056968 0.000000
# 6 0.000000 0.000000 0.000000 0.000000 0.000000 0.034947
#
#
# Mechanical properties :
#
#
# Convention : Reuss Voigt Hill
#
# Bulk Modulus (GPa) = 45.47999 49.65407 47.56703
# Shear Modulus (GPa) = 20.89219 24.01212 22.45215
#
# Velocity S-wave (km/s) = 3.22963 3.46239 3.34803
# Velocity P-wave (km/s) = 6.05090 6.38547 6.22043
#
# Compressibility (1/GPa) = 0.02198769
#
# Stress axis : x y z
#
# Youngs Moduli (GPa) = 78.11824 48.55097 31.40949
#
# Poissons Ratio (x) = 0.18839 0.12704
# Poissons Ratio (y) = 0.30313 0.43028
# Poissons Ratio (z) = 0.31595 0.66510
#
# Static dielectric constant tensor:
#      x y z
#    x 1.718690 0.000000 0.000000 
#    y 0.000000 1.714550 0.000000 
#    z 0.000000 0.000000 1.709850 
# 
# From -- ./inp_files/15849.got.cif
#   From: 2010.05.17/outbox.cif.g08.bks.cpg/sg46_8_cif.got.tgz:15849.got - 2010.06.03 19:58:25.
