data_PCOD9380179
_publ_section_title
;
Structure prediction by ZEFSAII (Michael W. Deem and Ramdas Pophale) SiO2 
 PCOD9380179
Probable space group: I M A 2
;
_chemical_formula_sum "Si O2"
_cell_formula_units_Z 56
_cell_length_a 29.599682
_cell_length_b 5.055815
_cell_length_c 17.385829
_cell_angle_alpha 90.000000
_cell_angle_beta 90.000000
_cell_angle_gamma 90.000000
_cell_volume 2601.798285
_symmetry_space_group_name_H-M "I M A 2"
_symmetry_group_IT_number 46
_symmetry_cell_setting 'orthorhombic'
loop_
_space_group_symop_operation_xyz
x,y,z
-x,-y,z
1/2-x,y,z
1/2+x,-y,z
1/2+x,1/2+y,1/2+z
1/2-x,1/2-y,1/2+z
-x,1/2+y,1/2+z
x,1/2-y,1/2+z
loop_
_atom_site_type_symbol
_atom_site_label
_atom_site_fract_x
_atom_site_fract_y
_atom_site_fract_z
Si Si1 0.198998 0.582827 0.723180
Si Si2 0.091694 0.418420 0.994382
Si Si3 0.385655 0.332093 0.639076
Si Si4 0.549440 0.477790 0.247745
Si Si5 0.391714 0.922294 0.894940
Si Si6 0.038485 0.794463 0.088085
Si Si7 0.300462 0.083024 0.825188
O O1 0.250000 0.560517 0.690288
O O2 0.158226 0.472015 0.672551
O O3 0.192580 0.882260 0.752719
O O4 0.197840 0.383692 0.796045
O O5 0.123545 0.369443 0.069044
O O6 0.047252 0.542864 0.034645
O O7 0.109063 0.648775 0.939582
O O8 0.084539 0.158927 0.942469
O O9 0.415039 0.546901 0.594012
O O10 0.419434 0.201922 0.703587
O O11 0.500000 0.500000 0.287800
O O12 0.583161 0.377854 0.313571
O O13 0.533777 0.295886 0.176377
O O14 0.341100 0.023185 0.881334
O O15 0.000000 0.000000 0.066224
O O16 0.250000 0.027730 0.854678
#
# Coordination Sequence:
#
# PCOD9380179 Si02
#       7
#     8   8   8   8   8   8   8
#     4  10  21  38  68 102 127 164 222 283 340 390
#     4  11  27  43  64  94 137 183 218 263 346 412
#     4  11  22  45  67  93 131 175 218 281 327 401
#     4  11  24  39  66 101 124 170 228 284 328 388
#     4  12  24  45  64  97 139 175 219 281 338 399
#     4  11  23  44  71  93 132 176 233 269 338 405
#     4  10  21  39  67 100 130 170 218 274 342 402
#
# _framework density 21.523572999999999
#
# number of rings (size 3 to 8) (size 9 to 14) (size 15 to 20)
#    0.000    1.143    4.286    1.714    4.000    0.571 
#    2.571    1.429    0.000    0.857    0.000    0.000 
#    0.000    0.000    0.000    0.000    0.000    0.000 
#
# Total GULP energy -156186.804857 kJ/mol
# GULP energy per Si atom -5578.100173 kJ/mol
# Density = 2.147458 g / cm^3
# Si number density = 21.523573 Si / 1000 Ang^3
#
#
#
# Elastic Constant Matrix: (Units=GPa)
#
#
# Indices 1 2 3 4 5 6 
#
# 1 104.1432 -0.7881 24.2412 0.0000 0.0000 0.0000
# 2 -0.7881 65.7314 11.3356 0.0000 0.0000 0.0000
# 3 24.2412 11.3356 61.9203 0.0000 0.0000 0.0000
# 4 0.0000 0.0000 0.0000 -120.3642 0.0000 0.0000
# 5 0.0000 0.0000 0.0000 0.0000 6.7774 0.0000
# 6 0.0000 0.0000 0.0000 0.0000 0.0000 28.3248
#
#
#
# Elastic Compliance Matrix: (Units=1/GPa)
#
#
# Indices 1 2 3 4 5 6 
#
# 1 0.010613 0.000871 -0.004314 0.000000 0.000000 0.000000
# 2 0.000871 0.015781 -0.003230 0.000000 0.000000 0.000000
# 3 -0.004314 -0.003230 0.018430 0.000000 0.000000 0.000000
# 4 0.000000 0.000000 0.000000 -0.008308 0.000000 0.000000
# 5 0.000000 0.000000 0.000000 0.000000 0.147549 0.000000
# 6 0.000000 0.000000 0.000000 0.000000 0.000000 0.035305
#
#
# Mechanical properties :
#
#
# Convention : Reuss Voigt Hill
#
# Bulk Modulus (GPa) = 31.76851 33.48581 32.62716
# Shear Modulus (GPa) = 20.55844 -3.91866 8.31989
#
# Velocity S-wave (km/s) = 3.09392 -1.35077 1.96822
# Velocity P-wave (km/s) = 5.24929 3.62750 4.51186
#
# Compressibility (1/GPa) = 0.03147771
#
# Stress axis : x y z
#
# Youngs Moduli (GPa) = 94.22396 63.36768 54.25890
#
# Poissons Ratio (x) = -0.05521 0.23409
# Poissons Ratio (y) = -0.08210 0.17526
# Poissons Ratio (z) = 0.40652 0.20468
#
# Static dielectric constant tensor:
#      x y z
#    x 1.806810 0.000000 0.000000 
#    y 0.000000 2.459670 0.000000 
#    z 0.000000 0.000000 1.816670 
# 
# From -- ./inp_files/17704.got.cif
#   From: 2010.05.17/outbox.cif.g08.bks.cpg/sg46_9_cif.got.tgz:17704.got - 2010.06.03 19:58:25.
