data_PCOD9380105
_publ_section_title
;
Structure prediction by ZEFSAII (Michael W. Deem and Ramdas Pophale) SiO2 
 PCOD9380105
Probable space group: I M A 2
;
_chemical_formula_sum "Si O2"
_cell_formula_units_Z 36
_cell_length_a 11.256826
_cell_length_b 24.253318
_cell_length_c 5.549647
_cell_angle_alpha 90.000000
_cell_angle_beta 90.000000
_cell_angle_gamma 90.000000
_cell_volume 1515.138988
_symmetry_space_group_name_H-M "I M A 2"
_symmetry_group_IT_number 46
_symmetry_cell_setting 'orthorhombic'
loop_
_space_group_symop_operation_xyz
x,y,z
-x,-y,z
1/2-x,y,z
1/2+x,-y,z
1/2+x,1/2+y,1/2+z
1/2-x,1/2-y,1/2+z
-x,1/2+y,1/2+z
x,1/2-y,1/2+z
loop_
_atom_site_type_symbol
_atom_site_label
_atom_site_fract_x
_atom_site_fract_y
_atom_site_fract_z
Si Si1 0.998663 0.251855 0.599200
Si Si2 0.750000 0.283099 0.099246
Si Si3 0.750000 0.973149 0.599134
Si Si4 0.250000 0.404799 0.599135
Si Si5 0.384434 0.581705 0.099313
Si Si6 0.014123 0.874314 0.099312
O O1 0.067279 0.250003 0.349204
O O2 0.895584 0.204810 0.599235
O O3 0.938959 0.312254 0.599251
O O4 0.750000 0.250003 0.349253
O O5 0.750000 0.939727 0.848810
O O6 0.859072 0.016192 0.599251
O O7 0.750000 0.939790 0.349298
O O8 0.372018 0.371652 0.599251
O O9 0.250000 0.608970 0.099280
O O10 0.444525 0.596241 0.353238
O O11 0.444570 0.596256 0.845450
#
# Coordination Sequence:
#
# PCOD9380105 Si02
#       6
#     8   4   4   4   8   8
#     4  10  21  38  58  88 125 165 208 260 319 373
#     4   8  16  28  48  76 104 140 182 240 298 356
#     4  10  24  44  65 101 126 163 218 256 339 380
#     4  12  26  42  65  97 126 177 218 264 307 372
#     4  10  24  42  65  98 123 171 202 266 329 387
#     4  12  24  42  66  92 136 167 218 264 313 385
#
# _framework density 23.760193999999998
#
# number of rings (size 3 to 8) (size 9 to 14) (size 15 to 20)
#    0.667    0.889    0.000    4.667    3.111    5.333 
#    4.000    1.111    0.000    0.000    0.000    0.000 
#    0.000    0.000    0.000    0.000    0.000    0.000 
#
# Total GULP energy -100232.844986 kJ/mol
# GULP energy per Si atom -5568.491388 kJ/mol
# Density = 2.370611 g / cm^3
# Si number density = 23.760194 Si / 1000 Ang^3
#
#
#
# Elastic Constant Matrix: (Units=GPa)
#
#
# Indices 1 2 3 4 5 6 
#
# 1 132.2836 14.6961 39.3999 -0.0023 0.0006 0.0011
# 2 14.6961 63.5432 30.6941 -0.0065 0.0002 0.0010
# 3 39.3999 30.6941 279.5751 -0.0123 -0.0043 -0.0068
# 4 -0.0023 -0.0065 -0.0123 19.4285 0.0035 0.0054
# 5 0.0006 0.0002 -0.0043 0.0035 15.7416 -0.0028
# 6 0.0011 0.0010 -0.0068 0.0054 -0.0028 -5.8804
#
#
#
# Elastic Compliance Matrix: (Units=1/GPa)
#
#
# Indices 1 2 3 4 5 6 
#
# 1 0.008004 -0.001379 -0.000976 0.000000 -0.000001 0.000002
# 2 -0.001379 0.016856 -0.001656 0.000004 -0.000001 0.000005
# 3 -0.000976 -0.001656 0.003896 0.000002 0.000001 -0.000005
# 4 0.000000 0.000004 0.000002 0.051471 -0.000011 0.000047
# 5 -0.000001 -0.000001 0.000001 -0.000011 0.063526 -0.000030
# 6 0.000002 0.000005 -0.000005 0.000047 -0.000030 -0.170058
#
#
# Mechanical properties :
#
#
# Convention : Reuss Voigt Hill
#
# Bulk Modulus (GPa) = 48.23439 71.66467 59.94953
# Shear Modulus (GPa) = -439.76013 31.89873 -203.93070
#
# Velocity S-wave (km/s) = -13.61927 3.66803 -9.27443
# Velocity P-wave (km/s) = 15.06546 6.94020 9.45520
#
# Compressibility (1/GPa) = 0.02073209
#
# Stress axis : x y z
#
# Youngs Moduli (GPa) = 124.94382 59.32469 256.65328
#
# Poissons Ratio (x) = 0.08183 0.25062
# Poissons Ratio (y) = 0.17234 0.42508
# Poissons Ratio (z) = 0.12201 0.09826
#
# Static dielectric constant tensor:
#      x y z
#    x 1.944400 0.000000 0.000000 
#    y 0.000000 0.845330 0.000010 
#    z 0.000000 0.000010 1.942210 
# 
# From -- ./inp_files/764.got.cif
#   From: 2010.05.17/outbox.cif.g08.bks.cpg/sg46_1_cif.got.tgz:764.got - 2010.06.03 19:58:25.
