data_PCOD9380315
_publ_section_title
;
Structure prediction by ZEFSAII (Michael W. Deem and Ramdas Pophale) SiO2 
 PCOD9380315
Probable space group: I M A 2
;
_chemical_formula_sum "Si O2"
_cell_formula_units_Z 64
_cell_length_a 16.476256
_cell_length_b 10.478488
_cell_length_c 18.683017
_cell_angle_alpha 90.000000
_cell_angle_beta 90.000000
_cell_angle_gamma 90.000000
_cell_volume 3225.552838
_symmetry_space_group_name_H-M "I M A 2"
_symmetry_group_IT_number 46
_symmetry_cell_setting 'orthorhombic'
loop_
_space_group_symop_operation_xyz
x,y,z
-x,-y,z
1/2-x,y,z
1/2+x,-y,z
1/2+x,1/2+y,1/2+z
1/2-x,1/2-y,1/2+z
-x,1/2+y,1/2+z
x,1/2-y,1/2+z
loop_
_atom_site_type_symbol
_atom_site_label
_atom_site_fract_x
_atom_site_fract_y
_atom_site_fract_z
Si Si1 0.154091 0.172318 0.108870
Si Si2 0.157869 0.469278 0.456441
Si Si3 0.021680 0.644308 0.241672
Si Si4 0.066602 0.731914 0.447273
Si Si5 0.001905 0.346633 0.087766
Si Si6 0.902266 0.530812 0.755086
Si Si7 0.840903 0.276038 0.817865
Si Si8 0.595250 0.748819 0.355500
O O1 0.250000 0.204688 0.117984
O O2 0.093891 0.291706 0.093587
O O3 0.123453 0.096532 0.179968
O O4 0.147326 0.088630 0.036109
O O5 0.250000 0.519825 0.450997
O O6 0.093375 0.583387 0.446687
O O7 0.147895 0.356116 0.397444
O O8 0.097988 0.667165 0.291527
O O9 0.000000 0.500000 0.230815
O O10 0.035906 0.697306 0.163273
O O11 0.943746 0.698296 0.281842
O O12 0.133674 0.803597 0.399581
O O13 0.050327 0.781464 0.526074
O O14 0.982023 0.761362 0.407455
O O15 0.000000 0.500000 0.078212
O O16 0.858814 0.396418 0.767915
O O17 0.875184 0.616175 0.824512
O O18 0.000000 0.500000 0.757550
O O19 0.750000 0.233493 0.812592
#
# Coordination Sequence:
#
# PCOD9380315 Si02
#       8
#     8   8   8   8   8   8   8   8
#     4  11  25  44  66  98 136 173 219 273 334 392
#     4  11  25  41  63  98 134 172 218 275 337 390
#     4  10  21  41  64  92 123 169 220 255 321 395
#     4  11  23  40  66  94 127 171 218 270 325 389
#     4  11  24  43  68  94 128 174 224 264 326 403
#     4  12  23  41  69  99 130 178 227 267 328 404
#     4  11  24  42  66  99 135 166 216 281 331 380
#     4  11  21  38  66  90 125 169 217 263 323 388
#
# _framework density 19.841559
#
# number of rings (size 3 to 8) (size 9 to 14) (size 15 to 20)
#    0.000    1.000    5.000    2.625    5.250    1.000 
#    0.000    5.625    0.000    0.000    0.000    0.000 
#    0.000    0.000    0.000    0.000    0.000    0.000 
#
# Total GULP energy -178399.593160 kJ/mol
# GULP energy per Si atom -5574.987286 kJ/mol
# Density = 1.979640 g / cm^3
# Si number density = 19.841559 Si / 1000 Ang^3
#
#
#
# Elastic Constant Matrix: (Units=GPa)
#
#
# Indices 1 2 3 4 5 6 
#
# 1 85.5715 30.6720 33.1142 0.0000 0.0000 0.0000
# 2 30.6720 78.6260 46.9664 0.0000 0.0000 0.0000
# 3 33.1142 46.9664 149.2189 0.0000 0.0000 0.0000
# 4 0.0000 0.0000 0.0000 45.7088 0.0000 0.0000
# 5 0.0000 0.0000 0.0000 0.0000 21.7018 0.0000
# 6 0.0000 0.0000 0.0000 0.0000 0.0000 13.1349
#
#
#
# Elastic Compliance Matrix: (Units=1/GPa)
#
#
# Indices 1 2 3 4 5 6 
#
# 1 0.013928 -0.004417 -0.001700 0.000000 0.000000 0.000000
# 2 -0.004417 0.017064 -0.004391 0.000000 0.000000 0.000000
# 3 -0.001700 -0.004391 0.008461 0.000000 0.000000 0.000000
# 4 0.000000 0.000000 0.000000 0.021878 0.000000 0.000000
# 5 0.000000 0.000000 0.000000 0.000000 0.046079 0.000000
# 6 0.000000 0.000000 0.000000 0.000000 0.000000 0.076133
#
#
# Mechanical properties :
#
#
# Convention : Reuss Voigt Hill
#
# Bulk Modulus (GPa) = 54.24226 59.43573 56.83899
# Shear Modulus (GPa) = 23.72991 29.62004 26.67497
#
# Velocity S-wave (km/s) = 3.46203 3.86791 3.67058
# Velocity P-wave (km/s) = 6.58619 7.06879 6.83175
#
# Compressibility (1/GPa) = 0.01843581
#
# Stress axis : x y z
#
# Youngs Moduli (GPa) = 71.80037 58.60151 118.19121
#
# Poissons Ratio (x) = 0.25887 0.20097
# Poissons Ratio (y) = 0.31717 0.51894
# Poissons Ratio (z) = 0.12209 0.25730
#
# Static dielectric constant tensor:
#      x y z
#    x 1.703040 0.000000 0.000000 
#    y 0.000000 1.414670 0.000000 
#    z 0.000000 0.000000 1.731040 
# 
# From -- ./inp_files/19662.got.cif
#   From: 2010.05.17/outbox.cif.g08.bks.cpg/sg46_10_cif.got.tgz:19662.got - 2010.06.03 19:58:25.
