data_PCOD9380754
_publ_section_title
;
Structure prediction by ZEFSAII (Michael W. Deem and Ramdas Pophale) SiO2 
 PCOD9380754
Probable space group: I M A 2
;
_chemical_formula_sum "Si O2"
_cell_formula_units_Z 40
_cell_length_a 18.233619
_cell_length_b 9.162093
_cell_length_c 10.545718
_cell_angle_alpha 90.000000
_cell_angle_beta 90.000000
_cell_angle_gamma 90.000000
_cell_volume 1761.747749
_symmetry_space_group_name_H-M "I M A 2"
_symmetry_group_IT_number 46
_symmetry_cell_setting 'orthorhombic'
loop_
_space_group_symop_operation_xyz
x,y,z
-x,-y,z
1/2-x,y,z
1/2+x,-y,z
1/2+x,1/2+y,1/2+z
1/2-x,1/2-y,1/2+z
-x,1/2+y,1/2+z
x,1/2-y,1/2+z
loop_
_atom_site_type_symbol
_atom_site_label
_atom_site_fract_x
_atom_site_fract_y
_atom_site_fract_z
Si Si1 0.892412 0.196249 0.056060
Si Si2 0.828571 0.027910 0.662358
Si Si3 0.567410 0.397394 0.820240
Si Si4 0.665582 0.854788 0.402984
Si Si5 0.416454 0.051919 0.897083
O O1 0.832654 0.308884 0.107684
O O2 0.942331 0.169943 0.180454
O O3 0.924304 0.281265 0.933262
O O4 0.870720 0.039338 0.001504
O O5 0.750000 0.006231 0.726771
O O6 0.835038 0.917133 0.546013
O O7 0.893753 0.004379 0.759077
O O8 0.500000 0.500000 0.852445
O O9 0.637041 0.507295 0.820927
O O10 0.750000 0.815920 0.370960
O O11 0.609306 0.719462 0.397143
O O12 0.500000 0.000000 0.922681
#
# Coordination Sequence:
#
# PCOD9380754 Si02
#       5
#     8   8   8   8   8
#     4  11  24  46  68 106 137 191 240 295 355 432
#     4  10  24  46  70 100 141 186 238 297 361 429
#     4  11  24  46  73 103 146 189 242 301 366 434
#     4  10  25  46  70 104 144 190 241 302 369 437
#     4  12  25  42  72 105 140 185 239 297 364 434
#
# _framework density 22.704727999999999
#
# number of rings (size 3 to 8) (size 9 to 14) (size 15 to 20)
#    0.000    1.200    2.000    2.400    2.800    7.200 
#    0.000    0.000    0.000    0.000    0.000    0.000 
#    0.000    0.000    0.000    0.000    0.000    0.000 
#
# Total GULP energy -111645.623966 kJ/mol
# GULP energy per Si atom -5582.281198 kJ/mol
# Density = 2.265305 g / cm^3
# Si number density = 22.704728 Si / 1000 Ang^3
#
#
#
# Elastic Constant Matrix: (Units=GPa)
#
#
# Indices 1 2 3 4 5 6 
#
# 1 79.0517 35.9889 7.2498 0.0000 0.0000 0.0000
# 2 35.9889 125.6010 30.1992 0.0000 0.0000 0.0000
# 3 7.2498 30.1992 103.1003 0.0000 0.0000 0.0000
# 4 0.0000 0.0000 0.0000 27.4779 0.0000 0.0000
# 5 0.0000 0.0000 0.0000 0.0000 14.6357 0.0000
# 6 0.0000 0.0000 0.0000 0.0000 0.0000 12.9501
#
#
#
# Elastic Compliance Matrix: (Units=1/GPa)
#
#
# Indices 1 2 3 4 5 6 
#
# 1 0.014552 -0.004221 0.000213 0.000000 0.000000 0.000000
# 2 -0.004221 0.009789 -0.002571 0.000000 0.000000 0.000000
# 3 0.000213 -0.002571 0.010437 0.000000 0.000000 0.000000
# 4 0.000000 0.000000 0.000000 0.036393 0.000000 0.000000
# 5 0.000000 0.000000 0.000000 0.000000 0.068326 0.000000
# 6 0.000000 0.000000 0.000000 0.000000 0.000000 0.077219
#
#
# Mechanical properties :
#
#
# Convention : Reuss Voigt Hill
#
# Bulk Modulus (GPa) = 46.24974 50.51430 48.38202
# Shear Modulus (GPa) = 21.08987 26.63376 23.86181
#
# Velocity S-wave (km/s) = 3.05105 3.42870 3.24537
# Velocity P-wave (km/s) = 5.72942 6.16208 5.94968
#
# Compressibility (1/GPa) = 0.02162174
#
# Stress axis : x y z
#
# Youngs Moduli (GPa) = 68.71908 102.15334 95.81066
#
# Poissons Ratio (x) = 0.43118 -0.02041
# Poissons Ratio (y) = 0.29005 0.24629
# Poissons Ratio (z) = -0.01464 0.26259
#
# Static dielectric constant tensor:
#      x y z
#    x 1.870560 0.000000 0.000000 
#    y 0.000000 1.875950 0.000000 
#    z 0.000000 0.000000 1.814240 
# 
# From -- ./inp_files/11588.got.cif
#   From: 2010.05.17/outbox.cif.g08.bks.cpg/sg46_6_cif.got.tgz:11588.got - 2010.06.03 19:58:25.
