data_PCOD9380355
_publ_section_title
;
Structure prediction by ZEFSAII (Michael W. Deem and Ramdas Pophale) SiO2 
 PCOD9380355
Probable space group: I M A 2
;
_chemical_formula_sum "Si O2"
_cell_formula_units_Z 48
_cell_length_a 16.948005
_cell_length_b 9.871999
_cell_length_c 14.132772
_cell_angle_alpha 90.000000
_cell_angle_beta 90.000000
_cell_angle_gamma 90.000000
_cell_volume 2364.563812
_symmetry_space_group_name_H-M "I M A 2"
_symmetry_group_IT_number 46
_symmetry_cell_setting 'orthorhombic'
loop_
_space_group_symop_operation_xyz
x,y,z
-x,-y,z
1/2-x,y,z
1/2+x,-y,z
1/2+x,1/2+y,1/2+z
1/2-x,1/2-y,1/2+z
-x,1/2+y,1/2+z
x,1/2-y,1/2+z
loop_
_atom_site_type_symbol
_atom_site_label
_atom_site_fract_x
_atom_site_fract_y
_atom_site_fract_z
Si Si1 0.407361 0.022984 0.816840
Si Si2 0.342119 0.718113 0.831363
Si Si3 0.414275 0.931840 0.507106
Si Si4 0.342132 0.154147 0.626991
Si Si5 0.842970 0.309281 0.614482
Si Si6 0.844510 0.591645 0.512460
O O1 0.365056 0.876623 0.825750
O O2 0.500000 0.000000 0.817285
O O3 0.383580 0.096697 0.720136
O O4 0.382909 0.106252 0.909939
O O5 0.250000 0.709126 0.858468
O O6 0.351990 0.662306 0.725374
O O7 0.392517 0.635138 0.907127
O O8 0.400095 0.810735 0.581917
O O9 0.500000 0.000000 0.509206
O O10 0.354853 0.048365 0.541752
O O11 0.250000 0.166614 0.649591
O O12 0.372544 0.297180 0.587753
O O13 0.750000 0.270080 0.600171
O O14 0.859170 0.441909 0.552795
O O15 0.750000 0.607366 0.502498
#
# Coordination Sequence:
#
# PCOD9380355 Si02
#       6
#     8   8   8   8   8   8
#     4  12  25  42  67 100 139 180 230 286 353 410
#     4  11  23  43  73  99 132 187 241 280 335 427
#     4  12  25  41  66 101 141 171 228 293 351 403
#     4  11  24  43  69  98 135 181 228 286 347 414
#     4  10  21  42  70  99 128 179 236 277 330 418
#     4  10  23  43  69  98 134 177 230 279 340 416
#
# _framework density 20.299727000000001
#
# number of rings (size 3 to 8) (size 9 to 14) (size 15 to 20)
#    0.000    1.000    3.333    3.500    2.333    1.333 
#    0.000    3.333    0.000    0.000    0.000    0.000 
#    0.000    0.000    0.000    0.000    0.000    0.000 
#
# Total GULP energy -134222.096646 kJ/mol
# GULP energy per Si atom -5592.587360 kJ/mol
# Density = 2.025352 g / cm^3
# Si number density = 20.299727 Si / 1000 Ang^3
#
#
#
# Elastic Constant Matrix: (Units=GPa)
#
#
# Indices 1 2 3 4 5 6 
#
# 1 65.4160 43.5108 44.8940 0.0000 0.0000 0.0000
# 2 43.5108 90.3115 39.7037 0.0000 0.0000 0.0000
# 3 44.8940 39.7037 128.9937 0.0000 0.0000 0.0000
# 4 0.0000 0.0000 0.0000 43.8520 0.0000 0.0000
# 5 0.0000 0.0000 0.0000 0.0000 67.7525 0.0000
# 6 0.0000 0.0000 0.0000 0.0000 0.0000 -3.3406
#
#
#
# Elastic Compliance Matrix: (Units=1/GPa)
#
#
# Indices 1 2 3 4 5 6 
#
# 1 0.025973 -0.009876 -0.006000 0.000000 0.000000 0.000000
# 2 -0.009876 0.016561 -0.001660 0.000000 0.000000 0.000000
# 3 -0.006000 -0.001660 0.010351 0.000000 0.000000 0.000000
# 4 0.000000 0.000000 0.000000 0.022804 0.000000 0.000000
# 5 0.000000 0.000000 0.000000 0.000000 0.014760 0.000000
# 6 0.000000 0.000000 0.000000 0.000000 0.000000 -0.299349
#
#
# Mechanical properties :
#
#
# Convention : Reuss Voigt Hill
#
# Bulk Modulus (GPa) = 56.13657 60.10424 58.12040
# Shear Modulus (GPa) = -29.78128 32.09364 1.15618
#
# Velocity S-wave (km/s) = -3.83440 3.98048 0.75551
# Velocity P-wave (km/s) = 2.84787 7.12729 5.42718
#
# Compressibility (1/GPa) = 0.01781370
#
# Stress axis : x y z
#
# Youngs Moduli (GPa) = 38.50128 60.38398 96.60493
#
# Poissons Ratio (x) = 0.59634 0.57961
# Poissons Ratio (y) = 0.38023 0.16038
# Poissons Ratio (z) = 0.23100 0.10025
#
# Static dielectric constant tensor:
#      x y z
#    x 1.708410 0.000000 0.000000 
#    y 0.000000 1.724750 0.000000 
#    z 0.000000 0.000000 1.717600 
# 
# From -- ./inp_files/16518.got.cif
#   From: 2010.05.17/outbox.cif.g08.bks.cpg/sg46_9_cif.got.tgz:16518.got - 2010.06.03 19:58:25.
