data_PCOD9380661
_publ_section_title
;
Structure prediction by ZEFSAII (Michael W. Deem and Ramdas Pophale) SiO2 
 PCOD9380661
Probable space group: I M A 2
;
_chemical_formula_sum "Si O2"
_cell_formula_units_Z 56
_cell_length_a 8.877791
_cell_length_b 21.085214
_cell_length_c 15.387074
_cell_angle_alpha 90.000000
_cell_angle_beta 90.000000
_cell_angle_gamma 90.000000
_cell_volume 2880.308276
_symmetry_space_group_name_H-M "I M A 2"
_symmetry_group_IT_number 46
_symmetry_cell_setting 'orthorhombic'
loop_
_space_group_symop_operation_xyz
x,y,z
-x,-y,z
1/2-x,y,z
1/2+x,-y,z
1/2+x,1/2+y,1/2+z
1/2-x,1/2-y,1/2+z
-x,1/2+y,1/2+z
x,1/2-y,1/2+z
loop_
_atom_site_type_symbol
_atom_site_label
_atom_site_fract_x
_atom_site_fract_y
_atom_site_fract_z
Si Si1 0.420212 0.271790 0.951070
Si Si2 0.429890 0.795955 0.635768
Si Si3 0.920198 0.628021 0.398325
Si Si4 0.576336 0.440989 0.535421
Si Si5 0.432111 0.929814 0.724890
Si Si6 0.573806 0.308804 0.783561
Si Si7 0.073115 0.436644 0.722383
O O1 0.250000 0.299677 0.948960
O O2 0.405934 0.203143 0.905495
O O3 0.540333 0.301710 0.885549
O O4 0.479567 0.273868 0.050125
O O5 0.250000 0.789101 0.620776
O O6 0.457863 0.870547 0.658287
O O7 0.466165 0.750776 0.719655
O O8 0.750000 0.602582 0.415600
O O9 0.042250 0.616200 0.473318
O O10 0.986372 0.596470 0.311869
O O11 0.500000 0.500000 0.486619
O O12 0.750000 0.450680 0.553592
O O13 0.484519 0.434275 0.623337
O O14 0.250000 0.935144 0.737153
O O15 0.500000 0.000000 0.703746
O O16 0.750000 0.320630 0.768453
O O17 0.479280 0.370291 0.759143
O O18 0.250000 0.443493 0.725315
O O19 0.000000 0.500000 0.762436
#
# Coordination Sequence:
#
# PCOD9380661 Si02
#       7
#     8   8   8   8   8   8   8
#     4  11  24  39  62  93 124 160 208 264 320 379
#     4  10  23  42  65  92 126 169 215 263 324 389
#     4  11  22  37  57  87 122 160 203 258 318 380
#     4  11  21  34  53  80 116 157 199 244 300 367
#     4  11  23  41  63  91 125 170 217 269 327 390
#     4  11  22  41  66  92 124 163 208 261 316 379
#     4  11  22  38  59  87 122 160 204 252 310 376
#
# _framework density 19.442364999999999
#
# number of rings (size 3 to 8) (size 9 to 14) (size 15 to 20)
#    0.000    1.143    1.429    6.429    0.000    6.286 
#    0.000    0.714    0.000    1.714    0.000    0.000 
#    0.000    0.000    0.000    0.000    0.000    0.000 
#
# Total GULP energy -156037.094528 kJ/mol
# GULP energy per Si atom -5572.753376 kJ/mol
# Density = 1.939811 g / cm^3
# Si number density = 19.442365 Si / 1000 Ang^3
#
#
#
# Elastic Constant Matrix: (Units=GPa)
#
#
# Indices 1 2 3 4 5 6 
#
# 1 136.4399 49.0252 32.3848 0.0000 0.0000 0.0000
# 2 49.0252 73.0495 4.8317 0.0000 0.0000 0.0000
# 3 32.3848 4.8317 64.9654 0.0000 0.0000 0.0000
# 4 0.0000 0.0000 0.0000 25.7803 0.0000 0.0000
# 5 0.0000 0.0000 0.0000 0.0000 27.2086 0.0000
# 6 0.0000 0.0000 0.0000 0.0000 0.0000 33.4935
#
#
#
# Elastic Compliance Matrix: (Units=1/GPa)
#
#
# Indices 1 2 3 4 5 6 
#
# 1 0.011062 -0.007094 -0.004987 0.000000 0.000000 0.000000
# 2 -0.007094 0.018306 0.002175 0.000000 0.000000 0.000000
# 3 -0.004987 0.002175 0.017717 0.000000 0.000000 0.000000
# 4 0.000000 0.000000 0.000000 0.038789 0.000000 0.000000
# 5 0.000000 0.000000 0.000000 0.000000 0.036753 0.000000
# 6 0.000000 0.000000 0.000000 0.000000 0.000000 0.029857
#
#
# Mechanical properties :
#
#
# Convention : Reuss Voigt Hill
#
# Bulk Modulus (GPa) = 36.66566 49.65979 43.16273
# Shear Modulus (GPa) = 27.56536 29.84401 28.70468
#
# Velocity S-wave (km/s) = 3.76945 3.92216 3.84656
# Velocity P-wave (km/s) = 6.15180 6.79033 6.47893
#
# Compressibility (1/GPa) = 0.02727348
#
# Stress axis : x y z
#
# Youngs Moduli (GPa) = 90.40077 54.62547 56.44332
#
# Poissons Ratio (x) = 0.38752 0.28146
# Poissons Ratio (y) = 0.64131 -0.12275
# Poissons Ratio (z) = 0.45080 -0.11880
#
# Static dielectric constant tensor:
#      x y z
#    x 1.701160 0.000000 0.000000 
#    y 0.000000 1.814730 0.000000 
#    z 0.000000 0.000000 1.703550 
# 
# From -- ./inp_files/14151.got.cif
#   From: 2010.05.17/outbox.cif.g08.bks.cpg/sg46_8_cif.got.tgz:14151.got - 2010.06.03 19:58:25.
