data_PCOD9380362
_publ_section_title
;
Structure prediction by ZEFSAII (Michael W. Deem and Ramdas Pophale) SiO2 
 PCOD9380362
Probable space group: I M A 2
;
_chemical_formula_sum "Si O2"
_cell_formula_units_Z 40
_cell_length_a 14.517860
_cell_length_b 6.334036
_cell_length_c 21.379523
_cell_angle_alpha 90.000000
_cell_angle_beta 90.000000
_cell_angle_gamma 90.000000
_cell_volume 1965.989268
_symmetry_space_group_name_H-M "I M A 2"
_symmetry_group_IT_number 46
_symmetry_cell_setting 'orthorhombic'
loop_
_space_group_symop_operation_xyz
x,y,z
-x,-y,z
1/2-x,y,z
1/2+x,-y,z
1/2+x,1/2+y,1/2+z
1/2-x,1/2-y,1/2+z
-x,1/2+y,1/2+z
x,1/2-y,1/2+z
loop_
_atom_site_type_symbol
_atom_site_label
_atom_site_fract_x
_atom_site_fract_y
_atom_site_fract_z
Si Si1 0.250000 0.845199 0.260761
Si Si2 0.750000 0.629847 0.214499
Si Si3 0.586822 0.873007 0.931468
Si Si4 0.750000 0.826496 0.351167
Si Si5 0.647264 0.176962 0.044223
Si Si6 0.107411 0.059317 0.171257
Si Si7 0.000000 0.500000 0.013230
O O1 0.250000 0.606451 0.237733
O O2 0.250000 0.920557 0.333959
O O3 0.159351 0.932801 0.225883
O O4 0.750000 0.745546 0.280994
O O5 0.843054 0.710536 0.179122
O O6 0.661848 0.771881 0.885753
O O7 0.549333 0.674421 0.970618
O O8 0.500000 0.000000 0.901715
O O9 0.627929 0.039635 0.981798
O O10 0.750000 0.264468 0.041344
O O11 0.637158 0.024841 0.103426
O O12 0.574292 0.364852 0.050854
O O13 0.000000 0.000000 0.176676
#
# Coordination Sequence:
#
# PCOD9380362 Si02
#       7
#     4   4   8   4   8   8   4
#     4  10  24  41  61  94 123 167 223 268 333 375
#     4  10  24  45  62  91 126 168 221 266 333 383
#     4  10  22  41  64  95 128 171 216 265 330 394
#     4  10  22  44  61  89 125 167 220 276 314 390
#     4  11  21  40  65  94 136 173 208 266 328 397
#     4  10  21  43  64  92 129 165 212 274 317 397
#     4  10  24  36  58 104 126 164 224 260 328 390
#
# _framework density 20.345991000000001
#
# number of rings (size 3 to 8) (size 9 to 14) (size 15 to 20)
#    0.000    2.000    3.000    1.800    1.400    7.200 
#   14.400    0.000    0.000    0.000    0.000    0.000 
#    0.000    0.000    0.000    0.000    0.000    0.000 
#
# Total GULP energy -111397.770138 kJ/mol
# GULP energy per Si atom -5569.888507 kJ/mol
# Density = 2.029968 g / cm^3
# Si number density = 20.345991 Si / 1000 Ang^3
#
#
#
# Elastic Constant Matrix: (Units=GPa)
#
#
# Indices 1 2 3 4 5 6 
#
# 1 167.2361 48.5173 57.6755 0.0000 0.0000 0.0000
# 2 48.5173 116.2347 33.5540 0.0000 0.0000 0.0000
# 3 57.6755 33.5540 81.9349 0.0000 0.0000 0.0000
# 4 0.0000 0.0000 0.0000 33.1520 0.0000 0.0000
# 5 0.0000 0.0000 0.0000 0.0000 44.3762 0.0000
# 6 0.0000 0.0000 0.0000 0.0000 0.0000 39.1442
#
#
#
# Elastic Compliance Matrix: (Units=1/GPa)
#
#
# Indices 1 2 3 4 5 6 
#
# 1 0.008293 -0.002014 -0.005012 0.000000 0.000000 0.000000
# 2 -0.002014 0.010246 -0.002778 0.000000 0.000000 0.000000
# 3 -0.005012 -0.002778 0.016871 0.000000 0.000000 0.000000
# 4 0.000000 0.000000 0.000000 0.030164 0.000000 0.000000
# 5 0.000000 0.000000 0.000000 0.000000 0.022535 0.000000
# 6 0.000000 0.000000 0.000000 0.000000 0.000000 0.025547
#
#
# Mechanical properties :
#
#
# Convention : Reuss Voigt Hill
#
# Bulk Modulus (GPa) = 63.29174 71.65547 67.47361
# Shear Modulus (GPa) = 36.09305 38.37842 37.23573
#
# Velocity S-wave (km/s) = 4.21641 4.34785 4.28264
# Velocity P-wave (km/s) = 7.40807 7.77818 7.59538
#
# Compressibility (1/GPa) = 0.01579985
#
# Stress axis : x y z
#
# Youngs Moduli (GPa) = 120.58900 97.59844 59.27426
#
# Poissons Ratio (x) = 0.19661 0.29710
# Poissons Ratio (y) = 0.24292 0.16466
# Poissons Ratio (z) = 0.60444 0.27112
#
# Static dielectric constant tensor:
#      x y z
#    x 1.761050 0.000000 0.000000 
#    y 0.000000 1.979760 0.000000 
#    z 0.000000 0.000000 1.703060 
# 
# From -- ./inp_files/23574.got.cif
#   From: 2010.05.17/outbox.cif.g08.bks.cpg/sg46_12_cif.got.tgz:23574.got - 2010.06.03 19:58:25.
