data_PCOD9380410
_publ_section_title
;
Structure prediction by ZEFSAII (Michael W. Deem and Ramdas Pophale) SiO2 
 PCOD9380410
Probable space group: I M A 2
;
_chemical_formula_sum "Si O2"
_cell_formula_units_Z 64
_cell_length_a 8.758758
_cell_length_b 15.816508
_cell_length_c 24.251665
_cell_angle_alpha 90.000000
_cell_angle_beta 90.000000
_cell_angle_gamma 90.000000
_cell_volume 3359.655082
_symmetry_space_group_name_H-M "I M A 2"
_symmetry_group_IT_number 46
_symmetry_cell_setting 'orthorhombic'
loop_
_space_group_symop_operation_xyz
x,y,z
-x,-y,z
1/2-x,y,z
1/2+x,-y,z
1/2+x,1/2+y,1/2+z
1/2-x,1/2-y,1/2+z
-x,1/2+y,1/2+z
x,1/2-y,1/2+z
loop_
_atom_site_type_symbol
_atom_site_label
_atom_site_fract_x
_atom_site_fract_y
_atom_site_fract_z
Si Si1 0.066406 0.409870 0.432640
Si Si2 0.066555 0.842818 0.552967
Si Si3 0.568264 0.088532 0.167353
Si Si4 0.066317 0.346503 0.554033
Si Si5 0.433653 0.255184 0.734419
Si Si6 0.432408 0.591027 0.931555
Si Si7 0.932851 0.588162 0.165138
Si Si8 0.065792 0.253695 0.863191
O O1 0.250000 0.413871 0.430264
O O2 0.023406 0.388769 0.495860
O O3 0.016121 0.331728 0.394519
O O4 0.000000 0.500000 0.415951
O O5 0.250000 0.837241 0.557040
O O6 0.026249 0.885934 0.494817
O O7 0.995350 0.749195 0.554317
O O8 0.001146 0.893552 0.604782
O O9 0.750000 0.084219 0.165811
O O10 0.504058 0.105683 0.106058
O O11 0.513732 0.166581 0.204593
O O12 0.500000 0.000000 0.187848
O O13 0.250000 0.345437 0.558767
O O14 0.250000 0.266111 0.729537
O O15 0.473113 0.168001 0.703476
O O16 0.473458 0.251067 0.798771
O O17 0.500000 0.500000 0.916966
O O18 0.250000 0.588456 0.927742
O O19 0.495731 0.665189 0.893045
O O20 0.750000 0.582854 0.161660
O O21 0.000000 0.500000 0.186261
O O22 0.250000 0.258599 0.867832
#
# Coordination Sequence:
#
# PCOD9380410 Si02
#       8
#     8   8   8   8   8   8   8   8
#     4  10  22  38  61  91 123 161 200 245 299 357
#     4  11  22  37  61  93 125 160 201 247 305 368
#     4  12  25  41  64  92 125 161 204 250 305 367
#     4  11  21  37  62  92 126 162 200 245 305 364
#     4  10  23  43  65  88 119 161 208 256 306 360
#     4  11  24  40  62  92 124 160 202 249 304 365
#     4  11  23  39  62  91 125 162 203 250 304 363
#     4  10  22  43  65  87 119 161 208 255 305 359
#
# _framework density 19.049575000000001
#
# number of rings (size 3 to 8) (size 9 to 14) (size 15 to 20)
#    0.000    1.250    2.500    3.375    0.000    7.000 
#    0.000    0.000    0.000    0.000    0.000    0.000 
#    0.000    0.000    0.000    0.000    0.000    0.000 
#
# Total GULP energy -178980.983622 kJ/mol
# GULP energy per Si atom -5593.155738 kJ/mol
# Density = 1.900622 g / cm^3
# Si number density = 19.049575 Si / 1000 Ang^3
#
#
#
# Elastic Constant Matrix: (Units=GPa)
#
#
# Indices 1 2 3 4 5 6 
#
# 1 56.1907 59.4426 56.6861 0.0000 0.0000 0.0000
# 2 59.4426 192.5740 81.5307 0.0000 0.0000 0.0000
# 3 56.6861 81.5307 142.5900 0.0000 0.0000 0.0000
# 4 0.0000 0.0000 0.0000 -4.6884 0.0000 0.0000
# 5 0.0000 0.0000 0.0000 0.0000 1.2125 0.0000
# 6 0.0000 0.0000 0.0000 0.0000 0.0000 37.3188
#
#
#
# Elastic Compliance Matrix: (Units=1/GPa)
#
#
# Indices 1 2 3 4 5 6 
#
# 1 0.034905 -0.006464 -0.010180 0.000000 0.000000 0.000000
# 2 -0.006464 0.008049 -0.002032 0.000000 0.000000 0.000000
# 3 -0.010180 -0.002032 0.012222 0.000000 0.000000 0.000000
# 4 0.000000 0.000000 0.000000 -0.213291 0.000000 0.000000
# 5 0.000000 0.000000 0.000000 0.000000 0.824736 0.000000
# 6 0.000000 0.000000 0.000000 0.000000 0.000000 0.026796
#
#
# Mechanical properties :
#
#
# Convention : Reuss Voigt Hill
#
# Bulk Modulus (GPa) = 56.10920 87.40818 71.75869
# Shear Modulus (GPa) = 6.78692 19.68158 13.23425
#
# Velocity S-wave (km/s) = 1.88958 3.21779 2.63863
# Velocity P-wave (km/s) = 5.85482 7.73239 6.85816
#
# Compressibility (1/GPa) = 0.01782239
#
# Stress axis : x y z
#
# Youngs Moduli (GPa) = 28.64939 124.24648 81.81854
#
# Poissons Ratio (x) = 0.80315 0.83292
# Poissons Ratio (y) = 0.18520 0.16627
# Poissons Ratio (z) = 0.29165 0.25249
#
# Static dielectric constant tensor:
#      x y z
#    x 1.639020 0.000000 0.000000 
#    y 0.000000 1.646710 0.000000 
#    z 0.000000 0.000000 1.644780 
# 
# From -- ./inp_files/23138.got.cif
#   From: 2010.05.17/outbox.cif.g08.bks.cpg/sg46_12_cif.got.tgz:23138.got - 2010.06.03 19:58:25.
