data_PCOD9380879
_publ_section_title
;
Structure prediction by ZEFSAII (Michael W. Deem and Ramdas Pophale) SiO2 
 PCOD9380879
Probable space group: I M A 2
;
_chemical_formula_sum "Si O2"
_cell_formula_units_Z 32
_cell_length_a 8.089605
_cell_length_b 15.241865
_cell_length_c 13.475094
_cell_angle_alpha 90.000000
_cell_angle_beta 90.000000
_cell_angle_gamma 90.000000
_cell_volume 1661.488082
_symmetry_space_group_name_H-M "I M A 2"
_symmetry_group_IT_number 46
_symmetry_cell_setting 'orthorhombic'
loop_
_space_group_symop_operation_xyz
x,y,z
-x,-y,z
1/2-x,y,z
1/2+x,-y,z
1/2+x,1/2+y,1/2+z
1/2-x,1/2-y,1/2+z
-x,1/2+y,1/2+z
x,1/2-y,1/2+z
loop_
_atom_site_type_symbol
_atom_site_label
_atom_site_fract_x
_atom_site_fract_y
_atom_site_fract_z
Si Si1 0.938183 0.904653 0.742520
Si Si2 0.000000 0.500000 0.633732
Si Si3 0.750000 0.123407 0.239208
Si Si4 0.069118 0.146935 0.968009
Si Si5 0.250000 0.726112 0.947941
Si Si6 0.250000 0.691820 0.156193
O O1 0.750000 0.885996 0.708377
O O2 0.933866 0.901779 0.861962
O O3 0.082090 0.839513 0.708127
O O4 0.000000 0.000000 0.709750
O O5 0.101919 0.559877 0.709715
O O6 0.061672 0.425093 0.555762
O O7 0.750000 0.171200 0.345805
O O8 0.750000 0.203614 0.162075
O O9 0.250000 0.192002 0.975984
O O10 0.914120 0.213229 0.960405
O O11 0.250000 0.662471 0.042620
#
# Coordination Sequence:
#
# PCOD9380879 Si02
#       6
#     8   4   4   8   4   4
#     4  11  22  38  67 104 137 172 232 305 355 419
#     4  12  22  44  70 104 146 190 238 304 362 426
#     4  12  26  46  70 103 146 190 243 303 364 430
#     4  11  22  37  71 105 128 175 234 290 355 419
#     4  12  26  48  66  96 144 182 235 298 357 430
#     4  12  24  44  70  95 138 192 236 301 357 436
#
# _framework density 19.259844000000001
#
# number of rings (size 3 to 8) (size 9 to 14) (size 15 to 20)
#    0.000    0.500    8.750    0.000    0.000    1.000 
#    6.750    0.000    0.000    0.000    0.000    0.000 
#    0.000    0.000    0.000    0.000    0.000    0.000 
#
# Total GULP energy -89081.617722 kJ/mol
# GULP energy per Si atom -5567.601108 kJ/mol
# Density = 1.921601 g / cm^3
# Si number density = 19.259844 Si / 1000 Ang^3
#
#
#
# Elastic Constant Matrix: (Units=GPa)
#
#
# Indices 1 2 3 4 5 6 
#
# 1 192.0670 76.9810 51.6223 0.0000 0.0000 0.0000
# 2 76.9810 106.3145 33.0288 0.0000 0.0000 0.0000
# 3 51.6223 33.0288 120.2278 0.0000 0.0000 0.0000
# 4 0.0000 0.0000 0.0000 37.6580 0.0000 0.0000
# 5 0.0000 0.0000 0.0000 0.0000 83.3899 0.0000
# 6 0.0000 0.0000 0.0000 0.0000 0.0000 28.5910
#
#
#
# Elastic Compliance Matrix: (Units=1/GPa)
#
#
# Indices 1 2 3 4 5 6 
#
# 1 0.007731 -0.004993 -0.001948 0.000000 0.000000 0.000000
# 2 -0.004993 0.013508 -0.001567 0.000000 0.000000 0.000000
# 3 -0.001948 -0.001567 0.009584 0.000000 0.000000 0.000000
# 4 0.000000 0.000000 0.000000 0.026555 0.000000 0.000000
# 5 0.000000 0.000000 0.000000 0.000000 0.011992 0.000000
# 6 0.000000 0.000000 0.000000 0.000000 0.000000 0.034976
#
#
# Mechanical properties :
#
#
# Convention : Reuss Voigt Hill
#
# Bulk Modulus (GPa) = 72.42210 82.43039 77.42624
# Shear Modulus (GPa) = 39.69348 47.05960 43.37654
#
# Velocity S-wave (km/s) = 4.54469 4.94844 4.75086
# Velocity P-wave (km/s) = 8.07609 8.69146 8.38942
#
# Compressibility (1/GPa) = 0.01380794
#
# Stress axis : x y z
#
# Youngs Moduli (GPa) = 129.34516 74.02882 104.33569
#
# Poissons Ratio (x) = 0.36962 0.20324
# Poissons Ratio (y) = 0.64581 0.16351
# Poissons Ratio (z) = 0.25195 0.11601
#
# Static dielectric constant tensor:
#      x y z
#    x 1.530670 0.000000 0.000000 
#    y 0.000000 1.651900 0.000000 
#    z 0.000000 0.000000 1.678960 
# 
# From -- ./inp_files/8970.got.cif
#   From: 2010.05.17/outbox.cif.g08.bks.cpg/sg46_5_cif.got.tgz:8970.got - 2010.06.03 19:58:25.
