data_PCOD9380829
_publ_section_title
;
Structure prediction by ZEFSAII (Michael W. Deem and Ramdas Pophale) SiO2 
 PCOD9380829
Probable space group: I M A 2
;
_chemical_formula_sum "Si O2"
_cell_formula_units_Z 48
_cell_length_a 8.583724
_cell_length_b 14.192107
_cell_length_c 24.615872
_cell_angle_alpha 90.000000
_cell_angle_beta 90.000000
_cell_angle_gamma 90.000000
_cell_volume 2998.733330
_symmetry_space_group_name_H-M "I M A 2"
_symmetry_group_IT_number 46
_symmetry_cell_setting 'orthorhombic'
loop_
_space_group_symop_operation_xyz
x,y,z
-x,-y,z
1/2-x,y,z
1/2+x,-y,z
1/2+x,1/2+y,1/2+z
1/2-x,1/2-y,1/2+z
-x,1/2+y,1/2+z
x,1/2-y,1/2+z
loop_
_atom_site_type_symbol
_atom_site_label
_atom_site_fract_x
_atom_site_fract_y
_atom_site_fract_z
Si Si1 0.438227 0.604913 0.550580
Si Si2 0.437021 0.896111 0.261307
Si Si3 0.561565 0.280279 0.654720
Si Si4 0.438731 0.710869 0.320968
Si Si5 0.561820 0.104814 0.927607
Si Si6 0.064591 0.396054 0.216106
O O1 0.500000 0.500000 0.562333
O O2 0.250000 0.601508 0.551765
O O3 0.488439 0.677728 0.596958
O O4 0.487342 0.630161 0.489059
O O5 0.250000 0.900250 0.262307
O O6 0.482787 0.854107 0.202380
O O7 0.487537 0.816638 0.304644
O O8 0.500000 0.000000 0.270334
O O9 0.750000 0.272265 0.655513
O O10 0.491822 0.180215 0.671825
O O11 0.250000 0.707959 0.318746
O O12 0.489343 0.674902 0.379959
O O13 0.500617 0.642242 0.273827
O O14 0.750000 0.102039 0.927036
O O15 0.500000 0.000000 0.916086
O O16 0.250000 0.398287 0.217954
O O17 0.000000 0.500000 0.205621
#
# Coordination Sequence:
#
# PCOD9380829 Si02
#       6
#     8   8   8   8   8   8
#     4   9  17  29  47  70  95 123 153 187 226 269
#     4   9  17  28  43  63  88 117 147 183 224 266
#     4   9  18  32  47  66  93 121 149 184 227 272
#     4   9  18  32  47  66  94 124 154 188 227 270
#     4   9  17  29  46  68  93 122 153 185 225 270
#     4  11  21  32  48  69  92 119 152 189 230 273
#
# _framework density 16.006758000000001
#
# number of rings (size 3 to 8) (size 9 to 14) (size 15 to 20)
#    0.000    2.667    0.000    3.500    0.000    5.333 
#    0.000    0.000    0.000    1.000    0.000    2.333 
#    0.000    0.000    0.000    0.000    0.000    0.000 
#
# Total GULP energy -133786.390984 kJ/mol
# GULP energy per Si atom -5574.432958 kJ/mol
# Density = 1.597033 g / cm^3
# Si number density = 16.006758 Si / 1000 Ang^3
#
#
#
# Elastic Constant Matrix: (Units=GPa)
#
#
# Indices 1 2 3 4 5 6 
#
# 1 15.3934 27.7974 26.0881 0.0000 0.0000 0.0000
# 2 27.7974 152.2824 98.5356 0.0000 0.0000 0.0000
# 3 26.0881 98.5356 132.1839 0.0000 0.0000 0.0000
# 4 0.0000 0.0000 0.0000 24.0381 0.0000 0.0000
# 5 0.0000 0.0000 0.0000 0.0000 15.2596 0.0000
# 6 0.0000 0.0000 0.0000 0.0000 0.0000 28.6624
#
#
#
# Elastic Compliance Matrix: (Units=1/GPa)
#
#
# Indices 1 2 3 4 5 6 
#
# 1 0.106837 -0.011317 -0.012649 0.000000 0.000000 0.000000
# 2 -0.011317 0.013884 -0.008116 0.000000 0.000000 0.000000
# 3 -0.012649 -0.008116 0.016112 0.000000 0.000000 0.000000
# 4 0.000000 0.000000 0.000000 0.041601 0.000000 0.000000
# 5 0.000000 0.000000 0.000000 0.000000 0.065533 0.000000
# 6 0.000000 0.000000 0.000000 0.000000 0.000000 0.034889
#
#
# Mechanical properties :
#
#
# Convention : Reuss Voigt Hill
#
# Bulk Modulus (GPa) = 13.76132 67.18911 40.47521
# Shear Modulus (GPa) = 13.61496 23.42125 18.51811
#
# Velocity S-wave (km/s) = 2.91963 3.82934 3.40500
# Velocity P-wave (km/s) = 4.47007 7.84974 6.38748
#
# Compressibility (1/GPa) = 0.07266744
#
# Stress axis : x y z
#
# Youngs Moduli (GPa) = 9.36009 72.02361 62.06521
#
# Poissons Ratio (x) = 0.81509 0.78509
# Poissons Ratio (y) = 0.10593 0.50375
# Poissons Ratio (z) = 0.11840 0.58458
#
# Static dielectric constant tensor:
#      x y z
#    x 1.544520 0.000000 0.000000 
#    y 0.000000 1.510410 0.000000 
#    z 0.000000 0.000000 1.547930 
# 
# From -- ./inp_files/20918.got.cif
#   From: 2010.05.17/outbox.cif.g08.bks.cpg/sg46_11_cif.got.tgz:20918.got - 2010.06.03 19:58:25.
