data_PCOD9380909
_publ_section_title
;
Structure prediction by ZEFSAII (Michael W. Deem and Ramdas Pophale) SiO2 
 PCOD9380909
Probable space group: I M A 2
;
_chemical_formula_sum "Si O2"
_cell_formula_units_Z 32
_cell_length_a 24.415219
_cell_length_b 4.830460
_cell_length_c 11.284958
_cell_angle_alpha 90.000000
_cell_angle_beta 90.000000
_cell_angle_gamma 90.000000
_cell_volume 1330.911144
_symmetry_space_group_name_H-M "I M A 2"
_symmetry_group_IT_number 46
_symmetry_cell_setting 'orthorhombic'
loop_
_space_group_symop_operation_xyz
x,y,z
-x,-y,z
1/2-x,y,z
1/2+x,-y,z
1/2+x,1/2+y,1/2+z
1/2-x,1/2-y,1/2+z
-x,1/2+y,1/2+z
x,1/2-y,1/2+z
loop_
_atom_site_type_symbol
_atom_site_label
_atom_site_fract_x
_atom_site_fract_y
_atom_site_fract_z
Si Si1 0.000000 0.000000 0.407951
Si Si2 0.750000 0.069432 0.958824
Si Si3 0.659945 0.771587 0.089083
Si Si4 0.750000 0.430568 0.719343
Si Si5 0.914449 0.232685 0.589083
Si Si6 0.000000 0.500000 0.270216
O O1 0.046927 0.845202 0.480487
O O2 0.028012 0.250000 0.339083
O O3 0.750000 0.250000 0.839083
O O4 0.697079 0.871046 0.977652
O O5 0.750000 0.228777 0.089083
O O6 0.697079 0.871045 0.200515
O O7 0.605024 0.954350 0.089084
O O8 0.639286 0.459736 0.089083
O O9 0.953073 0.154798 0.697680
#
# Coordination Sequence:
#
# PCOD9380909 Si02
#       6
#     4   4   8   4   8   4
#     4  11  24  39  62  92 126 167 208 269 314 380
#     4   8  20  40  64  96 133 167 214 266 316 382
#     4   9  22  37  66  88 128 173 208 265 316 386
#     4   8  20  40  64  96 133 167 214 266 316 382
#     4  11  22  43  60  94 126 163 220 253 324 384
#     4  11  24  39  62  92 126 167 208 269 314 380
#
# _framework density 24.043680999999999
#
# number of rings (size 3 to 8) (size 9 to 14) (size 15 to 20)
#    1.500    0.500    0.000    3.000    0.000   14.000 
#    0.000    2.500    0.000    0.000    0.000    0.000 
#    0.000    0.000    0.000    0.000    0.000    0.000 
#
# Total GULP energy -89329.808462 kJ/mol
# GULP energy per Si atom -5583.113029 kJ/mol
# Density = 2.398896 g / cm^3
# Si number density = 24.043681 Si / 1000 Ang^3
#
#
#
# Elastic Constant Matrix: (Units=GPa)
#
#
# Indices 1 2 3 4 5 6 
#
# 1 89.1482 -8.3807 -4.1516 0.0000 0.0000 0.0000
# 2 -8.3807 68.5489 12.6532 0.0000 0.0000 0.0000
# 3 -4.1516 12.6532 91.7796 0.0000 0.0000 0.0000
# 4 0.0000 0.0000 0.0000 14.7721 0.0000 0.0000
# 5 0.0000 0.0000 0.0000 0.0000 24.7892 0.0000
# 6 0.0000 0.0000 0.0000 0.0000 0.0000 41.3842
#
#
#
# Elastic Compliance Matrix: (Units=1/GPa)
#
#
# Indices 1 2 3 4 5 6 
#
# 1 0.011357 0.001328 0.000331 0.000000 0.000000 0.000000
# 2 0.001328 0.015124 -0.002025 0.000000 0.000000 0.000000
# 3 0.000331 -0.002025 0.011190 0.000000 0.000000 0.000000
# 4 0.000000 0.000000 0.000000 0.067695 0.000000 0.000000
# 5 0.000000 0.000000 0.000000 0.000000 0.040340 0.000000
# 6 0.000000 0.000000 0.000000 0.000000 0.000000 0.024164
#
#
# Mechanical properties :
#
#
# Convention : Reuss Voigt Hill
#
# Bulk Modulus (GPa) = 27.07247 27.74649 27.40948
# Shear Modulus (GPa) = 27.33481 32.81282 30.07381
#
# Velocity S-wave (km/s) = 3.37542 3.69822 3.54050
# Velocity P-wave (km/s) = 5.14543 5.45901 5.30454
#
# Compressibility (1/GPa) = 0.03693789
#
# Stress axis : x y z
#
# Youngs Moduli (GPa) = 88.04775 66.11908 89.36703
#
# Poissons Ratio (x) = -0.08777 -0.02956
# Poissons Ratio (y) = -0.11688 0.18097
# Poissons Ratio (z) = -0.02912 0.13389
#
# Static dielectric constant tensor:
#      x y z
#    x 1.884190 0.000000 0.000000 
#    y 0.000000 1.873030 0.000000 
#    z 0.000000 0.000000 2.078950 
# 
# From -- ./inp_files/12906.got.cif
#   From: 2010.05.17/outbox.cif.g08.bks.cpg/sg46_7_cif.got.tgz:12906.got - 2010.06.03 19:58:25.
