data_PCOD9380166
_publ_section_title
;
Structure prediction by ZEFSAII (Michael W. Deem and Ramdas Pophale) SiO2 
 PCOD9380166
Probable space group: I M A 2
;
_chemical_formula_sum "Si O2"
_cell_formula_units_Z 36
_cell_length_a 14.627611
_cell_length_b 5.450631
_cell_length_c 19.699326
_cell_angle_alpha 90.000000
_cell_angle_beta 90.000000
_cell_angle_gamma 90.000000
_cell_volume 1570.621549
_symmetry_space_group_name_H-M "I M A 2"
_symmetry_group_IT_number 46
_symmetry_cell_setting 'orthorhombic'
loop_
_space_group_symop_operation_xyz
x,y,z
-x,-y,z
1/2-x,y,z
1/2+x,-y,z
1/2+x,1/2+y,1/2+z
1/2-x,1/2-y,1/2+z
-x,1/2+y,1/2+z
x,1/2-y,1/2+z
loop_
_atom_site_type_symbol
_atom_site_label
_atom_site_fract_x
_atom_site_fract_y
_atom_site_fract_z
Si Si1 0.111500 0.499693 0.133560
Si Si2 0.389418 0.503238 0.559447
Si Si3 0.397998 0.886228 0.784047
Si Si4 0.652568 0.677141 0.413057
Si Si5 0.500000 0.500000 0.854038
O O1 0.139551 0.236301 0.103386
O O2 0.141118 0.552815 0.210863
O O3 0.000000 0.500000 0.134038
O O4 0.139819 0.735295 0.089555
O O5 0.500000 0.500000 0.559631
O O6 0.356170 0.467915 0.483006
O O7 0.422288 0.608390 0.803834
O O8 0.500000 0.000000 0.784672
O O9 0.347646 0.001992 0.847698
O O10 0.750000 0.815889 0.414156
O O11 0.559408 0.829105 0.403235
#
# Coordination Sequence:
#
# PCOD9380166 Si02
#       5
#     8   8   8   8   4
#     4   9  20  35  65  96 129 166 219 270 331 398
#     4  10  21  38  63  97 128 173 218 271 331 396
#     4   9  20  38  64  93 125 168 218 271 326 393
#     4  11  25  42  63  95 132 175 226 275 328 394
#     4  10  22  40  68  96 126 172 224 272 332 392
#
# _framework density 22.920863000000001
#
# number of rings (size 3 to 8) (size 9 to 14) (size 15 to 20)
#    0.000    2.222    0.000    2.000   18.667    0.889 
#    0.000    2.222    0.000    0.000    0.000    0.000 
#    0.000    0.000    0.000    0.000    0.000    0.000 
#
# Total GULP energy -100478.046828 kJ/mol
# GULP energy per Si atom -5582.113713 kJ/mol
# Density = 2.286869 g / cm^3
# Si number density = 22.920863 Si / 1000 Ang^3
#
#
#
# Elastic Constant Matrix: (Units=GPa)
#
#
# Indices 1 2 3 4 5 6 
#
# 1 104.6551 25.0463 34.7848 0.0000 0.0000 0.0000
# 2 25.0463 115.7914 75.4461 0.0000 0.0000 0.0000
# 3 34.7848 75.4461 210.2706 0.0000 0.0000 0.0000
# 4 0.0000 0.0000 0.0000 23.9386 0.0000 0.0000
# 5 0.0000 0.0000 0.0000 0.0000 -110.8906 0.0000
# 6 0.0000 0.0000 0.0000 0.0000 0.0000 -5.6295
#
#
#
# Elastic Compliance Matrix: (Units=1/GPa)
#
#
# Indices 1 2 3 4 5 6 
#
# 1 0.010296 -0.001458 -0.001180 0.000000 0.000000 0.000000
# 2 -0.001458 0.011478 -0.003877 0.000000 0.000000 0.000000
# 3 -0.001180 -0.003877 0.006342 0.000000 0.000000 0.000000
# 4 0.000000 0.000000 0.000000 0.041774 0.000000 0.000000
# 5 0.000000 0.000000 0.000000 0.000000 -0.009018 0.000000
# 6 0.000000 0.000000 0.000000 0.000000 0.000000 -0.177637
#
#
# Mechanical properties :
#
#
# Convention : Reuss Voigt Hill
#
# Bulk Modulus (GPa) = 66.28872 77.91908 72.10390
# Shear Modulus (GPa) = -50.65587 1.17968 -24.73810
#
# Velocity S-wave (km/s) = -4.70620 0.71819 -3.28881
# Velocity P-wave (km/s) = 0.74000 5.89545 4.13574
#
# Compressibility (1/GPa) = 0.01508552
#
# Stress axis : x y z
#
# Youngs Moduli (GPa) = 97.12105 87.12455 157.67628
#
# Poissons Ratio (x) = 0.12705 0.18607
# Poissons Ratio (y) = 0.14163 0.61132
# Poissons Ratio (z) = 0.11461 0.33779
#
# Static dielectric constant tensor:
#      x y z
#    x 2.165830 0.000000 0.000000 
#    y 0.000000 2.077440 0.000000 
#    z 0.000000 0.000000 1.805810 
# 
# From -- ./inp_files/21851.got.cif
#   From: 2010.05.17/outbox.cif.g08.bks.cpg/sg46_11_cif.got.tgz:21851.got - 2010.06.03 19:58:25.
