data_PCOD9380367
_publ_section_title
;
Structure prediction by ZEFSAII (Michael W. Deem and Ramdas Pophale) SiO2 
 PCOD9380367
Probable space group: I M A 2
;
_chemical_formula_sum "Si O2"
_cell_formula_units_Z 60
_cell_length_a 16.555259
_cell_length_b 18.659975
_cell_length_c 8.621012
_cell_angle_alpha 90.000000
_cell_angle_beta 90.000000
_cell_angle_gamma 90.000000
_cell_volume 2663.209226
_symmetry_space_group_name_H-M "I M A 2"
_symmetry_group_IT_number 46
_symmetry_cell_setting 'orthorhombic'
loop_
_space_group_symop_operation_xyz
x,y,z
-x,-y,z
1/2-x,y,z
1/2+x,-y,z
1/2+x,1/2+y,1/2+z
1/2-x,1/2-y,1/2+z
-x,1/2+y,1/2+z
x,1/2-y,1/2+z
loop_
_atom_site_type_symbol
_atom_site_label
_atom_site_fract_x
_atom_site_fract_y
_atom_site_fract_z
Si Si1 0.904209 0.300394 0.703760
Si Si2 0.835803 0.066075 0.303393
Si Si3 0.500405 0.424929 0.270022
Si Si4 0.581045 0.961319 0.098063
Si Si5 0.910298 0.693461 0.727058
Si Si6 0.250000 0.452764 0.012573
Si Si7 0.882812 0.831203 0.582006
Si Si8 0.156851 0.842501 0.867497
O O1 0.898286 0.369369 0.818477
O O2 0.864871 0.229666 0.773308
O O3 0.860249 0.323049 0.545968
O O4 0.998724 0.291701 0.669134
O O5 0.750000 0.105053 0.287433
O O6 0.853117 0.019675 0.148122
O O7 0.819937 0.008700 0.439184
O O8 0.500000 0.500000 0.180286
O O9 0.445749 0.441833 0.423516
O O10 0.457689 0.362608 0.177530
O O11 0.590174 0.401261 0.318761
O O12 0.609056 0.886541 0.170771
O O13 0.500000 0.000000 0.165752
O O14 0.855498 0.757899 0.665386
O O15 0.908016 0.692060 0.910804
O O16 0.319358 0.395273 0.068236
O O17 0.250000 0.863627 0.841308
#
# Coordination Sequence:
#
# PCOD9380367 Si02
#       8
#     8   8   8   8   8   4   8   8
#     4  12  23  42  71 104 143 192 233 298 372 454
#     4  10  21  43  71 101 142 180 241 297 369 445
#     4  11  25  45  68 101 143 192 243 302 370 448
#     4  11  20  41  71 104 134 182 245 294 368 444
#     4  12  22  41  73  95 136 192 239 306 372 441
#     4  10  26  46  66 106 140 186 248 318 368 432
#     4  12  26  47  67 101 142 189 254 313 368 449
#     4  12  25  44  66 107 148 187 242 294 369 448
#
# _framework density 22.529209999999999
#
# number of rings (size 3 to 8) (size 9 to 14) (size 15 to 20)
#    0.400    0.267    5.333    3.600    0.000    2.133 
#    3.600    0.000    0.000    0.000    0.000    0.000 
#    0.000    0.000    0.000    0.000    0.000    0.000 
#
# Total GULP energy -167007.421649 kJ/mol
# GULP energy per Si atom -5566.914055 kJ/mol
# Density = 2.247793 g / cm^3
# Si number density = 22.529210 Si / 1000 Ang^3
#
#
#
# Elastic Constant Matrix: (Units=GPa)
#
#
# Indices 1 2 3 4 5 6 
#
# 1 64.7384 13.3521 -3.1829 0.0000 0.0000 0.0000
# 2 13.3521 154.1433 21.6994 0.0000 0.0000 0.0000
# 3 -3.1829 21.6994 38.6712 0.0000 0.0000 0.0000
# 4 0.0000 0.0000 0.0000 26.0194 0.0000 0.0000
# 5 0.0000 0.0000 0.0000 0.0000 12.2816 0.0000
# 6 0.0000 0.0000 0.0000 0.0000 0.0000 40.9318
#
#
#
# Elastic Compliance Matrix: (Units=1/GPa)
#
#
# Indices 1 2 3 4 5 6 
#
# 1 0.015908 -0.001696 0.002261 0.000000 0.000000 0.000000
# 2 -0.001696 0.007225 -0.004194 0.000000 0.000000 0.000000
# 3 0.002261 -0.004194 0.028398 0.000000 0.000000 0.000000
# 4 0.000000 0.000000 0.000000 0.038433 0.000000 0.000000
# 5 0.000000 0.000000 0.000000 0.000000 0.081422 0.000000
# 6 0.000000 0.000000 0.000000 0.000000 0.000000 0.024431
#
#
# Mechanical properties :
#
#
# Convention : Reuss Voigt Hill
#
# Bulk Modulus (GPa) = 22.58694 35.69891 29.14293
# Shear Modulus (GPa) = 22.95344 30.89219 26.92281
#
# Velocity S-wave (km/s) = 3.19537 3.70700 3.46065
# Velocity P-wave (km/s) = 4.86429 5.84829 5.37883
#
# Compressibility (1/GPa) = 0.04427337
#
# Stress axis : x y z
#
# Youngs Moduli (GPa) = 62.86227 138.41301 35.21338
#
# Poissons Ratio (x) = 0.23479 -0.07962
# Poissons Ratio (y) = 0.10663 0.14767
# Poissons Ratio (z) = -0.14214 0.58045
#
# Static dielectric constant tensor:
#      x y z
#    x 1.816050 0.000000 0.000000 
#    y 0.000000 1.867010 0.000000 
#    z 0.000000 0.000000 1.845850 
# 
# From -- ./inp_files/6812.got.cif
#   From: 2010.05.17/outbox.cif.g08.bks.cpg/sg46_4_cif.got.tgz:6812.got - 2010.06.03 19:58:25.
