data_PCOD9380838
_publ_section_title
;
Structure prediction by ZEFSAII (Michael W. Deem and Ramdas Pophale) SiO2 
 PCOD9380838
Probable space group: I M A 2
;
_chemical_formula_sum "Si O2"
_cell_formula_units_Z 64
_cell_length_a 8.652787
_cell_length_b 19.970754
_cell_length_c 21.053239
_cell_angle_alpha 90.000000
_cell_angle_beta 90.000000
_cell_angle_gamma 90.000000
_cell_volume 3638.056134
_symmetry_space_group_name_H-M "I M A 2"
_symmetry_group_IT_number 46
_symmetry_cell_setting 'orthorhombic'
loop_
_space_group_symop_operation_xyz
x,y,z
-x,-y,z
1/2-x,y,z
1/2+x,-y,z
1/2+x,1/2+y,1/2+z
1/2-x,1/2-y,1/2+z
-x,1/2+y,1/2+z
x,1/2-y,1/2+z
loop_
_atom_site_type_symbol
_atom_site_label
_atom_site_fract_x
_atom_site_fract_y
_atom_site_fract_z
Si Si1 0.434842 0.428748 0.284950
Si Si2 0.935484 0.792687 0.212952
Si Si3 0.065026 0.792993 0.455481
Si Si4 0.065258 0.071261 0.402227
Si Si5 0.565026 0.707007 0.088512
Si Si6 0.565258 0.071261 0.641766
Si Si7 0.435484 0.792688 0.831042
Si Si8 0.565158 0.071252 0.259043
O O1 0.500000 0.500000 0.307822
O O2 0.250000 0.430348 0.281824
O O3 0.500549 0.419500 0.213430
O O4 0.493032 0.366366 0.325824
O O5 0.750000 0.796469 0.218147
O O6 0.974987 0.754579 0.147856
O O7 0.000002 0.750000 0.271997
O O8 0.006965 0.866366 0.218169
O O9 0.250000 0.799008 0.458107
O O10 0.025013 0.745421 0.396138
O O11 0.992871 0.865876 0.442230
O O12 0.000002 0.767038 0.521997
O O13 0.250000 0.068993 0.400336
O O14 0.000546 0.080500 0.330563
O O15 0.000000 0.000000 0.425467
O O16 0.750000 0.700994 0.085885
O O17 0.492875 0.634124 0.101763
O O18 0.750000 0.068994 0.643656
O O19 0.500000 0.000000 0.618526
O O20 0.250000 0.796472 0.825848
O O21 0.750000 0.069653 0.262168
O O22 0.500000 0.000000 0.236171
#
# Coordination Sequence:
#
# PCOD9380838 Si02
#       8
#     8   8   8   8   8   8   8   8
#     4  11  21  35  57  86 118 150 190 237 289 341
#     4  11  22  37  60  87 116 151 193 238 287 341
#     4  11  24  40  58  83 116 153 195 237 287 343
#     4  11  21  35  56  81 115 153 194 236 283 339
#     4  11  24  40  58  83 116 153 195 237 287 343
#     4  11  21  35  56  81 115 153 194 236 283 339
#     4  11  22  37  60  87 116 151 193 238 287 341
#     4  11  21  35  57  86 118 150 190 237 289 341
#
# _framework density 17.591811
#
# number of rings (size 3 to 8) (size 9 to 14) (size 15 to 20)
#    0.000    1.000    2.500    7.500    0.000    3.500 
#    0.000    2.500    0.000    0.750    0.000    5.250 
#    0.000    0.000    0.000    0.000    0.000    0.000 
#
# Total GULP energy -178954.722220 kJ/mol
# GULP energy per Si atom -5592.335069 kJ/mol
# Density = 1.755177 g / cm^3
# Si number density = 17.591811 Si / 1000 Ang^3
#
#
#
# Elastic Constant Matrix: (Units=GPa)
#
#
# Indices 1 2 3 4 5 6 
#
# 1 128.6660 58.7249 61.0181 0.0000 0.0000 0.0000
# 2 58.7249 130.6370 66.8875 0.0000 0.0000 0.0000
# 3 61.0181 66.8875 112.5523 0.0000 0.0000 0.0000
# 4 0.0000 0.0000 0.0000 21.3399 0.0000 0.0000
# 5 0.0000 0.0000 0.0000 0.0000 25.7966 0.0000
# 6 0.0000 0.0000 0.0000 0.0000 0.0000 32.7662
#
#
#
# Elastic Compliance Matrix: (Units=1/GPa)
#
#
# Indices 1 2 3 4 5 6 
#
# 1 0.011107 -0.002745 -0.004390 0.000000 0.000000 0.000000
# 2 -0.002745 0.011681 -0.005454 0.000000 0.000000 0.000000
# 3 -0.004390 -0.005454 0.014506 0.000000 0.000000 0.000000
# 4 0.000000 0.000000 0.000000 0.046861 0.000000 0.000000
# 5 0.000000 0.000000 0.000000 0.000000 0.038765 0.000000
# 6 0.000000 0.000000 0.000000 0.000000 0.000000 0.030519
#
#
# Mechanical properties :
#
#
# Convention : Reuss Voigt Hill
#
# Bulk Modulus (GPa) = 82.53433 82.79069 82.66251
# Shear Modulus (GPa) = 27.37407 28.32885 27.85146
#
# Velocity S-wave (km/s) = 3.94898 4.01726 3.98327
# Velocity P-wave (km/s) = 8.23473 8.28747 8.26114
#
# Compressibility (1/GPa) = 0.01211617
#
# Stress axis : x y z
#
# Youngs Moduli (GPa) = 90.03429 85.60820 68.93835
#
# Poissons Ratio (x) = 0.23500 0.30264
# Poissons Ratio (y) = 0.24715 0.37596
# Poissons Ratio (z) = 0.39525 0.46688
#
# Static dielectric constant tensor:
#      x y z
#    x 1.583560 0.000000 0.000000 
#    y 0.000000 1.603430 0.000000 
#    z 0.000000 0.000000 1.595800 
# 
# From -- ./inp_files/21449.got.cif
#   From: 2010.05.17/outbox.cif.g08.bks.cpg/sg46_11_cif.got.tgz:21449.got - 2010.06.03 19:58:25.
