data_PCOD9380915
_publ_section_title
;
Structure prediction by ZEFSAII (Michael W. Deem and Ramdas Pophale) SiO2 
 PCOD9380915
Probable space group: I M A 2
;
_chemical_formula_sum "Si O2"
_cell_formula_units_Z 60
_cell_length_a 16.434080
_cell_length_b 18.111402
_cell_length_c 9.464166
_cell_angle_alpha 90.000000
_cell_angle_beta 90.000000
_cell_angle_gamma 90.000000
_cell_volume 2816.954396
_symmetry_space_group_name_H-M "I M A 2"
_symmetry_group_IT_number 46
_symmetry_cell_setting 'orthorhombic'
loop_
_space_group_symop_operation_xyz
x,y,z
-x,-y,z
1/2-x,y,z
1/2+x,-y,z
1/2+x,1/2+y,1/2+z
1/2-x,1/2-y,1/2+z
-x,1/2+y,1/2+z
x,1/2-y,1/2+z
loop_
_atom_site_type_symbol
_atom_site_label
_atom_site_fract_x
_atom_site_fract_y
_atom_site_fract_z
Si Si1 0.406577 0.830925 0.861200
Si Si2 0.387159 0.160813 0.195583
Si Si3 0.157380 0.956768 0.035821
Si Si4 0.913884 0.899603 0.902162
Si Si5 0.379199 0.177073 0.635052
Si Si6 0.566766 0.183659 0.540809
Si Si7 0.750000 0.865366 0.394649
Si Si8 0.545692 0.422534 0.800446
O O1 0.493685 0.872853 0.878884
O O2 0.392550 0.817527 0.695078
O O3 0.344298 0.885770 0.934757
O O4 0.411605 0.755052 0.948247
O O5 0.366084 0.246483 0.219918
O O6 0.321870 0.113908 0.280053
O O7 0.477467 0.135011 0.240269
O O8 0.379490 0.150933 0.027798
O O9 0.250000 0.982185 0.053462
O O10 0.113574 0.934863 0.181663
O O11 0.101968 0.019439 0.962339
O O12 0.872529 0.886926 0.751620
O O13 0.470312 0.183952 0.574548
O O14 0.319936 0.161353 0.507892
O O15 0.581192 0.112194 0.443319
O O16 0.500000 0.500000 0.825407
#
# Coordination Sequence:
#
# PCOD9380915 Si02
#       8
#     8   8   8   8   8   8   4   8
#     4  11  22  45  73 102 130 178 234 278 349 415
#     4  12  22  42  64  94 142 185 228 265 330 403
#     4  12  26  45  69 102 133 179 235 300 347 404
#     4  11  23  40  72  92 136 184 230 265 343 416
#     4  11  23  40  61 102 139 182 225 276 325 410
#     4  11  23  42  76 100 131 182 228 286 336 417
#     4  12  26  36  60 104 144 180 220 276 328 394
#     4  12  23  45  69 101 136 183 233 276 343 426
#
# _framework density 21.299598
#
# number of rings (size 3 to 8) (size 9 to 14) (size 15 to 20)
#    0.000    0.533    5.333    4.000    1.867    2.133 
#    0.000    3.333    0.000    0.000    0.000    0.000 
#    0.000    0.000    0.000    0.000    0.000    0.000 
#
# Total GULP energy -167261.612843 kJ/mol
# GULP energy per Si atom -5575.387095 kJ/mol
# Density = 2.125112 g / cm^3
# Si number density = 21.299598 Si / 1000 Ang^3
#
#
#
# Elastic Constant Matrix: (Units=GPa)
#
#
# Indices 1 2 3 4 5 6 
#
# 1 41.1631 18.7391 19.7763 0.0000 0.0000 0.0000
# 2 18.7391 67.3537 62.2344 0.0000 0.0000 0.0000
# 3 19.7763 62.2344 158.2731 0.0000 0.0000 0.0000
# 4 0.0000 0.0000 0.0000 38.5073 0.0000 0.0000
# 5 0.0000 0.0000 0.0000 0.0000 -64.0479 0.0000
# 6 0.0000 0.0000 0.0000 0.0000 0.0000 -1.7929
#
#
#
# Elastic Compliance Matrix: (Units=1/GPa)
#
#
# Indices 1 2 3 4 5 6 
#
# 1 0.027863 -0.007123 -0.000681 0.000000 0.000000 0.000000
# 2 -0.007123 0.025141 -0.008995 0.000000 0.000000 0.000000
# 3 -0.000681 -0.008995 0.009940 0.000000 0.000000 0.000000
# 4 0.000000 0.000000 0.000000 0.025969 0.000000 0.000000
# 5 0.000000 0.000000 0.000000 0.000000 -0.015613 0.000000
# 6 0.000000 0.000000 0.000000 0.000000 0.000000 -0.557755
#
#
# Mechanical properties :
#
#
# Convention : Reuss Voigt Hill
#
# Bulk Modulus (GPa) = 34.07660 52.03218 43.05439
# Shear Modulus (GPa) = -11.33596 5.60264 -2.86666
#
# Velocity S-wave (km/s) = -2.30948 1.62361 -1.16138
# Velocity P-wave (km/s) = 2.98694 5.29118 4.29642
#
# Compressibility (1/GPa) = 0.02934565
#
# Stress axis : x y z
#
# Youngs Moduli (GPa) = 35.88941 39.77642 100.60034
#
# Poissons Ratio (x) = 0.28334 0.06847
# Poissons Ratio (y) = 0.25565 0.90494
# Poissons Ratio (z) = 0.02443 0.35781
#
# Static dielectric constant tensor:
#      x y z
#    x 1.790100 0.000000 0.000000 
#    y 0.000000 1.841540 0.000000 
#    z 0.000000 0.000000 1.773360 
# 
# From -- ./inp_files/6824.got.cif
#   From: 2010.05.17/outbox.cif.g08.bks.cpg/sg46_4_cif.got.tgz:6824.got - 2010.06.03 19:58:25.
