data_PCOD9380663
_publ_section_title
;
Structure prediction by ZEFSAII (Michael W. Deem and Ramdas Pophale) SiO2 
 PCOD9380663
Probable space group: I M A 2
;
_chemical_formula_sum "Si O2"
_cell_formula_units_Z 48
_cell_length_a 26.817654
_cell_length_b 8.742201
_cell_length_c 10.423559
_cell_angle_alpha 90.000000
_cell_angle_beta 90.000000
_cell_angle_gamma 90.000000
_cell_volume 2443.754642
_symmetry_space_group_name_H-M "I M A 2"
_symmetry_group_IT_number 46
_symmetry_cell_setting 'orthorhombic'
loop_
_space_group_symop_operation_xyz
x,y,z
-x,-y,z
1/2-x,y,z
1/2+x,-y,z
1/2+x,1/2+y,1/2+z
1/2-x,1/2-y,1/2+z
-x,1/2+y,1/2+z
x,1/2-y,1/2+z
loop_
_atom_site_type_symbol
_atom_site_label
_atom_site_fract_x
_atom_site_fract_y
_atom_site_fract_z
Si Si1 0.046891 0.390390 0.637610
Si Si2 0.307958 0.098773 0.379719
Si Si3 0.347142 0.937995 0.133307
Si Si4 0.545680 0.884783 0.840260
Si Si5 0.192183 0.608852 0.118755
Si Si6 0.843305 0.562154 0.359054
O O1 0.097598 0.490115 0.646924
O O2 0.046436 0.253475 0.739508
O O3 0.043021 0.332874 0.489794
O O4 0.000000 0.500000 0.660894
O O5 0.250000 0.135951 0.402078
O O6 0.337815 0.256422 0.377278
O O7 0.314933 0.014545 0.245002
O O8 0.324040 0.985601 0.493483
O O9 0.341838 0.756233 0.142948
O O10 0.328645 0.983582 0.991916
O O11 0.598721 0.970482 0.829958
O O12 0.500000 0.000000 0.817042
O O13 0.250000 0.657145 0.101168
O O14 0.188363 0.497700 0.240495
#
# Coordination Sequence:
#
# PCOD9380663 Si02
#       6
#     8   8   8   8   8   8
#     4  10  23  43  64  95 127 163 211 260 321 380
#     4  11  23  40  64  93 127 169 215 265 322 384
#     4  11  23  41  63  90 130 166 210 267 319 390
#     4  10  23  42  65  95 127 163 210 265 317 382
#     4  11  25  41  62  95 129 168 216 266 330 388
#     4  11  23  41  64  92 127 164 218 265 320 387
#
# _framework density 19.641905999999999
#
# number of rings (size 3 to 8) (size 9 to 14) (size 15 to 20)
#    0.000    1.333    1.667    3.000    4.667    6.000 
#    3.000    0.000    0.000    0.000    0.000    0.000 
#    0.000    0.000    0.000    0.000    0.000    0.000 
#
# Total GULP energy -134122.889846 kJ/mol
# GULP energy per Si atom -5588.453744 kJ/mol
# Density = 1.959720 g / cm^3
# Si number density = 19.641906 Si / 1000 Ang^3
#
#
#
# Elastic Constant Matrix: (Units=GPa)
#
#
# Indices 1 2 3 4 5 6 
#
# 1 63.2609 31.4934 19.0689 0.0000 0.0000 0.0000
# 2 31.4934 89.3986 31.5288 0.0000 0.0000 0.0000
# 3 19.0689 31.5288 92.7871 0.0000 0.0000 0.0000
# 4 0.0000 0.0000 0.0000 28.6863 0.0000 0.0000
# 5 0.0000 0.0000 0.0000 0.0000 -38.4896 0.0000
# 6 0.0000 0.0000 0.0000 0.0000 0.0000 25.4579
#
#
#
# Elastic Compliance Matrix: (Units=1/GPa)
#
#
# Indices 1 2 3 4 5 6 
#
# 1 0.019459 -0.006186 -0.001897 0.000000 0.000000 0.000000
# 2 -0.006186 0.014675 -0.003715 0.000000 0.000000 0.000000
# 3 -0.001897 -0.003715 0.012430 0.000000 0.000000 0.000000
# 4 0.000000 0.000000 0.000000 0.034860 0.000000 0.000000
# 5 0.000000 0.000000 0.000000 0.000000 -0.025981 0.000000
# 6 0.000000 0.000000 0.000000 0.000000 0.000000 0.039281
#
#
# Mechanical properties :
#
#
# Convention : Reuss Voigt Hill
#
# Bulk Modulus (GPa) = 43.54028 45.51431 44.52729
# Shear Modulus (GPa) = 39.69006 14.02126 26.85566
#
# Velocity S-wave (km/s) = 4.50008 2.67468 3.70166
# Velocity P-wave (km/s) = 7.01542 5.72372 6.40223
#
# Compressibility (1/GPa) = 0.02296724
#
# Stress axis : x y z
#
# Youngs Moduli (GPa) = 51.39011 68.14130 80.45249
#
# Poissons Ratio (x) = 0.42152 0.15262
# Poissons Ratio (y) = 0.31790 0.29891
# Poissons Ratio (z) = 0.09749 0.25317
#
# Static dielectric constant tensor:
#      x y z
#    x 1.714490 0.000000 0.000000 
#    y 0.000000 1.660540 0.000000 
#    z 0.000000 0.000000 1.679500 
# 
# From -- ./inp_files/8406.got.cif
#   From: 2010.05.17/outbox.cif.g08.bks.cpg/sg46_5_cif.got.tgz:8406.got - 2010.06.03 19:58:25.
