data_PCOD9380131
_publ_section_title
;
Structure prediction by ZEFSAII (Michael W. Deem and Ramdas Pophale) SiO2 
 PCOD9380131
Probable space group: I M A 2
;
_chemical_formula_sum "Si O2"
_cell_formula_units_Z 48
_cell_length_a 9.079931
_cell_length_b 22.841788
_cell_length_c 11.643213
_cell_angle_alpha 90.000000
_cell_angle_beta 90.000000
_cell_angle_gamma 90.000000
_cell_volume 2414.824020
_symmetry_space_group_name_H-M "I M A 2"
_symmetry_group_IT_number 46
_symmetry_cell_setting 'orthorhombic'
loop_
_space_group_symop_operation_xyz
x,y,z
-x,-y,z
1/2-x,y,z
1/2+x,-y,z
1/2+x,1/2+y,1/2+z
1/2-x,1/2-y,1/2+z
-x,1/2+y,1/2+z
x,1/2-y,1/2+z
loop_
_atom_site_type_symbol
_atom_site_label
_atom_site_fract_x
_atom_site_fract_y
_atom_site_fract_z
Si Si1 0.921066 0.141491 0.230970
Si Si2 0.918081 0.650465 0.341255
Si Si3 0.422808 0.771585 0.661829
Si Si4 0.073139 0.150214 0.471448
Si Si5 0.073432 0.563614 0.518793
Si Si6 0.086403 0.444427 0.139051
O O1 0.750000 0.137716 0.268156
O O2 0.935128 0.201728 0.159582
O O3 0.953306 0.086867 0.148371
O O4 0.022533 0.149008 0.341245
O O5 0.750000 0.666256 0.375743
O O6 0.907693 0.603924 0.237370
O O7 0.002978 0.703909 0.279494
O O8 0.004180 0.614282 0.438231
O O9 0.250000 0.787665 0.662565
O O10 0.500795 0.799981 0.551187
O O11 0.250000 0.154273 0.482294
O O12 0.022998 0.088946 0.529261
O O13 0.250000 0.560101 0.499985
O O14 0.000000 0.500000 0.499181
O O15 0.250000 0.464163 0.110124
O O16 0.000000 0.500000 0.180264
#
# Coordination Sequence:
#
# PCOD9380131 Si02
#       6
#     8   8   8   8   8   8
#     4  10  24  42  61  85 118 161 204 248 304 370
#     4  10  21  38  60  91 124 157 201 254 307 363
#     4  10  21  39  63  89 120 157 200 251 309 371
#     4  10  22  39  58  86 119 151 195 249 302 360
#     4  11  24  42  62  89 125 168 213 257 307 369
#     4   9  19  34  54  82 115 148 189 237 290 347
#
# _framework density 19.877224999999999
#
# number of rings (size 3 to 8) (size 9 to 14) (size 15 to 20)
#    0.000    2.000    0.000    3.500    2.333    8.667 
#    0.000    3.333    0.000    0.000    0.000    0.000 
#    0.000    0.000    0.000    0.000    0.000    0.000 
#
# Total GULP energy -133934.134274 kJ/mol
# GULP energy per Si atom -5580.588928 kJ/mol
# Density = 1.983198 g / cm^3
# Si number density = 19.877225 Si / 1000 Ang^3
#
#
#
# Elastic Constant Matrix: (Units=GPa)
#
#
# Indices 1 2 3 4 5 6 
#
# 1 86.7258 24.6650 40.8158 -0.0001 0.0000 0.0000
# 2 24.6650 49.4921 5.8144 0.0000 0.0000 0.0000
# 3 40.8158 5.8144 79.7554 -0.0001 0.0001 0.0001
# 4 -0.0001 0.0000 -0.0001 18.6090 0.0001 0.0000
# 5 0.0000 0.0000 0.0001 0.0001 32.0656 0.0000
# 6 0.0000 0.0000 0.0001 0.0000 0.0000 23.9563
#
#
#
# Elastic Compliance Matrix: (Units=1/GPa)
#
#
# Indices 1 2 3 4 5 6 
#
# 1 0.017778 -0.007858 -0.008525 0.000000 0.000000 0.000000
# 2 -0.007858 0.023853 0.002283 0.000000 0.000000 0.000000
# 3 -0.008525 0.002283 0.016735 0.000000 0.000000 0.000000
# 4 0.000000 0.000000 0.000000 0.053737 0.000000 0.000000
# 5 0.000000 0.000000 0.000000 0.000000 0.031186 0.000000
# 6 0.000000 0.000000 0.000000 0.000000 0.000000 0.041743
#
#
# Mechanical properties :
#
#
# Convention : Reuss Voigt Hill
#
# Bulk Modulus (GPa) = 33.15175 39.84042 36.49609
# Shear Modulus (GPa) = 22.39263 24.57140 23.48202
#
# Velocity S-wave (km/s) = 3.36005 3.51972 3.44081
# Velocity P-wave (km/s) = 5.63628 6.05018 5.84689
#
# Compressibility (1/GPa) = 0.03016432
#
# Stress axis : x y z
#
# Youngs Moduli (GPa) = 56.25055 41.92292 59.75598
#
# Poissons Ratio (x) = 0.32944 0.50942
# Poissons Ratio (y) = 0.44203 -0.13640
# Poissons Ratio (z) = 0.47954 -0.09569
#
# Static dielectric constant tensor:
#      x y z
#    x 1.703450 0.000000 0.000000 
#    y 0.000000 1.705270 0.000000 
#    z 0.000000 0.000000 1.705070 
# 
# From -- ./inp_files/9320.got.cif
#   From: 2010.05.17/outbox.cif.g08.bks.cpg/sg46_5_cif.got.tgz:9320.got - 2010.06.03 19:58:25.
