data_PCOD9380197
_publ_section_title
;
Structure prediction by ZEFSAII (Michael W. Deem and Ramdas Pophale) SiO2 
 PCOD9380197
Probable space group: I M A 2
;
_chemical_formula_sum "Si O2"
_cell_formula_units_Z 48
_cell_length_a 16.460029
_cell_length_b 8.905418
_cell_length_c 16.025139
_cell_angle_alpha 90.000000
_cell_angle_beta 90.000000
_cell_angle_gamma 90.000000
_cell_volume 2349.019978
_symmetry_space_group_name_H-M "I M A 2"
_symmetry_group_IT_number 46
_symmetry_cell_setting 'orthorhombic'
loop_
_space_group_symop_operation_xyz
x,y,z
-x,-y,z
1/2-x,y,z
1/2+x,-y,z
1/2+x,1/2+y,1/2+z
1/2-x,1/2-y,1/2+z
-x,1/2+y,1/2+z
x,1/2-y,1/2+z
loop_
_atom_site_type_symbol
_atom_site_label
_atom_site_fract_x
_atom_site_fract_y
_atom_site_fract_z
Si Si1 0.846401 0.430831 0.120430
Si Si2 0.345645 0.394069 0.451770
Si Si3 0.089378 0.573218 0.789037
Si Si4 0.411950 0.566698 0.300116
Si Si5 0.090533 0.070155 0.454737
Si Si6 0.346968 0.589799 0.608307
O O1 0.750000 0.423636 0.133548
O O2 0.885448 0.482317 0.207204
O O3 0.877109 0.261496 0.100558
O O4 0.866285 0.531792 0.041324
O O5 0.250000 0.352013 0.461547
O O6 0.354302 0.501693 0.371828
O O7 0.401004 0.247250 0.440794
O O8 0.375158 0.483281 0.533900
O O9 0.086518 0.752736 0.799194
O O10 0.129136 0.506858 0.872726
O O11 0.131646 0.537204 0.701354
O O12 0.000000 0.500000 0.784541
O O13 0.500000 0.500000 0.317667
O O14 0.000000 0.000000 0.461087
O O15 0.250000 0.595290 0.600117
#
# Coordination Sequence:
#
# PCOD9380197 Si02
#       6
#     8   8   8   8   8   8
#     4  10  21  39  61  87 120 161 203 250 306 365
#     4  11  24  41  62  92 125 162 206 254 306 365
#     4  10  22  39  60  87 118 155 200 247 300 359
#     4  11  22  39  63  89 121 160 202 253 307 364
#     4  11  23  39  59  88 123 159 204 254 305 364
#     4   9  21  39  60  85 115 153 199 246 299 357
#
# _framework density 20.434052000000001
#
# number of rings (size 3 to 8) (size 9 to 14) (size 15 to 20)
#    0.000    1.667    0.000    4.500    0.000    8.000 
#    0.000    1.667    0.000    0.000    0.000    0.000 
#    0.000    0.000    0.000    0.000    0.000    0.000 
#
# Total GULP energy -134054.242371 kJ/mol
# GULP energy per Si atom -5585.593432 kJ/mol
# Density = 2.038754 g / cm^3
# Si number density = 20.434052 Si / 1000 Ang^3
#
#
#
# Elastic Constant Matrix: (Units=GPa)
#
#
# Indices 1 2 3 4 5 6 
#
# 1 29.7051 11.2299 -5.3288 0.0000 0.0000 0.0000
# 2 11.2299 85.4602 57.2456 0.0000 0.0000 0.0000
# 3 -5.3288 57.2456 144.0322 0.0000 0.0000 0.0000
# 4 0.0000 0.0000 0.0000 -65.6990 0.0000 0.0000
# 5 0.0000 0.0000 0.0000 0.0000 34.4850 0.0000
# 6 0.0000 0.0000 0.0000 0.0000 0.0000 21.1823
#
#
#
# Elastic Compliance Matrix: (Units=1/GPa)
#
#
# Indices 1 2 3 4 5 6 
#
# 1 0.037500 -0.007982 0.004560 0.000000 0.000000 0.000000
# 2 -0.007982 0.017646 -0.007309 0.000000 0.000000 0.000000
# 3 0.004560 -0.007309 0.010016 0.000000 0.000000 0.000000
# 4 0.000000 0.000000 0.000000 -0.015221 0.000000 0.000000
# 5 0.000000 0.000000 0.000000 0.000000 0.028998 0.000000
# 6 0.000000 0.000000 0.000000 0.000000 0.000000 0.047209
#
#
# Mechanical properties :
#
#
# Convention : Reuss Voigt Hill
#
# Bulk Modulus (GPa) = 22.88308 42.83232 32.85770
# Shear Modulus (GPa) = 30.83043 11.06371 20.94707
#
# Velocity S-wave (km/s) = 3.88851 2.32940 3.20520
# Velocity P-wave (km/s) = 5.60210 5.31428 5.46009
#
# Compressibility (1/GPa) = 0.04370042
#
# Stress axis : x y z
#
# Youngs Moduli (GPa) = 26.66676 56.67006 99.83574
#
# Poissons Ratio (x) = 0.45235 -0.45524
# Poissons Ratio (y) = 0.21286 0.72967
# Poissons Ratio (z) = -0.12160 0.41419
#
# Static dielectric constant tensor:
#      x y z
#    x 1.722080 0.000000 0.000000 
#    y 0.000000 1.739960 0.000000 
#    z 0.000000 0.000000 1.722890 
# 
# From -- ./inp_files/16560.got.cif
#   From: 2010.05.17/outbox.cif.g08.bks.cpg/sg46_9_cif.got.tgz:16560.got - 2010.06.03 19:58:25.
