data_PCOD9380028
_publ_section_title
;
Structure prediction by ZEFSAII (Michael W. Deem and Ramdas Pophale) SiO2 
 PCOD9380028
Probable space group: I M A 2
;
_chemical_formula_sum "Si O2"
_cell_formula_units_Z 64
_cell_length_a 7.539493
_cell_length_b 13.959581
_cell_length_c 25.508325
_cell_angle_alpha 90.000000
_cell_angle_beta 90.000000
_cell_angle_gamma 90.000000
_cell_volume 2684.704353
_symmetry_space_group_name_H-M "I M A 2"
_symmetry_group_IT_number 46
_symmetry_cell_setting 'orthorhombic'
loop_
_space_group_symop_operation_xyz
x,y,z
-x,-y,z
1/2-x,y,z
1/2+x,-y,z
1/2+x,1/2+y,1/2+z
1/2-x,1/2-y,1/2+z
-x,1/2+y,1/2+z
x,1/2-y,1/2+z
loop_
_atom_site_type_symbol
_atom_site_label
_atom_site_fract_x
_atom_site_fract_y
_atom_site_fract_z
Si Si1 0.038697 0.614196 0.194440
Si Si2 0.037568 0.613000 0.308615
Si Si3 0.538005 0.389223 0.863443
Si Si4 0.951813 0.887676 0.575907
Si Si5 0.963333 0.386897 0.636311
Si Si6 0.451960 0.802064 0.030145
Si Si7 0.467521 0.706907 0.416964
Si Si8 0.962788 0.114454 0.248914
O O1 0.250000 0.629533 0.192749
O O2 0.973366 0.650673 0.251448
O O3 0.000000 0.500000 0.196019
O O4 0.971161 0.643225 0.137136
O O5 0.250000 0.628764 0.307939
O O6 0.972963 0.654122 0.363967
O O7 0.000000 0.500000 0.309262
O O8 0.500000 0.500000 0.872196
O O9 0.750000 0.380502 0.860477
O O10 0.477930 0.316926 0.907792
O O11 0.469142 0.356031 0.806088
O O12 0.750000 0.878405 0.560164
O O13 0.054102 0.812226 0.540040
O O14 0.000000 0.000000 0.572390
O O15 0.750000 0.371034 0.636930
O O16 0.037229 0.343688 0.582794
O O17 0.030043 0.348765 0.692776
O O18 0.000000 0.500000 0.635402
O O19 0.250000 0.838878 0.029031
O O20 0.531692 0.826448 0.973698
O O21 0.250000 0.701662 0.418474
O O22 0.750000 0.129373 0.249001
O O23 0.000000 0.000000 0.248356
#
# Coordination Sequence:
#
# PCOD9380028 Si02
#       8
#     8   8   8   8   8   8   8   8
#     4   9  16  29  52  80 108 136 170 212 262 321
#     4   9  18  33  54  79 107 140 175 214 262 314
#     4   9  17  31  51  72  96 126 160 202 250 299
#     4  11  22  37  57  80 107 138 174 219 272 325
#     4   9  18  32  52  76 103 135 169 209 256 305
#     4  10  21  37  54  75 105 141 182 222 260 308
#     4   9  19  35  53  74 102 138 178 215 252 301
#     4   8  14  26  46  72  98 124 158 199 247 301
#
# _framework density 23.838750999999998
#
# number of rings (size 3 to 8) (size 9 to 14) (size 15 to 20)
#    0.000    2.750    0.000    2.250    0.000    3.000 
#    0.000    6.875    0.000    4.500    0.000    0.000 
#    0.000    0.000    0.000    0.000    0.000    0.000 
#
# Total GULP energy -178556.223879 kJ/mol
# GULP energy per Si atom -5579.881996 kJ/mol
# Density = 2.378449 g / cm^3
# Si number density = 23.838751 Si / 1000 Ang^3
#
#
#
# Elastic Constant Matrix: (Units=GPa)
#
#
# Indices 1 2 3 4 5 6 
#
# 1 69.1865 -13.1699 -2.6349 0.0000 0.0000 0.0000
# 2 -13.1699 44.9273 18.6716 0.0000 0.0000 0.0000
# 3 -2.6349 18.6716 137.9989 0.0000 0.0000 0.0000
# 4 0.0000 0.0000 0.0000 25.8768 0.0000 0.0000
# 5 0.0000 0.0000 0.0000 0.0000 1.1493 0.0000
# 6 0.0000 0.0000 0.0000 0.0000 0.0000 9.2435
#
#
#
# Elastic Compliance Matrix: (Units=1/GPa)
#
#
# Indices 1 2 3 4 5 6 
#
# 1 0.015322 0.004630 -0.000334 0.000000 0.000000 0.000000
# 2 0.004630 0.024984 -0.003292 0.000000 0.000000 0.000000
# 3 -0.000334 -0.003292 0.007685 0.000000 0.000000 0.000000
# 4 0.000000 0.000000 0.000000 0.038645 0.000000 0.000000
# 5 0.000000 0.000000 0.000000 0.000000 0.870058 0.000000
# 6 0.000000 0.000000 0.000000 0.000000 0.000000 0.108184
#
#
# Mechanical properties :
#
#
# Convention : Reuss Voigt Hill
#
# Bulk Modulus (GPa) = 19.99985 28.64959 24.32472
# Shear Modulus (GPa) = 4.63162 23.87033 14.25097
#
# Velocity S-wave (km/s) = 1.39539 3.16780 2.44766
# Velocity P-wave (km/s) = 3.31723 5.04224 4.26779
#
# Compressibility (1/GPa) = 0.05000038
#
# Stress axis : x y z
#
# Youngs Moduli (GPa) = 65.26404 40.02623 130.11567
#
# Poissons Ratio (x) = -0.18533 0.04345
# Poissons Ratio (y) = -0.30219 0.42833
# Poissons Ratio (z) = 0.02179 0.13176
#
# Static dielectric constant tensor:
#      x y z
#    x 1.911860 0.000000 0.000000 
#    y 0.000000 1.921820 0.000000 
#    z 0.000000 0.000000 1.929730 
# 
# From -- ./inp_files/23192.got.cif
#   From: 2010.05.17/outbox.cif.g08.bks.cpg/sg46_12_cif.got.tgz:23192.got - 2010.06.03 19:58:25.
