data_PCOD9380095
_publ_section_title
;
Structure prediction by ZEFSAII (Michael W. Deem and Ramdas Pophale) SiO2 
 PCOD9380095
Probable space group: I M A 2
;
_chemical_formula_sum "Si O2"
_cell_formula_units_Z 40
_cell_length_a 9.660936
_cell_length_b 7.532111
_cell_length_c 27.263327
_cell_angle_alpha 90.000000
_cell_angle_beta 90.000000
_cell_angle_gamma 90.000000
_cell_volume 1983.877122
_symmetry_space_group_name_H-M "I M A 2"
_symmetry_group_IT_number 46
_symmetry_cell_setting 'orthorhombic'
loop_
_space_group_symop_operation_xyz
x,y,z
-x,-y,z
1/2-x,y,z
1/2+x,-y,z
1/2+x,1/2+y,1/2+z
1/2-x,1/2-y,1/2+z
-x,1/2+y,1/2+z
x,1/2-y,1/2+z
loop_
_atom_site_type_symbol
_atom_site_label
_atom_site_fract_x
_atom_site_fract_y
_atom_site_fract_z
Si Si1 0.750000 0.478777 0.299420
Si Si2 0.081656 0.811388 0.053378
Si Si3 0.000000 0.000000 0.724880
Si Si4 0.921790 0.807549 0.148724
Si Si5 0.984704 0.213753 0.945198
Si Si6 0.250000 0.832494 0.371127
Si Si7 0.250000 0.220378 0.384272
O O1 0.624180 0.489981 0.262732
O O2 0.750000 0.288880 0.324326
O O3 0.750000 0.620482 0.344614
O O4 0.250000 0.827523 0.061440
O O5 0.996002 0.732224 0.099033
O O6 0.056621 0.727207 0.999900
O O7 0.000000 0.000000 0.049371
O O8 0.032968 0.170519 0.690868
O O9 0.750000 0.822134 0.145338
O O10 0.000000 0.000000 0.156178
O O11 0.875942 0.279043 0.905718
O O12 0.125113 0.279659 0.922248
O O13 0.000000 0.000000 0.945101
O O14 0.250000 0.035777 0.356110
#
# Coordination Sequence:
#
# PCOD9380095 Si02
#       7
#     4   8   4   8   8   4   4
#     4  12  26  48  72 102 134 188 240 298 356 412
#     4  10  21  37  68 104 141 189 227 276 351 420
#     4  12  28  48  76 100 140 184 246 296 360 414
#     4  11  25  46  74 106 142 182 233 298 355 422
#     4  11  21  41  68 100 143 188 225 279 345 415
#     4  12  24  46  69  99 139 179 234 290 342 421
#     4  12  26  42  71  99 139 185 232 288 350 413
#
# _framework density 20.162538999999999
#
# number of rings (size 3 to 8) (size 9 to 14) (size 15 to 20)
#    0.000    0.800    4.000    4.200    8.400    1.600 
#    3.600    0.000    0.000    0.000    0.000    0.000 
#    0.000    0.000    0.000    0.000    0.000    0.000 
#
# Total GULP energy -111448.745818 kJ/mol
# GULP energy per Si atom -5572.437291 kJ/mol
# Density = 2.011665 g / cm^3
# Si number density = 20.162539 Si / 1000 Ang^3
#
#
#
# Elastic Constant Matrix: (Units=GPa)
#
#
# Indices 1 2 3 4 5 6 
#
# 1 196.7888 0.1991 38.7908 0.0000 0.0000 0.0000
# 2 0.1991 78.7256 6.6371 0.0000 0.0000 0.0000
# 3 38.7908 6.6371 100.5568 0.0000 0.0000 0.0000
# 4 0.0000 0.0000 0.0000 14.4564 0.0000 0.0000
# 5 0.0000 0.0000 0.0000 0.0000 45.5155 0.0000
# 6 0.0000 0.0000 0.0000 0.0000 0.0000 -66.8112
#
#
#
# Elastic Compliance Matrix: (Units=1/GPa)
#
#
# Indices 1 2 3 4 5 6 
#
# 1 0.005502 0.000166 -0.002133 0.000000 0.000000 0.000000
# 2 0.000166 0.012778 -0.000907 0.000000 0.000000 0.000000
# 3 -0.002133 -0.000907 0.010827 0.000000 0.000000 0.000000
# 4 0.000000 0.000000 0.000000 0.069173 0.000000 0.000000
# 5 0.000000 0.000000 0.000000 0.000000 0.021971 0.000000
# 6 0.000000 0.000000 0.000000 0.000000 0.000000 -0.014968
#
#
# Mechanical properties :
#
#
# Convention : Reuss Voigt Hill
#
# Bulk Modulus (GPa) = 42.81164 51.92501 47.36832
# Shear Modulus (GPa) = 42.08045 20.66177 31.37111
#
# Velocity S-wave (km/s) = 4.57339 3.20466 3.94878
# Velocity P-wave (km/s) = 7.01194 6.28508 6.65843
#
# Compressibility (1/GPa) = 0.02335813
#
# Stress axis : x y z
#
# Youngs Moduli (GPa) = 181.75370 78.25683 92.35743
#
# Poissons Ratio (x) = -0.01299 0.19703
# Poissons Ratio (y) = -0.03016 0.08381
# Poissons Ratio (z) = 0.38775 0.07101
#
# Static dielectric constant tensor:
#      x y z
#    x 1.625470 0.000000 0.000000 
#    y 0.000000 1.743800 0.000000 
#    z 0.000000 0.000000 1.724020 
# 
# From -- ./inp_files/22791.got.cif
#   From: 2010.05.17/outbox.cif.g08.bks.cpg/sg46_12_cif.got.tgz:22791.got - 2010.06.03 19:58:25.
