data_PCOD9380776
_publ_section_title
;
Structure prediction by ZEFSAII (Michael W. Deem and Ramdas Pophale) SiO2 
 PCOD9380776
Probable space group: I M A 2
;
_chemical_formula_sum "Si O2"
_cell_formula_units_Z 36
_cell_length_a 14.412294
_cell_length_b 5.189419
_cell_length_c 21.874996
_cell_angle_alpha 90.000000
_cell_angle_beta 90.000000
_cell_angle_gamma 90.000000
_cell_volume 1636.062283
_symmetry_space_group_name_H-M "I M A 2"
_symmetry_group_IT_number 46
_symmetry_cell_setting 'orthorhombic'
loop_
_space_group_symop_operation_xyz
x,y,z
-x,-y,z
1/2-x,y,z
1/2+x,-y,z
1/2+x,1/2+y,1/2+z
1/2-x,1/2-y,1/2+z
-x,1/2+y,1/2+z
x,1/2-y,1/2+z
loop_
_atom_site_type_symbol
_atom_site_label
_atom_site_fract_x
_atom_site_fract_y
_atom_site_fract_z
Si Si1 0.538498 0.246792 0.197320
Si Si2 0.500000 0.000000 0.581756
Si Si3 0.250000 0.245158 0.298680
Si Si4 0.642003 0.417828 0.976464
Si Si5 0.600660 0.589168 0.397041
Si Si6 0.250000 0.736323 0.220815
O O1 0.500000 0.500000 0.230242
O O2 0.485448 0.274324 0.131761
O O3 0.649208 0.231411 0.189379
O O4 0.500000 0.000000 0.230941
O O5 0.584188 0.084659 0.538995
O O6 0.336014 0.326188 0.340910
O O7 0.250000 0.440487 0.242310
O O8 0.250000 0.949974 0.275729
O O9 0.750000 0.474156 0.987345
O O10 0.599124 0.657761 0.939403
O O11 0.636324 0.153356 0.937682
O O12 0.500000 0.500000 0.377081
#
# Coordination Sequence:
#
# PCOD9380776 Si02
#       6
#     8   4   4   8   8   4
#     4  10  25  46  69 101 140 172 244 291 341 424
#     4  10  26  40  74 100 144 180 226 274 366 410
#     4  12  26  44  72  99 137 182 234 286 357 395
#     4  12  23  41  69 101 143 180 218 272 344 424
#     4  12  24  44  66 102 141 176 227 281 335 428
#     4  12  26  48  74  97 135 188 240 298 347 401
#
# _framework density 22.004054
#
# number of rings (size 3 to 8) (size 9 to 14) (size 15 to 20)
#    0.667    0.000    4.444    2.667    4.667    2.667 
#    2.000    0.000    0.000    0.000    0.000    0.000 
#    0.000    0.000    0.000    0.000    0.000    0.000 
#
# Total GULP energy -100433.734867 kJ/mol
# GULP energy per Si atom -5579.651937 kJ/mol
# Density = 2.195397 g / cm^3
# Si number density = 22.004054 Si / 1000 Ang^3
#
#
#
# Elastic Constant Matrix: (Units=GPa)
#
#
# Indices 1 2 3 4 5 6 
#
# 1 129.5984 7.5067 15.2505 0.0000 0.0000 0.0000
# 2 7.5067 141.7341 4.9123 0.0000 0.0000 0.0000
# 3 15.2505 4.9123 55.4922 0.0000 0.0000 0.0000
# 4 0.0000 0.0000 0.0000 14.5333 0.0000 0.0000
# 5 0.0000 0.0000 0.0000 0.0000 44.4863 0.0000
# 6 0.0000 0.0000 0.0000 0.0000 0.0000 28.1602
#
#
#
# Elastic Compliance Matrix: (Units=1/GPa)
#
#
# Indices 1 2 3 4 5 6 
#
# 1 0.007991 -0.000348 -0.002165 0.000000 0.000000 0.000000
# 2 -0.000348 0.007092 -0.000532 0.000000 0.000000 0.000000
# 3 -0.002165 -0.000532 0.018663 0.000000 0.000000 0.000000
# 4 0.000000 0.000000 0.000000 0.068808 0.000000 0.000000
# 5 0.000000 0.000000 0.000000 0.000000 0.022479 0.000000
# 6 0.000000 0.000000 0.000000 0.000000 0.000000 0.035511
#
#
# Mechanical properties :
#
#
# Convention : Reuss Voigt Hill
#
# Bulk Modulus (GPa) = 36.15996 42.46264 39.31130
# Shear Modulus (GPa) = 28.43278 37.37964 32.90621
#
# Velocity S-wave (km/s) = 3.59856 4.12607 3.87131
# Velocity P-wave (km/s) = 5.80820 6.48374 6.15524
#
# Compressibility (1/GPa) = 0.02765490
#
# Stress axis : x y z
#
# Youngs Moduli (GPa) = 125.13898 140.99701 53.58274
#
# Poissons Ratio (x) = 0.04909 0.11602
# Poissons Ratio (y) = 0.04357 0.02851
# Poissons Ratio (z) = 0.27096 0.07503
#
# Static dielectric constant tensor:
#      x y z
#    x 1.836620 0.000000 0.000000 
#    y 0.000000 1.929430 0.000000 
#    z 0.000000 0.000000 1.819390 
# 
# From -- ./inp_files/21865.got.cif
#   From: 2010.05.17/outbox.cif.g08.bks.cpg/sg46_11_cif.got.tgz:21865.got - 2010.06.03 19:58:25.
