data_PCOD9380102
_publ_section_title
;
Structure prediction by ZEFSAII (Michael W. Deem and Ramdas Pophale) SiO2 
 PCOD9380102
Probable space group: I M A 2
;
_chemical_formula_sum "Si O2"
_cell_formula_units_Z 56
_cell_length_a 21.894598
_cell_length_b 23.713274
_cell_length_c 5.330492
_cell_angle_alpha 90.000000
_cell_angle_beta 90.000000
_cell_angle_gamma 90.000000
_cell_volume 2767.552009
_symmetry_space_group_name_H-M "I M A 2"
_symmetry_group_IT_number 46
_symmetry_cell_setting 'orthorhombic'
loop_
_space_group_symop_operation_xyz
x,y,z
-x,-y,z
1/2-x,y,z
1/2+x,-y,z
1/2+x,1/2+y,1/2+z
1/2-x,1/2-y,1/2+z
-x,1/2+y,1/2+z
x,1/2-y,1/2+z
loop_
_atom_site_type_symbol
_atom_site_label
_atom_site_fract_x
_atom_site_fract_y
_atom_site_fract_z
Si Si1 0.351287 0.276778 0.158690
Si Si2 0.416262 0.567869 0.347858
Si Si3 0.018824 0.894930 0.341414
Si Si4 0.181067 0.396775 0.350955
Si Si5 0.091553 0.035559 0.154559
Si Si6 0.489478 0.230469 0.217864
Si Si7 0.681261 0.014663 0.550539
O O1 0.324458 0.244991 0.399550
O O2 0.342166 0.342861 0.199340
O O3 0.422653 0.257762 0.165783
O O4 0.434068 0.598811 0.606733
O O5 0.429754 0.502115 0.418562
O O6 0.453161 0.594044 0.114978
O O7 0.347350 0.560353 0.241568
O O8 0.966240 0.940985 0.298709
O O9 0.988841 0.833694 0.308345
O O10 0.250000 0.386210 0.444583
O O11 0.132851 0.412116 0.565735
O O12 0.183374 0.453660 0.186633
O O13 0.134695 0.995738 0.322567
O O14 0.520010 0.264592 0.445045
O O15 0.750000 0.028521 0.469946
#
# Coordination Sequence:
#
# PCOD9380102 Si02
#       7
#     8   8   8   8   8   8   8
#     4  10  22  38  56  79 113 155 217 266 312 348
#     4  11  25  41  60  94 126 164 208 256 322 384
#     4  12  25  38  63  92 129 166 213 262 320 386
#     4  10  23  39  60  88 121 172 224 265 310 358
#     4  11  23  37  64  88 130 166 211 261 312 378
#     4  10  21  38  58  85 118 163 205 253 316 365
#     4  10  23  42  64  91 128 170 212 259 308 377
#
# _framework density 20.234487999999999
#
# number of rings (size 3 to 8) (size 9 to 14) (size 15 to 20)
#    0.000    1.429    1.429    3.429   12.000    1.143 
#    0.000    0.000    0.000    0.000    0.000    0.000 
#    0.000   11.429    0.000    0.000    0.000    0.000 
#
# Total GULP energy -156242.227183 kJ/mol
# GULP energy per Si atom -5580.079542 kJ/mol
# Density = 2.018843 g / cm^3
# Si number density = 20.234488 Si / 1000 Ang^3
#
#
#
# Elastic Constant Matrix: (Units=GPa)
#
#
# Indices 1 2 3 4 5 6 
#
# 1 52.1390 33.6540 12.6423 0.0000 0.0000 0.0000
# 2 33.6540 61.4052 -2.8797 0.0000 0.0000 0.0000
# 3 12.6423 -2.8797 97.4845 0.0000 0.0000 0.0000
# 4 0.0000 0.0000 0.0000 29.0394 0.0000 0.0000
# 5 0.0000 0.0000 0.0000 0.0000 -4.3230 0.0000
# 6 0.0000 0.0000 0.0000 0.0000 0.0000 14.4819
#
#
#
# Elastic Compliance Matrix: (Units=1/GPa)
#
#
# Indices 1 2 3 4 5 6 
#
# 1 0.031628 -0.017551 -0.004620 0.000000 0.000000 0.000000
# 2 -0.017551 0.026047 0.003046 0.000000 0.000000 0.000000
# 3 -0.004620 0.003046 0.010947 0.000000 0.000000 0.000000
# 4 0.000000 0.000000 0.000000 0.034436 0.000000 0.000000
# 5 0.000000 0.000000 0.000000 0.000000 -0.231321 0.000000
# 6 0.000000 0.000000 0.000000 0.000000 0.000000 0.069052
#
#
# Mechanical properties :
#
#
# Convention : Reuss Voigt Hill
#
# Bulk Modulus (GPa) = 32.92577 33.09577 33.01077
# Shear Modulus (GPa) = -461.47433 19.01381 -221.23026
#
# Velocity S-wave (km/s) = -15.11815 3.06873 -10.46760
# Velocity P-wave (km/s) = 16.98343 5.38032 11.39055
#
# Compressibility (1/GPa) = 0.03037135
#
# Stress axis : x y z
#
# Youngs Moduli (GPa) = 31.61714 38.39179 91.34782
#
# Poissons Ratio (x) = 0.67382 0.42204
# Poissons Ratio (y) = 0.55492 -0.27820
# Poissons Ratio (z) = 0.14608 -0.11692
#
# Static dielectric constant tensor:
#      x y z
#    x 1.861190 0.000000 0.000000 
#    y 0.000000 1.732890 0.000000 
#    z 0.000000 0.000000 1.824130 
# 
# From -- ./inp_files/2373.got.cif
#   From: 2010.05.17/outbox.cif.g08.bks.cpg/sg46_2_cif.got.tgz:2373.got - 2010.06.03 19:58:25.
