data_PCOD9380139
_publ_section_title
;
Structure prediction by ZEFSAII (Michael W. Deem and Ramdas Pophale) SiO2 
 PCOD9380139
Probable space group: I M A 2
;
_chemical_formula_sum "Si O2"
_cell_formula_units_Z 64
_cell_length_a 19.878730
_cell_length_b 10.144997
_cell_length_c 15.930593
_cell_angle_alpha 90.000000
_cell_angle_beta 90.000000
_cell_angle_gamma 90.000000
_cell_volume 3212.717214
_symmetry_space_group_name_H-M "I M A 2"
_symmetry_group_IT_number 46
_symmetry_cell_setting 'orthorhombic'
loop_
_space_group_symop_operation_xyz
x,y,z
-x,-y,z
1/2-x,y,z
1/2+x,-y,z
1/2+x,1/2+y,1/2+z
1/2-x,1/2-y,1/2+z
-x,1/2+y,1/2+z
x,1/2-y,1/2+z
loop_
_atom_site_type_symbol
_atom_site_label
_atom_site_fract_x
_atom_site_fract_y
_atom_site_fract_z
Si Si1 0.522671 0.844145 0.704250
Si Si2 0.562154 0.098076 0.239974
Si Si3 0.172024 0.637550 0.050486
Si Si4 0.569401 0.916862 0.532532
Si Si5 0.937075 0.784349 0.887873
Si Si6 0.594024 0.257985 0.395183
Si Si7 0.676860 0.088670 0.122662
Si Si8 0.672696 0.000031 0.928089
O O1 0.461905 0.740189 0.705086
O O2 0.555948 0.825293 0.613383
O O3 0.564357 0.796925 0.786315
O O4 0.500000 0.000000 0.713255
O O5 0.592365 0.140360 0.328783
O O6 0.616342 0.037353 0.177923
O O7 0.500000 0.000000 0.250454
O O8 0.250000 0.619173 0.024804
O O9 0.125236 0.699770 0.978794
O O10 0.132775 0.502539 0.063927
O O11 0.173602 0.751262 0.120810
O O12 0.578528 0.845773 0.443045
O O13 0.500000 0.000000 0.524590
O O14 0.882146 0.886987 0.919275
O O15 0.017094 0.808533 0.905950
O O16 0.642978 0.378934 0.373549
O O17 0.750000 0.049022 0.155544
O O18 0.672984 0.043650 0.025930
O O19 0.750000 0.968370 0.905707
#
# Coordination Sequence:
#
# PCOD9380139 Si02
#       8
#     8   8   8   8   8   8   8   8
#     4  10  23  41  59  95 128 163 216 268 313 395
#     4  11  24  36  62  94 124 157 209 268 327 379
#     4  10  21  38  62  89 118 163 219 259 306 388
#     4  11  22  39  65  88 128 175 210 266 334 388
#     4  11  22  37  66  90 126 164 214 266 325 376
#     4  10  21  38  61  88 123 159 205 265 317 382
#     4   9  20  38  58  86 122 158 204 258 314 387
#     4  10  22  39  61  91 124 163 212 258 319 389
#
# _framework density 19.920832000000001
#
# number of rings (size 3 to 8) (size 9 to 14) (size 15 to 20)
#    0.000    1.750    1.250    4.500    7.000    1.500 
#    0.000    1.875    0.000    0.000    0.000    0.000 
#    0.000    0.000    0.000    0.000    0.000    0.000 
#
# Total GULP energy -178238.796950 kJ/mol
# GULP energy per Si atom -5569.962405 kJ/mol
# Density = 1.987549 g / cm^3
# Si number density = 19.920832 Si / 1000 Ang^3
#
#
#
# Elastic Constant Matrix: (Units=GPa)
#
#
# Indices 1 2 3 4 5 6 
#
# 1 86.7486 11.9202 25.6662 0.0000 0.0000 0.0000
# 2 11.9202 37.6612 22.7182 0.0000 0.0000 0.0000
# 3 25.6662 22.7182 55.1059 0.0000 0.0000 0.0000
# 4 0.0000 0.0000 0.0000 18.3870 0.0000 0.0000
# 5 0.0000 0.0000 0.0000 0.0000 4.4860 0.0000
# 6 0.0000 0.0000 0.0000 0.0000 0.0000 20.8005
#
#
#
# Elastic Compliance Matrix: (Units=1/GPa)
#
#
# Indices 1 2 3 4 5 6 
#
# 1 0.013381 -0.000633 -0.005971 0.000000 0.000000 0.000000
# 2 -0.000633 0.035372 -0.014288 0.000000 0.000000 0.000000
# 3 -0.005971 -0.014288 0.026818 0.000000 0.000000 0.000000
# 4 0.000000 0.000000 0.000000 0.054386 0.000000 0.000000
# 5 0.000000 0.000000 0.000000 0.000000 0.222918 0.000000
# 6 0.000000 0.000000 0.000000 0.000000 0.000000 0.048076
#
#
# Mechanical properties :
#
#
# Convention : Reuss Voigt Hill
#
# Bulk Modulus (GPa) = 29.59725 33.34721 31.47223
# Shear Modulus (GPa) = 11.01326 16.68211 13.84769
#
# Velocity S-wave (km/s) = 2.35383 2.89696 2.63940
# Velocity P-wave (km/s) = 4.71986 5.28829 5.01214
#
# Compressibility (1/GPa) = 0.03378693
#
# Stress axis : x y z
#
# Youngs Moduli (GPa) = 74.73087 28.27126 37.28774
#
# Poissons Ratio (x) = 0.01790 0.22266
# Poissons Ratio (y) = 0.04732 0.53275
# Poissons Ratio (z) = 0.44626 0.40393
#
# Static dielectric constant tensor:
#      x y z
#    x 1.703760 0.000000 0.000000 
#    y 0.000000 1.783390 0.000000 
#    z 0.000000 0.000000 1.731260 
# 
# From -- ./inp_files/20245.got.cif
#   From: 2010.05.17/outbox.cif.g08.bks.cpg/sg46_11_cif.got.tgz:20245.got - 2010.06.03 19:58:25.
