data_PCOD9380093
_publ_section_title
;
Structure prediction by ZEFSAII (Michael W. Deem and Ramdas Pophale) SiO2 
 PCOD9380093
Probable space group: I M A 2
;
_chemical_formula_sum "Si O2"
_cell_formula_units_Z 64
_cell_length_a 22.473481
_cell_length_b 9.128570
_cell_length_c 14.467416
_cell_angle_alpha 90.000000
_cell_angle_beta 90.000000
_cell_angle_gamma 90.000000
_cell_volume 2968.001163
_symmetry_space_group_name_H-M "I M A 2"
_symmetry_group_IT_number 46
_symmetry_cell_setting 'orthorhombic'
loop_
_space_group_symop_operation_xyz
x,y,z
-x,-y,z
1/2-x,y,z
1/2+x,-y,z
1/2+x,1/2+y,1/2+z
1/2-x,1/2-y,1/2+z
-x,1/2+y,1/2+z
x,1/2-y,1/2+z
loop_
_atom_site_type_symbol
_atom_site_label
_atom_site_fract_x
_atom_site_fract_y
_atom_site_fract_z
Si Si1 0.981702 0.845149 0.901770
Si Si2 0.102023 0.695369 0.922135
Si Si3 0.561260 0.934680 0.306063
Si Si4 0.682203 0.368985 0.556011
Si Si5 0.817137 0.584713 0.147715
Si Si6 0.819975 0.283926 0.244252
Si Si7 0.138749 0.307652 0.498963
Si Si8 0.315486 0.324887 0.804895
O O1 0.958256 0.729912 0.827715
O O2 0.042477 0.784423 0.942167
O O3 0.929262 0.848302 0.976028
O O4 0.000000 0.000000 0.860746
O O5 0.076827 0.533751 0.897124
O O6 0.136813 0.749217 0.829640
O O7 0.145271 0.741969 0.003979
O O8 0.628070 0.917943 0.268541
O O9 0.500000 0.000000 0.263077
O O10 0.750000 0.346892 0.527805
O O11 0.677424 0.337852 0.664608
O O12 0.666373 0.536771 0.530202
O O13 0.750000 0.559093 0.109368
O O14 0.838890 0.433007 0.191374
O O15 0.853838 0.677241 0.072879
O O16 0.811634 0.691695 0.234667
O O17 0.750000 0.300916 0.272666
O O18 0.168851 0.243227 0.405365
O O19 0.250000 0.398790 0.808574
#
# Coordination Sequence:
#
# PCOD9380093 Si02
#       8
#     8   8   8   8   8   8   8   8
#     4  10  21  42  68  91 121 174 223 273 323 401
#     4  11  22  43  66  88 131 173 218 274 334 395
#     4   9  22  39  63  93 126 168 219 274 332 399
#     4  11  23  38  63  97 131 169 211 266 340 406
#     4  10  22  40  62  96 137 170 218 279 332 404
#     4  10  24  41  63 100 137 171 217 272 341 411
#     4  11  22  41  66  92 131 174 221 279 334 395
#     4  10  21  37  66  98 125 172 226 271 333 396
#
# _framework density 21.563333
#
# number of rings (size 3 to 8) (size 9 to 14) (size 15 to 20)
#    0.000    1.750    1.250    2.250    7.000    2.000 
#    0.000    4.375    0.000    0.000    0.000    0.000 
#    0.000    0.000    0.000    0.000    0.000    0.000 
#
# Total GULP energy -178375.753517 kJ/mol
# GULP energy per Si atom -5574.242297 kJ/mol
# Density = 2.151425 g / cm^3
# Si number density = 21.563333 Si / 1000 Ang^3
#
#
#
# Elastic Constant Matrix: (Units=GPa)
#
#
# Indices 1 2 3 4 5 6 
#
# 1 167.7720 34.9379 31.2040 0.0000 0.0000 0.0000
# 2 34.9379 94.8717 5.6879 0.0000 0.0000 0.0000
# 3 31.2040 5.6879 69.1550 0.0000 0.0000 0.0000
# 4 0.0000 0.0000 0.0000 28.8153 0.0000 0.0000
# 5 0.0000 0.0000 0.0000 0.0000 14.7318 0.0000
# 6 0.0000 0.0000 0.0000 0.0000 0.0000 -1.4346
#
#
#
# Elastic Compliance Matrix: (Units=1/GPa)
#
#
# Indices 1 2 3 4 5 6 
#
# 1 0.007013 -0.002405 -0.002967 0.000000 0.000000 0.000000
# 2 -0.002405 0.011417 0.000146 0.000000 0.000000 0.000000
# 3 -0.002967 0.000146 0.015787 0.000000 0.000000 0.000000
# 4 0.000000 0.000000 0.000000 0.034704 0.000000 0.000000
# 5 0.000000 0.000000 0.000000 0.000000 0.067880 0.000000
# 6 0.000000 0.000000 0.000000 0.000000 0.000000 -0.697069
#
#
# Mechanical properties :
#
#
# Convention : Reuss Voigt Hill
#
# Bulk Modulus (GPa) = 42.07602 52.82870 47.45236
# Shear Modulus (GPa) = -9.22688 25.75377 8.26345
#
# Velocity S-wave (km/s) = -2.07081 3.45966 1.95972
# Velocity P-wave (km/s) = 3.71987 6.36486 5.21291
#
# Compressibility (1/GPa) = 0.02376650
#
# Stress axis : x y z
#
# Youngs Moduli (GPa) = 142.59191 87.58563 63.34385
#
# Poissons Ratio (x) = 0.21063 0.18792
# Poissons Ratio (y) = 0.34290 -0.00925
# Poissons Ratio (z) = 0.42301 -0.01279
#
# Static dielectric constant tensor:
#      x y z
#    x 1.826750 0.000000 0.000000 
#    y 0.000000 1.849520 0.000000 
#    z 0.000000 0.000000 1.773560 
# 
# From -- ./inp_files/17429.got.cif
#   From: 2010.05.17/outbox.cif.g08.bks.cpg/sg46_9_cif.got.tgz:17429.got - 2010.06.03 19:58:25.
