data_PCOD9380447
_publ_section_title
;
Structure prediction by ZEFSAII (Michael W. Deem and Ramdas Pophale) SiO2 
 PCOD9380447
Probable space group: I M A 2
;
_chemical_formula_sum "Si O2"
_cell_formula_units_Z 64
_cell_length_a 8.602323
_cell_length_b 31.545815
_cell_length_c 12.150559
_cell_angle_alpha 90.000000
_cell_angle_beta 90.000000
_cell_angle_gamma 90.000000
_cell_volume 3297.264267
_symmetry_space_group_name_H-M "I M A 2"
_symmetry_group_IT_number 46
_symmetry_cell_setting 'orthorhombic'
loop_
_space_group_symop_operation_xyz
x,y,z
-x,-y,z
1/2-x,y,z
1/2+x,-y,z
1/2+x,1/2+y,1/2+z
1/2-x,1/2-y,1/2+z
-x,1/2+y,1/2+z
x,1/2-y,1/2+z
loop_
_atom_site_type_symbol
_atom_site_label
_atom_site_fract_x
_atom_site_fract_y
_atom_site_fract_z
Si Si1 0.431756 0.337986 0.290500
Si Si2 0.434883 0.455537 0.527705
Si Si3 0.935218 0.202445 0.007416
Si Si4 0.936279 0.871222 0.158591
Si Si5 0.937389 0.374087 0.903966
Si Si6 0.936267 0.298942 0.071364
Si Si7 0.434176 0.568867 0.293770
Si Si8 0.437440 0.955206 0.549558
O O1 0.250000 0.348956 0.294315
O O2 0.477589 0.310759 0.396488
O O3 0.474155 0.313139 0.180050
O O4 0.530242 0.381157 0.293031
O O5 0.500000 0.500000 0.570972
O O6 0.250000 0.456845 0.533362
O O7 0.488053 0.414038 0.594927
O O8 0.485373 0.450220 0.400957
O O9 0.750000 0.199245 0.989793
O O10 0.971169 0.250674 0.040059
O O11 0.986002 0.169233 0.100771
O O12 0.750000 0.867816 0.147317
O O13 0.983591 0.873807 0.285574
O O14 0.750000 0.375622 0.889863
O O15 0.973519 0.331884 0.973844
O O16 0.985010 0.415080 0.975837
O O17 0.750000 0.302386 0.092156
O O18 0.250000 0.561520 0.302417
O O19 0.490281 0.551295 0.176060
O O20 0.250000 0.955796 0.550645
O O21 0.500000 0.000000 0.507810
#
# Coordination Sequence:
#
# PCOD9380447 Si02
#       8
#     8   8   8   8   8   8   8   8
#     4  12  24  39  64  97 132 165 201 258 319 371
#     4  11  24  41  62  91 126 164 209 261 314 375
#     4  11  24  42  68  94 123 168 213 257 307 369
#     4  11  25  43  62  91 128 163 206 261 317 372
#     4  10  22  43  65  88 121 165 212 257 306 369
#     4  10  23  44  67  92 123 164 216 258 301 372
#     4  11  21  39  65  92 126 167 208 255 309 371
#     4  10  22  39  62  91 123 159 203 255 307 365
#
# _framework density 19.410032000000001
#
# number of rings (size 3 to 8) (size 9 to 14) (size 15 to 20)
#    0.000    1.250    2.500    3.000    1.750    6.000 
#    0.000    2.500    0.000    0.000    0.000    0.000 
#    0.000    0.000    0.000    0.000    0.000    0.000 
#
# Total GULP energy -178958.444628 kJ/mol
# GULP energy per Si atom -5592.451395 kJ/mol
# Density = 1.936585 g / cm^3
# Si number density = 19.410032 Si / 1000 Ang^3
#
#
#
# Elastic Constant Matrix: (Units=GPa)
#
#
# Indices 1 2 3 4 5 6 
#
# 1 17.0708 19.6989 14.9860 -0.0004 -0.0003 0.0000
# 2 19.6989 148.8055 46.4501 -0.0006 -0.0005 0.0000
# 3 14.9860 46.4501 107.2580 -0.0013 -0.0013 -0.0001
# 4 -0.0004 -0.0006 -0.0013 28.0671 0.0001 -0.0001
# 5 -0.0003 -0.0005 -0.0013 0.0001 4.5190 -0.0002
# 6 0.0000 0.0000 -0.0001 -0.0001 -0.0002 27.4907
#
#
#
# Elastic Compliance Matrix: (Units=1/GPa)
#
#
# Indices 1 2 3 4 5 6 
#
# 1 0.073415 -0.007535 -0.006994 0.000000 0.000002 0.000000
# 2 -0.007535 0.008544 -0.002647 0.000000 0.000000 0.000000
# 3 -0.006994 -0.002647 0.011447 0.000000 0.000003 0.000000
# 4 0.000000 0.000000 0.000000 0.035629 -0.000001 0.000000
# 5 0.000002 0.000000 0.000003 -0.000001 0.221290 0.000001
# 6 0.000000 0.000000 0.000000 0.000000 0.000001 0.036376
#
#
# Mechanical properties :
#
#
# Convention : Reuss Voigt Hill
#
# Bulk Modulus (GPa) = 16.93412 48.37824 32.65618
# Shear Modulus (GPa) = 11.34457 24.81531 18.07994
#
# Velocity S-wave (km/s) = 2.42020 3.57946 3.05532
# Velocity P-wave (km/s) = 4.06856 6.48551 5.41364
#
# Compressibility (1/GPa) = 0.05905239
#
# Stress axis : x y z
#
# Youngs Moduli (GPa) = 13.62117 117.03983 87.35910
#
# Poissons Ratio (x) = 0.88195 0.61100
# Poissons Ratio (y) = 0.10264 0.23127
# Poissons Ratio (z) = 0.09527 0.30984
#
# Static dielectric constant tensor:
#      x y z
#    x 1.665600 0.000000 0.000000 
#    y 0.000000 1.667600 0.000000 
#    z 0.000000 0.000000 1.649070 
# 
# From -- ./inp_files/9728.got.cif
#   From: 2010.05.17/outbox.cif.g08.bks.cpg/sg46_5_cif.got.tgz:9728.got - 2010.06.03 19:58:25.
