data_PCOD9380106
_publ_section_title
;
Structure prediction by ZEFSAII (Michael W. Deem and Ramdas Pophale) SiO2 
 PCOD9380106
Probable space group: I M A 2
;
_chemical_formula_sum "Si O2"
_cell_formula_units_Z 56
_cell_length_a 21.836869
_cell_length_b 9.266693
_cell_length_c 13.995365
_cell_angle_alpha 90.000000
_cell_angle_beta 90.000000
_cell_angle_gamma 90.000000
_cell_volume 2832.039937
_symmetry_space_group_name_H-M "I M A 2"
_symmetry_group_IT_number 46
_symmetry_cell_setting 'orthorhombic'
loop_
_space_group_symop_operation_xyz
x,y,z
-x,-y,z
1/2-x,y,z
1/2+x,-y,z
1/2+x,1/2+y,1/2+z
1/2-x,1/2-y,1/2+z
-x,1/2+y,1/2+z
x,1/2-y,1/2+z
loop_
_atom_site_type_symbol
_atom_site_label
_atom_site_fract_x
_atom_site_fract_y
_atom_site_fract_z
Si Si1 0.527926 0.783179 0.632330
Si Si2 0.137347 0.665147 0.895725
Si Si3 0.498703 0.672623 0.841552
Si Si4 0.598678 0.066201 0.593164
Si Si5 0.057131 0.103236 0.963428
Si Si6 0.678488 0.192821 0.189728
Si Si7 0.181603 0.950113 0.986479
O O1 0.510652 0.736464 0.737856
O O2 0.465959 0.847782 0.585157
O O3 0.548883 0.644198 0.573954
O O4 0.578855 0.908957 0.629379
O O5 0.068313 0.717935 0.876693
O O6 0.159848 0.620593 0.790466
O O7 0.130812 0.563011 0.988841
O O8 0.178179 0.798031 0.931173
O O9 0.500000 0.500000 0.842506
O O10 0.548254 0.745671 0.909607
O O11 0.639377 0.163382 0.664850
O O12 0.000000 0.000000 0.935171
O O13 0.124096 0.039660 0.948692
O O14 0.750000 0.230565 0.193583
O O15 0.669945 0.089207 0.097986
O O16 0.250000 0.012032 0.976588
#
# Coordination Sequence:
#
# PCOD9380106 Si02
#       7
#     8   8   8   8   8   8   8
#     4  11  23  38  61  91 133 167 202 266 331 384
#     4  11  20  37  61  92 130 166 213 267 327 379
#     4  12  25  37  64  99 135 165 216 271 336 392
#     4  10  21  38  58  93 130 163 213 269 323 383
#     4  12  23  41  65  98 128 171 218 271 326 391
#     4  10  21  38  62  91 126 175 226 268 317 391
#     4  10  23  41  64  95 130 172 223 272 324 391
#
# _framework density 19.773731999999999
#
# number of rings (size 3 to 8) (size 9 to 14) (size 15 to 20)
#    0.000    1.143    4.286    2.571    6.000    0.571 
#    0.000    0.714    0.000    6.000    0.000    0.000 
#    0.000    0.000    0.000    0.000    0.000    0.000 
#
# Total GULP energy -156283.359394 kJ/mol
# GULP energy per Si atom -5581.548550 kJ/mol
# Density = 1.972873 g / cm^3
# Si number density = 19.773732 Si / 1000 Ang^3
#
#
#
# Elastic Constant Matrix: (Units=GPa)
#
#
# Indices 1 2 3 4 5 6 
#
# 1 115.1020 49.9402 19.3470 0.0000 0.0000 0.0000
# 2 49.9402 76.6124 15.9015 0.0000 0.0000 0.0000
# 3 19.3470 15.9015 102.7104 0.0000 0.0000 0.0000
# 4 0.0000 0.0000 0.0000 19.8186 0.0000 0.0000
# 5 0.0000 0.0000 0.0000 0.0000 22.1025 0.0000
# 6 0.0000 0.0000 0.0000 0.0000 0.0000 23.5939
#
#
#
# Elastic Compliance Matrix: (Units=1/GPa)
#
#
# Indices 1 2 3 4 5 6 
#
# 1 0.012234 -0.007746 -0.001105 0.000000 0.000000 0.000000
# 2 -0.007746 0.018390 -0.001388 0.000000 0.000000 0.000000
# 3 -0.001105 -0.001388 0.010159 0.000000 0.000000 0.000000
# 4 0.000000 0.000000 0.000000 0.050458 0.000000 0.000000
# 5 0.000000 0.000000 0.000000 0.000000 0.045244 0.000000
# 6 0.000000 0.000000 0.000000 0.000000 0.000000 0.042384
#
#
# Mechanical properties :
#
#
# Convention : Reuss Voigt Hill
#
# Bulk Modulus (GPa) = 49.24817 51.64467 50.44642
# Shear Modulus (GPa) = 24.25827 27.05208 25.65517
#
# Velocity S-wave (km/s) = 3.50636 3.70277 3.60590
# Velocity P-wave (km/s) = 6.43060 6.66747 6.55011
#
# Compressibility (1/GPa) = 0.02030532
#
# Stress axis : x y z
#
# Youngs Moduli (GPa) = 81.73675 54.37783 98.43268
#
# Poissons Ratio (x) = 0.42119 0.10880
# Poissons Ratio (y) = 0.63310 0.13663
# Poissons Ratio (z) = 0.09035 0.07548
#
# Static dielectric constant tensor:
#      x y z
#    x 1.696640 0.000000 0.000000 
#    y 0.000000 1.709270 0.000000 
#    z 0.000000 0.000000 1.759260 
# 
# From -- ./inp_files/17089.got.cif
#   From: 2010.05.17/outbox.cif.g08.bks.cpg/sg46_9_cif.got.tgz:17089.got - 2010.06.03 19:58:25.
