data_PCOD9380803
_publ_section_title
;
Structure prediction by ZEFSAII (Michael W. Deem and Ramdas Pophale) SiO2 
 PCOD9380803
Probable space group: I M A 2
;
_chemical_formula_sum "Si O2"
_cell_formula_units_Z 56
_cell_length_a 20.032870
_cell_length_b 17.277306
_cell_length_c 9.484382
_cell_angle_alpha 90.000000
_cell_angle_beta 90.000000
_cell_angle_gamma 90.000000
_cell_volume 3282.677629
_symmetry_space_group_name_H-M "I M A 2"
_symmetry_group_IT_number 46
_symmetry_cell_setting 'orthorhombic'
loop_
_space_group_symop_operation_xyz
x,y,z
-x,-y,z
1/2-x,y,z
1/2+x,-y,z
1/2+x,1/2+y,1/2+z
1/2-x,1/2-y,1/2+z
-x,1/2+y,1/2+z
x,1/2-y,1/2+z
loop_
_atom_site_type_symbol
_atom_site_label
_atom_site_fract_x
_atom_site_fract_y
_atom_site_fract_z
Si Si1 0.604701 0.701824 0.271590
Si Si2 0.671878 0.631410 0.821773
Si Si3 0.994269 0.312008 0.028804
Si Si4 0.675374 0.563737 0.138794
Si Si5 0.436787 0.556680 0.216177
Si Si6 0.485091 0.647087 0.471966
Si Si7 0.533580 0.581107 0.765713
O O1 0.643967 0.780588 0.307055
O O2 0.556689 0.708906 0.132821
O O3 0.657060 0.634799 0.239658
O O4 0.553956 0.669186 0.389655
O O5 0.750000 0.627497 0.775949
O O6 0.613956 0.580697 0.746493
O O7 0.669528 0.599343 0.981716
O O8 0.948940 0.371693 0.113256
O O9 0.956313 0.232762 0.995670
O O10 0.018630 0.355735 0.888038
O O11 0.750000 0.536630 0.159689
O O12 0.625155 0.494670 0.171201
O O13 0.500000 0.500000 0.202281
O O14 0.441194 0.592077 0.372892
O O15 0.501067 0.607605 0.619590
O O16 0.500000 0.500000 0.808581
#
# Coordination Sequence:
#
# PCOD9380803 Si02
#       7
#     8   8   8   8   8   8   8
#     4  11  19  36  55  84 121 153 190 225 282 361
#     4  11  22  36  55  86 122 159 195 230 281 357
#     4  11  19  35  59  81 113 149 193 236 287 348
#     4  11  22  37  58  84 116 159 199 237 290 350
#     4  11  20  37  59  81 111 150 196 245 285 345
#     4  11  21  34  57  82 116 144 193 244 292 339
#     4  12  22  34  54  83 115 153 194 240 288 334
#
# _framework density 17.059244
#
# number of rings (size 3 to 8) (size 9 to 14) (size 15 to 20)
#    0.000    0.857    7.143    3.000    0.000    0.000 
#    0.000    0.714    0.000    0.857    0.000    2.000 
#    0.000    0.000    0.000    0.000    0.000    0.000 
#
# Total GULP energy -156207.019643 kJ/mol
# GULP energy per Si atom -5578.822130 kJ/mol
# Density = 1.702042 g / cm^3
# Si number density = 17.059244 Si / 1000 Ang^3
#
#
#
# Elastic Constant Matrix: (Units=GPa)
#
#
# Indices 1 2 3 4 5 6 
#
# 1 101.1957 71.2216 29.0393 0.0000 0.0000 0.0000
# 2 71.2216 106.9495 27.8533 0.0000 0.0000 0.0000
# 3 29.0393 27.8533 88.9524 0.0000 0.0000 0.0000
# 4 0.0000 0.0000 0.0000 10.5551 0.0000 0.0000
# 5 0.0000 0.0000 0.0000 0.0000 18.4443 0.0000
# 6 0.0000 0.0000 0.0000 0.0000 0.0000 24.7846
#
#
#
# Elastic Compliance Matrix: (Units=1/GPa)
#
#
# Indices 1 2 3 4 5 6 
#
# 1 0.019077 -0.012066 -0.002450 0.000000 0.000000 0.000000
# 2 -0.012066 0.017812 -0.001638 0.000000 0.000000 0.000000
# 3 -0.002450 -0.001638 0.012555 0.000000 0.000000 0.000000
# 4 0.000000 0.000000 0.000000 0.094741 0.000000 0.000000
# 5 0.000000 0.000000 0.000000 0.000000 0.054217 0.000000
# 6 0.000000 0.000000 0.000000 0.000000 0.000000 0.040348
#
#
# Mechanical properties :
#
#
# Convention : Reuss Voigt Hill
#
# Bulk Modulus (GPa) = 58.35799 61.48067 59.91933
# Shear Modulus (GPa) = 18.06558 22.02236 20.04397
#
# Velocity S-wave (km/s) = 3.25774 3.59685 3.43149
# Velocity P-wave (km/s) = 6.95944 7.30531 7.13447
#
# Compressibility (1/GPa) = 0.01713561
#
# Stress axis : x y z
#
# Youngs Moduli (GPa) = 52.41952 56.14167 79.65152
#
# Poissons Ratio (x) = 0.67741 0.19512
# Poissons Ratio (y) = 0.63249 0.13050
# Poissons Ratio (z) = 0.12841 0.09198
#
# Static dielectric constant tensor:
#      x y z
#    x 1.571690 0.000000 0.000000 
#    y 0.000000 2.185670 0.000000 
#    z 0.000000 0.000000 1.626490 
# 
# From -- ./inp_files/7407.got.cif
#   From: 2010.05.17/outbox.cif.g08.bks.cpg/sg46_4_cif.got.tgz:7407.got - 2010.06.03 19:58:25.
