data_PCOD9380656
_publ_section_title
;
Structure prediction by ZEFSAII (Michael W. Deem and Ramdas Pophale) SiO2 
 PCOD9380656
Probable space group: I M A 2
;
_chemical_formula_sum "Si O2"
_cell_formula_units_Z 64
_cell_length_a 22.603242
_cell_length_b 11.341468
_cell_length_c 12.866409
_cell_angle_alpha 90.000000
_cell_angle_beta 90.000000
_cell_angle_gamma 90.000000
_cell_volume 3298.354716
_symmetry_space_group_name_H-M "I M A 2"
_symmetry_group_IT_number 46
_symmetry_cell_setting 'orthorhombic'
loop_
_space_group_symop_operation_xyz
x,y,z
-x,-y,z
1/2-x,y,z
1/2+x,-y,z
1/2+x,1/2+y,1/2+z
1/2-x,1/2-y,1/2+z
-x,1/2+y,1/2+z
x,1/2-y,1/2+z
loop_
_atom_site_type_symbol
_atom_site_label
_atom_site_fract_x
_atom_site_fract_y
_atom_site_fract_z
Si Si1 0.125181 0.334434 0.877250
Si Si2 0.112531 0.773675 0.197036
Si Si3 0.820805 0.905934 0.961267
Si Si4 0.971569 0.158879 0.566556
Si Si5 0.994990 0.135297 0.325847
Si Si6 0.820597 0.980831 0.190456
Si Si7 0.092902 0.080006 0.601988
Si Si8 0.179011 0.532964 0.254218
O O1 0.153335 0.213772 0.915406
O O2 0.161570 0.401322 0.788657
O O3 0.060617 0.312934 0.828134
O O4 0.117180 0.409780 0.984005
O O5 0.077325 0.757591 0.088409
O O6 0.055765 0.789799 0.271599
O O7 0.150410 0.891299 0.202832
O O8 0.152981 0.660677 0.222925
O O9 0.750000 0.894752 0.965502
O O10 0.833879 0.006058 0.875380
O O11 0.841427 0.929675 0.078845
O O12 0.977369 0.130378 0.446235
O O13 0.038899 0.174509 0.608074
O O14 0.941986 0.042964 0.615916
O O15 0.000000 0.000000 0.285393
O O16 0.750000 0.991286 0.186559
O O17 0.145944 0.067479 0.684266
O O18 0.250000 0.528482 0.238206
#
# Coordination Sequence:
#
# PCOD9380656 Si02
#       8
#     8   8   8   8   8   8   8   8
#     4  11  22  40  67  91 124 167 214 262 315 375
#     4  11  23  38  68  92 127 162 208 259 324 377
#     4  10  25  43  60  88 129 167 207 269 317 367
#     4   9  18  36  60  88 122 158 195 259 309 361
#     4  11  20  40  61  90 126 161 204 256 310 374
#     4  11  24  43  65  94 128 167 216 262 316 378
#     4   9  18  37  62  90 120 157 211 255 306 373
#     4  10  23  42  63  91 127 167 211 258 319 380
#
# _framework density 19.403611999999999
#
# number of rings (size 3 to 8) (size 9 to 14) (size 15 to 20)
#    0.000    1.750    3.750    0.750    5.250    2.000 
#    0.000    0.000    0.000    0.000    0.000    0.000 
#    0.000    0.000    0.000    0.000    0.000    0.000 
#
# Total GULP energy -178338.911053 kJ/mol
# GULP energy per Si atom -5573.090970 kJ/mol
# Density = 1.935945 g / cm^3
# Si number density = 19.403612 Si / 1000 Ang^3
#
#
#
# Elastic Constant Matrix: (Units=GPa)
#
#
# Indices 1 2 3 4 5 6 
#
# 1 80.6476 25.0647 37.1371 0.0000 0.0000 0.0000
# 2 25.0647 64.1678 27.1614 0.0000 0.0000 0.0000
# 3 37.1371 27.1614 84.4748 0.0000 0.0000 0.0000
# 4 0.0000 0.0000 0.0000 17.5805 0.0000 0.0000
# 5 0.0000 0.0000 0.0000 0.0000 36.3921 0.0000
# 6 0.0000 0.0000 0.0000 0.0000 0.0000 28.2262
#
#
#
# Elastic Compliance Matrix: (Units=1/GPa)
#
#
# Indices 1 2 3 4 5 6 
#
# 1 0.016336 -0.003867 -0.005938 0.000000 0.000000 0.000000
# 2 -0.003867 0.018955 -0.004394 0.000000 0.000000 0.000000
# 3 -0.005938 -0.004394 0.015861 0.000000 0.000000 0.000000
# 4 0.000000 0.000000 0.000000 0.056881 0.000000 0.000000
# 5 0.000000 0.000000 0.000000 0.000000 0.027478 0.000000
# 6 0.000000 0.000000 0.000000 0.000000 0.000000 0.035428
#
#
# Mechanical properties :
#
#
# Convention : Reuss Voigt Hill
#
# Bulk Modulus (GPa) = 43.95181 45.33519 44.64350
# Shear Modulus (GPa) = 24.16343 25.76824 24.96584
#
# Velocity S-wave (km/s) = 3.53272 3.64814 3.59089
# Velocity P-wave (km/s) = 6.27221 6.41563 6.34433
#
# Compressibility (1/GPa) = 0.02275219
#
# Stress axis : x y z
#
# Youngs Moduli (GPa) = 61.21419 52.75681 63.04629
#
# Poissons Ratio (x) = 0.20404 0.37438
# Poissons Ratio (y) = 0.23675 0.27705
# Poissons Ratio (z) = 0.36350 0.23183
#
# Static dielectric constant tensor:
#      x y z
#    x 1.692010 0.000000 0.000000 
#    y 0.000000 1.707480 0.000000 
#    z 0.000000 0.000000 1.705680 
# 
# From -- ./inp_files/12845.got.cif
#   From: 2010.05.17/outbox.cif.g08.bks.cpg/sg46_7_cif.got.tgz:12845.got - 2010.06.03 19:58:25.
