data_PCOD9380552
_publ_section_title
;
Structure prediction by ZEFSAII (Michael W. Deem and Ramdas Pophale) SiO2 
 PCOD9380552
Probable space group: I M A 2
;
_chemical_formula_sum "Si O2"
_cell_formula_units_Z 24
_cell_length_a 11.672316
_cell_length_b 9.502419
_cell_length_c 9.891271
_cell_angle_alpha 90.000000
_cell_angle_beta 90.000000
_cell_angle_gamma 90.000000
_cell_volume 1097.092670
_symmetry_space_group_name_H-M "I M A 2"
_symmetry_group_IT_number 46
_symmetry_cell_setting 'orthorhombic'
loop_
_space_group_symop_operation_xyz
x,y,z
-x,-y,z
1/2-x,y,z
1/2+x,-y,z
1/2+x,1/2+y,1/2+z
1/2-x,1/2-y,1/2+z
-x,1/2+y,1/2+z
x,1/2-y,1/2+z
loop_
_atom_site_type_symbol
_atom_site_label
_atom_site_fract_x
_atom_site_fract_y
_atom_site_fract_z
Si Si1 0.378283 0.065924 0.355790
Si Si2 0.504516 0.161038 0.840786
Si Si3 0.376578 0.850159 0.124541
O O1 0.250000 0.034957 0.414468
O O2 0.396542 0.232973 0.341644
O O3 0.500000 0.000000 0.415861
O O4 0.376959 0.996632 0.206582
O O5 0.590963 0.239236 0.739973
O O6 0.500000 0.000000 0.796116
O O7 0.543913 0.158048 0.995742
O O8 0.250000 0.823491 0.072284
#
# Coordination Sequence:
#
# PCOD9380552 Si02
#       3
#     8   8   8
#     4   9  20  40  64  92 128 171 214 264 323 385
#     4  11  22  38  62  96 128 165 212 268 323 383
#     4  10  22  42  64  88 127 172 213 260 321 386
#
# _framework density 21.876002
#
# number of rings (size 3 to 8) (size 9 to 14) (size 15 to 20)
#    0.000    2.000    0.000    4.000    0.000    8.000 
#    0.000    6.667    0.000    0.000    0.000    0.000 
#    0.000    0.000    0.000    0.000    0.000    0.000 
#
# Total GULP energy -66830.786961 kJ/mol
# GULP energy per Si atom -5569.232247 kJ/mol
# Density = 2.182621 g / cm^3
# Si number density = 21.876002 Si / 1000 Ang^3
#
#
#
# Elastic Constant Matrix: (Units=GPa)
#
#
# Indices 1 2 3 4 5 6 
#
# 1 140.3173 45.8288 5.0197 0.0000 0.0000 0.0000
# 2 45.8288 155.7189 50.1840 0.0000 0.0000 0.0000
# 3 5.0197 50.1840 79.0571 0.0000 0.0000 0.0000
# 4 0.0000 0.0000 0.0000 4.4272 0.0000 0.0000
# 5 0.0000 0.0000 0.0000 0.0000 46.0635 0.0000
# 6 0.0000 0.0000 0.0000 0.0000 0.0000 -1.6266
#
#
#
# Elastic Compliance Matrix: (Units=1/GPa)
#
#
# Indices 1 2 3 4 5 6 
#
# 1 0.007980 -0.002747 0.001237 0.000000 0.000000 0.000000
# 2 -0.002747 0.009019 -0.005551 0.000000 0.000000 0.000000
# 3 0.001237 -0.005551 0.016094 0.000000 0.000000 0.000000
# 4 0.000000 0.000000 0.000000 0.225874 0.000000 0.000000
# 5 0.000000 0.000000 0.000000 0.000000 0.021709 0.000000
# 6 0.000000 0.000000 0.000000 0.000000 0.000000 -0.614776
#
#
# Mechanical properties :
#
#
# Convention : Reuss Voigt Hill
#
# Bulk Modulus (GPa) = 52.71091 64.12872 58.41981
# Shear Modulus (GPa) = -15.94112 28.04355 6.05122
#
# Velocity S-wave (km/s) = -2.70238 3.58429 1.66498
# Velocity P-wave (km/s) = 3.79611 6.81966 5.51898
#
# Compressibility (1/GPa) = 0.01897141
#
# Stress axis : x y z
#
# Youngs Moduli (GPa) = 125.31810 110.87455 62.13465
#
# Poissons Ratio (x) = 0.30459 -0.07687
# Poissons Ratio (y) = 0.34427 0.34490
# Poissons Ratio (z) = -0.15504 0.61544
#
# Static dielectric constant tensor:
#      x y z
#    x 1.867530 0.000000 0.000000 
#    y 0.000000 1.892120 0.000000 
#    z 0.000000 0.000000 1.728400 
# 
# From -- ./inp_files/5137.got.cif
#   From: 2010.05.17/outbox.cif.g08.bks.cpg/sg46_3_cif.got.tgz:5137.got - 2010.06.03 19:58:25.
