data_PCOD9380437
_publ_section_title
;
Structure prediction by ZEFSAII (Michael W. Deem and Ramdas Pophale) SiO2 
 PCOD9380437
Probable space group: I M A 2
;
_chemical_formula_sum "Si O2"
_cell_formula_units_Z 48
_cell_length_a 8.767966
_cell_length_b 20.884781
_cell_length_c 14.734031
_cell_angle_alpha 90.000000
_cell_angle_beta 90.000000
_cell_angle_gamma 90.000000
_cell_volume 2698.052287
_symmetry_space_group_name_H-M "I M A 2"
_symmetry_group_IT_number 46
_symmetry_cell_setting 'orthorhombic'
loop_
_space_group_symop_operation_xyz
x,y,z
-x,-y,z
1/2-x,y,z
1/2+x,-y,z
1/2+x,1/2+y,1/2+z
1/2-x,1/2-y,1/2+z
-x,1/2+y,1/2+z
x,1/2-y,1/2+z
loop_
_atom_site_type_symbol
_atom_site_label
_atom_site_fract_x
_atom_site_fract_y
_atom_site_fract_z
Si Si1 0.932352 0.265751 0.886230
Si Si2 0.433029 0.803726 0.590876
Si Si3 0.567220 0.686454 0.705042
Si Si4 0.066342 0.069393 0.076952
Si Si5 0.933353 0.877037 0.879742
Si Si6 0.567421 0.432243 0.195838
O O1 0.750000 0.259046 0.878764
O O2 0.993883 0.308426 0.804024
O O3 0.007034 0.195679 0.877655
O O4 0.969259 0.294232 0.985066
O O5 0.250000 0.795861 0.602008
O O6 0.514527 0.748736 0.648786
O O7 0.474020 0.873269 0.629943
O O8 0.750000 0.686720 0.712343
O O9 0.519019 0.623844 0.648481
O O10 0.250000 0.066361 0.078116
O O11 0.020517 0.091732 0.975715
O O12 0.000000 0.000000 0.097319
O O13 0.750000 0.877260 0.873672
O O14 0.002743 0.914811 0.795035
O O15 0.500000 0.500000 0.165977
O O16 0.750000 0.436250 0.200512
#
# Coordination Sequence:
#
# PCOD9380437 Si02
#       6
#     8   8   8   8   8   8
#     4  11  22  37  59  89 119 153 196 242 291 346
#     4  10  22  39  60  85 116 154 197 239 287 348
#     4  11  22  38  60  87 118 152 196 243 291 347
#     4  10  23  39  57  85 119 155 195 238 291 349
#     4  11  21  36  58  88 121 154 191 240 295 350
#     4  11  23  39  58  86 119 156 197 240 295 352
#
# _framework density 17.790613
#
# number of rings (size 3 to 8) (size 9 to 14) (size 15 to 20)
#    0.000    1.333    3.333    2.500    0.000    5.333 
#    0.000    0.833    0.000    4.000    0.000    0.000 
#    0.000    0.000    0.000    0.000    0.000    0.000 
#
# Total GULP energy -134148.131344 kJ/mol
# GULP energy per Si atom -5589.505473 kJ/mol
# Density = 1.775012 g / cm^3
# Si number density = 17.790613 Si / 1000 Ang^3
#
#
#
# Elastic Constant Matrix: (Units=GPa)
#
#
# Indices 1 2 3 4 5 6 
#
# 1 39.5201 35.8675 35.4608 0.0000 0.0000 0.0000
# 2 35.8675 134.7581 46.5202 0.0000 0.0000 0.0000
# 3 35.4608 46.5202 101.3609 0.0000 0.0000 0.0000
# 4 0.0000 0.0000 0.0000 21.9890 0.0000 0.0000
# 5 0.0000 0.0000 0.0000 0.0000 27.1480 0.0000
# 6 0.0000 0.0000 0.0000 0.0000 0.0000 31.9955
#
#
#
# Elastic Compliance Matrix: (Units=1/GPa)
#
#
# Indices 1 2 3 4 5 6 
#
# 1 0.042142 -0.007281 -0.011402 0.000000 0.000000 0.000000
# 2 -0.007281 0.010076 -0.002077 0.000000 0.000000 0.000000
# 3 -0.011402 -0.002077 0.014808 0.000000 0.000000 0.000000
# 4 0.000000 0.000000 0.000000 0.045477 0.000000 0.000000
# 5 0.000000 0.000000 0.000000 0.000000 0.036835 0.000000
# 6 0.000000 0.000000 0.000000 0.000000 0.000000 0.031254
#
#
# Mechanical properties :
#
#
# Convention : Reuss Voigt Hill
#
# Bulk Modulus (GPa) = 39.20575 56.81513 48.01044
# Shear Modulus (GPa) = 21.68129 26.74586 24.21358
#
# Velocity S-wave (km/s) = 3.49477 3.88154 3.69322
# Velocity P-wave (km/s) = 6.19433 7.21756 6.72543
#
# Compressibility (1/GPa) = 0.02550646
#
# Stress axis : x y z
#
# Youngs Moduli (GPa) = 23.72931 99.24992 67.53125
#
# Poissons Ratio (x) = 0.72259 0.76998
# Poissons Ratio (y) = 0.17276 0.14027
# Poissons Ratio (z) = 0.27056 0.20616
#
# Static dielectric constant tensor:
#      x y z
#    x 1.598490 0.000000 0.000000 
#    y 0.000000 1.582620 0.000000 
#    z 0.000000 0.000000 1.595500 
# 
# From -- ./inp_files/13873.got.cif
#   From: 2010.05.17/outbox.cif.g08.bks.cpg/sg46_7_cif.got.tgz:13873.got - 2010.06.03 19:58:25.
