data_PCOD9380020
_publ_section_title
;
Structure prediction by ZEFSAII (Michael W. Deem and Ramdas Pophale) SiO2 
 PCOD9380020
Probable space group: I M A 2
;
_chemical_formula_sum "Si O2"
_cell_formula_units_Z 64
_cell_length_a 17.825793
_cell_length_b 22.332111
_cell_length_c 7.925137
_cell_angle_alpha 90.000000
_cell_angle_beta 90.000000
_cell_angle_gamma 90.000000
_cell_volume 3154.898672
_symmetry_space_group_name_H-M "I M A 2"
_symmetry_group_IT_number 46
_symmetry_cell_setting 'orthorhombic'
loop_
_space_group_symop_operation_xyz
x,y,z
-x,-y,z
1/2-x,y,z
1/2+x,-y,z
1/2+x,1/2+y,1/2+z
1/2-x,1/2-y,1/2+z
-x,1/2+y,1/2+z
x,1/2-y,1/2+z
loop_
_atom_site_type_symbol
_atom_site_label
_atom_site_fract_x
_atom_site_fract_y
_atom_site_fract_z
Si Si1 0.406172 0.106514 0.800110
Si Si2 0.160606 0.186529 0.100959
Si Si3 0.331981 0.886058 0.528551
Si Si4 0.437824 0.621092 0.464793
Si Si5 0.663167 0.281334 0.288868
Si Si6 0.444437 0.831252 0.312102
Si Si7 0.337548 0.523803 0.344277
Si Si8 0.400801 0.186284 0.475107
O O1 0.495811 0.110882 0.831054
O O2 0.375458 0.039360 0.807180
O O3 0.388532 0.137456 0.621183
O O4 0.368270 0.141624 0.956320
O O5 0.250000 0.189321 0.092104
O O6 0.137838 0.172891 0.294827
O O7 0.127267 0.251148 0.050597
O O8 0.250000 0.892859 0.448559
O O9 0.335293 0.820600 0.617655
O O10 0.399276 0.884937 0.399634
O O11 0.338949 0.934619 0.676335
O O12 0.380647 0.673583 0.411942
O O13 0.474878 0.643020 0.637305
O O14 0.387677 0.561444 0.475777
O O15 0.750000 0.270954 0.337372
O O16 0.614428 0.221791 0.275526
O O17 0.511009 0.809027 0.430779
O O18 0.250000 0.517724 0.393393
#
# Coordination Sequence:
#
# PCOD9380020 Si02
#       8
#     8   8   8   8   8   8   8   8
#     4  12  25  47  71  97 131 178 225 277 334 403
#     4  12  26  44  69 103 136 172 220 276 342 406
#     4   9  20  38  59  91 132 172 219 270 330 395
#     4  11  23  41  64  95 135 174 222 277 331 393
#     4  10  21  36  60  92 131 179 221 263 326 400
#     4  12  23  36  62 100 135 175 224 270 329 403
#     4  10  23  45  69  90 123 178 227 275 340 398
#     4  12  26  43  70 102 136 174 221 275 343 401
#
# _framework density 20.285913999999998
#
# number of rings (size 3 to 8) (size 9 to 14) (size 15 to 20)
#    0.000    1.000    2.500    5.625    1.750    4.500 
#    2.250    0.000    0.000    0.000    0.000    0.000 
#    0.000    0.000    0.000    0.000    0.000    0.000 
#
# Total GULP energy -178846.068030 kJ/mol
# GULP energy per Si atom -5588.939626 kJ/mol
# Density = 2.023974 g / cm^3
# Si number density = 20.285914 Si / 1000 Ang^3
#
#
#
# Elastic Constant Matrix: (Units=GPa)
#
#
# Indices 1 2 3 4 5 6 
#
# 1 134.4117 49.1635 43.2459 0.0000 0.0000 0.0000
# 2 49.1635 116.6377 41.2100 0.0000 0.0000 0.0000
# 3 43.2459 41.2100 107.2063 0.0000 0.0000 0.0000
# 4 0.0000 0.0000 0.0000 10.3936 0.0000 0.0000
# 5 0.0000 0.0000 0.0000 0.0000 27.8838 0.0000
# 6 0.0000 0.0000 0.0000 0.0000 0.0000 22.8334
#
#
#
# Elastic Compliance Matrix: (Units=1/GPa)
#
#
# Indices 1 2 3 4 5 6 
#
# 1 0.009393 -0.003032 -0.002623 0.000000 0.000000 0.000000
# 2 -0.003032 0.010900 -0.002967 0.000000 0.000000 0.000000
# 3 -0.002623 -0.002967 0.011526 0.000000 0.000000 0.000000
# 4 0.000000 0.000000 0.000000 0.096213 0.000000 0.000000
# 5 0.000000 0.000000 0.000000 0.000000 0.035863 0.000000
# 6 0.000000 0.000000 0.000000 0.000000 0.000000 0.043796
#
#
# Mechanical properties :
#
#
# Convention : Reuss Voigt Hill
#
# Bulk Modulus (GPa) = 68.61306 69.49940 69.05623
# Shear Modulus (GPa) = 21.75859 27.19789 24.47824
#
# Velocity S-wave (km/s) = 3.27860 3.66557 3.47747
# Velocity P-wave (km/s) = 6.94469 7.22838 7.08796
#
# Compressibility (1/GPa) = 0.01457448
#
# Stress axis : x y z
#
# Youngs Moduli (GPa) = 106.46198 91.74412 86.75684
#
# Poissons Ratio (x) = 0.27820 0.22760
# Poissons Ratio (y) = 0.32283 0.25738
# Poissons Ratio (z) = 0.27930 0.27218
#
# Static dielectric constant tensor:
#      x y z
#    x 1.720270 0.000000 0.000000 
#    y 0.000000 1.685070 0.000000 
#    z 0.000000 0.000000 1.766400 
# 
# From -- ./inp_files/6969.got.cif
#   From: 2010.05.17/outbox.cif.g08.bks.cpg/sg46_4_cif.got.tgz:6969.got - 2010.06.03 19:58:25.
