data_PCOD9380678
_publ_section_title
;
Structure prediction by ZEFSAII (Michael W. Deem and Ramdas Pophale) SiO2 
 PCOD9380678
Probable space group: I M A 2
;
_chemical_formula_sum "Si O2"
_cell_formula_units_Z 48
_cell_length_a 20.692926
_cell_length_b 9.765150
_cell_length_c 10.730506
_cell_angle_alpha 90.000000
_cell_angle_beta 90.000000
_cell_angle_gamma 90.000000
_cell_volume 2168.308265
_symmetry_space_group_name_H-M "I M A 2"
_symmetry_group_IT_number 46
_symmetry_cell_setting 'orthorhombic'
loop_
_space_group_symop_operation_xyz
x,y,z
-x,-y,z
1/2-x,y,z
1/2+x,-y,z
1/2+x,1/2+y,1/2+z
1/2-x,1/2-y,1/2+z
-x,1/2+y,1/2+z
x,1/2-y,1/2+z
loop_
_atom_site_type_symbol
_atom_site_label
_atom_site_fract_x
_atom_site_fract_y
_atom_site_fract_z
Si Si1 0.173280 0.181671 0.316830
Si Si2 0.960293 0.362626 0.585998
Si Si3 0.820184 0.416994 0.658370
Si Si4 0.539180 0.137835 0.806685
Si Si5 0.179869 0.895473 0.737741
Si Si6 0.826914 0.648144 0.086483
O O1 0.250000 0.213969 0.325822
O O2 0.145320 0.275830 0.207430
O O3 0.144971 0.193289 0.454654
O O4 0.169740 0.026508 0.268142
O O5 0.885500 0.411369 0.581478
O O6 0.967430 0.250243 0.696283
O O7 0.978318 0.312075 0.446538
O O8 0.000000 0.500000 0.614529
O O9 0.750000 0.451832 0.599268
O O10 0.814965 0.263975 0.709430
O O11 0.614262 0.091738 0.812002
O O12 0.500000 0.000000 0.778201
O O13 0.250000 0.941216 0.789763
O O14 0.169521 0.986530 0.613374
O O15 0.750000 0.680533 0.082725
#
# Coordination Sequence:
#
# PCOD9380678 Si02
#       6
#     8   8   8   8   8   8
#     4   9  18  33  53  80 117 159 200 243 295 356
#     4  10  23  43  65  91 123 161 206 252 302 363
#     4   9  19  36  60  90 122 156 198 250 305 359
#     4  10  23  43  65  91 123 161 206 252 302 363
#     4   9  19  36  60  90 122 156 198 250 305 359
#     4   9  18  33  53  80 117 159 200 243 295 356
#
# _framework density 22.137073999999998
#
# number of rings (size 3 to 8) (size 9 to 14) (size 15 to 20)
#    0.000    2.667    0.000    0.000    0.000    9.333 
#    0.000   13.333    0.000    0.000    0.000    0.000 
#    0.000    0.000    0.000    0.000    0.000    0.000 
#
# Total GULP energy -133744.947439 kJ/mol
# GULP energy per Si atom -5572.706143 kJ/mol
# Density = 2.208669 g / cm^3
# Si number density = 22.137074 Si / 1000 Ang^3
#
#
#
# Elastic Constant Matrix: (Units=GPa)
#
#
# Indices 1 2 3 4 5 6 
#
# 1 107.4621 35.1649 20.4067 0.0000 0.0000 0.0000
# 2 35.1649 101.0533 62.4734 0.0000 0.0000 0.0000
# 3 20.4067 62.4734 135.4301 0.0000 0.0000 0.0000
# 4 0.0000 0.0000 0.0000 13.2618 0.0000 0.0000
# 5 0.0000 0.0000 0.0000 0.0000 1.2070 0.0000
# 6 0.0000 0.0000 0.0000 0.0000 0.0000 54.4138
#
#
#
# Elastic Compliance Matrix: (Units=1/GPa)
#
#
# Indices 1 2 3 4 5 6 
#
# 1 0.010503 -0.003744 0.000145 0.000000 0.000000 0.000000
# 2 -0.003744 0.015179 -0.006438 0.000000 0.000000 0.000000
# 3 0.000145 -0.006438 0.010332 0.000000 0.000000 0.000000
# 4 0.000000 0.000000 0.000000 0.075404 0.000000 0.000000
# 5 0.000000 0.000000 0.000000 0.000000 0.828500 0.000000
# 6 0.000000 0.000000 0.000000 0.000000 0.000000 0.018378
#
#
# Mechanical properties :
#
#
# Convention : Reuss Voigt Hill
#
# Bulk Modulus (GPa) = 62.73942 64.44839 63.59390
# Shear Modulus (GPa) = 5.08293 28.83656 16.95975
#
# Velocity S-wave (km/s) = 1.51694 3.61312 2.77090
# Velocity P-wave (km/s) = 5.60990 6.82515 6.24715
#
# Compressibility (1/GPa) = 0.01593894
#
# Stress axis : x y z
#
# Youngs Moduli (GPa) = 95.20695 65.88190 96.78899
#
# Poissons Ratio (x) = 0.24669 -0.01400
# Poissons Ratio (y) = 0.35650 0.62309
# Poissons Ratio (z) = -0.01377 0.42412
#
# Static dielectric constant tensor:
#      x y z
#    x 1.856530 0.000000 0.000000 
#    y 0.000000 1.788910 0.000000 
#    z 0.000000 0.000000 1.819570 
# 
# From -- ./inp_files/12722.got.cif
#   From: 2010.05.17/outbox.cif.g08.bks.cpg/sg46_7_cif.got.tgz:12722.got - 2010.06.03 19:58:25.
