data_PCOD9380904
_publ_section_title
;
Structure prediction by ZEFSAII (Michael W. Deem and Ramdas Pophale) SiO2 
 PCOD9380904
Probable space group: I M A 2
;
_chemical_formula_sum "Si O2"
_cell_formula_units_Z 32
_cell_length_a 18.037345
_cell_length_b 10.210067
_cell_length_c 8.348360
_cell_angle_alpha 90.000000
_cell_angle_beta 90.000000
_cell_angle_gamma 90.000000
_cell_volume 1537.454856
_symmetry_space_group_name_H-M "I M A 2"
_symmetry_group_IT_number 46
_symmetry_cell_setting 'orthorhombic'
loop_
_space_group_symop_operation_xyz
x,y,z
-x,-y,z
1/2-x,y,z
1/2+x,-y,z
1/2+x,1/2+y,1/2+z
1/2-x,1/2-y,1/2+z
-x,1/2+y,1/2+z
x,1/2-y,1/2+z
loop_
_atom_site_type_symbol
_atom_site_label
_atom_site_fract_x
_atom_site_fract_y
_atom_site_fract_z
Si Si1 0.422902 0.068103 0.895260
Si Si2 0.899698 0.108285 0.392794
Si Si3 0.834725 0.147305 0.052402
Si Si4 0.434608 0.155996 0.527681
O O1 0.433308 0.116052 0.713207
O O2 0.500000 0.000000 0.944193
O O3 0.407946 0.196896 0.999878
O O4 0.360788 0.958201 0.920508
O O5 0.887764 0.129321 0.205261
O O6 0.845845 0.208077 0.482936
O O7 0.982202 0.146173 0.454281
O O8 0.888982 0.956717 0.436618
O O9 0.750000 0.125520 0.099674
#
# Coordination Sequence:
#
# PCOD9380904 Si02
#       4
#     8   8   8   8
#     4  12  23  42  69 101 134 174 228 286 331 396
#     4  11  22  41  67  99 138 170 227 279 330 400
#     4  12  26  43  67 102 142 185 220 273 346 413
#     4  11  23  41  69 105 127 173 230 286 336 377
#
# _framework density 20.81362
#
# number of rings (size 3 to 8) (size 9 to 14) (size 15 to 20)
#    0.000    0.500    5.000    5.250    3.500    0.000 
#    0.000    7.500    0.000    0.000    0.000    0.000 
#    0.000    0.000    0.000    0.000    0.000    0.000 
#
# Total GULP energy -89514.117097 kJ/mol
# GULP energy per Si atom -5594.632319 kJ/mol
# Density = 2.076625 g / cm^3
# Si number density = 20.813620 Si / 1000 Ang^3
#
#
#
# Elastic Constant Matrix: (Units=GPa)
#
#
# Indices 1 2 3 4 5 6 
#
# 1 56.6068 19.7843 33.6739 0.0000 0.0000 0.0000
# 2 19.7843 143.9200 27.0505 0.0000 0.0000 0.0000
# 3 33.6739 27.0505 112.9979 0.0000 0.0000 0.0000
# 4 0.0000 0.0000 0.0000 37.2924 0.0000 0.0000
# 5 0.0000 0.0000 0.0000 0.0000 5.4039 0.0000
# 6 0.0000 0.0000 0.0000 0.0000 0.0000 17.4459
#
#
#
# Elastic Compliance Matrix: (Units=1/GPa)
#
#
# Indices 1 2 3 4 5 6 
#
# 1 0.021943 -0.001872 -0.006091 0.000000 0.000000 0.000000
# 2 -0.001872 0.007435 -0.001222 0.000000 0.000000 0.000000
# 3 -0.006091 -0.001222 0.010957 0.000000 0.000000 0.000000
# 4 0.000000 0.000000 0.000000 0.026815 0.000000 0.000000
# 5 0.000000 0.000000 0.000000 0.000000 0.185053 0.000000
# 6 0.000000 0.000000 0.000000 0.000000 0.000000 0.057320
#
#
# Mechanical properties :
#
#
# Convention : Reuss Voigt Hill
#
# Bulk Modulus (GPa) = 45.52450 52.72688 49.12569
# Shear Modulus (GPa) = 14.91573 27.56284 21.23929
#
# Velocity S-wave (km/s) = 2.67990 3.64300 3.19792
# Velocity P-wave (km/s) = 5.61211 6.56377 6.10651
#
# Compressibility (1/GPa) = 0.02196620
#
# Stress axis : x y z
#
# Youngs Moduli (GPa) = 45.57195 134.49347 91.26180
#
# Poissons Ratio (x) = 0.25172 0.55589
# Poissons Ratio (y) = 0.08529 0.11154
# Poissons Ratio (z) = 0.27759 0.16438
#
# Static dielectric constant tensor:
#      x y z
#    x 1.733990 0.000000 0.000000 
#    y 0.000000 1.760490 0.000000 
#    z 0.000000 0.000000 1.760260 
# 
# From -- ./inp_files/5218.got.cif
#   From: 2010.05.17/outbox.cif.g08.bks.cpg/sg46_3_cif.got.tgz:5218.got - 2010.06.03 19:58:25.
