data_PCOD9380994
_publ_section_title
;
Structure prediction by ZEFSAII (Michael W. Deem and Ramdas Pophale) SiO2 
 PCOD9380994
Probable space group: I M A 2
;
_chemical_formula_sum "Si O2"
_cell_formula_units_Z 40
_cell_length_a 14.651783
_cell_length_b 12.240400
_cell_length_c 9.310901
_cell_angle_alpha 90.000000
_cell_angle_beta 90.000000
_cell_angle_gamma 90.000000
_cell_volume 1669.851293
_symmetry_space_group_name_H-M "I M A 2"
_symmetry_group_IT_number 46
_symmetry_cell_setting 'orthorhombic'
loop_
_space_group_symop_operation_xyz
x,y,z
-x,-y,z
1/2-x,y,z
1/2+x,-y,z
1/2+x,1/2+y,1/2+z
1/2-x,1/2-y,1/2+z
-x,1/2+y,1/2+z
x,1/2-y,1/2+z
loop_
_atom_site_type_symbol
_atom_site_label
_atom_site_fract_x
_atom_site_fract_y
_atom_site_fract_z
Si Si1 0.394382 0.470910 0.564940
Si Si2 0.353765 0.216239 0.571181
Si Si3 0.353280 0.009715 0.395383
Si Si4 0.051666 0.835972 0.593259
Si Si5 0.649262 0.170090 0.892563
O O1 0.500000 0.500000 0.546906
O O2 0.368231 0.344561 0.547630
O O3 0.370172 0.506316 0.727589
O O4 0.346538 0.547504 0.450345
O O5 0.250000 0.199714 0.630128
O O6 0.359527 0.139182 0.429692
O O7 0.446720 0.173485 0.647052
O O8 0.250000 0.977635 0.431510
O O9 0.419488 0.939052 0.495546
O O10 0.115543 0.829977 0.730811
O O11 0.077535 0.735049 0.490646
O O12 0.750000 0.220300 0.904946
#
# Coordination Sequence:
#
# PCOD9380994 Si02
#       5
#     8   8   8   8   8
#     4  12  25  47  75 108 151 190 245 303 363 432
#     4  11  26  47  73 107 147 193 242 296 362 434
#     4  11  25  47  77 109 146 194 244 302 365 433
#     4  12  26  48  73 109 149 188 247 302 361 437
#     4  12  26  46  75 108 147 193 241 304 369 431
#
# _framework density 23.954231
#
# number of rings (size 3 to 8) (size 9 to 14) (size 15 to 20)
#    0.000    0.400    2.000    6.600    2.800    3.200 
#    0.000    2.000    0.000    0.000    0.000    0.000 
#    0.000    0.000    0.000    0.000    0.000    0.000 
#
# Total GULP energy -111906.820630 kJ/mol
# GULP energy per Si atom -5595.341032 kJ/mol
# Density = 2.389971 g / cm^3
# Si number density = 23.954231 Si / 1000 Ang^3
#
#
#
# Elastic Constant Matrix: (Units=GPa)
#
#
# Indices 1 2 3 4 5 6 
#
# 1 192.4091 31.0258 8.0842 0.0000 0.0000 0.0000
# 2 31.0258 140.6760 36.4191 0.0000 0.0000 0.0000
# 3 8.0842 36.4191 95.7225 0.0000 0.0000 0.0000
# 4 0.0000 0.0000 0.0000 24.5756 0.0000 0.0000
# 5 0.0000 0.0000 0.0000 0.0000 30.4867 0.0000
# 6 0.0000 0.0000 0.0000 0.0000 0.0000 -52.3321
#
#
#
# Elastic Compliance Matrix: (Units=1/GPa)
#
#
# Indices 1 2 3 4 5 6 
#
# 1 0.005389 -0.001188 -0.000003 0.000000 0.000000 0.000000
# 2 -0.001188 0.008147 -0.002999 0.000000 0.000000 0.000000
# 3 -0.000003 -0.002999 0.011588 0.000000 0.000000 0.000000
# 4 0.000000 0.000000 0.000000 0.040691 0.000000 0.000000
# 5 0.000000 0.000000 0.000000 0.000000 0.032801 0.000000
# 6 0.000000 0.000000 0.000000 0.000000 0.000000 -0.019109
#
#
# Mechanical properties :
#
#
# Convention : Reuss Voigt Hill
#
# Bulk Modulus (GPa) = 59.72416 64.42953 62.07684
# Shear Modulus (GPa) = 53.49361 24.09794 38.79578
#
# Velocity S-wave (km/s) = 4.73076 3.17519 4.02877
# Velocity P-wave (km/s) = 7.40451 6.35592 6.90017
#
# Compressibility (1/GPa) = 0.01674364
#
# Stress axis : x y z
#
# Youngs Moduli (GPa) = 185.56636 122.74521 86.29409
#
# Poissons Ratio (x) = 0.14578 0.00028
# Poissons Ratio (y) = 0.22039 0.25882
# Poissons Ratio (z) = 0.00060 0.36815
#
# Static dielectric constant tensor:
#      x y z
#    x 1.939850 0.000000 0.000000 
#    y 0.000000 1.944050 0.000000 
#    z 0.000000 0.000000 1.826120 
# 
# From -- ./inp_files/5414.got.cif
#   From: 2010.05.17/outbox.cif.g08.bks.cpg/sg46_3_cif.got.tgz:5414.got - 2010.06.03 19:58:25.
