data_PCOD9380341
_publ_section_title
;
Structure prediction by ZEFSAII (Michael W. Deem and Ramdas Pophale) SiO2 
 PCOD9380341
Probable space group: I M A 2
;
_chemical_formula_sum "Si O2"
_cell_formula_units_Z 64
_cell_length_a 8.416242
_cell_length_b 25.416813
_cell_length_c 15.249668
_cell_angle_alpha 90.000000
_cell_angle_beta 90.000000
_cell_angle_gamma 90.000000
_cell_volume 3262.118229
_symmetry_space_group_name_H-M "I M A 2"
_symmetry_group_IT_number 46
_symmetry_cell_setting 'orthorhombic'
loop_
_space_group_symop_operation_xyz
x,y,z
-x,-y,z
1/2-x,y,z
1/2+x,-y,z
1/2+x,1/2+y,1/2+z
1/2-x,1/2-y,1/2+z
-x,1/2+y,1/2+z
x,1/2-y,1/2+z
loop_
_atom_site_type_symbol
_atom_site_label
_atom_site_fract_x
_atom_site_fract_y
_atom_site_fract_z
Si Si1 0.561889 0.102838 0.794150
Si Si2 0.060817 0.844455 0.511491
Si Si3 0.436077 0.442346 0.119716
Si Si4 0.442113 0.782579 0.842215
Si Si5 0.562922 0.131162 0.129617
Si Si6 0.942738 0.334398 0.811390
Si Si7 0.062667 0.441148 0.476541
Si Si8 0.563982 0.769175 0.038715
O O1 0.750000 0.097907 0.777409
O O2 0.470464 0.069515 0.721828
O O3 0.517318 0.164618 0.790199
O O4 0.523837 0.083479 0.891926
O O5 0.250000 0.835350 0.511572
O O6 0.008182 0.849896 0.409642
O O7 0.020557 0.896160 0.565606
O O8 0.980915 0.791880 0.549783
O O9 0.500000 0.500000 0.097482
O O10 0.250000 0.439901 0.102569
O O11 0.250000 0.782738 0.854796
O O12 0.487422 0.727004 0.799471
O O13 0.521902 0.783134 0.937746
O O14 0.750000 0.118341 0.126563
O O15 0.502686 0.130688 0.229859
O O16 0.474116 0.093730 0.061766
O O17 0.537285 0.190898 0.096920
O O18 0.750000 0.336298 0.809218
O O19 0.250000 0.441592 0.459247
O O20 0.000000 0.500000 0.489673
O O21 0.750000 0.777630 0.054729
#
# Coordination Sequence:
#
# PCOD9380341 Si02
#       8
#     8   8   8   8   8   8   8   8
#     4  11  22  38  63  92 124 164 205 248 304 367
#     4  10  21  42  66  89 119 160 207 258 312 367
#     4  12  26  44  64  91 123 159 207 258 310 370
#     4   9  18  35  58  86 120 162 204 241 296 364
#     4  11  21  37  61  90 123 162 205 252 306 366
#     4   8  18  36  61  90 120 157 202 250 300 361
#     4  12  25  42  62  87 122 162 207 256 307 366
#     4  11  21  34  55  89 126 162 201 248 304 361
#
# _framework density 19.619154000000002
#
# number of rings (size 3 to 8) (size 9 to 14) (size 15 to 20)
#    0.000    1.500    1.250    5.625    1.750    0.500 
#    0.000    6.875    0.000    0.000    0.000    0.000 
#    0.000    0.000    0.000    0.000    0.000    0.000 
#
# Total GULP energy -178856.483911 kJ/mol
# GULP energy per Si atom -5589.265122 kJ/mol
# Density = 1.957450 g / cm^3
# Si number density = 19.619154 Si / 1000 Ang^3
#
#
#
# Elastic Constant Matrix: (Units=GPa)
#
#
# Indices 1 2 3 4 5 6 
#
# 1 37.9615 -5.4092 -14.7197 0.0000 0.0000 0.0000
# 2 -5.4092 84.6891 22.6119 0.0000 0.0000 0.0000
# 3 -14.7197 22.6119 58.8640 0.0000 0.0000 0.0000
# 4 0.0000 0.0000 0.0000 20.7676 0.0000 0.0000
# 5 0.0000 0.0000 0.0000 0.0000 17.3655 0.0000
# 6 0.0000 0.0000 0.0000 0.0000 0.0000 27.8994
#
#
#
# Elastic Compliance Matrix: (Units=1/GPa)
#
#
# Indices 1 2 3 4 5 6 
#
# 1 0.029172 -0.000094 0.007331 0.000000 0.000000 0.000000
# 2 -0.000094 0.013158 -0.005078 0.000000 0.000000 0.000000
# 3 0.007331 -0.005078 0.020772 0.000000 0.000000 0.000000
# 4 0.000000 0.000000 0.000000 0.048152 0.000000 0.000000
# 5 0.000000 0.000000 0.000000 0.000000 0.057585 0.000000
# 6 0.000000 0.000000 0.000000 0.000000 0.000000 0.035843
#
#
# Mechanical properties :
#
#
# Convention : Reuss Voigt Hill
#
# Bulk Modulus (GPa) = 14.83258 20.72009 17.77634
# Shear Modulus (GPa) = 22.43791 25.14194 23.78992
#
# Velocity S-wave (km/s) = 3.38549 3.58369 3.48600
# Velocity P-wave (km/s) = 4.78108 5.26382 5.02825
#
# Compressibility (1/GPa) = 0.06741914
#
# Stress axis : x y z
#
# Youngs Moduli (GPa) = 34.27986 76.00128 48.14151
#
# Poissons Ratio (x) = 0.00715 -0.35292
# Poissons Ratio (y) = 0.00323 0.24446
# Poissons Ratio (z) = -0.25130 0.38593
#
# Static dielectric constant tensor:
#      x y z
#    x 1.661790 0.000000 0.000000 
#    y 0.000000 1.676180 0.000000 
#    z 0.000000 0.000000 1.698250 
# 
# From -- ./inp_files/14557.got.cif
#   From: 2010.05.17/outbox.cif.g08.bks.cpg/sg46_8_cif.got.tgz:14557.got - 2010.06.03 19:58:25.
