data_PCOD9380338
_publ_section_title
;
Structure prediction by ZEFSAII (Michael W. Deem and Ramdas Pophale) SiO2 
 PCOD9380338
Probable space group: I M A 2
;
_chemical_formula_sum "Si O2"
_cell_formula_units_Z 64
_cell_length_a 17.417129
_cell_length_b 11.316444
_cell_length_c 16.268812
_cell_angle_alpha 90.000000
_cell_angle_beta 90.000000
_cell_angle_gamma 90.000000
_cell_volume 3206.582275
_symmetry_space_group_name_H-M "I M A 2"
_symmetry_group_IT_number 46
_symmetry_cell_setting 'orthorhombic'
loop_
_space_group_symop_operation_xyz
x,y,z
-x,-y,z
1/2-x,y,z
1/2+x,-y,z
1/2+x,1/2+y,1/2+z
1/2-x,1/2-y,1/2+z
-x,1/2+y,1/2+z
x,1/2-y,1/2+z
loop_
_atom_site_type_symbol
_atom_site_label
_atom_site_fract_x
_atom_site_fract_y
_atom_site_fract_z
Si Si1 0.070440 0.784898 0.506760
Si Si2 0.586903 0.662327 0.441802
Si Si3 0.084400 0.504463 0.141976
Si Si4 0.409279 0.973756 0.378750
Si Si5 0.085714 0.530895 0.565973
Si Si6 0.839146 0.578099 0.719306
Si Si7 0.164949 0.362599 0.010829
Si Si8 0.840168 0.846698 0.767738
O O1 0.080702 0.882246 0.580304
O O2 0.104960 0.849312 0.425551
O O3 0.102965 0.666710 0.548071
O O4 0.987537 0.736669 0.472741
O O5 0.584736 0.532938 0.478313
O O6 0.657101 0.728071 0.486571
O O7 0.604073 0.659745 0.346086
O O8 0.102754 0.400743 0.077270
O O9 0.141766 0.464391 0.214302
O O10 0.000000 0.500000 0.179178
O O11 0.500000 0.000000 0.391960
O O12 0.388151 0.001288 0.284950
O O13 0.357414 0.066391 0.429089
O O14 0.142877 0.472093 0.629920
O O15 0.000000 0.500000 0.599943
O O16 0.750000 0.562907 0.740707
O O17 0.854596 0.719660 0.722989
O O18 0.250000 0.393673 0.040157
O O19 0.750000 0.847631 0.790689
#
# Coordination Sequence:
#
# PCOD9380338 Si02
#       8
#     8   8   8   8   8   8   8   8
#     4  10  21  42  63  92 129 170 227 263 323 398
#     4  11  20  40  65  94 129 167 217 278 331 388
#     4  11  22  39  63  93 129 170 216 271 323 399
#     4  11  19  37  66  94 127 162 214 269 322 387
#     4  10  24  40  64  91 126 171 218 264 322 391
#     4  11  23  41  63  96 128 166 219 273 331 386
#     4  11  19  34  63  94 123 163 213 276 334 383
#     4  11  24  40  65 101 135 167 216 282 344 391
#
# _framework density 19.958945
#
# number of rings (size 3 to 8) (size 9 to 14) (size 15 to 20)
#    0.000    1.250    3.750    3.000    1.750    3.500 
#    2.250    3.750    0.000    0.000    0.000    0.000 
#    0.000    0.000    0.000    0.000    0.000    0.000 
#
# Total GULP energy -178147.614598 kJ/mol
# GULP energy per Si atom -5567.112956 kJ/mol
# Density = 1.991352 g / cm^3
# Si number density = 19.958945 Si / 1000 Ang^3
#
#
#
# Elastic Constant Matrix: (Units=GPa)
#
#
# Indices 1 2 3 4 5 6 
#
# 1 56.7954 24.6049 18.9866 0.0000 0.0000 0.0000
# 2 24.6049 104.8543 48.6012 0.0000 0.0000 0.0000
# 3 18.9866 48.6012 85.5099 0.0000 0.0000 0.0000
# 4 0.0000 0.0000 0.0000 26.2504 0.0000 0.0000
# 5 0.0000 0.0000 0.0000 0.0000 13.9250 0.0000
# 6 0.0000 0.0000 0.0000 0.0000 0.0000 21.4653
#
#
#
# Elastic Compliance Matrix: (Units=1/GPa)
#
#
# Indices 1 2 3 4 5 6 
#
# 1 0.019957 -0.003569 -0.002402 0.000000 0.000000 0.000000
# 2 -0.003569 0.013587 -0.006930 0.000000 0.000000 0.000000
# 3 -0.002402 -0.006930 0.016167 0.000000 0.000000 0.000000
# 4 0.000000 0.000000 0.000000 0.038095 0.000000 0.000000
# 5 0.000000 0.000000 0.000000 0.000000 0.071813 0.000000
# 6 0.000000 0.000000 0.000000 0.000000 0.000000 0.046587
#
#
# Mechanical properties :
#
#
# Convention : Reuss Voigt Hill
#
# Bulk Modulus (GPa) = 41.82915 47.94944 44.88930
# Shear Modulus (GPa) = 20.83539 22.65926 21.74732
#
# Velocity S-wave (km/s) = 3.23447 3.37307 3.30449
# Velocity P-wave (km/s) = 5.91203 6.26469 6.09091
#
# Compressibility (1/GPa) = 0.02390677
#
# Stress axis : x y z
#
# Youngs Moduli (GPa) = 50.10889 73.60191 61.85601
#
# Poissons Ratio (x) = 0.26272 0.14860
# Poissons Ratio (y) = 0.17886 0.42864
# Poissons Ratio (z) = 0.12038 0.51004
#
# Static dielectric constant tensor:
#      x y z
#    x 1.733420 0.000000 0.000000 
#    y 0.000000 1.718910 0.000000 
#    z 0.000000 0.000000 1.737190 
# 
# From -- ./inp_files/16758.got.cif
#   From: 2010.05.17/outbox.cif.g08.bks.cpg/sg46_9_cif.got.tgz:16758.got - 2010.06.03 19:58:25.
