data_PCOD9380244
_publ_section_title
;
Structure prediction by ZEFSAII (Michael W. Deem and Ramdas Pophale) SiO2 
 PCOD9380244
Probable space group: I M A 2
;
_chemical_formula_sum "Si O2"
_cell_formula_units_Z 56
_cell_length_a 25.776837
_cell_length_b 6.739818
_cell_length_c 13.616781
_cell_angle_alpha 90.000000
_cell_angle_beta 90.000000
_cell_angle_gamma 90.000000
_cell_volume 2365.659567
_symmetry_space_group_name_H-M "I M A 2"
_symmetry_group_IT_number 46
_symmetry_cell_setting 'orthorhombic'
loop_
_space_group_symop_operation_xyz
x,y,z
-x,-y,z
1/2-x,y,z
1/2+x,-y,z
1/2+x,1/2+y,1/2+z
1/2-x,1/2-y,1/2+z
-x,1/2+y,1/2+z
x,1/2-y,1/2+z
loop_
_atom_site_type_symbol
_atom_site_label
_atom_site_fract_x
_atom_site_fract_y
_atom_site_fract_z
Si Si1 0.624335 0.455279 0.450650
Si Si2 0.692997 0.388607 0.943246
Si Si3 0.000000 0.000000 0.238953
Si Si4 0.949002 0.722810 0.890362
Si Si5 0.813232 0.733585 0.084644
Si Si6 0.583758 0.281486 0.640923
Si Si7 0.000000 0.500000 0.071653
Si Si8 0.854457 0.541129 0.769581
O O1 0.662616 0.301015 0.402470
O O2 0.578646 0.566498 0.395118
O O3 0.659291 0.615594 0.508317
O O4 0.598286 0.311777 0.529485
O O5 0.750000 0.320758 0.970292
O O6 0.691457 0.529248 0.848278
O O7 0.674711 0.517440 0.037676
O O8 0.994364 0.814080 0.312020
O O9 0.048139 0.970384 0.169231
O O10 0.970873 0.651786 0.995812
O O11 0.903323 0.586475 0.842402
O O12 0.750000 0.754909 0.088323
O O13 0.839759 0.792248 0.188482
O O14 0.632558 0.338162 0.709033
O O15 0.544986 0.096001 0.638846
#
# Coordination Sequence:
#
# PCOD9380244 Si02
#       8
#     8   8   4   8   8   8   4   8
#     4  11  22  41  66  94 130 180 220 271 338 406
#     4  11  23  42  68  98 136 176 226 280 340 413
#     4   9  20  40  58  99 130 168 219 276 326 399
#     4  10  21  39  67  89 137 174 222 272 334 399
#     4  10  22  42  68  95 133 177 221 279 341 405
#     4  10  22  37  63  93 135 168 222 268 330 394
#     4  11  22  40  66  99 132 186 223 282 336 403
#     4  10  21  43  66 102 133 175 225 282 339 405
#
# _framework density 23.672044
#
# number of rings (size 3 to 8) (size 9 to 14) (size 15 to 20)
#    0.000    1.714    1.429    2.571    0.000    1.143 
#    5.143    0.000    0.000    0.000    0.000    0.000 
#    0.000    0.000    0.000    0.000    0.000    0.000 
#
# Total GULP energy -155988.700665 kJ/mol
# GULP energy per Si atom -5571.025024 kJ/mol
# Density = 2.361817 g / cm^3
# Si number density = 23.672044 Si / 1000 Ang^3
#
#
#
# Elastic Constant Matrix: (Units=GPa)
#
#
# Indices 1 2 3 4 5 6 
#
# 1 77.6177 32.8780 15.4861 0.0000 0.0000 0.0000
# 2 32.8780 83.1526 24.1698 0.0000 0.0000 0.0000
# 3 15.4861 24.1698 63.8503 0.0000 0.0000 0.0000
# 4 0.0000 0.0000 0.0000 2.8724 0.0000 0.0000
# 5 0.0000 0.0000 0.0000 0.0000 16.0817 0.0000
# 6 0.0000 0.0000 0.0000 0.0000 0.0000 31.9542
#
#
#
# Elastic Compliance Matrix: (Units=1/GPa)
#
#
# Indices 1 2 3 4 5 6 
#
# 1 0.015625 -0.005704 -0.001630 0.000000 0.000000 0.000000
# 2 -0.005704 0.015595 -0.004520 0.000000 0.000000 0.000000
# 3 -0.001630 -0.004520 0.017768 0.000000 0.000000 0.000000
# 4 0.000000 0.000000 0.000000 0.348136 0.000000 0.000000
# 5 0.000000 0.000000 0.000000 0.000000 0.062182 0.000000
# 6 0.000000 0.000000 0.000000 0.000000 0.000000 0.031295
#
#
# Mechanical properties :
#
#
# Convention : Reuss Voigt Hill
#
# Bulk Modulus (GPa) = 39.55791 41.07649 40.31720
# Shear Modulus (GPa) = 9.56503 20.32079 14.94291
#
# Velocity S-wave (km/s) = 2.01232 2.93308 2.51519
# Velocity P-wave (km/s) = 4.70599 5.37220 5.05009
#
# Compressibility (1/GPa) = 0.02527940
#
# Stress axis : x y z
#
# Youngs Moduli (GPa) = 63.99918 64.12197 56.28079
#
# Poissons Ratio (x) = 0.36576 0.09176
# Poissons Ratio (y) = 0.36506 0.25439
# Poissons Ratio (z) = 0.10435 0.28983
#
# Static dielectric constant tensor:
#      x y z
#    x 2.010820 0.000000 0.000000 
#    y 0.000000 1.939020 0.000000 
#    z 0.000000 0.000000 1.880060 
# 
# From -- ./inp_files/17727.got.cif
#   From: 2010.05.17/outbox.cif.g08.bks.cpg/sg46_9_cif.got.tgz:17727.got - 2010.06.03 19:58:25.
