data_PCOD9380089
_publ_section_title
;
Structure prediction by ZEFSAII (Michael W. Deem and Ramdas Pophale) SiO2 
 PCOD9380089
Probable space group: I M A 2
;
_chemical_formula_sum "Si O2"
_cell_formula_units_Z 56
_cell_length_a 15.285988
_cell_length_b 11.953152
_cell_length_c 13.136325
_cell_angle_alpha 90.000000
_cell_angle_beta 90.000000
_cell_angle_gamma 90.000000
_cell_volume 2400.213317
_symmetry_space_group_name_H-M "I M A 2"
_symmetry_group_IT_number 46
_symmetry_cell_setting 'orthorhombic'
loop_
_space_group_symop_operation_xyz
x,y,z
-x,-y,z
1/2-x,y,z
1/2+x,-y,z
1/2+x,1/2+y,1/2+z
1/2-x,1/2-y,1/2+z
-x,1/2+y,1/2+z
x,1/2-y,1/2+z
loop_
_atom_site_type_symbol
_atom_site_label
_atom_site_fract_x
_atom_site_fract_y
_atom_site_fract_z
Si Si1 0.653590 0.706434 0.265210
Si Si2 0.651350 0.460773 0.362933
Si Si3 0.579762 0.943127 0.062077
Si Si4 0.855323 0.303396 0.171948
Si Si5 0.530313 0.804003 0.576197
Si Si6 0.649973 0.445551 0.738164
Si Si7 0.852463 0.584370 0.918953
O O1 0.750000 0.717145 0.213966
O O2 0.652950 0.585189 0.317256
O O3 0.573667 0.707079 0.187608
O O4 0.647650 0.803577 0.348805
O O5 0.750000 0.427962 0.393188
O O6 0.597959 0.476814 0.466317
O O7 0.625124 0.377342 0.272664
O O8 0.554366 0.818748 0.031298
O O9 0.500000 0.000000 0.121584
O O10 0.651211 0.960469 0.149083
O O11 0.750000 0.315115 0.149018
O O12 0.877527 0.174385 0.196459
O O13 0.927519 0.331024 0.086088
O O14 0.586101 0.893453 0.514150
O O15 0.750000 0.426015 0.767578
O O16 0.610525 0.490509 0.842593
O O17 0.750000 0.565455 0.948502
#
# Coordination Sequence:
#
# PCOD9380089 Si02
#       7
#     8   8   8   8   8   8   8
#     4  10  21  37  65 102 141 173 214 285 356 412
#     4  10  23  43  68  98 138 181 227 278 339 419
#     4  12  23  37  65 104 131 171 234 284 338 402
#     4  10  24  46  69  96 140 196 236 277 336 408
#     4  12  23  39  70 104 139 178 227 293 348 417
#     4  10  21  42  68  97 140 183 227 282 342 411
#     4  10  21  38  68 109 141 174 222 290 363 411
#
# _framework density 23.331258999999999
#
# number of rings (size 3 to 8) (size 9 to 14) (size 15 to 20)
#    0.000    1.429    4.286    0.857    2.000    1.143 
#    0.000    1.429    9.429    6.857    0.000    1.000 
#    0.000    0.000    0.000    0.000    0.000    0.000 
#
# Total GULP energy -156290.637059 kJ/mol
# GULP energy per Si atom -5581.808466 kJ/mol
# Density = 2.327816 g / cm^3
# Si number density = 23.331259 Si / 1000 Ang^3
#
#
#
# Elastic Constant Matrix: (Units=GPa)
#
#
# Indices 1 2 3 4 5 6 
#
# 1 119.6877 18.3750 49.6652 0.0000 0.0000 0.0000
# 2 18.3750 51.8794 10.5542 0.0000 0.0000 0.0000
# 3 49.6652 10.5542 57.2185 0.0000 0.0000 0.0000
# 4 0.0000 0.0000 0.0000 28.4784 0.0000 0.0000
# 5 0.0000 0.0000 0.0000 0.0000 -102.7053 0.0000
# 6 0.0000 0.0000 0.0000 0.0000 0.0000 24.6841
#
#
#
# Elastic Compliance Matrix: (Units=1/GPa)
#
#
# Indices 1 2 3 4 5 6 
#
# 1 0.013355 -0.002464 -0.011137 0.000000 0.000000 0.000000
# 2 -0.002464 0.020482 -0.001639 0.000000 0.000000 0.000000
# 3 -0.011137 -0.001639 0.027446 0.000000 0.000000 0.000000
# 4 0.000000 0.000000 0.000000 0.035114 0.000000 0.000000
# 5 0.000000 0.000000 0.000000 0.000000 -0.009737 0.000000
# 6 0.000000 0.000000 0.000000 0.000000 0.000000 0.040512
#
#
# Mechanical properties :
#
#
# Convention : Reuss Voigt Hill
#
# Bulk Modulus (GPa) = 32.46578 42.88604 37.67591
# Shear Modulus (GPa) = 29.77584 0.10419 14.94001
#
# Velocity S-wave (km/s) = 3.57630 0.21155 2.53325
# Velocity P-wave (km/s) = 5.56764 4.29895 4.97391
#
# Compressibility (1/GPa) = 0.03080166
#
# Stress axis : x y z
#
# Youngs Moduli (GPa) = 74.87855 48.82403 36.43469
#
# Poissons Ratio (x) = 0.12032 0.40579
# Poissons Ratio (y) = 0.18453 0.05971
# Poissons Ratio (z) = 0.83395 0.08002
#
# Static dielectric constant tensor:
#      x y z
#    x 1.981870 0.000000 0.000000 
#    y 0.000000 1.901330 0.000000 
#    z 0.000000 0.000000 1.881390 
# 
# From -- ./inp_files/15953.got.cif
#   From: 2010.05.17/outbox.cif.g08.bks.cpg/sg46_8_cif.got.tgz:15953.got - 2010.06.03 19:58:25.
