data_PCOD9380086
_publ_section_title
;
Structure prediction by ZEFSAII (Michael W. Deem and Ramdas Pophale) SiO2 
 PCOD9380086
Probable space group: I M A 2
;
_chemical_formula_sum "Si O2"
_cell_formula_units_Z 64
_cell_length_a 19.960228
_cell_length_b 11.775673
_cell_length_c 13.811393
_cell_angle_alpha 90.000000
_cell_angle_beta 90.000000
_cell_angle_gamma 90.000000
_cell_volume 3246.300497
_symmetry_space_group_name_H-M "I M A 2"
_symmetry_group_IT_number 46
_symmetry_cell_setting 'orthorhombic'
loop_
_space_group_symop_operation_xyz
x,y,z
-x,-y,z
1/2-x,y,z
1/2+x,-y,z
1/2+x,1/2+y,1/2+z
1/2-x,1/2-y,1/2+z
-x,1/2+y,1/2+z
x,1/2-y,1/2+z
loop_
_atom_site_type_symbol
_atom_site_label
_atom_site_fract_x
_atom_site_fract_y
_atom_site_fract_z
Si Si1 0.089803 0.307285 0.060690
Si Si2 0.557181 0.222355 0.576063
Si Si3 0.926952 0.490917 0.215444
Si Si4 0.174463 0.607468 0.573228
Si Si5 0.573714 0.347583 0.853853
Si Si6 0.422104 0.382768 0.839313
Si Si7 0.172203 0.861424 0.841608
Si Si8 0.173666 0.140702 0.166024
O O1 0.086655 0.406638 0.141145
O O2 0.151729 0.228003 0.083722
O O3 0.019880 0.238381 0.073122
O O4 0.091754 0.353003 0.951311
O O5 0.564054 0.118835 0.648463
O O6 0.612223 0.314773 0.602634
O O7 0.571045 0.171670 0.469560
O O8 0.866395 0.462273 0.286578
O O9 0.000000 0.500000 0.266415
O O10 0.250000 0.649046 0.599131
O O11 0.171554 0.609327 0.456048
O O12 0.165800 0.484933 0.621398
O O13 0.496890 0.334535 0.817900
O O14 0.585739 0.480209 0.832711
O O15 0.628897 0.254223 0.823295
O O16 0.372464 0.336492 0.758754
O O17 0.250000 0.848208 0.812370
O O18 0.250000 0.155040 0.194659
#
# Coordination Sequence:
#
# PCOD9380086 Si02
#       8
#     8   8   8   8   8   8   8   8
#     4  10  22  41  62  89 123 158 207 256 302 366
#     4   9  18  37  64  91 119 155 197 251 312 360
#     4  10  21  37  63  90 124 162 201 251 305 367
#     4   9  21  42  60  86 130 162 198 258 314 364
#     4   9  19  38  63  94 122 153 198 252 313 369
#     4  10  21  39  64  90 121 158 202 258 306 367
#     4  10  22  39  62  94 128 163 202 256 316 369
#     4  11  26  42  59  86 121 169 213 249 304 369
#
# _framework density 19.714748
#
# number of rings (size 3 to 8) (size 9 to 14) (size 15 to 20)
#    0.000    2.250    1.250    0.000    5.250    4.500 
#    4.500    1.250    0.000    0.000    0.000    0.000 
#    0.000    0.000    0.000    0.000    0.000    0.000 
#
# Total GULP energy -178508.102404 kJ/mol
# GULP energy per Si atom -5578.378200 kJ/mol
# Density = 1.966988 g / cm^3
# Si number density = 19.714748 Si / 1000 Ang^3
#
#
#
# Elastic Constant Matrix: (Units=GPa)
#
#
# Indices 1 2 3 4 5 6 
#
# 1 145.2368 63.3835 56.9006 0.0000 0.0000 0.0000
# 2 63.3835 54.2615 20.3461 0.0000 0.0000 0.0000
# 3 56.9006 20.3461 64.2522 0.0000 0.0000 0.0000
# 4 0.0000 0.0000 0.0000 17.8787 0.0000 0.0000
# 5 0.0000 0.0000 0.0000 0.0000 31.8895 0.0000
# 6 0.0000 0.0000 0.0000 0.0000 0.0000 32.0836
#
#
#
# Elastic Compliance Matrix: (Units=1/GPa)
#
#
# Indices 1 2 3 4 5 6 
#
# 1 0.019302 -0.018311 -0.011295 0.000000 0.000000 0.000000
# 2 -0.018311 0.038284 0.004093 0.000000 0.000000 0.000000
# 3 -0.011295 0.004093 0.024270 0.000000 0.000000 0.000000
# 4 0.000000 0.000000 0.000000 0.055932 0.000000 0.000000
# 5 0.000000 0.000000 0.000000 0.000000 0.031358 0.000000
# 6 0.000000 0.000000 0.000000 0.000000 0.000000 0.031169
#
#
# Mechanical properties :
#
#
# Convention : Reuss Voigt Hill
#
# Bulk Modulus (GPa) = 32.43602 60.55677 46.49639
# Shear Modulus (GPa) = 19.11183 24.57838 21.84511
#
# Velocity S-wave (km/s) = 3.11693 3.53469 3.33236
# Velocity P-wave (km/s) = 5.42605 6.88781 6.20016
#
# Compressibility (1/GPa) = 0.03082992
#
# Stress axis : x y z
#
# Youngs Moduli (GPa) = 51.80884 26.12034 41.20325
#
# Poissons Ratio (x) = 0.47830 0.46538
# Poissons Ratio (y) = 0.94870 -0.16865
# Poissons Ratio (z) = 0.58517 -0.10691
#
# Static dielectric constant tensor:
#      x y z
#    x 1.704730 0.000000 0.000000 
#    y 0.000000 1.685210 0.000000 
#    z 0.000000 0.000000 1.690040 
# 
# From -- ./inp_files/16755.got.cif
#   From: 2010.05.17/outbox.cif.g08.bks.cpg/sg46_9_cif.got.tgz:16755.got - 2010.06.03 19:58:25.
