data_PCOD9380551
_publ_section_title
;
Structure prediction by ZEFSAII (Michael W. Deem and Ramdas Pophale) SiO2 
 PCOD9380551
Probable space group: I M A 2
;
_chemical_formula_sum "Si O2"
_cell_formula_units_Z 48
_cell_length_a 9.049267
_cell_length_b 22.892234
_cell_length_c 11.659921
_cell_angle_alpha 90.000000
_cell_angle_beta 90.000000
_cell_angle_gamma 90.000000
_cell_volume 2415.445188
_symmetry_space_group_name_H-M "I M A 2"
_symmetry_group_IT_number 46
_symmetry_cell_setting 'orthorhombic'
loop_
_space_group_symop_operation_xyz
x,y,z
-x,-y,z
1/2-x,y,z
1/2+x,-y,z
1/2+x,1/2+y,1/2+z
1/2-x,1/2-y,1/2+z
-x,1/2+y,1/2+z
x,1/2-y,1/2+z
loop_
_atom_site_type_symbol
_atom_site_label
_atom_site_fract_x
_atom_site_fract_y
_atom_site_fract_z
Si Si1 0.079699 0.758017 0.116710
Si Si2 0.421519 0.636518 0.771686
Si Si3 0.076345 0.439320 0.588240
Si Si4 0.575696 0.355111 0.418749
Si Si5 0.575439 0.062088 0.499244
Si Si6 0.575320 0.855200 0.674576
O O1 0.250000 0.736696 0.113841
O O2 0.061745 0.795806 0.234539
O O3 0.970038 0.704234 0.109514
O O4 0.059220 0.802516 0.010766
O O5 0.250000 0.622480 0.736757
O O6 0.538016 0.602942 0.693427
O O7 0.439628 0.610953 0.898562
O O8 0.250000 0.445035 0.570779
O O9 0.000000 0.500000 0.615503
O O10 0.996401 0.411076 0.479173
O O11 0.750000 0.362968 0.399734
O O12 0.493387 0.346067 0.299990
O O13 0.750000 0.052705 0.516693
O O14 0.499657 0.090240 0.610513
O O15 0.500000 0.000000 0.468648
O O16 0.750000 0.862801 0.678952
#
# Coordination Sequence:
#
# PCOD9380551 Si02
#       6
#     8   8   8   8   8   8
#     4   9  20  40  65  92 122 161 206 254 310 375
#     4   9  20  39  64  93 124 163 208 255 309 369
#     4  11  21  35  59  90 124 159 200 250 306 362
#     4  10  22  42  64  87 118 158 206 253 306 370
#     4  11  24  43  65  92 127 171 218 262 313 377
#     4  12  26  41  61  92 127 164 206 258 315 373
#
# _framework density 19.872112999999999
#
# number of rings (size 3 to 8) (size 9 to 14) (size 15 to 20)
#    0.000    1.667    0.000    5.500    2.333    6.667 
#    0.000    3.333    0.000    0.000    0.000    0.000 
#    0.000    0.000    0.000    0.000    0.000    0.000 
#
# Total GULP energy -134052.637936 kJ/mol
# GULP energy per Si atom -5585.526581 kJ/mol
# Density = 1.982688 g / cm^3
# Si number density = 19.872113 Si / 1000 Ang^3
#
#
#
# Elastic Constant Matrix: (Units=GPa)
#
#
# Indices 1 2 3 4 5 6 
#
# 1 132.2203 35.2649 41.3033 0.0001 0.0000 -0.0015
# 2 35.2649 40.8557 7.4223 0.0000 0.0000 -0.0004
# 3 41.3033 7.4223 67.1665 0.0002 0.0001 -0.0062
# 4 0.0001 0.0000 0.0002 19.4333 0.0000 -0.0031
# 5 0.0000 0.0000 0.0001 0.0000 27.1462 0.0001
# 6 -0.0015 -0.0004 -0.0062 -0.0031 0.0001 -109.8230
#
#
#
# Elastic Compliance Matrix: (Units=1/GPa)
#
#
# Indices 1 2 3 4 5 6 
#
# 1 0.012008 -0.009208 -0.006367 0.000000 0.000000 0.000000
# 2 -0.009208 0.032039 0.002122 0.000000 0.000000 0.000000
# 3 -0.006367 0.002122 0.018569 0.000000 0.000000 -0.000001
# 4 0.000000 0.000000 0.000000 0.051458 0.000000 -0.000001
# 5 0.000000 0.000000 0.000000 0.000000 0.036838 0.000000
# 6 0.000000 0.000000 -0.000001 -0.000001 0.000000 -0.009106
#
#
# Mechanical properties :
#
#
# Convention : Reuss Voigt Hill
#
# Bulk Modulus (GPa) = 28.00315 45.35818 36.68066
# Shear Modulus (GPa) = 27.68328 -2.23189 12.72570
#
# Velocity S-wave (km/s) = 3.73644 -1.06093 2.53332
# Velocity P-wave (km/s) = 5.72162 4.62319 5.20148
#
# Compressibility (1/GPa) = 0.03571027
#
# Stress axis : x y z
#
# Youngs Moduli (GPa) = 83.27894 31.21204 53.85343
#
# Poissons Ratio (x) = 0.28740 0.34286
# Poissons Ratio (y) = 0.76684 -0.11427
# Poissons Ratio (z) = 0.53020 -0.06623
#
# Static dielectric constant tensor:
#      x y z
#    x 1.655130 0.000000 0.000000 
#    y 0.000000 1.668810 0.000000 
#    z 0.000000 0.000000 1.735190 
# 
# From -- ./inp_files/9312.got.cif
#   From: 2010.05.17/outbox.cif.g08.bks.cpg/sg46_5_cif.got.tgz:9312.got - 2010.06.03 19:58:25.
