data_PCOD9380075
_publ_section_title
;
Structure prediction by ZEFSAII (Michael W. Deem and Ramdas Pophale) SiO2 
 PCOD9380075
Probable space group: I M A 2
;
_chemical_formula_sum "Si O2"
_cell_formula_units_Z 56
_cell_length_a 20.922830
_cell_length_b 14.247478
_cell_length_c 9.928132
_cell_angle_alpha 90.000000
_cell_angle_beta 90.000000
_cell_angle_gamma 90.000000
_cell_volume 2959.551926
_symmetry_space_group_name_H-M "I M A 2"
_symmetry_group_IT_number 46
_symmetry_cell_setting 'orthorhombic'
loop_
_space_group_symop_operation_xyz
x,y,z
-x,-y,z
1/2-x,y,z
1/2+x,-y,z
1/2+x,1/2+y,1/2+z
1/2-x,1/2-y,1/2+z
-x,1/2+y,1/2+z
x,1/2-y,1/2+z
loop_
_atom_site_type_symbol
_atom_site_label
_atom_site_fract_x
_atom_site_fract_y
_atom_site_fract_z
Si Si1 0.825492 0.034805 0.599790
Si Si2 0.113738 0.784054 0.498250
Si Si3 0.069575 0.986744 0.100916
Si Si4 0.173068 0.174516 0.506656
Si Si5 0.392637 0.312351 0.715308
Si Si6 0.323464 0.599535 0.408837
Si Si7 0.461731 0.797523 0.242928
O O1 0.750000 0.041301 0.573430
O O2 0.860115 0.111225 0.507517
O O3 0.834488 0.067133 0.754958
O O4 0.844502 0.928083 0.567403
O O5 0.165313 0.709875 0.440935
O O6 0.055353 0.776478 0.395508
O O7 0.086885 0.755171 0.643537
O O8 0.052597 0.906700 0.210274
O O9 0.096454 0.080990 0.166569
O O10 0.123374 0.949669 0.000420
O O11 0.000000 0.000000 0.031242
O O12 0.250000 0.178621 0.492084
O O13 0.149153 0.253569 0.610085
O O14 0.139502 0.188372 0.362216
O O15 0.464910 0.272588 0.717401
O O16 0.250000 0.575269 0.442840
#
# Coordination Sequence:
#
# PCOD9380075 Si02
#       7
#     8   8   8   8   8   8   8
#     4  10  22  40  60  91 127 158 203 258 306 368
#     4  11  19  39  61  93 123 160 193 246 314 376
#     4   9  21  40  62  89 122 159 207 260 311 366
#     4  11  25  42  63  89 123 164 214 260 306 363
#     4  11  23  43  62  89 119 165 207 258 310 361
#     4  10  21  37  61  93 124 163 201 249 314 379
#     4  10  21  37  64  90 125 155 202 253 308 379
#
# _framework density 18.921783999999999
#
# number of rings (size 3 to 8) (size 9 to 14) (size 15 to 20)
#    0.000    1.714    1.429    2.571    2.000    1.143 
#    0.000    4.286    0.000    0.000    0.000    0.000 
#    0.000    0.000    0.000    0.000    0.000    0.000 
#
# Total GULP energy -156231.257217 kJ/mol
# GULP energy per Si atom -5579.687758 kJ/mol
# Density = 1.887872 g / cm^3
# Si number density = 18.921784 Si / 1000 Ang^3
#
#
#
# Elastic Constant Matrix: (Units=GPa)
#
#
# Indices 1 2 3 4 5 6 
#
# 1 94.0933 40.2813 51.2064 0.0000 0.0000 0.0000
# 2 40.2813 94.5026 34.3202 0.0000 0.0000 0.0000
# 3 51.2064 34.3202 81.8173 0.0000 0.0000 0.0000
# 4 0.0000 0.0000 0.0000 14.3604 0.0000 0.0000
# 5 0.0000 0.0000 0.0000 0.0000 37.2213 0.0000
# 6 0.0000 0.0000 0.0000 0.0000 0.0000 25.2044
#
#
#
# Elastic Compliance Matrix: (Units=1/GPa)
#
#
# Indices 1 2 3 4 5 6 
#
# 1 0.017351 -0.004073 -0.009151 0.000000 0.000000 0.000000
# 2 -0.004073 0.013439 -0.003089 0.000000 0.000000 0.000000
# 3 -0.009151 -0.003089 0.019245 0.000000 0.000000 0.000000
# 4 0.000000 0.000000 0.000000 0.069636 0.000000 0.000000
# 5 0.000000 0.000000 0.000000 0.000000 0.026866 0.000000
# 6 0.000000 0.000000 0.000000 0.000000 0.000000 0.039676
#
#
# Mechanical properties :
#
#
# Convention : Reuss Voigt Hill
#
# Bulk Modulus (GPa) = 57.43399 58.00323 57.71861
# Shear Modulus (GPa) = 22.25759 24.99758 23.62759
#
# Velocity S-wave (km/s) = 3.43344 3.63864 3.53753
# Velocity P-wave (km/s) = 6.79244 6.95512 6.87426
#
# Compressibility (1/GPa) = 0.01741129
#
# Stress axis : x y z
#
# Youngs Moduli (GPa) = 57.63227 74.40873 51.96050
#
# Poissons Ratio (x) = 0.30303 0.47551
# Poissons Ratio (y) = 0.23471 0.16049
# Poissons Ratio (z) = 0.52741 0.22982
#
# Static dielectric constant tensor:
#      x y z
#    x 1.641250 0.000000 0.000000 
#    y 0.000000 1.672890 0.000000 
#    z 0.000000 0.000000 1.625080 
# 
# From -- ./inp_files/7405.got.cif
#   From: 2010.05.17/outbox.cif.g08.bks.cpg/sg46_4_cif.got.tgz:7405.got - 2010.06.03 19:58:25.
