data_PCOD9380529
_publ_section_title
;
Structure prediction by ZEFSAII (Michael W. Deem and Ramdas Pophale) SiO2 
 PCOD9380529
Probable space group: I M A 2
;
_chemical_formula_sum "Si O2"
_cell_formula_units_Z 48
_cell_length_a 16.862632
_cell_length_b 10.606992
_cell_length_c 13.301969
_cell_angle_alpha 90.000000
_cell_angle_beta 90.000000
_cell_angle_gamma 90.000000
_cell_volume 2379.214155
_symmetry_space_group_name_H-M "I M A 2"
_symmetry_group_IT_number 46
_symmetry_cell_setting 'orthorhombic'
loop_
_space_group_symop_operation_xyz
x,y,z
-x,-y,z
1/2-x,y,z
1/2+x,-y,z
1/2+x,1/2+y,1/2+z
1/2-x,1/2-y,1/2+z
-x,1/2+y,1/2+z
x,1/2-y,1/2+z
loop_
_atom_site_type_symbol
_atom_site_label
_atom_site_fract_x
_atom_site_fract_y
_atom_site_fract_z
Si Si1 0.426264 0.219970 0.963320
Si Si2 0.655541 0.457148 0.712395
Si Si3 0.658157 0.735063 0.776758
Si Si4 0.082615 0.762907 0.831650
Si Si5 0.972927 0.863423 0.662616
Si Si6 0.343329 0.545343 0.483297
O O1 0.356677 0.280508 0.895750
O O2 0.505735 0.245549 0.901343
O O3 0.400959 0.074029 0.968946
O O4 0.444201 0.278975 0.070480
O O5 0.750000 0.453583 0.725563
O O6 0.631914 0.603520 0.725428
O O7 0.617730 0.370000 0.797377
O O8 0.639342 0.411019 0.598199
O O9 0.750000 0.758158 0.754426
O O10 0.602283 0.848666 0.738314
O O11 0.140351 0.852470 0.896441
O O12 0.048282 0.819596 0.728071
O O13 0.000000 0.000000 0.626323
O O14 0.250000 0.507852 0.480627
#
# Coordination Sequence:
#
# PCOD9380529 Si02
#       6
#     8   8   8   8   8   8
#     4  11  23  38  64  92 127 173 216 264 335 394
#     4  10  22  41  65  94 128 172 221 273 335 395
#     4  10  22  42  66  93 127 171 224 275 328 395
#     4  11  23  39  62  94 129 168 215 271 325 394
#     4  11  24  40  61  93 132 165 216 273 333 392
#     4  11  22  42  70  96 127 174 226 273 330 398
#
# _framework density 20.17473
#
# number of rings (size 3 to 8) (size 9 to 14) (size 15 to 20)
#    0.000    1.333    1.667    4.500    2.333    2.667 
#    0.000    0.833    0.000    0.000    0.000    0.000 
#    0.000    0.000    0.000    0.000    0.000    0.000 
#
# Total GULP energy -133863.381300 kJ/mol
# GULP energy per Si atom -5577.640888 kJ/mol
# Density = 2.012881 g / cm^3
# Si number density = 20.174730 Si / 1000 Ang^3
#
#
#
# Elastic Constant Matrix: (Units=GPa)
#
#
# Indices 1 2 3 4 5 6 
#
# 1 69.9896 52.1156 33.1677 0.0000 0.0000 0.0000
# 2 52.1156 97.1984 39.2262 0.0000 0.0000 0.0000
# 3 33.1677 39.2262 107.0195 0.0000 0.0000 0.0000
# 4 0.0000 0.0000 0.0000 37.7467 0.0000 0.0000
# 5 0.0000 0.0000 0.0000 0.0000 34.2881 0.0000
# 6 0.0000 0.0000 0.0000 0.0000 0.0000 22.5208
#
#
#
# Elastic Compliance Matrix: (Units=1/GPa)
#
#
# Indices 1 2 3 4 5 6 
#
# 1 0.024733 -0.011933 -0.003292 0.000000 0.000000 0.000000
# 2 -0.011933 0.017832 -0.002838 0.000000 0.000000 0.000000
# 3 -0.003292 -0.002838 0.011404 0.000000 0.000000 0.000000
# 4 0.000000 0.000000 0.000000 0.026492 0.000000 0.000000
# 5 0.000000 0.000000 0.000000 0.000000 0.029165 0.000000
# 6 0.000000 0.000000 0.000000 0.000000 0.000000 0.044403
#
#
# Mechanical properties :
#
#
# Convention : Reuss Voigt Hill
#
# Bulk Modulus (GPa) = 56.03854 58.13627 57.08741
# Shear Modulus (GPa) = 25.49691 28.89099 27.19395
#
# Velocity S-wave (km/s) = 3.55886 3.78833 3.67539
# Velocity P-wave (km/s) = 6.68762 6.92923 6.80949
#
# Compressibility (1/GPa) = 0.01784486
#
# Stress axis : x y z
#
# Youngs Moduli (GPa) = 40.43137 56.08008 87.68653
#
# Poissons Ratio (x) = 0.66921 0.28862
# Poissons Ratio (y) = 0.48247 0.24882
# Poissons Ratio (z) = 0.13308 0.15913
#
# Static dielectric constant tensor:
#      x y z
#    x 1.720930 0.000000 0.000000 
#    y 0.000000 1.734650 0.000000 
#    z 0.000000 0.000000 1.764790 
# 
# From -- ./inp_files/11802.got.cif
#   From: 2010.05.17/outbox.cif.g08.bks.cpg/sg46_6_cif.got.tgz:11802.got - 2010.06.03 19:58:25.
