data_PCOD9380538
_publ_section_title
;
Structure prediction by ZEFSAII (Michael W. Deem and Ramdas Pophale) SiO2 
 PCOD9380538
Probable space group: I M A 2
;
_chemical_formula_sum "Si O2"
_cell_formula_units_Z 64
_cell_length_a 14.820665
_cell_length_b 8.394870
_cell_length_c 22.325266
_cell_angle_alpha 90.000000
_cell_angle_beta 90.000000
_cell_angle_gamma 90.000000
_cell_volume 2777.655033
_symmetry_space_group_name_H-M "I M A 2"
_symmetry_group_IT_number 46
_symmetry_cell_setting 'orthorhombic'
loop_
_space_group_symop_operation_xyz
x,y,z
-x,-y,z
1/2-x,y,z
1/2+x,-y,z
1/2+x,1/2+y,1/2+z
1/2-x,1/2-y,1/2+z
-x,1/2+y,1/2+z
x,1/2-y,1/2+z
loop_
_atom_site_type_symbol
_atom_site_label
_atom_site_fract_x
_atom_site_fract_y
_atom_site_fract_z
Si Si1 0.589448 0.390615 0.652550
Si Si2 0.016335 0.686955 0.252660
Si Si3 0.148118 0.790861 0.542319
Si Si4 0.972286 0.327110 0.441135
Si Si5 0.145492 0.813458 0.353089
Si Si6 0.850026 0.796674 0.189136
Si Si7 0.647451 0.646493 0.065947
Si Si8 0.643897 0.651467 0.922517
O O1 0.500000 0.500000 0.646428
O O2 0.566826 0.233123 0.690410
O O3 0.633226 0.347677 0.589685
O O4 0.653349 0.513284 0.686622
O O5 0.075926 0.786175 0.299461
O O6 0.000000 0.500000 0.264158
O O7 0.916136 0.753474 0.242677
O O8 0.250000 0.786095 0.515524
O O9 0.067014 0.776527 0.495593
O O10 0.141719 0.958240 0.576144
O O11 0.885763 0.327627 0.397778
O O12 0.000000 0.500000 0.463651
O O13 0.058081 0.258543 0.404593
O O14 0.250000 0.802192 0.335742
O O15 0.133770 0.979322 0.390343
O O16 0.750000 0.728514 0.197046
O O17 0.890109 0.732899 0.124896
O O18 0.750000 0.705311 0.066992
O O19 0.626289 0.656074 0.994931
O O20 0.750000 0.697787 0.913522
#
# Coordination Sequence:
#
# PCOD9380538 Si02
#       8
#     8   8   8   8   8   8   8   8
#     4  10  23  40  59  97 142 187 239 289 356 430
#     4  11  25  46  73 105 144 185 244 299 369 440
#     4  11  22  38  62  94 139 186 236 293 358 426
#     4  12  26  41  65 101 140 182 238 294 370 430
#     4  11  25  49  73  98 134 184 247 306 360 435
#     4  10  22  41  68 103 147 189 237 294 359 433
#     4   9  19  37  63  96 134 185 235 287 353 424
#     4  10  23  44  69  98 135 185 242 296 364 431
#
# _framework density 23.041018000000001
#
# number of rings (size 3 to 8) (size 9 to 14) (size 15 to 20)
#    0.000    1.500    1.250    2.625    5.250    5.500 
#    0.000    1.875    0.000    0.750    0.000    0.000 
#    0.000    0.000    0.000    0.000    0.000    0.000 
#
# Total GULP energy -178343.047273 kJ/mol
# GULP energy per Si atom -5573.220227 kJ/mol
# Density = 2.298858 g / cm^3
# Si number density = 23.041018 Si / 1000 Ang^3
#
#
#
# Elastic Constant Matrix: (Units=GPa)
#
#
# Indices 1 2 3 4 5 6 
#
# 1 156.4731 43.4916 57.4731 0.0000 0.0000 0.0000
# 2 43.4916 51.5721 11.0629 0.0000 0.0000 0.0000
# 3 57.4731 11.0629 69.5104 0.0000 0.0000 0.0000
# 4 0.0000 0.0000 0.0000 12.3824 0.0000 0.0000
# 5 0.0000 0.0000 0.0000 0.0000 35.0494 0.0000
# 6 0.0000 0.0000 0.0000 0.0000 0.0000 17.5889
#
#
#
# Elastic Compliance Matrix: (Units=1/GPa)
#
#
# Indices 1 2 3 4 5 6 
#
# 1 0.011727 -0.008086 -0.008409 0.000000 0.000000 0.000000
# 2 -0.008086 0.025651 0.002603 0.000000 0.000000 0.000000
# 3 -0.008409 0.002603 0.020925 0.000000 0.000000 0.000000
# 4 0.000000 0.000000 0.000000 0.080760 0.000000 0.000000
# 5 0.000000 0.000000 0.000000 0.000000 0.028531 0.000000
# 6 0.000000 0.000000 0.000000 0.000000 0.000000 0.056854
#
#
# Mechanical properties :
#
#
# Convention : Reuss Voigt Hill
#
# Bulk Modulus (GPa) = 32.76661 55.73455 44.25058
# Shear Modulus (GPa) = 19.05451 24.03934 21.54693
#
# Velocity S-wave (km/s) = 2.87885 3.23356 3.06135
# Velocity P-wave (km/s) = 5.03013 6.17924 5.63406
#
# Compressibility (1/GPa) = 0.03051887
#
# Stress axis : x y z
#
# Youngs Moduli (GPa) = 85.27255 38.98524 47.78930
#
# Poissons Ratio (x) = 0.31522 0.40188
# Poissons Ratio (y) = 0.68949 -0.12440
# Poissons Ratio (z) = 0.71709 -0.10148
#
# Static dielectric constant tensor:
#      x y z
#    x 1.959660 0.000000 0.000000 
#    y 0.000000 1.844710 0.000000 
#    z 0.000000 0.000000 1.981720 
# 
# From -- ./inp_files/23642.got.cif
#   From: 2010.05.17/outbox.cif.g08.bks.cpg/sg46_12_cif.got.tgz:23642.got - 2010.06.03 19:58:25.
