data_PCOD9380305
_publ_section_title
;
Structure prediction by ZEFSAII (Michael W. Deem and Ramdas Pophale) SiO2 
 PCOD9380305
Probable space group: I M A 2
;
_chemical_formula_sum "Si O2"
_cell_formula_units_Z 64
_cell_length_a 22.627527
_cell_length_b 9.107738
_cell_length_c 13.894047
_cell_angle_alpha 90.000000
_cell_angle_beta 90.000000
_cell_angle_gamma 90.000000
_cell_volume 2863.362839
_symmetry_space_group_name_H-M "I M A 2"
_symmetry_group_IT_number 46
_symmetry_cell_setting 'orthorhombic'
loop_
_space_group_symop_operation_xyz
x,y,z
-x,-y,z
1/2-x,y,z
1/2+x,-y,z
1/2+x,1/2+y,1/2+z
1/2-x,1/2-y,1/2+z
-x,1/2+y,1/2+z
x,1/2-y,1/2+z
loop_
_atom_site_type_symbol
_atom_site_label
_atom_site_fract_x
_atom_site_fract_y
_atom_site_fract_z
Si Si1 0.500341 0.331870 0.489080
Si Si2 0.817324 0.590252 0.577698
Si Si3 0.116622 0.394334 0.777713
Si Si4 0.681415 0.377821 0.407914
Si Si5 0.610138 0.274027 0.746321
Si Si6 0.013015 0.165650 0.757925
Si Si7 0.124770 0.816868 0.543818
Si Si8 0.119458 0.152701 0.500271
O O1 0.500000 0.500000 0.526989
O O2 0.494449 0.339194 0.373416
O O3 0.562662 0.254699 0.510251
O O4 0.442895 0.237202 0.519354
O O5 0.750000 0.544064 0.579969
O O6 0.841609 0.583863 0.685581
O O7 0.842396 0.497621 0.485651
O O8 0.828417 0.757193 0.548812
O O9 0.102673 0.566944 0.794444
O O10 0.069333 0.270750 0.743636
O O11 0.132660 0.345652 0.885622
O O12 0.750000 0.407043 0.381527
O O13 0.638557 0.347573 0.317415
O O14 0.674775 0.227248 0.467289
O O15 0.543285 0.245712 0.715739
O O16 0.643578 0.254944 0.645346
O O17 0.000000 0.000000 0.723356
O O18 0.116318 0.990509 0.543416
#
# Coordination Sequence:
#
# PCOD9380305 Si02
#       8
#     8   8   8   8   8   8   8   8
#     4  10  21  40  69 100 143 186 224 280 351 429
#     4  11  27  48  72 101 140 190 243 291 359 429
#     4  11  24  45  72 104 142 188 236 293 357 434
#     4  11  25  48  71  97 139 188 241 297 353 422
#     4  12  25  42  71 105 141 183 235 291 358 422
#     4  10  23  39  68 105 146 181 227 285 355 428
#     4  12  24  41  69 105 138 178 233 294 350 425
#     4  11  25  43  70 105 143 180 233 295 357 417
#
# _framework density 22.351343
#
# number of rings (size 3 to 8) (size 9 to 14) (size 15 to 20)
#    0.000    1.000    3.750    1.500    7.000    4.000 
#    0.000    1.250    0.000    0.000    0.000    0.000 
#    0.000    0.000    0.000    0.000    0.000    0.000 
#
# Total GULP energy -178416.053157 kJ/mol
# GULP energy per Si atom -5575.501661 kJ/mol
# Density = 2.230047 g / cm^3
# Si number density = 22.351343 Si / 1000 Ang^3
#
#
#
# Elastic Constant Matrix: (Units=GPa)
#
#
# Indices 1 2 3 4 5 6 
#
# 1 33.7291 3.0712 5.4154 0.0000 0.0000 0.0000
# 2 3.0712 115.3694 1.9657 0.0000 0.0000 0.0000
# 3 5.4154 1.9657 77.7500 0.0000 0.0000 0.0000
# 4 0.0000 0.0000 0.0000 31.1066 0.0000 0.0000
# 5 0.0000 0.0000 0.0000 0.0000 27.1181 0.0000
# 6 0.0000 0.0000 0.0000 0.0000 0.0000 12.5266
#
#
#
# Elastic Compliance Matrix: (Units=1/GPa)
#
#
# Indices 1 2 3 4 5 6 
#
# 1 0.030051 -0.000765 -0.002074 0.000000 0.000000 0.000000
# 2 -0.000765 0.008691 -0.000166 0.000000 0.000000 0.000000
# 3 -0.002074 -0.000166 0.013010 0.000000 0.000000 0.000000
# 4 0.000000 0.000000 0.000000 0.032148 0.000000 0.000000
# 5 0.000000 0.000000 0.000000 0.000000 0.036876 0.000000
# 6 0.000000 0.000000 0.000000 0.000000 0.000000 0.079830
#
#
# Mechanical properties :
#
#
# Convention : Reuss Voigt Hill
#
# Bulk Modulus (GPa) = 21.86163 27.52813 24.69488
# Shear Modulus (GPa) = 22.53649 28.57669 25.55659
#
# Velocity S-wave (km/s) = 3.17879 3.57952 3.38509
# Velocity P-wave (km/s) = 4.82443 5.42465 5.13332
#
# Compressibility (1/GPa) = 0.04574225
#
# Stress axis : x y z
#
# Youngs Moduli (GPa) = 33.27729 115.06157 76.86171
#
# Poissons Ratio (x) = 0.08798 0.15939
# Poissons Ratio (y) = 0.02544 0.01280
# Poissons Ratio (z) = 0.06901 0.01915
#
# Static dielectric constant tensor:
#      x y z
#    x 1.828660 0.000000 0.000000 
#    y 0.000000 1.941750 0.000000 
#    z 0.000000 0.000000 1.902170 
# 
# From -- ./inp_files/17439.got.cif
#   From: 2010.05.17/outbox.cif.g08.bks.cpg/sg46_9_cif.got.tgz:17439.got - 2010.06.03 19:58:25.
