data_PCOD9380998
_publ_section_title
;
Structure prediction by ZEFSAII (Michael W. Deem and Ramdas Pophale) SiO2 
 PCOD9380998
Probable space group: I M A 2
;
_chemical_formula_sum "Si O2"
_cell_formula_units_Z 40
_cell_length_a 27.746551
_cell_length_b 5.058787
_cell_length_c 11.815952
_cell_angle_alpha 90.000000
_cell_angle_beta 90.000000
_cell_angle_gamma 90.000000
_cell_volume 1658.533004
_symmetry_space_group_name_H-M "I M A 2"
_symmetry_group_IT_number 46
_symmetry_cell_setting 'orthorhombic'
loop_
_space_group_symop_operation_xyz
x,y,z
-x,-y,z
1/2-x,y,z
1/2+x,-y,z
1/2+x,1/2+y,1/2+z
1/2-x,1/2-y,1/2+z
-x,1/2+y,1/2+z
x,1/2-y,1/2+z
loop_
_atom_site_type_symbol
_atom_site_label
_atom_site_fract_x
_atom_site_fract_y
_atom_site_fract_z
Si Si1 0.353285 0.212318 0.991390
Si Si2 0.500000 0.500000 0.640371
Si Si3 0.144983 0.794986 0.641202
Si Si4 0.750000 0.840655 0.399513
Si Si5 0.000000 0.000000 0.487872
Si Si6 0.250000 0.843559 0.745803
Si Si7 0.084597 0.459773 0.808621
O O1 0.297321 0.275216 0.970688
O O2 0.378105 0.262034 0.869502
O O3 0.369366 0.425231 0.086767
O O4 0.361373 0.924654 0.042988
O O5 0.489663 0.747599 0.563283
O O6 0.454287 0.399441 0.711676
O O7 0.201091 0.798359 0.676564
O O8 0.115217 0.695191 0.750707
O O9 0.750000 0.640573 0.293340
O O10 0.750000 0.137517 0.351010
O O11 0.952941 0.998993 0.410012
#
# Coordination Sequence:
#
# PCOD9380998 Si02
#       7
#     8   4   8   4   4   4   8
#     4  12  26  44  70 105 142 187 239 289 352 419
#     4  11  26  49  72 104 142 183 236 293 366 428
#     4  12  26  44  70 105 142 187 239 289 352 419
#     4  12  24  46  70  99 145 194 234 290 354 415
#     4  11  26  49  72 104 142 183 236 293 366 428
#     4  12  24  46  70  99 145 194 234 290 354 415
#     4  11  26  45  76 104 142 187 234 301 352 430
#
# _framework density 24.117697
#
# number of rings (size 3 to 8) (size 9 to 14) (size 15 to 20)
#    0.000    0.400    2.000    6.000    0.000    6.400 
#    0.000    0.000    0.000    0.000    0.000    0.000 
#    0.000    0.000    0.000    0.000    0.000    0.000 
#
# Total GULP energy -111979.737018 kJ/mol
# GULP energy per Si atom -5598.986851 kJ/mol
# Density = 2.406280 g / cm^3
# Si number density = 24.117697 Si / 1000 Ang^3
#
#
#
# Elastic Constant Matrix: (Units=GPa)
#
#
# Indices 1 2 3 4 5 6 
#
# 1 134.1570 -16.8138 26.0441 0.0000 0.0000 0.0000
# 2 -16.8138 33.1944 -2.1863 0.0000 0.0000 0.0000
# 3 26.0441 -2.1863 75.9439 0.0000 0.0000 0.0000
# 4 0.0000 0.0000 0.0000 33.6923 0.0000 0.0000
# 5 0.0000 0.0000 0.0000 0.0000 54.9897 0.0000
# 6 0.0000 0.0000 0.0000 0.0000 0.0000 -25.1220
#
#
#
# Elastic Compliance Matrix: (Units=1/GPa)
#
#
# Indices 1 2 3 4 5 6 
#
# 1 0.008515 0.004129 -0.002801 0.000000 0.000000 0.000000
# 2 0.004129 0.032185 -0.000489 0.000000 0.000000 0.000000
# 3 -0.002801 -0.000489 0.014114 0.000000 0.000000 0.000000
# 4 0.000000 0.000000 0.000000 0.029680 0.000000 0.000000
# 5 0.000000 0.000000 0.000000 0.000000 0.018185 0.000000
# 6 0.000000 0.000000 0.000000 0.000000 0.000000 -0.039806
#
#
# Mechanical properties :
#
#
# Convention : Reuss Voigt Hill
#
# Bulk Modulus (GPa) = 17.70226 28.59816 23.15021
# Shear Modulus (GPa) = 62.47828 28.46211 45.47019
#
# Velocity S-wave (km/s) = 5.09527 3.43903 4.34677
# Velocity P-wave (km/s) = 6.47855 5.25859 5.90019
#
# Compressibility (1/GPa) = 0.05648996
#
# Stress axis : x y z
#
# Youngs Moduli (GPa) = 117.43666 31.07079 70.85053
#
# Poissons Ratio (x) = -0.12828 0.19848
# Poissons Ratio (y) = -0.48486 0.03467
# Poissons Ratio (z) = 0.32898 0.01520
#
# Static dielectric constant tensor:
#      x y z
#    x 1.950850 0.000000 0.000000 
#    y 0.000000 1.881930 0.000000 
#    z 0.000000 0.000000 1.928870 
# 
# From -- ./inp_files/12967.got.cif
#   From: 2010.05.17/outbox.cif.g08.bks.cpg/sg46_7_cif.got.tgz:12967.got - 2010.06.03 19:58:25.
