data_PCOD9380077
_publ_section_title
;
Structure prediction by ZEFSAII (Michael W. Deem and Ramdas Pophale) SiO2 
 PCOD9380077
Probable space group: I M A 2
;
_chemical_formula_sum "Si O2"
_cell_formula_units_Z 40
_cell_length_a 14.303968
_cell_length_b 9.491858
_cell_length_c 14.650686
_cell_angle_alpha 90.000000
_cell_angle_beta 90.000000
_cell_angle_gamma 90.000000
_cell_volume 1989.141704
_symmetry_space_group_name_H-M "I M A 2"
_symmetry_group_IT_number 46
_symmetry_cell_setting 'orthorhombic'
loop_
_space_group_symop_operation_xyz
x,y,z
-x,-y,z
1/2-x,y,z
1/2+x,-y,z
1/2+x,1/2+y,1/2+z
1/2-x,1/2-y,1/2+z
-x,1/2+y,1/2+z
x,1/2-y,1/2+z
loop_
_atom_site_type_symbol
_atom_site_label
_atom_site_fract_x
_atom_site_fract_y
_atom_site_fract_z
Si Si1 0.022324 0.836113 0.489160
Si Si2 0.854955 0.630544 0.468676
Si Si3 0.036321 0.769388 0.196598
Si Si4 0.143231 0.064560 0.184912
Si Si5 0.359622 0.656280 0.359825
O O1 0.039008 0.792160 0.594485
O O2 0.106962 0.781607 0.426704
O O3 0.932643 0.747756 0.455835
O O4 0.000000 0.000000 0.481559
O O5 0.750000 0.680017 0.447279
O O6 0.856928 0.586162 0.575269
O O7 0.874994 0.490299 0.411869
O O8 0.078915 0.663644 0.269261
O O9 0.931095 0.820214 0.219818
O O10 0.099978 0.910549 0.201889
O O11 0.250000 0.077524 0.217423
O O12 0.250000 0.669373 0.338900
#
# Coordination Sequence:
#
# PCOD9380077 Si02
#       5
#     8   8   8   8   8
#     4  11  24  40  62  94 130 166 206 267 322 370
#     4   9  19  40  66  90 121 167 213 255 310 379
#     4  10  21  37  61  94 126 164 210 261 314 378
#     4   9  17  35  64  91 122 164 207 255 315 376
#     4  11  23  39  65  93 124 169 215 259 313 381
#
# _framework density 20.109176000000001
#
# number of rings (size 3 to 8) (size 9 to 14) (size 15 to 20)
#    0.000    2.000    2.000    1.200    2.800    3.200 
#    0.000    1.000    0.000   10.800    0.000    0.000 
#    0.000    0.000    0.000    0.000    0.000    0.000 
#
# Total GULP energy -111801.637388 kJ/mol
# GULP energy per Si atom -5590.081869 kJ/mol
# Density = 2.006341 g / cm^3
# Si number density = 20.109176 Si / 1000 Ang^3
#
#
#
# Elastic Constant Matrix: (Units=GPa)
#
#
# Indices 1 2 3 4 5 6 
#
# 1 157.3391 57.6432 48.1351 0.0000 0.0000 0.0000
# 2 57.6432 84.0245 28.2828 0.0000 0.0000 0.0000
# 3 48.1351 28.2828 79.4046 0.0000 0.0000 0.0000
# 4 0.0000 0.0000 0.0000 12.3934 0.0000 0.0000
# 5 0.0000 0.0000 0.0000 0.0000 26.6340 0.0000
# 6 0.0000 0.0000 0.0000 0.0000 0.0000 21.1013
#
#
#
# Elastic Compliance Matrix: (Units=1/GPa)
#
#
# Indices 1 2 3 4 5 6 
#
# 1 0.009436 -0.005167 -0.003879 0.000000 0.000000 0.000000
# 2 -0.005167 0.016352 -0.002692 0.000000 0.000000 0.000000
# 3 -0.003879 -0.002692 0.015904 0.000000 0.000000 0.000000
# 4 0.000000 0.000000 0.000000 0.080688 0.000000 0.000000
# 5 0.000000 0.000000 0.000000 0.000000 0.037546 0.000000
# 6 0.000000 0.000000 0.000000 0.000000 0.000000 0.047390
#
#
# Mechanical properties :
#
#
# Convention : Reuss Voigt Hill
#
# Bulk Modulus (GPa) = 54.90039 65.43226 60.16632
# Shear Modulus (GPa) = 21.10901 24.47288 22.79095
#
# Velocity S-wave (km/s) = 3.24345 3.49234 3.37019
# Velocity P-wave (km/s) = 6.43328 6.99078 6.71782
#
# Compressibility (1/GPa) = 0.01821481
#
# Stress axis : x y z
#
# Youngs Moduli (GPa) = 105.98125 61.15319 62.87621
#
# Poissons Ratio (x) = 0.31600 0.24392
# Poissons Ratio (y) = 0.54764 0.16927
# Poissons Ratio (z) = 0.41114 0.16463
#
# Static dielectric constant tensor:
#      x y z
#    x 1.725500 0.000000 0.000000 
#    y 0.000000 1.670030 0.000000 
#    z 0.000000 0.000000 1.717070 
# 
# From -- ./inp_files/15666.got.cif
#   From: 2010.05.17/outbox.cif.g08.bks.cpg/sg46_8_cif.got.tgz:15666.got - 2010.06.03 19:58:25.
