data_PCOD9380814
_publ_section_title
;
Structure prediction by ZEFSAII (Michael W. Deem and Ramdas Pophale) SiO2 
 PCOD9380814
Probable space group: I M A 2
;
_chemical_formula_sum "Si O2"
_cell_formula_units_Z 40
_cell_length_a 14.318050
_cell_length_b 7.067816
_cell_length_c 17.388136
_cell_angle_alpha 90.000000
_cell_angle_beta 90.000000
_cell_angle_gamma 90.000000
_cell_volume 1759.633161
_symmetry_space_group_name_H-M "I M A 2"
_symmetry_group_IT_number 46
_symmetry_cell_setting 'orthorhombic'
loop_
_space_group_symop_operation_xyz
x,y,z
-x,-y,z
1/2-x,y,z
1/2+x,-y,z
1/2+x,1/2+y,1/2+z
1/2-x,1/2-y,1/2+z
-x,1/2+y,1/2+z
x,1/2-y,1/2+z
loop_
_atom_site_type_symbol
_atom_site_label
_atom_site_fract_x
_atom_site_fract_y
_atom_site_fract_z
Si Si1 0.397269 0.086678 0.122640
Si Si2 0.850769 0.159634 0.978946
Si Si3 0.643384 0.937108 0.296429
Si Si4 0.000373 0.239802 0.378023
Si Si5 0.139447 0.401957 0.014977
O O1 0.353934 0.044424 0.204990
O O2 0.390202 0.304092 0.095007
O O3 0.500000 0.000000 0.126644
O O4 0.352763 0.978968 0.050516
O O5 0.750000 0.154615 0.941263
O O6 0.867610 0.371254 0.011295
O O7 0.929022 0.115387 0.916721
O O8 0.750000 0.933431 0.325579
O O9 0.580457 0.750113 0.313620
O O10 0.579396 0.098759 0.337972
O O11 0.066806 0.173073 0.450307
O O12 0.250000 0.358142 0.001470
#
# Coordination Sequence:
#
# PCOD9380814 Si02
#       5
#     8   8   8   8   8
#     4  12  24  41  67  94 131 167 213 265 314 374
#     4  11  22  40  67  95 124 164 214 264 313 374
#     4  11  21  38  61  91 130 171 208 256 322 381
#     4  11  20  35  60  93 121 162 205 253 312 373
#     4  11  22  40  67  95 124 164 214 264 313 374
#
# _framework density 22.732011
#
# number of rings (size 3 to 8) (size 9 to 14) (size 15 to 20)
#    0.000    0.800    8.000    3.000    0.000    0.000 
#    0.000    0.000    8.800    0.000    0.000    0.000 
#    0.000    0.000    0.000    0.000    0.000    0.000 
#
# Total GULP energy -111434.268461 kJ/mol
# GULP energy per Si atom -5571.713423 kJ/mol
# Density = 2.268027 g / cm^3
# Si number density = 22.732011 Si / 1000 Ang^3
#
#
#
# Elastic Constant Matrix: (Units=GPa)
#
#
# Indices 1 2 3 4 5 6 
#
# 1 231.5586 23.1476 40.1808 0.0000 0.0000 0.0000
# 2 23.1476 58.5435 14.3762 0.0000 0.0000 0.0000
# 3 40.1808 14.3762 111.9556 0.0000 0.0000 0.0000
# 4 0.0000 0.0000 0.0000 29.7830 0.0000 0.0000
# 5 0.0000 0.0000 0.0000 0.0000 28.2994 0.0000
# 6 0.0000 0.0000 0.0000 0.0000 0.0000 27.5399
#
#
#
# Elastic Compliance Matrix: (Units=1/GPa)
#
#
# Indices 1 2 3 4 5 6 
#
# 1 0.004730 -0.001501 -0.001505 0.000000 0.000000 0.000000
# 2 -0.001501 0.018114 -0.001787 0.000000 0.000000 0.000000
# 3 -0.001505 -0.001787 0.009702 0.000000 0.000000 0.000000
# 4 0.000000 0.000000 0.000000 0.033576 0.000000 0.000000
# 5 0.000000 0.000000 0.000000 0.000000 0.035336 0.000000
# 6 0.000000 0.000000 0.000000 0.000000 0.000000 0.036311
#
#
# Mechanical properties :
#
#
# Convention : Reuss Voigt Hill
#
# Bulk Modulus (GPa) = 43.55511 61.94076 52.74793
# Shear Modulus (GPa) = 32.25656 38.74800 35.50228
#
# Velocity S-wave (km/s) = 3.77104 4.13311 3.95622
# Velocity P-wave (km/s) = 6.17761 7.07702 6.64255
#
# Compressibility (1/GPa) = 0.02295942
#
# Stress axis : x y z
#
# Youngs Moduli (GPa) = 211.43089 55.20731 103.07471
#
# Poissons Ratio (x) = 0.08284 0.15511
# Poissons Ratio (y) = 0.31726 0.18424
# Poissons Ratio (z) = 0.31816 0.09868
#
# Static dielectric constant tensor:
#      x y z
#    x 1.901920 0.000000 0.000000 
#    y 0.000000 2.039060 0.000000 
#    z 0.000000 0.000000 1.831980 
# 
# From -- ./inp_files/19248.got.cif
#   From: 2010.05.17/outbox.cif.g08.bks.cpg/sg46_10_cif.got.tgz:19248.got - 2010.06.03 19:58:25.
