data_PCOD9380477
_publ_section_title
;
Structure prediction by ZEFSAII (Michael W. Deem and Ramdas Pophale) SiO2 
 PCOD9380477
Probable space group: I M A 2
;
_chemical_formula_sum "Si O2"
_cell_formula_units_Z 48
_cell_length_a 7.961868
_cell_length_b 27.542529
_cell_length_c 9.800118
_cell_angle_alpha 90.000000
_cell_angle_beta 90.000000
_cell_angle_gamma 90.000000
_cell_volume 2149.067683
_symmetry_space_group_name_H-M "I M A 2"
_symmetry_group_IT_number 46
_symmetry_cell_setting 'orthorhombic'
loop_
_space_group_symop_operation_xyz
x,y,z
-x,-y,z
1/2-x,y,z
1/2+x,-y,z
1/2+x,1/2+y,1/2+z
1/2-x,1/2-y,1/2+z
-x,1/2+y,1/2+z
x,1/2-y,1/2+z
loop_
_atom_site_type_symbol
_atom_site_label
_atom_site_fract_x
_atom_site_fract_y
_atom_site_fract_z
Si Si1 0.952334 0.054040 0.146590
Si Si2 0.557733 0.131533 0.930260
Si Si3 0.058851 0.447227 0.236523
Si Si4 0.946510 0.726085 0.283888
Si Si5 0.544140 0.808207 0.486042
Si Si6 0.948508 0.419653 0.948582
O O1 0.750000 0.056978 0.142694
O O2 0.008763 0.061897 0.301812
O O3 0.014191 0.098301 0.052070
O O4 0.000000 0.000000 0.100518
O O5 0.750000 0.144704 0.961763
O O6 0.551758 0.094855 0.802232
O O7 0.464979 0.179942 0.884048
O O8 0.250000 0.438383 0.277940
O O9 0.000000 0.500000 0.281575
O O10 0.042882 0.443971 0.074222
O O11 0.750000 0.735787 0.262519
O O12 0.014261 0.772524 0.365048
O O13 0.013792 0.711922 0.134281
O O14 0.750000 0.809945 0.488063
O O15 0.478771 0.862160 0.461258
O O16 0.750000 0.429995 0.961235
#
# Coordination Sequence:
#
# PCOD9380477 Si02
#       6
#     8   8   8   8   8   8
#     4  10  24  42  61  90 125 162 207 252 302 364
#     4  11  23  41  63  91 126 163 206 256 308 368
#     4  12  24  40  63  92 123 160 205 254 310 372
#     4  10  22  40  62  91 125 162 207 254 307 370
#     4  10  22  40  62  91 125 162 207 254 307 370
#     4  11  23  41  63  91 126 163 206 256 308 368
#
# _framework density 22.335267999999999
#
# number of rings (size 3 to 8) (size 9 to 14) (size 15 to 20)
#    0.000    1.333    1.667    3.500    2.333    6.000 
#    0.000    0.000    0.000    0.000    0.000    0.000 
#    0.000    0.000    0.000    0.000    0.000    0.000 
#
# Total GULP energy -134231.144313 kJ/mol
# GULP energy per Si atom -5592.964346 kJ/mol
# Density = 2.228443 g / cm^3
# Si number density = 22.335268 Si / 1000 Ang^3
#
#
#
# Elastic Constant Matrix: (Units=GPa)
#
#
# Indices 1 2 3 4 5 6 
#
# 1 36.6843 -11.9320 -1.9085 0.0000 0.0000 0.0000
# 2 -11.9320 85.5880 2.6866 0.0001 0.0000 0.0000
# 3 -1.9085 2.6866 92.9222 0.0006 -0.0005 -0.0004
# 4 0.0000 0.0001 0.0006 35.8697 0.0002 -0.0001
# 5 0.0000 0.0000 -0.0005 0.0002 20.7815 -0.0001
# 6 0.0000 0.0000 -0.0004 -0.0001 -0.0001 22.3171
#
#
#
# Elastic Compliance Matrix: (Units=1/GPa)
#
#
# Indices 1 2 3 4 5 6 
#
# 1 0.028575 0.003969 0.000472 0.000000 0.000000 0.000000
# 2 0.003969 0.012246 -0.000273 0.000000 0.000000 0.000000
# 3 0.000472 -0.000273 0.010779 0.000000 0.000000 0.000000
# 4 0.000000 0.000000 0.000000 0.027879 0.000000 0.000000
# 5 0.000000 0.000000 0.000000 0.000000 0.048120 0.000000
# 6 0.000000 0.000000 0.000000 0.000000 0.000000 0.044809
#
#
# Mechanical properties :
#
#
# Convention : Reuss Voigt Hill
#
# Bulk Modulus (GPa) = 16.68413 21.43185 19.05799
# Shear Modulus (GPa) = 27.16662 30.88354 29.02508
#
# Velocity S-wave (km/s) = 3.49135 3.72254 3.60879
# Velocity P-wave (km/s) = 4.87224 5.30026 5.09075
#
# Compressibility (1/GPa) = 0.05993721
#
# Stress axis : x y z
#
# Youngs Moduli (GPa) = 34.99545 81.66100 92.77064
#
# Poissons Ratio (x) = -0.32411 -0.04380
# Poissons Ratio (y) = -0.13889 0.02528
# Poissons Ratio (z) = -0.01652 0.02226
#
# Static dielectric constant tensor:
#      x y z
#    x 1.777790 0.000000 0.000000 
#    y 0.000000 1.769480 0.000000 
#    z 0.000000 0.000000 1.843070 
# 
# From -- ./inp_files/3951.got.cif
#   From: 2010.05.17/outbox.cif.g08.bks.cpg/sg46_2_cif.got.tgz:3951.got - 2010.06.03 19:58:25.
