data_PCOD9380381
_publ_section_title
;
Structure prediction by ZEFSAII (Michael W. Deem and Ramdas Pophale) SiO2 
 PCOD9380381
Probable space group: I M A 2
;
_chemical_formula_sum "Si O2"
_cell_formula_units_Z 56
_cell_length_a 23.348247
_cell_length_b 14.181895
_cell_length_c 8.300729
_cell_angle_alpha 90.000000
_cell_angle_beta 90.000000
_cell_angle_gamma 90.000000
_cell_volume 2748.557204
_symmetry_space_group_name_H-M "I M A 2"
_symmetry_group_IT_number 46
_symmetry_cell_setting 'orthorhombic'
loop_
_space_group_symop_operation_xyz
x,y,z
-x,-y,z
1/2-x,y,z
1/2+x,-y,z
1/2+x,1/2+y,1/2+z
1/2-x,1/2-y,1/2+z
-x,1/2+y,1/2+z
x,1/2-y,1/2+z
loop_
_atom_site_type_symbol
_atom_site_label
_atom_site_fract_x
_atom_site_fract_y
_atom_site_fract_z
Si Si1 0.415496 0.685249 0.773440
Si Si2 0.439588 0.529475 0.012705
Si Si3 0.620759 0.002507 0.828524
Si Si4 0.816593 0.446590 0.644153
Si Si5 0.962217 0.145734 0.931445
Si Si6 0.613224 0.616331 0.780649
Si Si7 0.590584 0.808002 0.928847
O O1 0.355970 0.635209 0.723449
O O2 0.416529 0.793172 0.827290
O O3 0.454862 0.669922 0.618247
O O4 0.440400 0.629931 0.927194
O O5 0.500000 0.500000 0.089549
O O6 0.388236 0.526348 0.141449
O O7 0.429694 0.454705 0.869822
O O8 0.560983 0.039818 0.908940
O O9 0.624777 0.890056 0.838074
O O10 0.666870 0.043784 0.954230
O O11 0.750000 0.428896 0.664837
O O12 0.835451 0.545683 0.728737
O O13 0.024466 0.179272 0.875096
O O14 0.617715 0.706195 0.897710
O O15 0.591959 0.662373 0.615198
#
# Coordination Sequence:
#
# PCOD9380381 Si02
#       7
#     8   8   8   8   8   8   8
#     4  10  22  34  56  86 116 154 200 234 284 354
#     4  11  19  33  52  84 124 159 187 231 286 352
#     4  10  22  34  56  86 116 154 200 234 284 354
#     4   9  21  45  64  80 112 153 201 261 298 326
#     4  11  19  33  52  84 124 159 187 231 286 352
#     4  10  22  34  56  86 116 154 200 234 284 354
#     4  11  19  33  52  84 124 159 187 231 286 352
#
# _framework density 20.374324999999999
#
# number of rings (size 3 to 8) (size 9 to 14) (size 15 to 20)
#    0.000    1.714    0.000    6.429    0.000    0.000 
#    0.000    8.571    0.000    0.000    0.000    0.000 
#    0.000    0.000    0.000    0.000    0.000    0.000 
#
# Total GULP energy -156121.327450 kJ/mol
# GULP energy per Si atom -5575.761695 kJ/mol
# Density = 2.032795 g / cm^3
# Si number density = 20.374325 Si / 1000 Ang^3
#
#
#
# Elastic Constant Matrix: (Units=GPa)
#
#
# Indices 1 2 3 4 5 6 
#
# 1 85.8961 -8.9598 -0.6716 0.0000 0.0000 0.0000
# 2 -8.9598 49.6251 4.8124 0.0000 0.0000 0.0000
# 3 -0.6716 4.8124 74.5972 0.0000 0.0000 0.0000
# 4 0.0000 0.0000 0.0000 39.6341 0.0000 0.0000
# 5 0.0000 0.0000 0.0000 0.0000 16.4971 0.0000
# 6 0.0000 0.0000 0.0000 0.0000 0.0000 11.2608
#
#
#
# Elastic Compliance Matrix: (Units=1/GPa)
#
#
# Indices 1 2 3 4 5 6 
#
# 1 0.011866 0.002145 -0.000032 0.000000 0.000000 0.000000
# 2 0.002145 0.020666 -0.001314 0.000000 0.000000 0.000000
# 3 -0.000032 -0.001314 0.013490 0.000000 0.000000 0.000000
# 4 0.000000 0.000000 0.000000 0.025231 0.000000 0.000000
# 5 0.000000 0.000000 0.000000 0.000000 0.060617 0.000000
# 6 0.000000 0.000000 0.000000 0.000000 0.000000 0.088803
#
#
# Mechanical properties :
#
#
# Convention : Reuss Voigt Hill
#
# Bulk Modulus (GPa) = 20.99914 22.27560 21.63737
# Shear Modulus (GPa) = 21.28150 27.80757 24.54454
#
# Velocity S-wave (km/s) = 3.23542 3.69837 3.47461
# Velocity P-wave (km/s) = 4.92811 5.40317 5.17110
#
# Compressibility (1/GPa) = 0.04762101
#
# Stress axis : x y z
#
# Youngs Moduli (GPa) = 84.27786 48.38900 74.13007
#
# Poissons Ratio (x) = -0.10381 0.00234
# Poissons Ratio (y) = -0.18081 0.09740
# Poissons Ratio (z) = 0.00266 0.06358
#
# Static dielectric constant tensor:
#      x y z
#    x 1.684140 0.000000 0.000000 
#    y 0.000000 1.765930 0.000000 
#    z 0.000000 0.000000 1.774210 
# 
# From -- ./inp_files/7394.got.cif
#   From: 2010.05.17/outbox.cif.g08.bks.cpg/sg46_4_cif.got.tgz:7394.got - 2010.06.03 19:58:25.
