data_PCOD9380390
_publ_section_title
;
Structure prediction by ZEFSAII (Michael W. Deem and Ramdas Pophale) SiO2 
 PCOD9380390
Probable space group: I M A 2
;
_chemical_formula_sum "Si O2"
_cell_formula_units_Z 40
_cell_length_a 9.017082
_cell_length_b 23.618415
_cell_length_c 10.438299
_cell_angle_alpha 90.000000
_cell_angle_beta 90.000000
_cell_angle_gamma 90.000000
_cell_volume 2223.036028
_symmetry_space_group_name_H-M "I M A 2"
_symmetry_group_IT_number 46
_symmetry_cell_setting 'orthorhombic'
loop_
_space_group_symop_operation_xyz
x,y,z
-x,-y,z
1/2-x,y,z
1/2+x,-y,z
1/2+x,1/2+y,1/2+z
1/2-x,1/2-y,1/2+z
-x,1/2+y,1/2+z
x,1/2-y,1/2+z
loop_
_atom_site_type_symbol
_atom_site_label
_atom_site_fract_x
_atom_site_fract_y
_atom_site_fract_z
Si Si1 0.426835 0.647477 0.381100
Si Si2 0.926854 0.060855 0.356069
Si Si3 0.927572 0.137696 0.591130
Si Si4 0.576773 0.632210 0.635570
Si Si5 0.576495 0.754058 0.009103
O O1 0.250000 0.645830 0.398790
O O2 0.465223 0.626880 0.239364
O O3 0.507814 0.615125 0.497512
O O4 0.485984 0.711888 0.400227
O O5 0.750000 0.056607 0.344459
O O6 0.963571 0.086842 0.495189
O O7 0.988830 0.104130 0.250229
O O8 0.000000 0.000000 0.338047
O O9 0.750000 0.147509 0.585010
O O10 0.009115 0.194111 0.543383
O O11 0.750000 0.617734 0.643036
O O12 0.564584 0.700759 0.626950
O O13 0.750000 0.749834 0.975425
#
# Coordination Sequence:
#
# PCOD9380390 Si02
#       5
#     8   8   8   8   8
#     4   9  18  35  57  83 115 150 190 236 292 354
#     4  11  24  42  62  86 117 160 206 250 299 354
#     4  10  22  37  58  86 119 157 198 244 301 360
#     4   9  20  37  57  85 117 151 195 243 292 351
#     4   9  20  33  54  86 121 152 190 238 296 353
#
# _framework density 17.993410000000001
#
# number of rings (size 3 to 8) (size 9 to 14) (size 15 to 20)
#    1.200    1.200    0.000    1.800    2.800    3.200 
#    0.000    1.000    0.000    2.400    0.000    0.000 
#    0.000    0.000    0.000    0.000    0.000    0.000 
#
# Total GULP energy -111406.395554 kJ/mol
# GULP energy per Si atom -5570.319778 kJ/mol
# Density = 1.795246 g / cm^3
# Si number density = 17.993410 Si / 1000 Ang^3
#
#
#
# Elastic Constant Matrix: (Units=GPa)
#
#
# Indices 1 2 3 4 5 6 
#
# 1 49.6077 14.6749 21.4700 -0.0003 0.0009 0.0000
# 2 14.6749 33.5991 -2.1564 -0.0004 0.0016 -0.0003
# 3 21.4700 -2.1564 69.7719 0.0006 -0.0027 0.0007
# 4 -0.0003 -0.0004 0.0006 3.7812 0.0022 -0.0005
# 5 0.0009 0.0016 -0.0027 0.0022 -10.6952 0.0009
# 6 0.0000 -0.0003 0.0007 -0.0005 0.0009 23.4667
#
#
#
# Elastic Compliance Matrix: (Units=1/GPa)
#
#
# Indices 1 2 3 4 5 6 
#
# 1 0.027790 -0.012712 -0.008944 0.000002 0.000003 0.000000
# 2 -0.012712 0.035636 0.005013 0.000002 0.000003 0.000000
# 3 -0.008944 0.005013 0.017240 -0.000003 -0.000004 0.000000
# 4 0.000002 0.000002 -0.000003 0.264470 0.000054 0.000006
# 5 0.000003 0.000003 -0.000004 0.000054 -0.093500 0.000003
# 6 0.000000 0.000000 0.000000 0.000006 0.000003 0.042614
#
#
# Mechanical properties :
#
#
# Convention : Reuss Voigt Hill
#
# Bulk Modulus (GPa) = 21.10594 24.55063 22.82828
# Shear Modulus (GPa) = 14.56335 11.24321 12.90328
#
# Velocity S-wave (km/s) = 2.84803 2.50241 2.68080
# Velocity P-wave (km/s) = 4.75082 4.69290 4.72195
#
# Compressibility (1/GPa) = 0.04738002
#
# Stress axis : x y z
#
# Youngs Moduli (GPa) = 35.98481 28.06120 58.00586
#
# Poissons Ratio (x) = 0.35670 0.51881
# Poissons Ratio (y) = 0.45742 -0.29078
# Poissons Ratio (z) = 0.32185 -0.14067
#
# Static dielectric constant tensor:
#      x y z
#    x 1.597210 0.000000 0.000000 
#    y 0.000000 1.602710 0.000000 
#    z 0.000000 0.000000 1.637350 
# 
# From -- ./inp_files/9168.got.cif
#   From: 2010.05.17/outbox.cif.g08.bks.cpg/sg46_5_cif.got.tgz:9168.got - 2010.06.03 19:58:25.
