data_PCOD9380330
_publ_section_title
;
Structure prediction by ZEFSAII (Michael W. Deem and Ramdas Pophale) SiO2 
 PCOD9380330
Probable space group: I M A 2
;
_chemical_formula_sum "Si O2"
_cell_formula_units_Z 40
_cell_length_a 19.537708
_cell_length_b 7.390317
_cell_length_c 11.154928
_cell_angle_alpha 90.000000
_cell_angle_beta 90.000000
_cell_angle_gamma 90.000000
_cell_volume 1610.658443
_symmetry_space_group_name_H-M "I M A 2"
_symmetry_group_IT_number 46
_symmetry_cell_setting 'orthorhombic'
loop_
_space_group_symop_operation_xyz
x,y,z
-x,-y,z
1/2-x,y,z
1/2+x,-y,z
1/2+x,1/2+y,1/2+z
1/2-x,1/2-y,1/2+z
-x,1/2+y,1/2+z
x,1/2-y,1/2+z
loop_
_atom_site_type_symbol
_atom_site_label
_atom_site_fract_x
_atom_site_fract_y
_atom_site_fract_z
Si Si1 0.750000 0.801647 0.160520
Si Si2 0.750000 0.049585 0.933731
Si Si3 0.899238 0.304765 0.730099
Si Si4 0.000000 0.000000 0.068496
Si Si5 0.750000 0.402455 0.822701
Si Si6 0.016947 0.275144 0.395320
Si Si7 0.365788 0.088551 0.749141
O O1 0.816720 0.679181 0.153361
O O2 0.750000 0.883498 0.297527
O O3 0.750000 0.954686 0.060978
O O4 0.683818 0.986646 0.856686
O O5 0.750000 0.270135 0.938106
O O6 0.930566 0.433483 0.631362
O O7 0.821394 0.349451 0.759788
O O8 0.951381 0.322688 0.843441
O O9 0.901990 0.091559 0.700818
O O10 0.973775 0.779687 0.035302
O O11 0.081450 0.273081 0.310741
O O12 0.000000 0.500000 0.408223
#
# Coordination Sequence:
#
# PCOD9380330 Si02
#       7
#     4   4   8   4   4   8   8
#     4  11  23  39  74 100 139 209 230 294 387 428
#     4   9  21  41  64  94 151 175 242 307 352 438
#     4  10  21  41  67  99 144 182 241 300 359 442
#     4  10  22  38  74 102 132 200 230 296 392 414
#     4  10  24  38  62 106 132 182 240 303 351 438
#     4   8  19  38  63  96 136 177 228 296 345 429
#     4   9  20  42  64 100 144 179 243 303 346 437
#
# _framework density 24.834564
#
# number of rings (size 3 to 8) (size 9 to 14) (size 15 to 20)
#    0.600    2.000    0.000    0.600    5.600    0.000 
#    0.000   12.000    6.600    0.000    0.000    0.000 
#    0.000    0.000    0.000    0.000    0.000    0.000 
#
# Total GULP energy -111353.355425 kJ/mol
# GULP energy per Si atom -5567.667771 kJ/mol
# Density = 2.477804 g / cm^3
# Si number density = 24.834564 Si / 1000 Ang^3
#
#
#
# Elastic Constant Matrix: (Units=GPa)
#
#
# Indices 1 2 3 4 5 6 
#
# 1 170.3939 29.5642 42.5556 0.0000 0.0000 0.0000
# 2 29.5642 85.0624 32.5970 0.0000 0.0000 0.0000
# 3 42.5556 32.5970 63.0927 0.0000 0.0000 0.0000
# 4 0.0000 0.0000 0.0000 35.3136 0.0000 0.0000
# 5 0.0000 0.0000 0.0000 0.0000 12.6389 0.0000
# 6 0.0000 0.0000 0.0000 0.0000 0.0000 45.5384
#
#
#
# Elastic Compliance Matrix: (Units=1/GPa)
#
#
# Indices 1 2 3 4 5 6 
#
# 1 0.007100 -0.000789 -0.004381 0.000000 0.000000 0.000000
# 2 -0.000789 0.014746 -0.007087 0.000000 0.000000 0.000000
# 3 -0.004381 -0.007087 0.022466 0.000000 0.000000 0.000000
# 4 0.000000 0.000000 0.000000 0.028318 0.000000 0.000000
# 5 0.000000 0.000000 0.000000 0.000000 0.079121 0.000000
# 6 0.000000 0.000000 0.000000 0.000000 0.000000 0.021960
#
#
# Mechanical properties :
#
#
# Convention : Reuss Voigt Hill
#
# Bulk Modulus (GPa) = 50.50814 58.66473 54.58644
# Shear Modulus (GPa) = 24.41139 32.95366 28.68252
#
# Velocity S-wave (km/s) = 3.13862 3.64665 3.40213
# Velocity P-wave (km/s) = 5.78935 6.43461 6.12049
#
# Compressibility (1/GPa) = 0.01979879
#
# Stress axis : x y z
#
# Youngs Moduli (GPa) = 140.84876 67.81582 44.51145
#
# Poissons Ratio (x) = 0.05348 0.19502
# Poissons Ratio (y) = 0.11108 0.31543
# Poissons Ratio (z) = 0.61710 0.48058
#
# Static dielectric constant tensor:
#      x y z
#    x 1.980630 0.000000 0.000000 
#    y 0.000000 2.125000 0.000000 
#    z 0.000000 0.000000 1.975940 
# 
# From -- ./inp_files/16416.got.cif
#   From: 2010.05.17/outbox.cif.g08.bks.cpg/sg46_9_cif.got.tgz:16416.got - 2010.06.03 19:58:25.
