data_PCOD9380525
_publ_section_title
;
Structure prediction by ZEFSAII (Michael W. Deem and Ramdas Pophale) SiO2 
 PCOD9380525
Probable space group: I M A 2
;
_chemical_formula_sum "Si O2"
_cell_formula_units_Z 52
_cell_length_a 14.720340
_cell_length_b 7.193224
_cell_length_c 21.148592
_cell_angle_alpha 90.000000
_cell_angle_beta 90.000000
_cell_angle_gamma 90.000000
_cell_volume 2239.354679
_symmetry_space_group_name_H-M "I M A 2"
_symmetry_group_IT_number 46
_symmetry_cell_setting 'orthorhombic'
loop_
_space_group_symop_operation_xyz
x,y,z
-x,-y,z
1/2-x,y,z
1/2+x,-y,z
1/2+x,1/2+y,1/2+z
1/2-x,1/2-y,1/2+z
-x,1/2+y,1/2+z
x,1/2-y,1/2+z
loop_
_atom_site_type_symbol
_atom_site_label
_atom_site_fract_x
_atom_site_fract_y
_atom_site_fract_z
Si Si1 0.518740 0.783573 0.156270
Si Si2 0.905400 0.580438 0.033531
Si Si3 0.390196 0.023844 0.988121
Si Si4 0.894068 0.543924 0.348213
Si Si5 0.250000 0.738082 0.042220
Si Si6 0.850162 0.287096 0.234641
Si Si7 0.644348 0.872817 0.272853
O O1 0.563969 0.674431 0.099666
O O2 0.425507 0.693320 0.181174
O O3 0.584200 0.789644 0.216822
O O4 0.500000 0.000000 0.139698
O O5 0.000000 0.500000 0.005542
O O6 0.169723 0.576474 0.041174
O O7 0.871188 0.757886 0.994776
O O8 0.363015 0.971452 0.916101
O O9 0.500000 0.000000 0.994388
O O10 0.330453 0.900825 0.034982
O O11 0.850674 0.442170 0.288174
O O12 0.878606 0.762495 0.336407
O O13 0.000000 0.500000 0.343941
O O14 0.750000 0.272967 0.204709
O O15 0.871793 0.093470 0.270795
O O16 0.750000 0.845945 0.258859
#
# Coordination Sequence:
#
# PCOD9380525 Si02
#       7
#     8   8   8   8   4   8   8
#     4  10  23  44  73 104 154 197 250 328 385 459
#     4  12  27  51  77 113 148 205 268 325 389 470
#     4  11  26  52  74 110 158 203 266 335 395 462
#     4  11  23  41  73 101 148 200 241 313 385 465
#     4  12  28  52  84 106 148 210 270 326 402 462
#     4  10  22  43  66 105 148 189 246 300 391 464
#     4  10  22  41  65 103 145 188 242 304 379 464
#
# _framework density 23.220974999999999
#
# number of rings (size 3 to 8) (size 9 to 14) (size 15 to 20)
#    0.000    1.231    3.077    1.385    5.385    1.231 
#    4.154    0.000    0.000    0.000    0.000    0.000 
#    0.000    0.000    0.000    0.000    0.000    0.000 
#
# Total GULP energy -145033.676077 kJ/mol
# GULP energy per Si atom -5578.218311 kJ/mol
# Density = 2.316812 g / cm^3
# Si number density = 23.220975 Si / 1000 Ang^3
#
#
#
# Elastic Constant Matrix: (Units=GPa)
#
#
# Indices 1 2 3 4 5 6 
#
# 1 144.9658 38.1903 16.4096 0.0000 0.0000 0.0000
# 2 38.1903 119.2469 9.4457 0.0000 0.0000 0.0000
# 3 16.4096 9.4457 47.5078 0.0000 0.0000 0.0000
# 4 0.0000 0.0000 0.0000 6.8741 0.0000 0.0000
# 5 0.0000 0.0000 0.0000 0.0000 -9.5549 0.0000
# 6 0.0000 0.0000 0.0000 0.0000 0.0000 46.2425
#
#
#
# Elastic Compliance Matrix: (Units=1/GPa)
#
#
# Indices 1 2 3 4 5 6 
#
# 1 0.007758 -0.002309 -0.002221 0.000000 0.000000 0.000000
# 2 -0.002309 0.009207 -0.001033 0.000000 0.000000 0.000000
# 3 -0.002221 -0.001033 0.022022 0.000000 0.000000 0.000000
# 4 0.000000 0.000000 0.000000 0.145474 0.000000 0.000000
# 5 0.000000 0.000000 0.000000 0.000000 -0.104659 0.000000
# 6 0.000000 0.000000 0.000000 0.000000 0.000000 0.021625
#
#
# Mechanical properties :
#
#
# Convention : Reuss Voigt Hill
#
# Bulk Modulus (GPa) = 35.89155 48.86798 42.37976
# Shear Modulus (GPa) = 41.03793 25.22401 33.13097
#
# Velocity S-wave (km/s) = 4.20846 3.29942 3.78136
# Velocity P-wave (km/s) = 6.25339 5.96702 6.11189
#
# Compressibility (1/GPa) = 0.02786171
#
# Stress axis : x y z
#
# Youngs Moduli (GPa) = 128.90372 108.61101 45.40999
#
# Poissons Ratio (x) = 0.25074 0.10084
# Poissons Ratio (y) = 0.29759 0.04692
# Poissons Ratio (z) = 0.28624 0.11222
#
# Static dielectric constant tensor:
#      x y z
#    x 1.890820 0.000000 0.000000 
#    y 0.000000 1.929510 0.000000 
#    z 0.000000 0.000000 1.881610 
# 
# From -- ./inp_files/23592.got.cif
#   From: 2010.05.17/outbox.cif.g08.bks.cpg/sg46_12_cif.got.tgz:23592.got - 2010.06.03 19:58:25.
