data_PCOD9380035
_publ_section_title
;
Structure prediction by ZEFSAII (Michael W. Deem and Ramdas Pophale) SiO2 
 PCOD9380035
Probable space group: I M A 2
;
_chemical_formula_sum "Si O2"
_cell_formula_units_Z 64
_cell_length_a 7.654075
_cell_length_b 24.966579
_cell_length_c 14.253042
_cell_angle_alpha 90.000000
_cell_angle_beta 90.000000
_cell_angle_gamma 90.000000
_cell_volume 2723.700286
_symmetry_space_group_name_H-M "I M A 2"
_symmetry_group_IT_number 46
_symmetry_cell_setting 'orthorhombic'
loop_
_space_group_symop_operation_xyz
x,y,z
-x,-y,z
1/2-x,y,z
1/2+x,-y,z
1/2+x,1/2+y,1/2+z
1/2-x,1/2-y,1/2+z
-x,1/2+y,1/2+z
x,1/2-y,1/2+z
loop_
_atom_site_type_symbol
_atom_site_label
_atom_site_fract_x
_atom_site_fract_y
_atom_site_fract_z
Si Si1 0.952373 0.835776 0.267810
Si Si2 0.542504 0.558544 0.446968
Si Si3 0.952586 0.281190 0.032552
Si Si4 0.453191 0.400131 0.048260
Si Si5 0.536388 0.895684 0.759511
Si Si6 0.462509 0.277650 0.253873
Si Si7 0.039604 0.057712 0.360171
Si Si8 0.043979 0.667346 0.552481
O O1 0.750000 0.834917 0.296793
O O2 0.027304 0.777974 0.298237
O O3 0.030652 0.890697 0.305354
O O4 0.959683 0.836836 0.155084
O O5 0.500000 0.500000 0.486279
O O6 0.750000 0.563091 0.445461
O O7 0.476626 0.563900 0.339545
O O8 0.478930 0.611069 0.501117
O O9 0.750000 0.286622 0.007434
O O10 0.022396 0.222374 0.002379
O O11 0.038682 0.338460 0.011177
O O12 0.973617 0.277992 0.146040
O O13 0.250000 0.413985 0.058018
O O14 0.528508 0.404068 0.153215
O O15 0.529635 0.436708 0.966572
O O16 0.750000 0.896366 0.755753
O O17 0.485301 0.835542 0.791992
O O18 0.250000 0.276163 0.251656
O O19 0.250000 0.061369 0.362695
O O20 0.000000 0.000000 0.318598
O O21 0.250000 0.676491 0.566513
#
# Coordination Sequence:
#
# PCOD9380035 Si02
#       8
#     8   8   8   8   8   8   8   8
#     4   9  18  34  56  81 107 138 176 217 264 315
#     4  11  23  38  55  76 104 140 184 227 265 310
#     4   9  17  30  51  81 111 136 169 214 265 318
#     4   9  18  35  57  80 108 142 178 215 259 315
#     4   8  16  32  55  80 104 133 170 214 263 313
#     4   8  14  29  53  78 105 135 171 214 260 318
#     4  10  22  37  54  78 107 141 183 225 262 309
#     4  10  21  37  56  80 110 141 174 216 267 320
#
# _framework density 23.497447000000001
#
# number of rings (size 3 to 8) (size 9 to 14) (size 15 to 20)
#    0.000    2.750    0.000    1.875    0.000    4.500 
#    0.000    8.750    0.000    6.000    0.000    0.000 
#    0.000    0.000    0.000    0.000    0.000    0.000 
#
# Total GULP energy -178538.915562 kJ/mol
# GULP energy per Si atom -5579.341111 kJ/mol
# Density = 2.344397 g / cm^3
# Si number density = 23.497447 Si / 1000 Ang^3
#
#
#
# Elastic Constant Matrix: (Units=GPa)
#
#
# Indices 1 2 3 4 5 6 
#
# 1 57.5332 -12.2616 -4.8657 0.0000 0.0000 0.0000
# 2 -12.2616 104.7790 19.6102 0.0000 0.0000 0.0000
# 3 -4.8657 19.6102 41.1051 0.0000 0.0001 0.0000
# 4 0.0000 0.0000 0.0000 15.5745 0.0000 0.0000
# 5 0.0000 0.0000 0.0001 0.0000 -9.2370 0.0000
# 6 0.0000 0.0000 0.0000 0.0000 0.0000 14.2406
#
#
#
# Elastic Compliance Matrix: (Units=1/GPa)
#
#
# Indices 1 2 3 4 5 6 
#
# 1 0.017882 0.001863 0.001228 0.000000 0.000000 0.000000
# 2 0.001863 0.010674 -0.004872 0.000000 0.000000 0.000000
# 3 0.001228 -0.004872 0.026797 0.000000 0.000000 0.000000
# 4 0.000000 0.000000 0.000000 0.064207 0.000000 0.000000
# 5 0.000000 0.000000 0.000000 0.000000 -0.108260 0.000000
# 6 0.000000 0.000000 0.000000 0.000000 0.000000 0.070222
#
#
# Mechanical properties :
#
#
# Convention : Reuss Voigt Hill
#
# Bulk Modulus (GPa) = 19.30814 23.15366 21.23090
# Shear Modulus (GPa) = 48.85319 17.51126 33.18222
#
# Velocity S-wave (km/s) = 4.56465 2.73287 3.76195
# Velocity P-wave (km/s) = 6.00136 4.45345 5.28439
#
# Compressibility (1/GPa) = 0.05179163
#
# Stress axis : x y z
#
# Youngs Moduli (GPa) = 55.92175 93.68867 37.31707
#
# Poissons Ratio (x) = -0.17452 -0.04583
# Poissons Ratio (y) = -0.10417 0.18179
# Poissons Ratio (z) = -0.06868 0.45642
#
# Static dielectric constant tensor:
#      x y z
#    x 1.884300 0.000000 0.000000 
#    y 0.000000 2.064250 0.000000 
#    z 0.000000 0.000000 1.909190 
# 
# From -- ./inp_files/14540.got.cif
#   From: 2010.05.17/outbox.cif.g08.bks.cpg/sg46_8_cif.got.tgz:14540.got - 2010.06.03 19:58:25.
