data_PCOD9380616
_publ_section_title
;
Structure prediction by ZEFSAII (Michael W. Deem and Ramdas Pophale) SiO2 
 PCOD9380616
Probable space group: I M A 2
;
_chemical_formula_sum "Si O2"
_cell_formula_units_Z 36
_cell_length_a 20.707679
_cell_length_b 7.206328
_cell_length_c 9.272089
_cell_angle_alpha 90.000000
_cell_angle_beta 90.000000
_cell_angle_gamma 90.000000
_cell_volume 1383.639785
_symmetry_space_group_name_H-M "I M A 2"
_symmetry_group_IT_number 46
_symmetry_cell_setting 'orthorhombic'
loop_
_space_group_symop_operation_xyz
x,y,z
-x,-y,z
1/2-x,y,z
1/2+x,-y,z
1/2+x,1/2+y,1/2+z
1/2-x,1/2-y,1/2+z
-x,1/2+y,1/2+z
x,1/2-y,1/2+z
loop_
_atom_site_type_symbol
_atom_site_label
_atom_site_fract_x
_atom_site_fract_y
_atom_site_fract_z
Si Si1 0.105829 0.861635 0.100860
Si Si2 0.500000 0.000000 0.877626
Si Si3 0.750000 0.158476 0.119848
Si Si4 0.909250 0.577791 0.141124
Si Si5 0.750000 0.497663 0.937829
Si Si6 0.617276 0.844953 0.343805
O O1 0.180550 0.909902 0.061033
O O2 0.100238 0.641540 0.130450
O O3 0.093809 0.983797 0.243916
O O4 0.056128 0.914879 0.975556
O O5 0.535234 0.868329 0.759496
O O6 0.750000 0.126155 0.290869
O O7 0.750000 0.372034 0.077652
O O8 0.856988 0.689807 0.232247
O O9 0.926623 0.665904 0.988187
O O10 0.816961 0.601886 0.928368
#
# Coordination Sequence:
#
# PCOD9380616 Si02
#       6
#     8   4   4   8   4   8
#     4  11  26  52  80 115 162 213 277 341 413 493
#     4  12  30  48  82 120 152 226 272 340 418 484
#     4  10  22  45  81 113 156 215 262 329 424 473
#     4  12  27  48  74 114 163 208 267 346 401 491
#     4  10  22  45  77 117 160 211 270 335 408 513
#     4  11  26  47  75 116 159 205 274 326 417 488
#
# _framework density 26.018331
#
# number of rings (size 3 to 8) (size 9 to 14) (size 15 to 20)
#    0.000    0.889    2.222    2.667    9.333    2.667 
#    0.000    3.333    0.000    0.000    0.000    0.000 
#    0.000    0.000    0.000    0.000    0.000    0.000 
#
# Total GULP energy -100536.156904 kJ/mol
# GULP energy per Si atom -5585.342050 kJ/mol
# Density = 2.595911 g / cm^3
# Si number density = 26.018331 Si / 1000 Ang^3
#
#
#
# Elastic Constant Matrix: (Units=GPa)
#
#
# Indices 1 2 3 4 5 6 
#
# 1 78.6071 1.1248 58.6502 0.0000 0.0000 0.0000
# 2 1.1248 138.2515 81.1889 0.0000 0.0000 0.0000
# 3 58.6502 81.1889 216.6907 0.0000 0.0000 0.0000
# 4 0.0000 0.0000 0.0000 65.5292 0.0000 0.0000
# 5 0.0000 0.0000 0.0000 0.0000 52.5935 0.0000
# 6 0.0000 0.0000 0.0000 0.0000 0.0000 -8.0144
#
#
#
# Elastic Compliance Matrix: (Units=1/GPa)
#
#
# Indices 1 2 3 4 5 6 
#
# 1 0.017035 0.003294 -0.005845 0.000000 0.000000 0.000000
# 2 0.003294 0.009911 -0.004605 0.000000 0.000000 0.000000
# 3 -0.005845 -0.004605 0.007922 0.000000 0.000000 0.000000
# 4 0.000000 0.000000 0.000000 0.015260 0.000000 0.000000
# 5 0.000000 0.000000 0.000000 0.000000 0.019014 0.000000
# 6 0.000000 0.000000 0.000000 0.000000 0.000000 -0.124775
#
#
# Mechanical properties :
#
#
# Convention : Reuss Voigt Hill
#
# Bulk Modulus (GPa) = 48.64655 79.49746 64.07200
# Shear Modulus (GPa) = -145.05885 41.52735 -51.76575
#
# Velocity S-wave (km/s) = -7.47486 3.99943 -4.46532
# Velocity P-wave (km/s) = 7.46730 7.20750 1.38067
#
# Compressibility (1/GPa) = 0.02055644
#
# Stress axis : x y z
#
# Youngs Moduli (GPa) = 58.70111 100.90211 126.22727
#
# Poissons Ratio (x) = -0.33236 0.73780
# Poissons Ratio (y) = -0.19336 0.58125
# Poissons Ratio (z) = 0.34311 0.46463
#
# Static dielectric constant tensor:
#      x y z
#    x 2.170960 0.000000 0.000000 
#    y 0.000000 -0.664250 0.000000 
#    z 0.000000 0.000000 2.095020 
# 
# From -- ./inp_files/7173.got.cif
#   From: 2010.05.17/outbox.cif.g08.bks.cpg/sg46_4_cif.got.tgz:7173.got - 2010.06.03 19:58:25.
