data_PCOD9380668
_publ_section_title
;
Structure prediction by ZEFSAII (Michael W. Deem and Ramdas Pophale) SiO2 
 PCOD9380668
Probable space group: I M A 2
;
_chemical_formula_sum "Si O2"
_cell_formula_units_Z 48
_cell_length_a 21.096898
_cell_length_b 11.591894
_cell_length_c 9.010707
_cell_angle_alpha 90.000000
_cell_angle_beta 90.000000
_cell_angle_gamma 90.000000
_cell_volume 2203.595477
_symmetry_space_group_name_H-M "I M A 2"
_symmetry_group_IT_number 46
_symmetry_cell_setting 'orthorhombic'
loop_
_space_group_symop_operation_xyz
x,y,z
-x,-y,z
1/2-x,y,z
1/2+x,-y,z
1/2+x,1/2+y,1/2+z
1/2-x,1/2-y,1/2+z
-x,1/2+y,1/2+z
x,1/2-y,1/2+z
loop_
_atom_site_type_symbol
_atom_site_label
_atom_site_fract_x
_atom_site_fract_y
_atom_site_fract_z
Si Si1 0.623067 0.820632 0.544560
Si Si2 0.679290 0.640915 0.742291
Si Si3 0.507955 0.367172 0.877748
Si Si4 0.178304 0.577900 0.577498
Si Si5 0.324525 0.979433 0.752733
Si Si6 0.913536 0.280509 0.146288
O O1 0.628628 0.706709 0.642478
O O2 0.673329 0.823566 0.411595
O O3 0.557629 0.832685 0.456628
O O4 0.640425 0.923257 0.657666
O O5 0.750000 0.670129 0.688083
O O6 0.670560 0.504719 0.719111
O O7 0.500000 0.500000 0.824866
O O8 0.533582 0.278015 0.753291
O O9 0.557194 0.356446 0.014235
O O10 0.250000 0.626276 0.577559
O O11 0.173104 0.500294 0.429635
O O12 0.125929 0.674904 0.579078
O O13 0.250000 0.971909 0.711009
O O14 0.362571 0.860778 0.728884
#
# Coordination Sequence:
#
# PCOD9380668 Si02
#       6
#     8   8   8   8   8   8
#     4  12  24  44  67 103 141 188 239 291 358 431
#     4  11  23  41  68 101 139 182 233 297 359 427
#     4  12  26  46  69 100 144 191 242 289 358 438
#     4  10  23  42  67 102 138 180 234 298 372 427
#     4  11  23  42  70 102 139 182 234 302 369 430
#     4  12  24  46  68  99 141 183 237 295 351 437
#
# _framework density 21.782582000000001
#
# number of rings (size 3 to 8) (size 9 to 14) (size 15 to 20)
#    0.000    0.667    3.333    5.000    0.000    1.333 
#    0.000    0.833    0.000    0.000    0.000    0.000 
#    0.000    0.000    0.000    0.000    0.000    0.000 
#
# Total GULP energy -134161.193929 kJ/mol
# GULP energy per Si atom -5590.049747 kJ/mol
# Density = 2.173300 g / cm^3
# Si number density = 21.782582 Si / 1000 Ang^3
#
#
#
# Elastic Constant Matrix: (Units=GPa)
#
#
# Indices 1 2 3 4 5 6 
#
# 1 94.5886 27.5615 3.4027 0.0000 0.0000 0.0000
# 2 27.5615 58.0719 6.5464 0.0000 0.0000 0.0000
# 3 3.4027 6.5464 55.8386 0.0000 0.0000 0.0000
# 4 0.0000 0.0000 0.0000 34.1694 0.0000 0.0000
# 5 0.0000 0.0000 0.0000 0.0000 33.9614 0.0000
# 6 0.0000 0.0000 0.0000 0.0000 0.0000 28.7083
#
#
#
# Elastic Compliance Matrix: (Units=1/GPa)
#
#
# Indices 1 2 3 4 5 6 
#
# 1 0.012269 -0.005816 -0.000066 0.000000 0.000000 0.000000
# 2 -0.005816 0.020207 -0.002015 0.000000 0.000000 0.000000
# 3 -0.000066 -0.002015 0.018149 0.000000 0.000000 0.000000
# 4 0.000000 0.000000 0.000000 0.029266 0.000000 0.000000
# 5 0.000000 0.000000 0.000000 0.000000 0.029445 0.000000
# 6 0.000000 0.000000 0.000000 0.000000 0.000000 0.034833
#
#
# Mechanical properties :
#
#
# Convention : Reuss Voigt Hill
#
# Bulk Modulus (GPa) = 28.70833 31.50225 30.10529
# Shear Modulus (GPa) = 29.14216 30.76706 29.95461
#
# Velocity S-wave (km/s) = 3.66165 3.76235 3.71234
# Velocity P-wave (km/s) = 5.57539 5.77644 5.67681
#
# Compressibility (1/GPa) = 0.03483310
#
# Stress axis : x y z
#
# Youngs Moduli (GPa) = 81.50599 49.48711 55.09958
#
# Poissons Ratio (x) = 0.28780 0.00363
# Poissons Ratio (y) = 0.47401 0.11101
# Poissons Ratio (z) = 0.00537 0.09970
#
# Static dielectric constant tensor:
#      x y z
#    x 1.810220 0.000000 0.000000 
#    y 0.000000 1.791410 0.000000 
#    z 0.000000 0.000000 1.783060 
# 
# From -- ./inp_files/7833.got.cif
#   From: 2010.05.17/outbox.cif.g08.bks.cpg/sg46_4_cif.got.tgz:7833.got - 2010.06.03 19:58:25.
