data_PCOD9380462
_publ_section_title
;
Structure prediction by ZEFSAII (Michael W. Deem and Ramdas Pophale) SiO2 
 PCOD9380462
Probable space group: I M A 2
;
_chemical_formula_sum "Si O2"
_cell_formula_units_Z 64
_cell_length_a 8.569227
_cell_length_b 31.610712
_cell_length_c 12.225500
_cell_angle_alpha 90.000000
_cell_angle_beta 90.000000
_cell_angle_gamma 90.000000
_cell_volume 3311.635698
_symmetry_space_group_name_H-M "I M A 2"
_symmetry_group_IT_number 46
_symmetry_cell_setting 'orthorhombic'
loop_
_space_group_symop_operation_xyz
x,y,z
-x,-y,z
1/2-x,y,z
1/2+x,-y,z
1/2+x,1/2+y,1/2+z
1/2-x,1/2-y,1/2+z
-x,1/2+y,1/2+z
x,1/2-y,1/2+z
loop_
_atom_site_type_symbol
_atom_site_label
_atom_site_fract_x
_atom_site_fract_y
_atom_site_fract_z
Si Si1 0.565845 0.337597 0.783900
Si Si2 0.063996 0.201526 0.065156
Si Si3 0.562687 0.206610 0.513910
Si Si4 0.435896 0.544748 0.022056
Si Si5 0.438474 0.626618 0.158593
Si Si6 0.438383 0.455181 0.546491
Si Si7 0.934623 0.930825 0.288794
Si Si8 0.938266 0.625892 0.404090
O O1 0.750000 0.348236 0.785158
O O2 0.521922 0.311975 0.675941
O O3 0.469499 0.380892 0.786037
O O4 0.532584 0.310616 0.892230
O O5 0.250000 0.197507 0.081429
O O6 0.020030 0.249100 0.034497
O O7 0.017756 0.168131 0.970789
O O8 0.750000 0.212389 0.525524
O O9 0.512038 0.169650 0.597440
O O10 0.500000 0.500000 0.063135
O O11 0.250000 0.544053 0.028298
O O12 0.493113 0.585360 0.090888
O O13 0.484373 0.550599 0.895835
O O14 0.250000 0.626164 0.156041
O O15 0.494637 0.625454 0.282700
O O16 0.500000 0.500000 0.504952
O O17 0.250000 0.455390 0.546950
O O18 0.491033 0.448848 0.672309
O O19 0.489002 0.415228 0.473701
O O20 0.750000 0.938460 0.297554
O O21 0.750000 0.624919 0.397681
#
# Coordination Sequence:
#
# PCOD9380462 Si02
#       8
#     8   8   8   8   8   8   8   8
#     4  11  22  40  66  93 125 163 202 251 307 366
#     4  11  24  42  63  92 126 160 203 253 304 364
#     4  10  23  43  63  90 124 160 203 252 302 360
#     4  11  23  41  62  91 125 161 205 254 307 367
#     4  10  23  43  63  86 121 160 204 252 302 364
#     4  10  22  40  60  87 122 156 196 248 298 356
#     4  11  21  38  63  92 127 162 200 252 308 363
#     4  10  23  43  61  85 123 160 201 252 303 358
#
# _framework density 19.325797999999999
#
# number of rings (size 3 to 8) (size 9 to 14) (size 15 to 20)
#    0.000    1.500    2.500    1.875    1.750    6.500 
#    0.000    2.500    0.000    0.000    0.000    0.000 
#    0.000    0.000    0.000    0.000    0.000    0.000 
#
# Total GULP energy -178877.106739 kJ/mol
# GULP energy per Si atom -5589.909586 kJ/mol
# Density = 1.928181 g / cm^3
# Si number density = 19.325798 Si / 1000 Ang^3
#
#
#
# Elastic Constant Matrix: (Units=GPa)
#
#
# Indices 1 2 3 4 5 6 
#
# 1 15.1625 19.2613 20.0645 -0.0001 0.0000 -0.0003
# 2 19.2613 160.4877 67.4436 -0.0007 -0.0001 -0.0022
# 3 20.0645 67.4436 138.5520 -0.0018 -0.0004 -0.0068
# 4 -0.0001 -0.0007 -0.0018 34.4134 -0.0002 -0.0049
# 5 0.0000 -0.0001 -0.0004 -0.0002 32.6440 -0.0008
# 6 -0.0003 -0.0022 -0.0068 -0.0049 -0.0008 1.8041
#
#
#
# Elastic Compliance Matrix: (Units=1/GPa)
#
#
# Indices 1 2 3 4 5 6 
#
# 1 0.086574 -0.006439 -0.009403 0.000000 0.000000 -0.000030
# 2 -0.006439 0.008312 -0.003114 0.000000 0.000000 -0.000003
# 3 -0.009403 -0.003114 0.010095 0.000000 0.000000 0.000033
# 4 0.000000 0.000000 0.000000 0.029058 0.000000 0.000080
# 5 0.000000 0.000000 0.000000 0.000000 0.030633 0.000013
# 6 -0.000030 -0.000003 0.000033 0.000080 0.000013 0.554278
#
#
# Mechanical properties :
#
#
# Convention : Reuss Voigt Hill
#
# Bulk Modulus (GPa) = 14.90974 58.63788 36.77381
# Shear Modulus (GPa) = 6.41668 27.60118 17.00893
#
# Velocity S-wave (km/s) = 1.82414 3.78326 2.96989
# Velocity P-wave (km/s) = 3.48831 7.03503 5.55248
#
# Compressibility (1/GPa) = 0.06707023
#
# Stress axis : x y z
#
# Youngs Moduli (GPa) = 11.55077 120.30329 99.05966
#
# Poissons Ratio (x) = 0.77462 0.93146
# Poissons Ratio (y) = 0.07437 0.30845
# Poissons Ratio (z) = 0.10861 0.37460
#
# Static dielectric constant tensor:
#      x y z
#    x 1.662470 0.000000 0.000000 
#    y 0.000000 1.654640 0.000000 
#    z 0.000000 0.000000 1.645700 
# 
# From -- ./inp_files/9678.got.cif
#   From: 2010.05.17/outbox.cif.g08.bks.cpg/sg46_5_cif.got.tgz:9678.got - 2010.06.03 19:58:25.
