data_PCOD9380719
_publ_section_title
;
Structure prediction by ZEFSAII (Michael W. Deem and Ramdas Pophale) SiO2 
 PCOD9380719
Probable space group: I M A 2
;
_chemical_formula_sum "Si O2"
_cell_formula_units_Z 28
_cell_length_a 26.628453
_cell_length_b 4.990644
_cell_length_c 9.142318
_cell_angle_alpha 90.000000
_cell_angle_beta 90.000000
_cell_angle_gamma 90.000000
_cell_volume 1214.951247
_symmetry_space_group_name_H-M "I M A 2"
_symmetry_group_IT_number 46
_symmetry_cell_setting 'orthorhombic'
loop_
_space_group_symop_operation_xyz
x,y,z
-x,-y,z
1/2-x,y,z
1/2+x,-y,z
1/2+x,1/2+y,1/2+z
1/2-x,1/2-y,1/2+z
-x,1/2+y,1/2+z
x,1/2-y,1/2+z
loop_
_atom_site_type_symbol
_atom_site_label
_atom_site_fract_x
_atom_site_fract_y
_atom_site_fract_z
Si Si1 0.347434 0.467576 0.540630
Si Si2 0.041881 0.695684 0.568101
Si Si3 0.191079 0.528882 0.870976
Si Si4 0.500000 0.500000 0.287860
O O1 0.405186 0.554729 0.552830
O O2 0.323808 0.492534 0.701890
O O3 0.340083 0.175513 0.472072
O O4 0.320952 0.674950 0.429531
O O5 0.017988 0.718672 0.407272
O O6 0.000000 0.500000 0.641020
O O7 0.044348 0.960461 0.667653
O O8 0.250000 0.472097 0.889167
#
# Coordination Sequence:
#
# PCOD9380719 Si02
#       4
#     8   8   8   4
#     4  12  27  45  77 106 144 190 240 292 367 422
#     4  10  26  41  70  99 143 180 231 286 344 428
#     4  12  26  47  72 105 143 188 244 302 356 421
#     4  10  24  40  66  94 144 182 228 282 342 404
#
# _framework density 23.046191
#
# number of rings (size 3 to 8) (size 9 to 14) (size 15 to 20)
#    0.857    0.000    0.000    6.000   10.000    0.000 
#    0.000    0.000    0.000    0.000    0.000    0.000 
#    0.000    0.000    0.000    0.000    0.000    0.000 
#
# Total GULP energy -78042.311467 kJ/mol
# GULP energy per Si atom -5574.450819 kJ/mol
# Density = 2.299374 g / cm^3
# Si number density = 23.046191 Si / 1000 Ang^3
#
#
#
# Elastic Constant Matrix: (Units=GPa)
#
#
# Indices 1 2 3 4 5 6 
#
# 1 95.4650 18.1303 8.7525 0.0000 0.0000 0.0000
# 2 18.1303 44.8194 -5.1491 0.0000 0.0000 0.0000
# 3 8.7525 -5.1491 139.1389 0.0000 0.0000 0.0000
# 4 0.0000 0.0000 0.0000 30.0355 0.0000 0.0000
# 5 0.0000 0.0000 0.0000 0.0000 -9.4102 0.0000
# 6 0.0000 0.0000 0.0000 0.0000 0.0000 32.6895
#
#
#
# Elastic Compliance Matrix: (Units=1/GPa)
#
#
# Indices 1 2 3 4 5 6 
#
# 1 0.011457 -0.004737 -0.000896 0.000000 0.000000 0.000000
# 2 -0.004737 0.024366 0.001200 0.000000 0.000000 0.000000
# 3 -0.000896 0.001200 0.007288 0.000000 0.000000 0.000000
# 4 0.000000 0.000000 0.000000 0.033294 0.000000 0.000000
# 5 0.000000 0.000000 0.000000 0.000000 -0.106267 0.000000
# 6 0.000000 0.000000 0.000000 0.000000 0.000000 0.030591
#
#
# Mechanical properties :
#
#
# Convention : Reuss Voigt Hill
#
# Bulk Modulus (GPa) = 29.20289 35.87674 32.53981
# Shear Modulus (GPa) = 237.98052 27.84227 132.91140
#
# Velocity S-wave (km/s) = 10.17284 3.47955 7.60243
# Velocity P-wave (km/s) = 12.27522 5.63420 9.55053
#
# Compressibility (1/GPa) = 0.03424319
#
# Stress axis : x y z
#
# Youngs Moduli (GPa) = 87.28358 41.04083 137.21514
#
# Poissons Ratio (x) = 0.19443 0.12295
# Poissons Ratio (y) = 0.41350 -0.16462
# Poissons Ratio (z) = 0.07821 -0.04924
#
# Static dielectric constant tensor:
#      x y z
#    x 1.868990 0.000000 0.000000 
#    y 0.000000 2.086900 0.000000 
#    z 0.000000 0.000000 1.827780 
# 
# From -- ./inp_files/8055.got.cif
#   From: 2010.05.17/outbox.cif.g08.bks.cpg/sg46_5_cif.got.tgz:8055.got - 2010.06.03 19:58:25.
