data_PCOD9380933
_publ_section_title
;
Structure prediction by ZEFSAII (Michael W. Deem and Ramdas Pophale) SiO2 
 PCOD9380933
Probable space group: I M A 2
;
_chemical_formula_sum "Si O2"
_cell_formula_units_Z 48
_cell_length_a 21.638113
_cell_length_b 4.992973
_cell_length_c 22.650111
_cell_angle_alpha 90.000000
_cell_angle_beta 90.000000
_cell_angle_gamma 90.000000
_cell_volume 2447.084334
_symmetry_space_group_name_H-M "I M A 2"
_symmetry_group_IT_number 46
_symmetry_cell_setting 'orthorhombic'
loop_
_space_group_symop_operation_xyz
x,y,z
-x,-y,z
1/2-x,y,z
1/2+x,-y,z
1/2+x,1/2+y,1/2+z
1/2-x,1/2-y,1/2+z
-x,1/2+y,1/2+z
x,1/2-y,1/2+z
loop_
_atom_site_type_symbol
_atom_site_label
_atom_site_fract_x
_atom_site_fract_y
_atom_site_fract_z
Si Si1 0.378958 0.612797 0.739290
Si Si2 0.119654 0.127553 0.549070
Si Si3 0.067360 0.871525 0.112599
Si Si4 0.250000 0.971095 0.596510
Si Si5 0.430194 0.095779 0.803556
Si Si6 0.750000 0.971722 0.180943
Si Si7 0.043811 0.257667 0.436417
O O1 0.413188 0.697206 0.679005
O O2 0.413651 0.361054 0.767730
O O3 0.310556 0.526877 0.719994
O O4 0.384309 0.860102 0.783917
O O5 0.111695 0.395116 0.587884
O O6 0.188786 0.022057 0.558332
O O7 0.096588 0.195374 0.483736
O O8 0.075345 0.894162 0.574151
O O9 0.000000 0.000000 0.110716
O O10 0.250000 0.178950 0.651592
O O11 0.250000 0.680951 0.626510
O O12 0.429336 0.156575 0.873192
O O13 0.500000 0.000000 0.790009
O O14 0.000000 0.500000 0.458448
O O15 0.000000 0.000000 0.428073
#
# Coordination Sequence:
#
# PCOD9380933 Si02
#       7
#     8   8   8   4   8   4   8
#     4  12  23  41  63  92 126 167 213 250 314 375
#     4  12  23  40  63  93 125 167 212 252 314 372
#     4  12  23  37  61  95 129 157 203 269 318 372
#     4  12  22  44  62  88 130 172 208 250 312 374
#     4  11  23  41  65  93 126 165 206 259 317 373
#     4  12  24  44  62  88 128 176 206 252 312 372
#     4  11  23  42  66  92 127 166 206 257 319 375
#
# _framework density 19.615179999999999
#
# number of rings (size 3 to 8) (size 9 to 14) (size 15 to 20)
#    0.000    0.333    3.333    8.500    0.000    0.000 
#    0.000    1.667    0.000    0.000    0.000    0.000 
#    0.000    0.000    0.000    0.000    0.000    0.000 
#
# Total GULP energy -134380.603705 kJ/mol
# GULP energy per Si atom -5599.191821 kJ/mol
# Density = 1.957053 g / cm^3
# Si number density = 19.615180 Si / 1000 Ang^3
#
#
#
# Elastic Constant Matrix: (Units=GPa)
#
#
# Indices 1 2 3 4 5 6 
#
# 1 84.9909 -3.3355 49.0041 0.0000 0.0000 0.0000
# 2 -3.3355 91.2558 20.0829 0.0000 0.0000 0.0000
# 3 49.0041 20.0829 106.4772 0.0000 0.0000 0.0000
# 4 0.0000 0.0000 0.0000 29.0104 0.0000 0.0000
# 5 0.0000 0.0000 0.0000 0.0000 14.4005 0.0000
# 6 0.0000 0.0000 0.0000 0.0000 0.0000 23.8069
#
#
#
# Elastic Compliance Matrix: (Units=1/GPa)
#
#
# Indices 1 2 3 4 5 6 
#
# 1 0.016494 0.002372 -0.008038 0.000000 0.000000 0.000000
# 2 0.002372 0.011774 -0.003312 0.000000 0.000000 0.000000
# 3 -0.008038 -0.003312 0.013716 0.000000 0.000000 0.000000
# 4 0.000000 0.000000 0.000000 0.034470 0.000000 0.000000
# 5 0.000000 0.000000 0.000000 0.000000 0.069442 0.000000
# 6 0.000000 0.000000 0.000000 0.000000 0.000000 0.042005
#
#
# Mechanical properties :
#
#
# Convention : Reuss Voigt Hill
#
# Bulk Modulus (GPa) = 41.62147 46.02521 43.82334
# Shear Modulus (GPa) = 23.37903 27.90838 25.64370
#
# Velocity S-wave (km/s) = 3.45611 3.77609 3.61964
# Velocity P-wave (km/s) = 6.09847 6.52126 6.31341
#
# Compressibility (1/GPa) = 0.02402606
#
# Stress axis : x y z
#
# Youngs Moduli (GPa) = 60.62886 84.93400 72.90802
#
# Poissons Ratio (x) = -0.20145 0.58606
# Poissons Ratio (y) = -0.14380 0.24149
# Poissons Ratio (z) = 0.48735 0.28133
#
# Static dielectric constant tensor:
#      x y z
#    x 1.698130 0.000000 0.000000 
#    y 0.000000 1.685840 0.000000 
#    z 0.000000 0.000000 1.667750 
# 
# From -- ./inp_files/22378.got.cif
#   From: 2010.05.17/outbox.cif.g08.bks.cpg/sg46_12_cif.got.tgz:22378.got - 2010.06.03 19:58:25.
