data_PCOD9380317
_publ_section_title
;
Structure prediction by ZEFSAII (Michael W. Deem and Ramdas Pophale) SiO2 
 PCOD9380317
Probable space group: I M A 2
;
_chemical_formula_sum "Si O2"
_cell_formula_units_Z 48
_cell_length_a 17.283306
_cell_length_b 14.255980
_cell_length_c 9.769950
_cell_angle_alpha 90.000000
_cell_angle_beta 90.000000
_cell_angle_gamma 90.000000
_cell_volume 2407.222520
_symmetry_space_group_name_H-M "I M A 2"
_symmetry_group_IT_number 46
_symmetry_cell_setting 'orthorhombic'
loop_
_space_group_symop_operation_xyz
x,y,z
-x,-y,z
1/2-x,y,z
1/2+x,-y,z
1/2+x,1/2+y,1/2+z
1/2-x,1/2-y,1/2+z
-x,1/2+y,1/2+z
x,1/2-y,1/2+z
loop_
_atom_site_type_symbol
_atom_site_label
_atom_site_fract_x
_atom_site_fract_y
_atom_site_fract_z
Si Si1 0.841333 0.545304 0.455190
Si Si2 0.841177 0.340833 0.348542
Si Si3 0.658677 0.683871 0.211739
Si Si4 0.067353 0.121160 0.199478
Si Si5 0.570770 0.256028 0.598341
Si Si6 0.542454 0.907185 0.508916
O O1 0.750000 0.544090 0.492622
O O2 0.856762 0.451504 0.368591
O O3 0.855524 0.635095 0.358433
O O4 0.894905 0.553760 0.587296
O O5 0.750000 0.328141 0.324500
O O6 0.867285 0.293222 0.490239
O O7 0.889686 0.295359 0.226250
O O8 0.750000 0.688063 0.188071
O O9 0.621438 0.786322 0.207960
O O10 0.616546 0.620629 0.098282
O O11 0.063234 0.079046 0.350458
O O12 0.984369 0.160176 0.150757
O O13 0.515540 0.180684 0.523474
O O14 0.500000 0.000000 0.561871
#
# Coordination Sequence:
#
# PCOD9380317 Si02
#       6
#     8   8   8   8   8   8
#     4  10  23  40  63  97 127 167 216 265 327 388
#     4  11  24  43  67  92 126 172 223 274 329 394
#     4  10  21  41  65  92 127 168 213 265 326 386
#     4  11  23  38  62  93 128 167 211 265 321 389
#     4  11  23  43  62  94 126 169 219 265 330 387
#     4  11  24  40  60  95 129 169 211 261 324 385
#
# _framework density 19.939992
#
# number of rings (size 3 to 8) (size 9 to 14) (size 15 to 20)
#    0.000    1.333    1.667    4.000    4.667    2.667 
#    0.000    0.833    0.000    0.000    0.000    0.000 
#    0.000    0.000    0.000    0.000    0.000    0.000 
#
# Total GULP energy -134259.120672 kJ/mol
# GULP energy per Si atom -5594.130028 kJ/mol
# Density = 1.989461 g / cm^3
# Si number density = 19.939992 Si / 1000 Ang^3
#
#
#
# Elastic Constant Matrix: (Units=GPa)
#
#
# Indices 1 2 3 4 5 6 
#
# 1 82.9588 22.2398 46.5490 0.0000 0.0000 0.0000
# 2 22.2398 47.5328 6.3445 0.0000 0.0000 0.0000
# 3 46.5490 6.3445 90.9314 0.0000 0.0000 0.0000
# 4 0.0000 0.0000 0.0000 -25.1983 0.0000 0.0000
# 5 0.0000 0.0000 0.0000 0.0000 -18.9422 0.0000
# 6 0.0000 0.0000 0.0000 0.0000 0.0000 23.4649
#
#
#
# Elastic Compliance Matrix: (Units=1/GPa)
#
#
# Indices 1 2 3 4 5 6 
#
# 1 0.019429 -0.007836 -0.009399 0.000000 0.000000 0.000000
# 2 -0.007836 0.024396 0.002309 0.000000 0.000000 0.000000
# 3 -0.009399 0.002309 0.015648 0.000000 0.000000 0.000000
# 4 0.000000 0.000000 0.000000 -0.039685 0.000000 0.000000
# 5 0.000000 0.000000 0.000000 0.000000 -0.052792 0.000000
# 6 0.000000 0.000000 0.000000 0.000000 0.000000 0.042617
#
#
# Mechanical properties :
#
#
# Convention : Reuss Voigt Hill
#
# Bulk Modulus (GPa) = 33.75990 41.29883 37.52937
# Shear Modulus (GPa) = 101.34304 5.61754 53.48029
#
# Velocity S-wave (km/s) = 7.13683 1.68028 5.18448
# Velocity P-wave (km/s) = 9.21303 4.95187 7.39598
#
# Compressibility (1/GPa) = 0.02962094
#
# Stress axis : x y z
#
# Youngs Moduli (GPa) = 51.47014 40.99005 63.90710
#
# Poissons Ratio (x) = 0.32119 0.60067
# Poissons Ratio (y) = 0.40331 -0.14757
# Poissons Ratio (z) = 0.48377 -0.09465
#
# Static dielectric constant tensor:
#      x y z
#    x 1.693330 0.000000 0.000000 
#    y 0.000000 1.699830 0.000000 
#    z 0.000000 0.000000 1.681020 
# 
# From -- ./inp_files/6580.got.cif
#   From: 2010.05.17/outbox.cif.g08.bks.cpg/sg46_4_cif.got.tgz:6580.got - 2010.06.03 19:58:25.
