data_PCOD9380178
_publ_section_title
;
Structure prediction by ZEFSAII (Michael W. Deem and Ramdas Pophale) SiO2 
 PCOD9380178
Probable space group: I M A 2
;
_chemical_formula_sum "Si O2"
_cell_formula_units_Z 56
_cell_length_a 22.374329
_cell_length_b 5.765798
_cell_length_c 18.387089
_cell_angle_alpha 90.000000
_cell_angle_beta 90.000000
_cell_angle_gamma 90.000000
_cell_volume 2372.042255
_symmetry_space_group_name_H-M "I M A 2"
_symmetry_group_IT_number 46
_symmetry_cell_setting 'orthorhombic'
loop_
_space_group_symop_operation_xyz
x,y,z
-x,-y,z
1/2-x,y,z
1/2+x,-y,z
1/2+x,1/2+y,1/2+z
1/2-x,1/2-y,1/2+z
-x,1/2+y,1/2+z
x,1/2-y,1/2+z
loop_
_atom_site_type_symbol
_atom_site_label
_atom_site_fract_x
_atom_site_fract_y
_atom_site_fract_z
Si Si1 0.876888 0.937666 0.733630
Si Si2 0.110181 0.568405 0.953436
Si Si3 0.558981 0.647247 0.087491
Si Si4 0.862185 0.037972 0.070558
Si Si5 0.818370 0.067791 0.231039
Si Si6 0.183929 0.178929 0.932858
Si Si7 0.935748 0.056330 0.866441
O O1 0.893731 0.941597 0.648389
O O2 0.848846 0.682781 0.749653
O O3 0.934795 0.968460 0.784129
O O4 0.841687 0.175616 0.754020
O O5 0.071013 0.395259 0.001880
O O6 0.125742 0.751965 0.016292
O O7 0.170074 0.450184 0.924384
O O8 0.075026 0.676544 0.886507
O O9 0.500000 0.500000 0.104021
O O10 0.573700 0.922418 0.092139
O O11 0.826834 0.082550 0.143648
O O12 0.823292 0.868209 0.019206
O O13 0.750000 0.047330 0.252450
O O14 0.250000 0.110790 0.908158
O O15 0.125873 0.058387 0.897053
O O16 0.000000 0.000000 0.900094
#
# Coordination Sequence:
#
# PCOD9380178 Si02
#       7
#     8   8   8   8   8   8   8
#     4  11  25  47  65 104 137 188 236 292 361 423
#     4  10  22  40  66 101 135 178 233 286 356 422
#     4  10  21  38  67  96 134 177 232 296 349 420
#     4   9  20  40  62 101 137 175 227 289 360 419
#     4  11  23  43  71 101 137 182 237 295 356 424
#     4  10  23  42  66 100 140 183 234 291 355 426
#     4  11  27  46  69  98 141 191 237 291 356 432
#
# _framework density 23.608347999999999
#
# number of rings (size 3 to 8) (size 9 to 14) (size 15 to 20)
#    0.000    1.714    1.429    1.286    8.000    4.000 
#    0.000    1.429    0.000    0.000    0.000    0.000 
#    0.000    0.000    0.000    0.000    0.000    0.000 
#
# Total GULP energy -155873.663191 kJ/mol
# GULP energy per Si atom -5566.916543 kJ/mol
# Density = 2.355461 g / cm^3
# Si number density = 23.608348 Si / 1000 Ang^3
#
#
#
# Elastic Constant Matrix: (Units=GPa)
#
#
# Indices 1 2 3 4 5 6 
#
# 1 138.6773 46.0922 8.3650 0.0000 0.0000 0.0000
# 2 46.0922 106.7621 17.1230 0.0000 0.0000 0.0000
# 3 8.3650 17.1230 76.2307 0.0000 0.0000 0.0000
# 4 0.0000 0.0000 0.0000 29.4681 0.0000 0.0000
# 5 0.0000 0.0000 0.0000 0.0000 21.1802 0.0000
# 6 0.0000 0.0000 0.0000 0.0000 0.0000 17.3862
#
#
#
# Elastic Compliance Matrix: (Units=1/GPa)
#
#
# Indices 1 2 3 4 5 6 
#
# 1 0.008420 -0.003617 -0.000111 0.000000 0.000000 0.000000
# 2 -0.003617 0.011271 -0.002135 0.000000 0.000000 0.000000
# 3 -0.000111 -0.002135 0.013610 0.000000 0.000000 0.000000
# 4 0.000000 0.000000 0.000000 0.033935 0.000000 0.000000
# 5 0.000000 0.000000 0.000000 0.000000 0.047214 0.000000
# 6 0.000000 0.000000 0.000000 0.000000 0.000000 0.057517
#
#
# Mechanical properties :
#
#
# Convention : Reuss Voigt Hill
#
# Bulk Modulus (GPa) = 46.35285 51.64785 49.00035
# Shear Modulus (GPa) = 26.19387 30.27956 28.23672
#
# Velocity S-wave (km/s) = 3.33456 3.58520 3.46214
# Velocity P-wave (km/s) = 5.87387 6.25001 6.06486
#
# Compressibility (1/GPa) = 0.02157365
#
# Stress axis : x y z
#
# Youngs Moduli (GPa) = 118.76520 88.72595 73.47648
#
# Poissons Ratio (x) = 0.32095 0.00819
# Poissons Ratio (y) = 0.42960 0.15685
# Poissons Ratio (z) = 0.01324 0.18940
#
# Static dielectric constant tensor:
#      x y z
#    x 1.913130 0.000000 0.000000 
#    y 0.000000 2.107160 0.000000 
#    z 0.000000 0.000000 1.923860 
# 
# From -- ./inp_files/23839.got.cif
#   From: 2010.05.17/outbox.cif.g08.bks.cpg/sg46_12_cif.got.tgz:23839.got - 2010.06.03 19:58:25.
