data_PCOD9380284
_publ_section_title
;
Structure prediction by ZEFSAII (Michael W. Deem and Ramdas Pophale) SiO2 
 PCOD9380284
Probable space group: I M A 2
;
_chemical_formula_sum "Si O2"
_cell_formula_units_Z 64
_cell_length_a 8.697049
_cell_length_b 14.701155
_cell_length_c 24.621273
_cell_angle_alpha 90.000000
_cell_angle_beta 90.000000
_cell_angle_gamma 90.000000
_cell_volume 3147.993863
_symmetry_space_group_name_H-M "I M A 2"
_symmetry_group_IT_number 46
_symmetry_cell_setting 'orthorhombic'
loop_
_space_group_symop_operation_xyz
x,y,z
-x,-y,z
1/2-x,y,z
1/2+x,-y,z
1/2+x,1/2+y,1/2+z
1/2-x,1/2-y,1/2+z
-x,1/2+y,1/2+z
x,1/2-y,1/2+z
loop_
_atom_site_type_symbol
_atom_site_label
_atom_site_fract_x
_atom_site_fract_y
_atom_site_fract_z
Si Si1 0.435471 0.898519 0.115430
Si Si2 0.434383 0.098302 0.774589
Si Si3 0.573411 0.665636 0.391547
Si Si4 0.916175 0.881734 0.396954
Si Si5 0.072183 0.595689 0.003553
Si Si6 0.929714 0.238887 0.211518
Si Si7 0.063667 0.298207 0.510746
Si Si8 0.423975 0.410895 0.773673
O O1 0.250000 0.902795 0.115756
O O2 0.482485 0.823372 0.160870
O O3 0.498167 0.858895 0.058955
O O4 0.500000 0.000000 0.124284
O O5 0.250000 0.099052 0.776922
O O6 0.493323 0.125109 0.835755
O O7 0.485458 0.169502 0.728541
O O8 0.500000 0.000000 0.761651
O O9 0.750000 0.631816 0.394611
O O10 0.578050 0.774416 0.385000
O O11 0.507741 0.659362 0.452709
O O12 0.750000 0.899715 0.424665
O O13 0.914045 0.924066 0.337990
O O14 0.049870 0.907241 0.437974
O O15 0.250000 0.600594 0.018704
O O16 0.000000 0.500000 0.024045
O O17 0.991688 0.692744 0.017328
O O18 0.750000 0.257311 0.204976
O O19 0.964949 0.172206 0.261682
O O20 0.250000 0.297983 0.510135
O O21 0.500000 0.500000 0.748667
O O22 0.250000 0.394019 0.753900
#
# Coordination Sequence:
#
# PCOD9380284 Si02
#       8
#     8   8   8   8   8   8   8   8
#     4  11  25  45  68  95 126 161 209 263 318 377
#     4  11  22  40  64  93 128 167 207 254 312 374
#     4   8  16  34  58  86 122 163 202 249 304 363
#     4   9  17  32  51  77 115 159 203 249 300 359
#     4  11  21  34  54  84 122 166 210 254 307 368
#     4  11  24  42  63  89 122 160 206 259 313 373
#     4  10  21  40  65  93 127 166 211 263 319 374
#     4  11  21  33  52  81 117 157 201 250 303 364
#
# _framework density 20.330407999999998
#
# number of rings (size 3 to 8) (size 9 to 14) (size 15 to 20)
#    0.000    1.750    1.250    4.500    0.000    5.500 
#    0.000    3.750    0.000    3.000    0.000    0.000 
#    0.000    0.000    0.000    0.000    0.000    0.000 
#
# Total GULP energy -178416.325436 kJ/mol
# GULP energy per Si atom -5575.510170 kJ/mol
# Density = 2.028414 g / cm^3
# Si number density = 20.330408 Si / 1000 Ang^3
#
#
#
# Elastic Constant Matrix: (Units=GPa)
#
#
# Indices 1 2 3 4 5 6 
#
# 1 63.7096 38.9023 36.1887 0.0000 0.0000 0.0000
# 2 38.9023 138.1525 56.6617 0.0000 0.0000 0.0000
# 3 36.1887 56.6617 105.4181 0.0000 0.0000 0.0000
# 4 0.0000 0.0000 0.0000 15.0946 0.0000 0.0000
# 5 0.0000 0.0000 0.0000 0.0000 -15.9558 0.0000
# 6 0.0000 0.0000 0.0000 0.0000 0.0000 31.2618
#
#
#
# Elastic Compliance Matrix: (Units=1/GPa)
#
#
# Indices 1 2 3 4 5 6 
#
# 1 0.020932 -0.003781 -0.005154 0.000000 0.000000 0.000000
# 2 -0.003781 0.009968 -0.004060 0.000000 0.000000 0.000000
# 3 -0.005154 -0.004060 0.013437 0.000000 0.000000 0.000000
# 4 0.000000 0.000000 0.000000 0.066249 0.000000 0.000000
# 5 0.000000 0.000000 0.000000 0.000000 -0.062673 0.000000
# 6 0.000000 0.000000 0.000000 0.000000 0.000000 0.031988
#
#
# Mechanical properties :
#
#
# Convention : Reuss Voigt Hill
#
# Bulk Modulus (GPa) = 54.49826 63.42062 58.95944
# Shear Modulus (GPa) = 44.64044 17.78196 31.21120
#
# Velocity S-wave (km/s) = 4.69096 2.96065 3.92241
# Velocity P-wave (km/s) = 7.49698 6.55362 7.04112
#
# Compressibility (1/GPa) = 0.01834921
#
# Stress axis : x y z
#
# Youngs Moduli (GPa) = 47.77343 100.31999 74.41873
#
# Poissons Ratio (x) = 0.37926 0.38353
# Poissons Ratio (y) = 0.18061 0.30214
# Poissons Ratio (z) = 0.24621 0.40730
#
# Static dielectric constant tensor:
#      x y z
#    x 1.774650 0.000000 0.000000 
#    y 0.000000 1.780880 0.000000 
#    z 0.000000 0.000000 1.763700 
# 
# From -- ./inp_files/23225.got.cif
#   From: 2010.05.17/outbox.cif.g08.bks.cpg/sg46_12_cif.got.tgz:23225.got - 2010.06.03 19:58:25.
