data_PCOD9380925
_publ_section_title
;
Structure prediction by ZEFSAII (Michael W. Deem and Ramdas Pophale) SiO2 
 PCOD9380925
Probable space group: I M A 2
;
_chemical_formula_sum "Si O2"
_cell_formula_units_Z 56
_cell_length_a 21.508595
_cell_length_b 8.559965
_cell_length_c 14.415042
_cell_angle_alpha 90.000000
_cell_angle_beta 90.000000
_cell_angle_gamma 90.000000
_cell_volume 2653.994039
_symmetry_space_group_name_H-M "I M A 2"
_symmetry_group_IT_number 46
_symmetry_cell_setting 'orthorhombic'
loop_
_space_group_symop_operation_xyz
x,y,z
-x,-y,z
1/2-x,y,z
1/2+x,-y,z
1/2+x,1/2+y,1/2+z
1/2-x,1/2-y,1/2+z
-x,1/2+y,1/2+z
x,1/2-y,1/2+z
loop_
_atom_site_type_symbol
_atom_site_label
_atom_site_fract_x
_atom_site_fract_y
_atom_site_fract_z
Si Si1 0.822656 0.143387 0.626940
Si Si2 0.601869 0.319419 0.473158
Si Si3 0.473798 0.170932 0.518424
Si Si4 0.316764 0.393979 0.518645
Si Si5 0.321878 0.681642 0.815267
Si Si6 0.373494 0.197760 0.670715
Si Si7 0.135531 0.336599 0.870813
O O1 0.750000 0.122917 0.605036
O O2 0.861083 0.198365 0.538617
O O3 0.828267 0.274051 0.707259
O O4 0.850279 0.979624 0.661508
O O5 0.529556 0.285335 0.488898
O O6 0.626445 0.488810 0.502164
O O7 0.628281 0.284933 0.371205
O O8 0.435724 0.220665 0.609634
O O9 0.425915 0.147784 0.433679
O O10 0.500000 0.000000 0.539175
O O11 0.250000 0.477097 0.514698
O O12 0.324791 0.307983 0.616479
O O13 0.320278 0.264201 0.437943
O O14 0.250000 0.718394 0.840833
O O15 0.336564 0.503077 0.841193
O O16 0.379095 0.245293 0.776655
#
# Coordination Sequence:
#
# PCOD9380925 Si02
#       7
#     8   8   8   8   8   8   8
#     4  11  23  39  64  96 129 170 218 271 331 395
#     4  12  23  42  66  91 130 168 221 271 326 394
#     4  11  23  47  66  92 130 172 222 274 321 387
#     4  11  24  42  68 101 135 173 217 275 344 407
#     4  11  23  39  64  96 129 170 218 271 331 395
#     4  11  24  43  66  95 131 175 219 274 335 393
#     4  11  24  43  66  95 131 175 219 274 335 393
#
# _framework density 21.100275
#
# number of rings (size 3 to 8) (size 9 to 14) (size 15 to 20)
#    0.000    0.857    2.857    4.714    0.000    8.000 
#    5.143    0.000    0.000    0.000    0.000    0.000 
#    0.000    0.000    0.000    0.000    0.000    0.000 
#
# Total GULP energy -156633.703649 kJ/mol
# GULP energy per Si atom -5594.060845 kJ/mol
# Density = 2.105225 g / cm^3
# Si number density = 21.100275 Si / 1000 Ang^3
#
#
#
# Elastic Constant Matrix: (Units=GPa)
#
#
# Indices 1 2 3 4 5 6 
#
# 1 124.3748 -2.0367 11.0740 0.0000 0.0000 0.0000
# 2 -2.0367 61.7634 -23.1763 0.0000 0.0000 0.0000
# 3 11.0740 -23.1763 77.7407 0.0000 0.0000 0.0000
# 4 0.0000 0.0000 0.0000 39.2120 0.0000 0.0000
# 5 0.0000 0.0000 0.0000 0.0000 3.6864 0.0000
# 6 0.0000 0.0000 0.0000 0.0000 0.0000 30.4437
#
#
#
# Elastic Compliance Matrix: (Units=1/GPa)
#
#
# Indices 1 2 3 4 5 6 
#
# 1 0.008145 -0.000188 -0.001216 0.000000 0.000000 0.000000
# 2 -0.000188 0.018235 0.005463 0.000000 0.000000 0.000000
# 3 -0.001216 0.005463 0.014665 0.000000 0.000000 0.000000
# 4 0.000000 0.000000 0.000000 0.025502 0.000000 0.000000
# 5 0.000000 0.000000 0.000000 0.000000 0.271267 0.000000
# 6 0.000000 0.000000 0.000000 0.000000 0.000000 0.032848
#
#
# Mechanical properties :
#
#
# Convention : Reuss Voigt Hill
#
# Bulk Modulus (GPa) = 20.34061 26.17788 23.25925
# Shear Modulus (GPa) = 13.19498 33.20296 23.19897
#
# Velocity S-wave (km/s) = 2.50341 3.97114 3.31941
# Velocity P-wave (km/s) = 4.24464 5.78446 5.07331
#
# Compressibility (1/GPa) = 0.04916272
#
# Stress axis : x y z
#
# Youngs Moduli (GPa) = 122.76819 54.84100 68.18883
#
# Poissons Ratio (x) = 0.01030 0.08294
# Poissons Ratio (y) = 0.02306 -0.37251
# Poissons Ratio (z) = 0.14932 -0.29959
#
# Static dielectric constant tensor:
#      x y z
#    x 1.783040 0.000000 0.000000 
#    y 0.000000 1.779730 0.000000 
#    z 0.000000 0.000000 1.719930 
# 
# From -- ./inp_files/17098.got.cif
#   From: 2010.05.17/outbox.cif.g08.bks.cpg/sg46_9_cif.got.tgz:17098.got - 2010.06.03 19:58:25.
