data_PCOD9380792
_publ_section_title
;
Structure prediction by ZEFSAII (Michael W. Deem and Ramdas Pophale) SiO2 
 PCOD9380792
Probable space group: I M A 2
;
_chemical_formula_sum "Si O2"
_cell_formula_units_Z 48
_cell_length_a 24.497504
_cell_length_b 10.746225
_cell_length_c 7.403078
_cell_angle_alpha 90.000000
_cell_angle_beta 90.000000
_cell_angle_gamma 90.000000
_cell_volume 1948.902406
_symmetry_space_group_name_H-M "I M A 2"
_symmetry_group_IT_number 46
_symmetry_cell_setting 'orthorhombic'
loop_
_space_group_symop_operation_xyz
x,y,z
-x,-y,z
1/2-x,y,z
1/2+x,-y,z
1/2+x,1/2+y,1/2+z
1/2-x,1/2-y,1/2+z
-x,1/2+y,1/2+z
x,1/2-y,1/2+z
loop_
_atom_site_type_symbol
_atom_site_label
_atom_site_fract_x
_atom_site_fract_y
_atom_site_fract_z
Si Si1 0.951533 0.104913 0.051210
Si Si2 0.250000 0.634331 0.231824
Si Si3 0.410303 0.270849 0.353654
Si Si4 0.864312 0.022156 0.765712
Si Si5 0.250000 0.920880 0.308578
Si Si6 0.009660 0.356708 0.109511
Si Si7 0.131706 0.006227 0.328024
O O1 0.966483 0.250543 0.071735
O O2 0.031686 0.341761 0.311214
O O3 0.915707 0.084348 0.869014
O O4 0.000000 0.000000 0.081195
O O5 0.306954 0.585834 0.313333
O O6 0.250000 0.782199 0.232881
O O7 0.250000 0.588649 0.026022
O O8 0.366960 0.380770 0.339910
O O9 0.433477 0.199883 0.531248
O O10 0.384711 0.145947 0.271425
O O11 0.870355 0.020625 0.545904
O O12 0.193218 0.984754 0.262685
O O13 0.910332 0.421596 0.718391
O O14 0.000000 0.500000 0.058280
#
# Coordination Sequence:
#
# PCOD9380792 Si02
#       7
#     8   4   8   8   4   8   8
#     4  12  26  51  80 119 154 221 265 311 419 482
#     4  10  26  51  78 116 157 210 270 341 411 476
#     4  12  24  47  74 108 156 209 258 318 402 468
#     4  11  26  49  81 115 160 207 269 339 392 482
#     4  10  26  51  78 116 157 210 270 341 411 476
#     4  12  30  46  70 112 162 203 266 327 385 483
#     4  11  26  49  81 115 160 207 269 339 392 482
#
# _framework density 24.629246999999999
#
# number of rings (size 3 to 8) (size 9 to 14) (size 15 to 20)
#    0.000    0.667    5.000    0.000    7.000    4.000 
#    0.000    0.000    0.000    0.000    0.000    0.000 
#    0.000    0.000    0.000    0.000    0.000    0.000 
#
# Total GULP energy -133943.264537 kJ/mol
# GULP energy per Si atom -5580.969356 kJ/mol
# Density = 2.457319 g / cm^3
# Si number density = 24.629247 Si / 1000 Ang^3
#
#
#
# Elastic Constant Matrix: (Units=GPa)
#
#
# Indices 1 2 3 4 5 6 
#
# 1 188.5327 111.2882 40.1219 0.0000 0.0000 0.0000
# 2 111.2882 232.2463 41.7461 0.0000 0.0000 0.0000
# 3 40.1219 41.7461 90.8638 0.0000 0.0000 0.0000
# 4 0.0000 0.0000 0.0000 39.9046 0.0000 0.0000
# 5 0.0000 0.0000 0.0000 0.0000 32.3773 0.0000
# 6 0.0000 0.0000 0.0000 0.0000 0.0000 54.8465
#
#
#
# Elastic Compliance Matrix: (Units=1/GPa)
#
#
# Indices 1 2 3 4 5 6 
#
# 1 0.007672 -0.003343 -0.001851 0.000000 0.000000 0.000000
# 2 -0.003343 0.006150 -0.001349 0.000000 0.000000 0.000000
# 3 -0.001851 -0.001349 0.012443 0.000000 0.000000 0.000000
# 4 0.000000 0.000000 0.000000 0.025060 0.000000 0.000000
# 5 0.000000 0.000000 0.000000 0.000000 0.030886 0.000000
# 6 0.000000 0.000000 0.000000 0.000000 0.000000 0.018233
#
#
# Mechanical properties :
#
#
# Convention : Reuss Voigt Hill
#
# Bulk Modulus (GPa) = 75.89202 99.77281 87.83241
# Shear Modulus (GPa) = 42.40020 46.65812 44.52916
#
# Velocity S-wave (km/s) = 4.15364 4.35721 4.25665
# Velocity P-wave (km/s) = 7.34060 8.11860 7.73938
#
# Compressibility (1/GPa) = 0.01317662
#
# Stress axis : x y z
#
# Youngs Moduli (GPa) = 130.35025 162.59130 80.36649
#
# Poissons Ratio (x) = 0.54359 0.14879
# Poissons Ratio (y) = 0.43580 0.10845
# Poissons Ratio (z) = 0.24134 0.21941
#
# Static dielectric constant tensor:
#      x y z
#    x 2.019230 0.000000 0.000000 
#    y 0.000000 1.927560 0.000000 
#    z 0.000000 0.000000 2.366530 
# 
# From -- ./inp_files/12993.got.cif
#   From: 2010.05.17/outbox.cif.g08.bks.cpg/sg46_7_cif.got.tgz:12993.got - 2010.06.03 19:58:25.
