data_PCOD9380636
_publ_section_title
;
Structure prediction by ZEFSAII (Michael W. Deem and Ramdas Pophale) SiO2 
 PCOD9380636
Probable space group: I M A 2
;
_chemical_formula_sum "Si O2"
_cell_formula_units_Z 64
_cell_length_a 14.038409
_cell_length_b 17.928245
_cell_length_c 12.128337
_cell_angle_alpha 90.000000
_cell_angle_beta 90.000000
_cell_angle_gamma 90.000000
_cell_volume 3052.508806
_symmetry_space_group_name_H-M "I M A 2"
_symmetry_group_IT_number 46
_symmetry_cell_setting 'orthorhombic'
loop_
_space_group_symop_operation_xyz
x,y,z
-x,-y,z
1/2-x,y,z
1/2+x,-y,z
1/2+x,1/2+y,1/2+z
1/2-x,1/2-y,1/2+z
-x,1/2+y,1/2+z
x,1/2-y,1/2+z
loop_
_atom_site_type_symbol
_atom_site_label
_atom_site_fract_x
_atom_site_fract_y
_atom_site_fract_z
Si Si1 0.484160 0.225061 0.975230
Si Si2 0.891918 0.027391 0.123962
Si Si3 0.358712 0.089747 0.930610
Si Si4 0.355877 0.797017 0.123301
Si Si5 0.013739 0.415592 0.207862
Si Si6 0.644329 0.471147 0.881740
Si Si7 0.357203 0.683106 0.303842
Si Si8 0.044482 0.385417 0.966865
O O1 0.405383 0.161793 0.990138
O O2 0.569264 0.191829 0.901782
O O3 0.444870 0.301155 0.923899
O O4 0.548827 0.242556 0.080519
O O5 0.855117 0.018730 0.249018
O O6 0.873932 0.115317 0.107317
O O7 0.858536 0.979083 0.017849
O O8 0.000000 0.000000 0.131811
O O9 0.250000 0.103629 0.898591
O O10 0.422692 0.081379 0.819676
O O11 0.250000 0.778155 0.076292
O O12 0.351191 0.764270 0.246460
O O13 0.911249 0.377985 0.229937
O O14 0.000000 0.500000 0.172563
O O15 0.057373 0.379181 0.098901
O O16 0.750000 0.446093 0.916499
O O17 0.559507 0.417002 0.926293
O O18 0.618265 0.553022 0.926139
O O19 0.250000 0.659199 0.330370
#
# Coordination Sequence:
#
# PCOD9380636 Si02
#       8
#     8   8   8   8   8   8   8   8
#     4  11  23  40  66  91 130 168 211 265 323 384
#     4  12  22  43  69  97 130 168 211 276 336 392
#     4  11  26  44  66  94 128 175 227 272 320 384
#     4  11  22  38  64  97 126 159 205 262 330 391
#     4  11  23  44  64  92 131 178 219 267 320 388
#     4  11  24  42  69  99 128 167 216 273 333 391
#     4  10  23  40  63  97 130 164 210 267 333 392
#     4  11  23  44  67  94 133 173 219 266 327 388
#
# _framework density 20.966360000000002
#
# number of rings (size 3 to 8) (size 9 to 14) (size 15 to 20)
#    0.000    1.000    5.000    2.625    1.750    4.000 
#    0.000    0.000    0.000    0.000    0.000    0.000 
#    0.000    0.000    0.000    0.000    0.000    0.000 
#
# Total GULP energy -178260.245727 kJ/mol
# GULP energy per Si atom -5570.632679 kJ/mol
# Density = 2.091864 g / cm^3
# Si number density = 20.966360 Si / 1000 Ang^3
#
#
#
# Elastic Constant Matrix: (Units=GPa)
#
#
# Indices 1 2 3 4 5 6 
#
# 1 74.8278 15.5562 0.7186 0.0000 0.0000 0.0000
# 2 15.5562 109.1087 10.2303 0.0000 0.0000 0.0000
# 3 0.7186 10.2303 72.4131 0.0000 0.0000 0.0000
# 4 0.0000 0.0000 0.0000 27.1534 0.0000 0.0000
# 5 0.0000 0.0000 0.0000 0.0000 4.6670 0.0000
# 6 0.0000 0.0000 0.0000 0.0000 0.0000 16.6606
#
#
#
# Elastic Compliance Matrix: (Units=1/GPa)
#
#
# Indices 1 2 3 4 5 6 
#
# 1 0.013774 -0.001977 0.000143 0.000000 0.000000 0.000000
# 2 -0.001977 0.009572 -0.001333 0.000000 0.000000 0.000000
# 3 0.000143 -0.001333 0.013997 0.000000 0.000000 0.000000
# 4 0.000000 0.000000 0.000000 0.036828 0.000000 0.000000
# 5 0.000000 0.000000 0.000000 0.000000 0.214272 0.000000
# 6 0.000000 0.000000 0.000000 0.000000 0.000000 0.060022
#
#
# Mechanical properties :
#
#
# Convention : Reuss Voigt Hill
#
# Bulk Modulus (GPa) = 32.24994 34.37331 33.31162
# Shear Modulus (GPa) = 13.69360 25.01918 19.35639
#
# Velocity S-wave (km/s) = 2.55840 3.45817 3.04174
# Velocity P-wave (km/s) = 4.91349 5.68993 5.31590
#
# Compressibility (1/GPa) = 0.03100781
#
# Stress axis : x y z
#
# Youngs Moduli (GPa) = 72.60222 104.47117 71.44637
#
# Poissons Ratio (x) = 0.20656 -0.01019
# Poissons Ratio (y) = 0.14355 0.09522
# Poissons Ratio (z) = -0.01036 0.13923
#
# Static dielectric constant tensor:
#      x y z
#    x 1.900870 0.000000 0.000000 
#    y 0.000000 1.760780 0.000000 
#    z 0.000000 0.000000 1.945540 
# 
# From -- ./inp_files/11322.got.cif
#   From: 2010.05.17/outbox.cif.g08.bks.cpg/sg46_6_cif.got.tgz:11322.got - 2010.06.03 19:58:25.
