data_PCOD9380850
_publ_section_title
;
Structure prediction by ZEFSAII (Michael W. Deem and Ramdas Pophale) SiO2 
 PCOD9380850
Probable space group: I M A 2
;
_chemical_formula_sum "Si O2"
_cell_formula_units_Z 64
_cell_length_a 17.557969
_cell_length_b 11.962412
_cell_length_c 15.575309
_cell_angle_alpha 90.000000
_cell_angle_beta 90.000000
_cell_angle_gamma 90.000000
_cell_volume 3271.370291
_symmetry_space_group_name_H-M "I M A 2"
_symmetry_group_IT_number 46
_symmetry_cell_setting 'orthorhombic'
loop_
_space_group_symop_operation_xyz
x,y,z
-x,-y,z
1/2-x,y,z
1/2+x,-y,z
1/2+x,1/2+y,1/2+z
1/2-x,1/2-y,1/2+z
-x,1/2+y,1/2+z
x,1/2-y,1/2+z
loop_
_atom_site_type_symbol
_atom_site_label
_atom_site_fract_x
_atom_site_fract_y
_atom_site_fract_z
Si Si1 0.159658 0.771909 0.838430
Si Si2 0.842510 0.044809 0.266219
Si Si3 0.414500 0.325451 0.445051
Si Si4 0.090463 0.007510 0.787864
Si Si5 0.658240 0.501871 0.576970
Si Si6 0.659053 0.582758 0.936159
Si Si7 0.412786 0.961113 0.597082
Si Si8 0.414600 0.771759 0.012388
O O1 0.250000 0.784364 0.831102
O O2 0.133132 0.674471 0.773760
O O3 0.122555 0.892527 0.826333
O O4 0.136672 0.730634 0.932765
O O5 0.750000 0.047091 0.268928
O O6 0.863531 0.987694 0.177004
O O7 0.869352 0.978286 0.349653
O O8 0.399043 0.391473 0.355289
O O9 0.377431 0.402263 0.518539
O O10 0.375251 0.205888 0.440523
O O11 0.502623 0.303627 0.472423
O O12 0.118108 0.005546 0.688881
O O13 0.000000 0.000000 0.780704
O O14 0.750000 0.501443 0.568774
O O15 0.624389 0.383539 0.547219
O O16 0.750000 0.588397 0.932364
O O17 0.633779 0.515388 0.019883
O O18 0.415046 0.827103 0.582622
O O19 0.500000 0.000000 0.588398
#
# Coordination Sequence:
#
# PCOD9380850 Si02
#       8
#     8   8   8   8   8   8   8   8
#     4  11  21  38  67  95 120 160 210 268 324 371
#     4   9  21  41  64  93 124 154 208 270 319 367
#     4  12  24  42  62  92 134 174 209 255 317 393
#     4  11  23  41  64  94 131 166 206 264 325 385
#     4  11  23  41  66  95 125 163 210 268 321 377
#     4  11  24  43  66  92 126 174 219 262 314 385
#     4  11  24  43  66  95 129 168 213 268 324 383
#     4  12  22  40  66  94 127 166 214 262 320 380
#
# _framework density 19.563668
#
# number of rings (size 3 to 8) (size 9 to 14) (size 15 to 20)
#    0.000    1.000    5.000    1.875    0.000    2.500 
#    0.000    3.750    0.000    0.000    0.000    0.000 
#    0.000    0.000    0.000    0.000    0.000    0.000 
#
# Total GULP energy -178662.772397 kJ/mol
# GULP energy per Si atom -5583.211637 kJ/mol
# Density = 1.951914 g / cm^3
# Si number density = 19.563668 Si / 1000 Ang^3
#
#
#
# Elastic Constant Matrix: (Units=GPa)
#
#
# Indices 1 2 3 4 5 6 
#
# 1 50.3699 34.0928 24.0778 0.0000 0.0000 0.0000
# 2 34.0928 139.3844 58.0963 0.0000 0.0000 0.0000
# 3 24.0778 58.0963 142.1035 0.0000 0.0000 0.0000
# 4 0.0000 0.0000 0.0000 2.4762 0.0000 0.0000
# 5 0.0000 0.0000 0.0000 0.0000 19.7747 0.0000
# 6 0.0000 0.0000 0.0000 0.0000 0.0000 5.8461
#
#
#
# Elastic Compliance Matrix: (Units=1/GPa)
#
#
# Indices 1 2 3 4 5 6 
#
# 1 0.024269 -0.005089 -0.002031 0.000000 0.000000 0.000000
# 2 -0.005089 0.009715 -0.003110 0.000000 0.000000 0.000000
# 3 -0.002031 -0.003110 0.008653 0.000000 0.000000 0.000000
# 4 0.000000 0.000000 0.000000 0.403846 0.000000 0.000000
# 5 0.000000 0.000000 0.000000 0.000000 0.050570 0.000000
# 6 0.000000 0.000000 0.000000 0.000000 0.000000 0.171054
#
#
# Mechanical properties :
#
#
# Convention : Reuss Voigt Hill
#
# Bulk Modulus (GPa) = 45.09349 62.71018 53.90183
# Shear Modulus (GPa) = 7.18433 19.99212 13.58823
#
# Velocity S-wave (km/s) = 1.91840 3.20019 2.63832
# Velocity P-wave (km/s) = 5.29213 6.76601 6.07394
#
# Compressibility (1/GPa) = 0.02217615
#
# Stress axis : x y z
#
# Youngs Moduli (GPa) = 41.20497 102.92998 115.57185
#
# Poissons Ratio (x) = 0.52385 0.23477
# Poissons Ratio (y) = 0.20971 0.35938
# Poissons Ratio (z) = 0.08370 0.32007
#
# Static dielectric constant tensor:
#      x y z
#    x 1.665860 0.000000 0.000000 
#    y 0.000000 1.686920 0.000000 
#    z 0.000000 0.000000 1.733490 
# 
# From -- ./inp_files/16768.got.cif
#   From: 2010.05.17/outbox.cif.g08.bks.cpg/sg46_9_cif.got.tgz:16768.got - 2010.06.03 19:58:25.
