data_PCOD9380677
_publ_section_title
;
Structure prediction by ZEFSAII (Michael W. Deem and Ramdas Pophale) SiO2 
 PCOD9380677
Probable space group: I M A 2
;
_chemical_formula_sum "Si O2"
_cell_formula_units_Z 48
_cell_length_a 22.127162
_cell_length_b 9.073728
_cell_length_c 11.264232
_cell_angle_alpha 90.000000
_cell_angle_beta 90.000000
_cell_angle_gamma 90.000000
_cell_volume 2261.585748
_symmetry_space_group_name_H-M "I M A 2"
_symmetry_group_IT_number 46
_symmetry_cell_setting 'orthorhombic'
loop_
_space_group_symop_operation_xyz
x,y,z
-x,-y,z
1/2-x,y,z
1/2+x,-y,z
1/2+x,1/2+y,1/2+z
1/2-x,1/2-y,1/2+z
-x,1/2+y,1/2+z
x,1/2-y,1/2+z
loop_
_atom_site_type_symbol
_atom_site_label
_atom_site_fract_x
_atom_site_fract_y
_atom_site_fract_z
Si Si1 0.634199 0.460375 0.946630
Si Si2 0.407904 0.252733 0.377778
Si Si3 0.567588 0.499629 0.537759
Si Si4 0.615032 0.460811 0.221955
Si Si5 0.815250 0.158497 0.921341
Si Si6 0.962016 0.318857 0.777245
O O1 0.639313 0.619389 0.885682
O O2 0.683690 0.334226 0.934006
O O3 0.577086 0.380718 0.885450
O O4 0.622201 0.484976 0.084175
O O5 0.415410 0.330414 0.507981
O O6 0.392023 0.386854 0.291480
O O7 0.469975 0.188260 0.324193
O O8 0.500000 0.500000 0.478537
O O9 0.625642 0.408897 0.488093
O O10 0.554001 0.421805 0.663908
O O11 0.672006 0.381151 0.284201
O O12 0.560446 0.345470 0.244307
O O13 0.750000 0.099710 0.960652
#
# Coordination Sequence:
#
# PCOD9380677 Si02
#       6
#     8   8   8   8   8   8
#     4  11  23  40  62  97 135 179 235 289 352 409
#     4  11  24  37  62  99 141 184 225 296 355 409
#     4  11  22  41  68 105 148 177 232 289 346 419
#     4  10  23  43  62  96 136 180 234 290 351 415
#     4  10  23  47  74  98 131 187 239 278 345 430
#     4  11  23  40  63 101 142 191 237 278 355 432
#
# _framework density 21.224046999999999
#
# number of rings (size 3 to 8) (size 9 to 14) (size 15 to 20)
#    0.000    1.333    1.667    5.000    4.667    2.000 
#    0.000    3.333    0.000    0.000    0.000    0.000 
#    0.000    0.000    0.000    0.000    0.000    0.000 
#
# Total GULP energy -133744.291052 kJ/mol
# GULP energy per Si atom -5572.678794 kJ/mol
# Density = 2.117574 g / cm^3
# Si number density = 21.224047 Si / 1000 Ang^3
#
#
#
# Elastic Constant Matrix: (Units=GPa)
#
#
# Indices 1 2 3 4 5 6 
#
# 1 109.5049 39.1915 28.1516 0.0000 0.0000 0.0000
# 2 39.1915 118.8961 49.3721 0.0000 0.0000 0.0000
# 3 28.1516 49.3721 127.9297 0.0000 0.0000 0.0000
# 4 0.0000 0.0000 0.0000 423.6934 0.0000 0.0000
# 5 0.0000 0.0000 0.0000 0.0000 -3.7150 0.0000
# 6 0.0000 0.0000 0.0000 0.0000 0.0000 18.2518
#
#
#
# Elastic Compliance Matrix: (Units=1/GPa)
#
#
# Indices 1 2 3 4 5 6 
#
# 1 0.010496 -0.002978 -0.001160 0.000000 0.000000 0.000000
# 2 -0.002978 0.010861 -0.003536 0.000000 0.000000 0.000000
# 3 -0.001160 -0.003536 0.009437 0.000000 0.000000 0.000000
# 4 0.000000 0.000000 0.000000 0.002360 0.000000 0.000000
# 5 0.000000 0.000000 0.000000 0.000000 -0.269181 0.000000
# 6 0.000000 0.000000 0.000000 0.000000 0.000000 0.054789
#
#
# Mechanical properties :
#
#
# Convention : Reuss Voigt Hill
#
# Bulk Modulus (GPa) = 64.74754 65.52900 65.13827
# Shear Modulus (GPa) = -31.10603 103.62043 36.25720
#
# Velocity S-wave (km/s) = -3.83247 6.99487 4.13765
# Velocity P-wave (km/s) = 3.31498 9.80711 7.32013
#
# Compressibility (1/GPa) = 0.01544460
#
# Stress axis : x y z
#
# Youngs Moduli (GPa) = 95.27315 92.07487 105.96724
#
# Poissons Ratio (x) = 0.27419 0.12297
# Poissons Ratio (y) = 0.28372 0.37472
# Poissons Ratio (z) = 0.11056 0.32559
#
# Static dielectric constant tensor:
#      x y z
#    x 1.761600 0.000000 0.000000 
#    y 0.000000 1.607720 0.000000 
#    z 0.000000 0.000000 1.822760 
# 
# From -- ./inp_files/12734.got.cif
#   From: 2010.05.17/outbox.cif.g08.bks.cpg/sg46_7_cif.got.tgz:12734.got - 2010.06.03 19:58:25.
