data_PCOD9380457
_publ_section_title
;
Structure prediction by ZEFSAII (Michael W. Deem and Ramdas Pophale) SiO2 
 PCOD9380457
Probable space group: I M A 2
;
_chemical_formula_sum "Si O2"
_cell_formula_units_Z 64
_cell_length_a 21.047585
_cell_length_b 7.261004
_cell_length_c 16.497066
_cell_angle_alpha 90.000000
_cell_angle_beta 90.000000
_cell_angle_gamma 90.000000
_cell_volume 2521.190488
_symmetry_space_group_name_H-M "I M A 2"
_symmetry_group_IT_number 46
_symmetry_cell_setting 'orthorhombic'
loop_
_space_group_symop_operation_xyz
x,y,z
-x,-y,z
1/2-x,y,z
1/2+x,-y,z
1/2+x,1/2+y,1/2+z
1/2-x,1/2-y,1/2+z
-x,1/2+y,1/2+z
x,1/2-y,1/2+z
loop_
_atom_site_type_symbol
_atom_site_label
_atom_site_fract_x
_atom_site_fract_y
_atom_site_fract_z
Si Si1 0.885967 0.378374 0.783410
Si Si2 0.132071 0.703354 0.614593
Si Si3 0.318689 0.276059 0.733584
Si Si4 0.999615 0.285423 0.056253
Si Si5 0.147892 0.294194 0.569486
Si Si6 0.502592 0.783931 0.871148
Si Si7 0.174303 0.759732 0.445612
Si Si8 0.645269 0.651340 0.398736
O O1 0.858691 0.251726 0.709570
O O2 0.875547 0.578129 0.744277
O O3 0.846019 0.375933 0.866834
O O4 0.956925 0.321879 0.809553
O O5 0.055348 0.689394 0.607389
O O6 0.164122 0.506621 0.592426
O O7 0.152379 0.822728 0.535745
O O8 0.250000 0.371748 0.732942
O O9 0.328200 0.181832 0.646772
O O10 0.319758 0.155185 0.813835
O O11 0.000000 0.500000 0.077232
O O12 0.071496 0.217292 0.064690
O O13 0.979864 0.259734 0.962330
O O14 0.172987 0.254067 0.479544
O O15 0.577605 0.754158 0.880632
O O16 0.500000 0.000000 0.851726
O O17 0.250000 0.736372 0.446501
O O18 0.141133 0.561742 0.425453
#
# Coordination Sequence:
#
# PCOD9380457 Si02
#       8
#     8   8   8   8   8   8   8   8
#     4  11  24  39  66  96 125 176 217 279 333 390
#     4  10  22  41  62  92 128 171 219 266 336 394
#     4  11  25  43  63  95 135 171 225 278 332 401
#     4  11  22  37  64  98 133 163 217 278 333 399
#     4   9  22  41  64  90 125 178 218 268 331 403
#     4  11  21  41  66  93 134 169 217 272 337 406
#     4  11  22  41  66  92 128 175 225 267 325 402
#     4  10  22  39  66  93 125 174 218 266 337 393
#
# _framework density 25.384831999999999
#
# number of rings (size 3 to 8) (size 9 to 14) (size 15 to 20)
#    0.000    1.500    2.500    2.625    5.250    7.000 
#    0.000    0.000    0.000    3.750    0.000    0.000 
#    0.000    0.000    0.000    0.000    0.000    0.000 
#
# Total GULP energy -178687.200019 kJ/mol
# GULP energy per Si atom -5583.975001 kJ/mol
# Density = 2.532706 g / cm^3
# Si number density = 25.384832 Si / 1000 Ang^3
#
#
#
# Elastic Constant Matrix: (Units=GPa)
#
#
# Indices 1 2 3 4 5 6 
#
# 1 104.2812 -1.5557 44.0403 0.0000 0.0000 0.0000
# 2 -1.5557 48.0728 15.6936 0.0000 0.0000 0.0000
# 3 44.0403 15.6936 242.4318 0.0000 0.0000 0.0000
# 4 0.0000 0.0000 0.0000 32.2090 0.0000 0.0000
# 5 0.0000 0.0000 0.0000 0.0000 5.7944 0.0000
# 6 0.0000 0.0000 0.0000 0.0000 0.0000 15.0292
#
#
#
# Elastic Compliance Matrix: (Units=1/GPa)
#
#
# Indices 1 2 3 4 5 6 
#
# 1 0.010431 0.000977 -0.001958 0.000000 0.000000 0.000000
# 2 0.000977 0.021342 -0.001559 0.000000 0.000000 0.000000
# 3 -0.001958 -0.001559 0.004582 0.000000 0.000000 0.000000
# 4 0.000000 0.000000 0.000000 0.031047 0.000000 0.000000
# 5 0.000000 0.000000 0.000000 0.000000 0.172579 0.000000
# 6 0.000000 0.000000 0.000000 0.000000 0.000000 0.066537
#
#
# Mechanical properties :
#
#
# Convention : Reuss Voigt Hill
#
# Bulk Modulus (GPa) = 31.97529 56.79357 44.38443
# Shear Modulus (GPa) = 15.52680 33.04704 24.28692
#
# Velocity S-wave (km/s) = 2.47585 3.61202 3.09649
# Velocity P-wave (km/s) = 4.56034 6.31009 5.50517
#
# Compressibility (1/GPa) = 0.03127415
#
# Stress axis : x y z
#
# Youngs Moduli (GPa) = 95.86812 46.85518 218.26865
#
# Poissons Ratio (x) = -0.04577 0.42740
# Poissons Ratio (y) = -0.09364 0.34029
# Poissons Ratio (z) = 0.18772 0.07305
#
# Static dielectric constant tensor:
#      x y z
#    x 1.998360 0.000000 0.000000 
#    y 0.000000 2.086130 0.000000 
#    z 0.000000 0.000000 2.088200 
# 
# From -- ./inp_files/17396.got.cif
#   From: 2010.05.17/outbox.cif.g08.bks.cpg/sg46_9_cif.got.tgz:17396.got - 2010.06.03 19:58:25.
