data_PCOD9380256
_publ_section_title
;
Structure prediction by ZEFSAII (Michael W. Deem and Ramdas Pophale) SiO2 
 PCOD9380256
Probable space group: I M A 2
;
_chemical_formula_sum "Si O2"
_cell_formula_units_Z 64
_cell_length_a 17.389798
_cell_length_b 18.919544
_cell_length_c 8.268262
_cell_angle_alpha 90.000000
_cell_angle_beta 90.000000
_cell_angle_gamma 90.000000
_cell_volume 2720.316476
_symmetry_space_group_name_H-M "I M A 2"
_symmetry_group_IT_number 46
_symmetry_cell_setting 'orthorhombic'
loop_
_space_group_symop_operation_xyz
x,y,z
-x,-y,z
1/2-x,y,z
1/2+x,-y,z
1/2+x,1/2+y,1/2+z
1/2-x,1/2-y,1/2+z
-x,1/2+y,1/2+z
x,1/2-y,1/2+z
loop_
_atom_site_type_symbol
_atom_site_label
_atom_site_fract_x
_atom_site_fract_y
_atom_site_fract_z
Si Si1 0.164704 0.661271 0.899560
Si Si2 0.837798 0.837726 0.852469
Si Si3 0.895314 0.462444 0.749356
Si Si4 0.340748 0.477137 0.179792
Si Si5 0.939622 0.909827 0.392614
Si Si6 0.842337 0.400026 0.413370
Si Si7 0.420615 0.263088 0.062076
Si Si8 0.907989 0.226049 0.076690
O O1 0.250000 0.686415 0.933580
O O2 0.133492 0.694262 0.732265
O O3 0.164255 0.578233 0.864644
O O4 0.113144 0.693313 0.039570
O O5 0.750000 0.821124 0.809409
O O6 0.846293 0.921507 0.829930
O O7 0.894226 0.803020 0.721714
O O8 0.859912 0.796769 0.013794
O O9 0.891037 0.546782 0.759726
O O10 0.974605 0.430062 0.828927
O O11 0.881732 0.439085 0.566315
O O12 0.250000 0.471946 0.126392
O O13 0.404667 0.450441 0.051650
O O14 0.355706 0.554399 0.252829
O O15 0.929273 0.827318 0.430556
O O16 0.750000 0.396556 0.437857
O O17 0.877662 0.322076 0.428219
O O18 0.501107 0.224063 0.085797
#
# Coordination Sequence:
#
# PCOD9380256 Si02
#       8
#     8   8   8   8   8   8   8   8
#     4  11  22  39  62  91 129 170 211 257 307 375
#     4  10  22  41  64  92 124 163 211 266 319 378
#     4  10  21  40  60  89 127 162 212 259 312 374
#     4   9  21  43  65  91 127 166 214 264 319 379
#     4  10  22  41  62  89 125 165 211 264 315 378
#     4  10  22  43  67  96 131 169 216 263 315 387
#     4  11  22  40  64  91 127 165 209 260 322 380
#     4  11  22  39  62  95 130 169 208 256 312 380
#
# _framework density 23.526675000000001
#
# number of rings (size 3 to 8) (size 9 to 14) (size 15 to 20)
#    0.000    1.750    1.250    3.375    1.750    3.500 
#   13.500    2.500    0.000    0.000    0.000    0.000 
#    0.000    0.000    0.000    0.000    0.000    0.000 
#
# Total GULP energy -178601.269907 kJ/mol
# GULP energy per Si atom -5581.289685 kJ/mol
# Density = 2.347313 g / cm^3
# Si number density = 23.526675 Si / 1000 Ang^3
#
#
#
# Elastic Constant Matrix: (Units=GPa)
#
#
# Indices 1 2 3 4 5 6 
#
# 1 88.3206 17.3646 12.1146 0.0000 0.0000 0.0000
# 2 17.3646 68.2732 -0.6298 0.0000 0.0000 0.0000
# 3 12.1146 -0.6298 43.3766 0.0000 0.0000 0.0000
# 4 0.0000 0.0000 0.0000 45.2754 0.0000 0.0000
# 5 0.0000 0.0000 0.0000 0.0000 21.5178 0.0000
# 6 0.0000 0.0000 0.0000 0.0000 0.0000 33.4930
#
#
#
# Elastic Compliance Matrix: (Units=1/GPa)
#
#
# Indices 1 2 3 4 5 6 
#
# 1 0.012433 -0.003195 -0.003519 0.000000 0.000000 0.000000
# 2 -0.003195 0.015470 0.001117 0.000000 0.000000 0.000000
# 3 -0.003519 0.001117 0.024053 0.000000 0.000000 0.000000
# 4 0.000000 0.000000 0.000000 0.022087 0.000000 0.000000
# 5 0.000000 0.000000 0.000000 0.000000 0.046473 0.000000
# 6 0.000000 0.000000 0.000000 0.000000 0.000000 0.029857
#
#
# Mechanical properties :
#
#
# Convention : Reuss Voigt Hill
#
# Bulk Modulus (GPa) = 24.53230 28.62990 26.58110
# Shear Modulus (GPa) = 28.54630 31.46529 30.00580
#
# Velocity S-wave (km/s) = 3.48711 3.66106 3.57514
# Velocity P-wave (km/s) = 5.16365 5.48331 5.32588
#
# Compressibility (1/GPa) = 0.04076259
#
# Stress axis : x y z
#
# Youngs Moduli (GPa) = 80.43015 64.64171 41.57505
#
# Poissons Ratio (x) = 0.20651 0.14629
# Poissons Ratio (y) = 0.25695 -0.04643
# Poissons Ratio (z) = 0.28302 -0.07220
#
# Static dielectric constant tensor:
#      x y z
#    x 1.868970 0.000000 0.000000 
#    y 0.000000 1.946670 0.000000 
#    z 0.000000 0.000000 1.933080 
# 
# From -- ./inp_files/6907.got.cif
#   From: 2010.05.17/outbox.cif.g08.bks.cpg/sg46_4_cif.got.tgz:6907.got - 2010.06.03 19:58:25.
