data_PCOD9380314
_publ_section_title
;
Structure prediction by ZEFSAII (Michael W. Deem and Ramdas Pophale) SiO2 
 PCOD9380314
Probable space group: I M A 2
;
_chemical_formula_sum "Si O2"
_cell_formula_units_Z 36
_cell_length_a 19.233157
_cell_length_b 16.156970
_cell_length_c 4.952259
_cell_angle_alpha 90.000000
_cell_angle_beta 90.000000
_cell_angle_gamma 90.000000
_cell_volume 1538.912209
_symmetry_space_group_name_H-M "I M A 2"
_symmetry_group_IT_number 46
_symmetry_cell_setting 'orthorhombic'
loop_
_space_group_symop_operation_xyz
x,y,z
-x,-y,z
1/2-x,y,z
1/2+x,-y,z
1/2+x,1/2+y,1/2+z
1/2-x,1/2-y,1/2+z
-x,1/2+y,1/2+z
x,1/2-y,1/2+z
loop_
_atom_site_type_symbol
_atom_site_label
_atom_site_fract_x
_atom_site_fract_y
_atom_site_fract_z
Si Si1 0.971960 0.299709 0.928330
Si Si2 0.671502 0.970901 0.118040
Si Si3 0.627645 0.068548 0.643209
Si Si4 0.860917 0.702082 0.895568
Si Si5 0.250000 0.692011 0.227735
O O1 0.840006 0.468222 0.869928
O O2 0.949015 0.225656 0.129183
O O3 0.055268 0.302252 0.916359
O O4 0.941059 0.383361 0.049255
O O5 0.750000 0.977073 0.011753
O O6 0.661593 0.881333 0.250694
O O7 0.621565 0.997795 0.871621
O O8 0.681970 0.135564 0.758977
O O9 0.838057 0.776739 0.697545
O O10 0.250000 0.767661 0.433336
#
# Coordination Sequence:
#
# PCOD9380314 Si02
#       5
#     8   8   8   8   4
#     4  10  21  41  64  91 126 166 219 270 314 385
#     4  12  24  42  63  94 137 171 213 276 335 400
#     4  12  23  40  62  94 134 173 211 270 333 394
#     4  10  23  43  67  92 121 167 223 276 330 390
#     4  12  22  36  60  90 126 176 218 248 314 394
#
# _framework density 23.393149000000001
#
# number of rings (size 3 to 8) (size 9 to 14) (size 15 to 20)
#    0.000    0.889    2.222    5.333    0.000    1.778 
#    0.000    2.222    0.000    0.000    0.000    0.000 
#    0.000    0.000    0.000    0.000    0.000    0.000 
#
# Total GULP energy -100734.731764 kJ/mol
# GULP energy per Si atom -5596.373987 kJ/mol
# Density = 2.333991 g / cm^3
# Si number density = 23.393149 Si / 1000 Ang^3
#
#
#
# Elastic Constant Matrix: (Units=GPa)
#
#
# Indices 1 2 3 4 5 6 
#
# 1 53.2488 24.0808 33.3927 0.0000 0.0000 0.0000
# 2 24.0808 76.3304 18.8945 0.0000 0.0000 0.0000
# 3 33.3927 18.8945 97.1097 0.0000 0.0000 0.0000
# 4 0.0000 0.0000 0.0000 50.6503 0.0000 0.0000
# 5 0.0000 0.0000 0.0000 0.0000 23.2663 0.0000
# 6 0.0000 0.0000 0.0000 0.0000 0.0000 16.1907
#
#
#
# Elastic Compliance Matrix: (Units=1/GPa)
#
#
# Indices 1 2 3 4 5 6 
#
# 1 0.026659 -0.006452 -0.007912 0.000000 0.000000 0.000000
# 2 -0.006452 0.015325 -0.000763 0.000000 0.000000 0.000000
# 3 -0.007912 -0.000763 0.013167 0.000000 0.000000 0.000000
# 4 0.000000 0.000000 0.000000 0.019743 0.000000 0.000000
# 5 0.000000 0.000000 0.000000 0.000000 0.042981 0.000000
# 6 0.000000 0.000000 0.000000 0.000000 0.000000 0.061764
#
#
# Mechanical properties :
#
#
# Convention : Reuss Voigt Hill
#
# Bulk Modulus (GPa) = 40.16519 42.15831 41.16175
# Shear Modulus (GPa) = 22.91560 28.04284 25.47922
#
# Velocity S-wave (km/s) = 3.13323 3.46607 3.30384
# Velocity P-wave (km/s) = 5.50422 5.83772 5.67342
#
# Compressibility (1/GPa) = 0.02489718
#
# Stress axis : x y z
#
# Youngs Moduli (GPa) = 37.51065 65.25140 75.94905
#
# Poissons Ratio (x) = 0.42100 0.60089
# Poissons Ratio (y) = 0.24202 0.05797
# Poissons Ratio (z) = 0.29678 0.04980
#
# Static dielectric constant tensor:
#      x y z
#    x 1.852440 0.000000 0.000000 
#    y 0.000000 1.894040 0.000000 
#    z 0.000000 0.000000 1.829820 
# 
# From -- ./inp_files/1949.got.cif
#   From: 2010.05.17/outbox.cif.g08.bks.cpg/sg46_1_cif.got.tgz:1949.got - 2010.06.03 19:58:25.
