data_PCOD9380846
_publ_section_title
;
Structure prediction by ZEFSAII (Michael W. Deem and Ramdas Pophale) SiO2 
 PCOD9380846
Probable space group: I M A 2
;
_chemical_formula_sum "Si O2"
_cell_formula_units_Z 64
_cell_length_a 21.856311
_cell_length_b 9.405766
_cell_length_c 16.088840
_cell_angle_alpha 90.000000
_cell_angle_beta 90.000000
_cell_angle_gamma 90.000000
_cell_volume 3307.468864
_symmetry_space_group_name_H-M "I M A 2"
_symmetry_group_IT_number 46
_symmetry_cell_setting 'orthorhombic'
loop_
_space_group_symop_operation_xyz
x,y,z
-x,-y,z
1/2-x,y,z
1/2+x,-y,z
1/2+x,1/2+y,1/2+z
1/2-x,1/2-y,1/2+z
-x,1/2+y,1/2+z
x,1/2-y,1/2+z
loop_
_atom_site_type_symbol
_atom_site_label
_atom_site_fract_x
_atom_site_fract_y
_atom_site_fract_z
Si Si1 0.321443 0.019070 0.720130
Si Si2 0.383918 0.206928 0.577406
Si Si3 0.096836 0.491319 0.379726
Si Si4 0.822131 0.001171 0.036382
Si Si5 0.061209 0.949306 0.504158
Si Si6 0.492683 0.333469 0.688321
Si Si7 0.125267 0.755357 0.634787
Si Si8 0.999482 0.260458 0.370500
O O1 0.250000 0.045000 0.733682
O O2 0.348227 0.114091 0.645840
O O3 0.361363 0.048459 0.801746
O O4 0.333160 0.856710 0.690899
O O5 0.342181 0.339927 0.554136
O O6 0.444328 0.268363 0.623726
O O7 0.401574 0.097919 0.502583
O O8 0.139729 0.540470 0.454470
O O9 0.052701 0.621143 0.354982
O O10 0.054015 0.358618 0.407512
O O11 0.750000 0.012972 0.023911
O O12 0.843493 0.108478 0.108674
O O13 0.105055 0.841663 0.552306
O O14 0.031295 0.862230 0.427363
O O15 0.000000 0.000000 0.553843
O O16 0.500000 0.500000 0.671871
O O17 0.560167 0.270235 0.677427
O O18 0.476032 0.303842 0.784187
#
# Coordination Sequence:
#
# PCOD9380846 Si02
#       8
#     8   8   8   8   8   8   8   8
#     4  11  23  43  65  90 126 174 224 262 308 389
#     4  11  24  40  67  96 124 168 215 265 325 386
#     4  11  23  39  67  94 125 171 219 261 322 387
#     4  12  25  44  63  92 132 173 218 266 318 389
#     4  11  21  37  62  91 129 159 199 255 332 379
#     4  12  22  38  65  97 130 157 209 270 333 386
#     4  11  23  38  65  95 121 167 213 266 323 376
#     4  11  23  39  62  99 132 161 203 274 332 386
#
# _framework density 19.350142999999999
#
# number of rings (size 3 to 8) (size 9 to 14) (size 15 to 20)
#    0.000    0.750    6.250    2.250    0.000    0.000 
#    0.000    0.000    0.000    0.000    0.000    0.000 
#    0.000    0.000    0.000    0.000    0.000    0.000 
#
# Total GULP energy -178593.352877 kJ/mol
# GULP energy per Si atom -5581.042277 kJ/mol
# Density = 1.930610 g / cm^3
# Si number density = 19.350143 Si / 1000 Ang^3
#
#
#
# Elastic Constant Matrix: (Units=GPa)
#
#
# Indices 1 2 3 4 5 6 
#
# 1 111.6422 24.6671 10.4470 0.0000 0.0000 0.0000
# 2 24.6671 108.6217 14.1427 0.0000 0.0000 0.0000
# 3 10.4470 14.1427 47.9832 0.0000 0.0000 0.0000
# 4 0.0000 0.0000 0.0000 30.3648 0.0000 0.0000
# 5 0.0000 0.0000 0.0000 0.0000 11.0735 0.0000
# 6 0.0000 0.0000 0.0000 0.0000 0.0000 23.7568
#
#
#
# Elastic Compliance Matrix: (Units=1/GPa)
#
#
# Indices 1 2 3 4 5 6 
#
# 1 0.009532 -0.001970 -0.001495 0.000000 0.000000 0.000000
# 2 -0.001970 0.009981 -0.002513 0.000000 0.000000 0.000000
# 3 -0.001495 -0.002513 0.021907 0.000000 0.000000 0.000000
# 4 0.000000 0.000000 0.000000 0.032933 0.000000 0.000000
# 5 0.000000 0.000000 0.000000 0.000000 0.090306 0.000000
# 6 0.000000 0.000000 0.000000 0.000000 0.000000 0.042093
#
#
# Mechanical properties :
#
#
# Convention : Reuss Voigt Hill
#
# Bulk Modulus (GPa) = 33.93912 40.75119 37.34516
# Shear Modulus (GPa) = 21.87908 27.63837 24.75872
#
# Velocity S-wave (km/s) = 3.36623 3.78342 3.58091
# Velocity P-wave (km/s) = 5.71718 6.33966 6.03645
#
# Compressibility (1/GPa) = 0.02946452
#
# Stress axis : x y z
#
# Youngs Moduli (GPa) = 104.90595 100.19201 45.64815
#
# Poissons Ratio (x) = 0.19739 0.06823
# Poissons Ratio (y) = 0.20668 0.11471
# Poissons Ratio (z) = 0.15681 0.25177
#
# Static dielectric constant tensor:
#      x y z
#    x 1.651130 0.000000 0.000000 
#    y 0.000000 1.705420 0.000000 
#    z 0.000000 0.000000 1.704120 
# 
# From -- ./inp_files/20219.got.cif
#   From: 2010.05.17/outbox.cif.g08.bks.cpg/sg46_11_cif.got.tgz:20219.got - 2010.06.03 19:58:25.
