data_PCOD9380645
_publ_section_title
;
Structure prediction by ZEFSAII (Michael W. Deem and Ramdas Pophale) SiO2 
 PCOD9380645
Probable space group: I M A 2
;
_chemical_formula_sum "Si O2"
_cell_formula_units_Z 24
_cell_length_a 12.858378
_cell_length_b 10.467965
_cell_length_c 6.895518
_cell_angle_alpha 90.000000
_cell_angle_beta 90.000000
_cell_angle_gamma 90.000000
_cell_volume 928.143969
_symmetry_space_group_name_H-M "I M A 2"
_symmetry_group_IT_number 46
_symmetry_cell_setting 'orthorhombic'
loop_
_space_group_symop_operation_xyz
x,y,z
-x,-y,z
1/2-x,y,z
1/2+x,-y,z
1/2+x,1/2+y,1/2+z
1/2-x,1/2-y,1/2+z
-x,1/2+y,1/2+z
x,1/2-y,1/2+z
loop_
_atom_site_type_symbol
_atom_site_label
_atom_site_fract_x
_atom_site_fract_y
_atom_site_fract_z
Si Si1 0.870631 0.069020 0.810880
Si Si2 0.633734 0.914191 0.177289
Si Si3 0.432409 0.656219 0.902359
O O1 0.750000 0.051085 0.756494
O O2 0.882733 0.205023 0.918473
O O3 0.933068 0.097348 0.616037
O O4 0.895115 0.951399 0.955579
O O5 0.750000 0.858918 0.185049
O O6 0.632422 0.052899 0.280125
O O7 0.544509 0.839935 0.294242
#
# Coordination Sequence:
#
# PCOD9380645 Si02
#       3
#     8   8   8
#     4  11  21  40  70  99 133 180 229 285 335 404
#     4  10  23  41  63  98 138 175 223 279 343 401
#     4  11  22  38  68  98 133 174 232 280 337 400
#
# _framework density 25.858055
#
# number of rings (size 3 to 8) (size 9 to 14) (size 15 to 20)
#    0.000    1.333    3.333    3.000    0.000    5.333 
#    0.000    1.667    0.000    2.000    0.000    0.000 
#    0.000    0.000    0.000    0.000    0.000    0.000 
#
# Total GULP energy -67134.110181 kJ/mol
# GULP energy per Si atom -5594.509182 kJ/mol
# Density = 2.579920 g / cm^3
# Si number density = 25.858055 Si / 1000 Ang^3
#
#
#
# Elastic Constant Matrix: (Units=GPa)
#
#
# Indices 1 2 3 4 5 6 
#
# 1 162.5193 3.5611 34.8346 0.0000 0.0000 0.0000
# 2 3.5611 58.9253 19.9545 0.0000 0.0000 0.0000
# 3 34.8346 19.9545 189.3914 0.0000 0.0000 0.0000
# 4 0.0000 0.0000 0.0000 21.7539 0.0000 0.0000
# 5 0.0000 0.0000 0.0000 0.0000 29.1252 0.0000
# 6 0.0000 0.0000 0.0000 0.0000 0.0000 17.4191
#
#
#
# Elastic Compliance Matrix: (Units=1/GPa)
#
#
# Indices 1 2 3 4 5 6 
#
# 1 0.006406 0.000012 -0.001179 0.000000 0.000000 0.000000
# 2 0.000012 0.017599 -0.001856 0.000000 0.000000 0.000000
# 3 -0.001179 -0.001856 0.005693 0.000000 0.000000 0.000000
# 4 0.000000 0.000000 0.000000 0.045969 0.000000 0.000000
# 5 0.000000 0.000000 0.000000 0.000000 0.034335 0.000000
# 6 0.000000 0.000000 0.000000 0.000000 0.000000 0.057408
#
#
# Mechanical properties :
#
#
# Convention : Reuss Voigt Hill
#
# Bulk Modulus (GPa) = 42.28414 58.61515 50.44964
# Shear Modulus (GPa) = 27.57270 37.15870 32.36570
#
# Velocity S-wave (km/s) = 3.26898 3.79493 3.54173
# Velocity P-wave (km/s) = 5.53500 6.47450 6.02310
#
# Compressibility (1/GPa) = 0.02364953
#
# Stress axis : x y z
#
# Youngs Moduli (GPa) = 156.11197 56.82282 175.66628
#
# Poissons Ratio (x) = -0.00070 0.20720
# Poissons Ratio (y) = -0.00192 0.32612
# Poissons Ratio (z) = 0.18413 0.10549
#
# Static dielectric constant tensor:
#      x y z
#    x 2.091710 0.000000 0.000000 
#    y 0.000000 2.008480 0.000000 
#    z 0.000000 0.000000 2.100260 
# 
# From -- ./inp_files/1012.got.cif
#   From: 2010.05.17/outbox.cif.g08.bks.cpg/sg46_1_cif.got.tgz:1012.got - 2010.06.03 19:58:25.
