data_PCOD9380195
_publ_section_title
;
Structure prediction by ZEFSAII (Michael W. Deem and Ramdas Pophale) SiO2 
 PCOD9380195
Probable space group: I M A 2
;
_chemical_formula_sum "Si O2"
_cell_formula_units_Z 64
_cell_length_a 13.678892
_cell_length_b 9.946967
_cell_length_c 22.525076
_cell_angle_alpha 90.000000
_cell_angle_beta 90.000000
_cell_angle_gamma 90.000000
_cell_volume 3064.840393
_symmetry_space_group_name_H-M "I M A 2"
_symmetry_group_IT_number 46
_symmetry_cell_setting 'orthorhombic'
loop_
_space_group_symop_operation_xyz
x,y,z
-x,-y,z
1/2-x,y,z
1/2+x,-y,z
1/2+x,1/2+y,1/2+z
1/2-x,1/2-y,1/2+z
-x,1/2+y,1/2+z
x,1/2-y,1/2+z
loop_
_atom_site_type_symbol
_atom_site_label
_atom_site_fract_x
_atom_site_fract_y
_atom_site_fract_z
Si Si1 0.981919 0.645140 0.013280
Si Si2 0.369037 0.425089 0.326054
Si Si3 0.132875 0.393964 0.461114
Si Si4 0.867597 0.793026 0.235442
Si Si5 0.633098 0.137256 0.052394
Si Si6 0.130414 0.578276 0.688014
Si Si7 0.368444 0.862828 0.728028
Si Si8 0.866383 0.923913 0.632313
O O1 0.922321 0.606668 0.072522
O O2 0.000000 0.500000 0.983066
O O3 0.078795 0.727660 0.031781
O O4 0.919187 0.755177 0.977982
O O5 0.250000 0.424768 0.324383
O O6 0.396158 0.434224 0.394447
O O7 0.401845 0.288047 0.293403
O O8 0.398994 0.550476 0.284776
O O9 0.250000 0.374019 0.462867
O O10 0.111670 0.513743 0.507674
O O11 0.750000 0.804247 0.242410
O O12 0.882832 0.694771 0.179591
O O13 0.902117 0.940205 0.217793
O O14 0.750000 0.158613 0.052593
O O15 0.602299 0.095909 0.119052
O O16 0.250000 0.577010 0.687758
O O17 0.098298 0.710432 0.723623
O O18 0.250000 0.862998 0.728613
O O19 0.395710 0.941316 0.667707
O O20 0.750000 0.931284 0.620647
#
# Coordination Sequence:
#
# PCOD9380195 Si02
#       8
#     8   8   8   8   8   8   8   8
#     4  12  24  36  56  84 116 149 188 239 292 340
#     4   8  15  30  52  77 104 141 186 225 268 329
#     4  10  21  39  61  82 110 152 198 236 278 338
#     4   8  14  26  50  82 111 140 177 221 270 328
#     4  10  22  39  59  84 115 153 194 235 279 336
#     4   9  15  26  48  80 113 139 172 225 282 328
#     4   8  14  26  49  80 113 146 179 219 270 331
#     4   9  17  32  54  81 114 150 184 218 269 340
#
# _framework density 20.882000999999999
#
# number of rings (size 3 to 8) (size 9 to 14) (size 15 to 20)
#    0.000    2.750    0.000    3.750    0.000    4.000 
#    0.000    1.250    0.000   19.500    0.000    0.000 
#    0.000    0.000    0.000    0.000    0.000    0.000 
#
# Total GULP energy -178901.022102 kJ/mol
# GULP energy per Si atom -5590.656941 kJ/mol
# Density = 2.083447 g / cm^3
# Si number density = 20.882001 Si / 1000 Ang^3
#
#
#
# Elastic Constant Matrix: (Units=GPa)
#
#
# Indices 1 2 3 4 5 6 
#
# 1 96.3380 42.2399 19.6279 0.0000 0.0000 0.0000
# 2 42.2399 198.2171 69.2590 0.0000 0.0000 0.0000
# 3 19.6279 69.2590 122.1544 0.0000 0.0000 0.0000
# 4 0.0000 0.0000 0.0000 15.7304 0.0000 0.0000
# 5 0.0000 0.0000 0.0000 0.0000 -3.6977 0.0000
# 6 0.0000 0.0000 0.0000 0.0000 0.0000 32.5430
#
#
#
# Elastic Compliance Matrix: (Units=1/GPa)
#
#
# Indices 1 2 3 4 5 6 
#
# 1 0.011482 -0.002247 -0.000571 0.000000 0.000000 0.000000
# 2 -0.002247 0.006731 -0.003455 0.000000 0.000000 0.000000
# 3 -0.000571 -0.003455 0.010237 0.000000 0.000000 0.000000
# 4 0.000000 0.000000 0.000000 0.063571 0.000000 0.000000
# 5 0.000000 0.000000 0.000000 0.000000 -0.270441 0.000000
# 6 0.000000 0.000000 0.000000 0.000000 0.000000 0.030729
#
#
# Mechanical properties :
#
#
# Convention : Reuss Voigt Hill
#
# Bulk Modulus (GPa) = 62.87985 75.44034 69.16010
# Shear Modulus (GPa) = -38.50781 27.95400 -5.27691
#
# Velocity S-wave (km/s) = -4.29892 3.66275 -1.59138
# Velocity P-wave (km/s) = 2.35296 7.35480 5.46029
#
# Compressibility (1/GPa) = 0.01590335
#
# Stress axis : x y z
#
# Youngs Moduli (GPa) = 87.09464 148.56166 97.68319
#
# Poissons Ratio (x) = 0.33387 0.05575
# Poissons Ratio (y) = 0.19573 0.33753
# Poissons Ratio (z) = 0.04971 0.51333
#
# Static dielectric constant tensor:
#      x y z
#    x 1.821410 0.000000 0.000000 
#    y 0.000000 1.742500 0.000000 
#    z 0.000000 0.000000 1.697650 
# 
# From -- ./inp_files/23679.got.cif
#   From: 2010.05.17/outbox.cif.g08.bks.cpg/sg46_12_cif.got.tgz:23679.got - 2010.06.03 19:58:25.
