data_PCOD9380981
_publ_section_title
;
Structure prediction by ZEFSAII (Michael W. Deem and Ramdas Pophale) SiO2 
 PCOD9380981
Probable space group: I M A 2
;
_chemical_formula_sum "Si O2"
_cell_formula_units_Z 48
_cell_length_a 14.747698
_cell_length_b 9.235927
_cell_length_c 15.637657
_cell_angle_alpha 90.000000
_cell_angle_beta 90.000000
_cell_angle_gamma 90.000000
_cell_volume 2129.984339
_symmetry_space_group_name_H-M "I M A 2"
_symmetry_group_IT_number 46
_symmetry_cell_setting 'orthorhombic'
loop_
_space_group_symop_operation_xyz
x,y,z
-x,-y,z
1/2-x,y,z
1/2+x,-y,z
1/2+x,1/2+y,1/2+z
1/2-x,1/2-y,1/2+z
-x,1/2+y,1/2+z
x,1/2-y,1/2+z
loop_
_atom_site_type_symbol
_atom_site_label
_atom_site_fract_x
_atom_site_fract_y
_atom_site_fract_z
Si Si1 0.399439 0.560886 0.195990
Si Si2 0.250000 0.008375 0.187609
Si Si3 0.250000 0.330107 0.151977
Si Si4 0.072426 0.345966 0.456088
Si Si5 0.750000 0.682692 0.961105
Si Si6 0.609583 0.362019 0.382628
Si Si7 0.750000 0.119984 0.381634
Si Si8 0.937191 0.120368 0.122561
O O1 0.500000 0.500000 0.200619
O O2 0.335828 0.437084 0.156927
O O3 0.360315 0.585275 0.290508
O O4 0.409951 0.718876 0.153823
O O5 0.250000 0.929914 0.281747
O O6 0.161168 0.959412 0.133725
O O7 0.250000 0.182720 0.207038
O O8 0.250000 0.264867 0.058100
O O9 0.152641 0.239523 0.432425
O O10 0.117478 0.505023 0.448192
O O11 0.997231 0.331598 0.382318
O O12 0.009441 0.342982 0.542365
O O13 0.750000 0.514436 0.944032
O O14 0.664342 0.220030 0.403153
O O15 0.000000 0.000000 0.171222
#
# Coordination Sequence:
#
# PCOD9380981 Si02
#       8
#     8   4   4   8   4   8   4   8
#     4  12  24  46  73 106 153 194 254 312 378 463
#     4  12  27  50  76 115 150 199 260 312 403 453
#     4  12  30  46  73 110 154 204 248 320 387 461
#     4  11  25  48  79 107 149 202 251 311 378 475
#     4  12  29  48  71 113 151 198 246 313 394 453
#     4  11  24  48  74 110 141 200 252 305 387 449
#     4  12  28  48  76 112 157 195 246 335 378 461
#     4  12  25  47  78 113 148 200 255 318 380 461
#
# _framework density 22.535378000000001
#
# number of rings (size 3 to 8) (size 9 to 14) (size 15 to 20)
#    0.000    0.333    5.000    4.500    4.667    2.667 
#    0.000    0.000    0.000    0.000    0.000    0.000 
#    0.000    0.000    0.000    0.000    0.000    0.000 
#
# Total GULP energy -133660.924133 kJ/mol
# GULP energy per Si atom -5569.205172 kJ/mol
# Density = 2.248409 g / cm^3
# Si number density = 22.535378 Si / 1000 Ang^3
#
#
#
# Elastic Constant Matrix: (Units=GPa)
#
#
# Indices 1 2 3 4 5 6 
#
# 1 150.4776 74.3866 3.6618 0.0000 0.0000 0.0000
# 2 74.3866 179.9997 5.3747 0.0000 0.0000 0.0000
# 3 3.6618 5.3747 39.3821 0.0000 0.0000 0.0000
# 4 0.0000 0.0000 0.0000 32.5493 0.0000 0.0000
# 5 0.0000 0.0000 0.0000 0.0000 25.3690 0.0000
# 6 0.0000 0.0000 0.0000 0.0000 0.0000 731.8681
#
#
#
# Elastic Compliance Matrix: (Units=1/GPa)
#
#
# Indices 1 2 3 4 5 6 
#
# 1 0.008355 -0.003444 -0.000307 0.000000 0.000000 0.000000
# 2 -0.003444 0.006998 -0.000635 0.000000 0.000000 0.000000
# 3 -0.000307 -0.000635 0.025507 0.000000 0.000000 0.000000
# 4 0.000000 0.000000 0.000000 0.030723 0.000000 0.000000
# 5 0.000000 0.000000 0.000000 0.000000 0.039418 0.000000
# 6 0.000000 0.000000 0.000000 0.000000 0.000000 0.001366
#
#
# Mechanical properties :
#
#
# Convention : Reuss Voigt Hill
#
# Bulk Modulus (GPa) = 31.16282 59.63395 45.39838
# Shear Modulus (GPa) = 37.92617 177.05304 107.48960
#
# Velocity S-wave (km/s) = 4.10684 8.87340 6.91388
# Velocity P-wave (km/s) = 6.02882 11.46747 9.16104
#
# Compressibility (1/GPa) = 0.03208952
#
# Stress axis : x y z
#
# Youngs Moduli (GPa) = 119.68368 142.90427 39.20426
#
# Poissons Ratio (x) = 0.49213 0.01203
# Poissons Ratio (y) = 0.41216 0.02489
# Poissons Ratio (z) = 0.03673 0.09072
#
# Static dielectric constant tensor:
#      x y z
#    x 1.862720 0.000000 0.000000 
#    y 0.000000 1.870940 0.000000 
#    z 0.000000 0.000000 1.905830 
# 
# From -- ./inp_files/19482.got.cif
#   From: 2010.05.17/outbox.cif.g08.bks.cpg/sg46_10_cif.got.tgz:19482.got - 2010.06.03 19:58:25.
