data_PCOD9380841
_publ_section_title
;
Structure prediction by ZEFSAII (Michael W. Deem and Ramdas Pophale) SiO2 
 PCOD9380841
Probable space group: I M A 2
;
_chemical_formula_sum "Si O2"
_cell_formula_units_Z 48
_cell_length_a 17.377474
_cell_length_b 11.918268
_cell_length_c 12.345086
_cell_angle_alpha 90.000000
_cell_angle_beta 90.000000
_cell_angle_gamma 90.000000
_cell_volume 2556.783259
_symmetry_space_group_name_H-M "I M A 2"
_symmetry_group_IT_number 46
_symmetry_cell_setting 'orthorhombic'
loop_
_space_group_symop_operation_xyz
x,y,z
-x,-y,z
1/2-x,y,z
1/2+x,-y,z
1/2+x,1/2+y,1/2+z
1/2-x,1/2-y,1/2+z
-x,1/2+y,1/2+z
x,1/2-y,1/2+z
loop_
_atom_site_type_symbol
_atom_site_label
_atom_site_fract_x
_atom_site_fract_y
_atom_site_fract_z
Si Si1 0.091871 0.029129 0.600670
Si Si2 0.593128 0.010367 0.253451
Si Si3 0.580354 0.813497 0.412737
Si Si4 0.339584 0.592981 0.527421
Si Si5 0.913659 0.945305 0.849682
Si Si6 0.896529 0.165932 0.445649
O O1 0.110449 0.137494 0.527037
O O2 0.111383 0.043514 0.725157
O O3 0.126459 0.923134 0.537864
O O4 0.000000 0.000000 0.599388
O O5 0.620185 0.039683 0.133244
O O6 0.625901 0.110222 0.330642
O O7 0.500000 0.000000 0.250024
O O8 0.612327 0.894346 0.317060
O O9 0.588974 0.684151 0.384715
O O10 0.488639 0.830126 0.428554
O O11 0.250000 0.602113 0.550574
O O12 0.357842 0.512018 0.427938
O O13 0.369835 0.713775 0.486648
O O14 0.000000 0.000000 0.860351
#
# Coordination Sequence:
#
# PCOD9380841 Si02
#       6
#     8   8   8   8   8   8
#     4   8  18  33  57  89 117 144 186 244 302 352
#     4   9  21  39  64  91 116 157 204 250 302 359
#     4   9  18  36  63  90 114 148 197 252 301 350
#     4  12  26  38  56  88 125 161 199 247 308 370
#     4  11  21  35  60  90 116 152 199 251 299 353
#     4   9  19  38  58  87 121 148 191 247 305 361
#
# _framework density 18.773589999999999
#
# number of rings (size 3 to 8) (size 9 to 14) (size 15 to 20)
#    0.000    2.333    1.667    2.500    4.667    3.333 
#    0.000    0.833    0.000    2.000    0.000    0.000 
#    0.000    0.000    0.000    0.000    0.000    0.000 
#
# Total GULP energy -133624.196176 kJ/mol
# GULP energy per Si atom -5567.674841 kJ/mol
# Density = 1.873086 g / cm^3
# Si number density = 18.773590 Si / 1000 Ang^3
#
#
#
# Elastic Constant Matrix: (Units=GPa)
#
#
# Indices 1 2 3 4 5 6 
#
# 1 26.8052 15.2864 24.4800 0.0000 0.0000 0.0000
# 2 15.2864 149.6611 100.4516 0.0000 0.0000 0.0000
# 3 24.4800 100.4516 175.5016 0.0000 0.0000 0.0000
# 4 0.0000 0.0000 0.0000 9.0835 0.0000 0.0000
# 5 0.0000 0.0000 0.0000 0.0000 -11.8254 0.0000
# 6 0.0000 0.0000 0.0000 0.0000 0.0000 0.4117
#
#
#
# Elastic Compliance Matrix: (Units=1/GPa)
#
#
# Indices 1 2 3 4 5 6 
#
# 1 0.042785 -0.000592 -0.005629 0.000000 0.000000 0.000000
# 2 -0.000592 0.010858 -0.006132 0.000000 0.000000 0.000000
# 3 -0.005629 -0.006132 0.009993 0.000000 0.000000 0.000000
# 4 0.000000 0.000000 0.000000 0.110090 0.000000 0.000000
# 5 0.000000 0.000000 0.000000 0.000000 -0.084564 0.000000
# 6 0.000000 0.000000 0.000000 0.000000 0.000000 2.428747
#
#
# Mechanical properties :
#
#
# Convention : Reuss Voigt Hill
#
# Bulk Modulus (GPa) = 25.68760 70.26711 47.97735
# Shear Modulus (GPa) = 1.95649 13.65062 7.80356
#
# Velocity S-wave (km/s) = 1.02197 2.69944 2.04100
# Velocity P-wave (km/s) = 3.88653 6.87211 5.58261
#
# Compressibility (1/GPa) = 0.03892929
#
# Stress axis : x y z
#
# Youngs Moduli (GPa) = 23.37295 92.09622 100.06903
#
# Poissons Ratio (x) = 0.05450 0.56330
# Poissons Ratio (y) = 0.01383 0.61366
# Poissons Ratio (z) = 0.13157 0.56477
#
# Static dielectric constant tensor:
#      x y z
#    x 1.647170 0.000000 0.000000 
#    y 0.000000 1.674280 0.000000 
#    z 0.000000 0.000000 1.651770 
# 
# From -- ./inp_files/11787.got.cif
#   From: 2010.05.17/outbox.cif.g08.bks.cpg/sg46_6_cif.got.tgz:11787.got - 2010.06.03 19:58:25.
