data_PCOD9380888
_publ_section_title
;
Structure prediction by ZEFSAII (Michael W. Deem and Ramdas Pophale) SiO2 
 PCOD9380888
Probable space group: I M A 2
;
_chemical_formula_sum "Si O2"
_cell_formula_units_Z 48
_cell_length_a 16.871817
_cell_length_b 13.433398
_cell_length_c 9.345979
_cell_angle_alpha 90.000000
_cell_angle_beta 90.000000
_cell_angle_gamma 90.000000
_cell_volume 2118.227193
_symmetry_space_group_name_H-M "I M A 2"
_symmetry_group_IT_number 46
_symmetry_cell_setting 'orthorhombic'
loop_
_space_group_symop_operation_xyz
x,y,z
-x,-y,z
1/2-x,y,z
1/2+x,-y,z
1/2+x,1/2+y,1/2+z
1/2-x,1/2-y,1/2+z
-x,1/2+y,1/2+z
x,1/2-y,1/2+z
loop_
_atom_site_type_symbol
_atom_site_label
_atom_site_fract_x
_atom_site_fract_y
_atom_site_fract_z
Si Si1 0.156098 0.310248 0.162760
Si Si2 0.159670 0.739708 0.189210
Si Si3 0.061258 0.422174 0.401236
Si Si4 0.552819 0.262692 0.941888
Si Si5 0.092695 0.132446 0.349064
Si Si6 0.158172 0.522201 0.657924
O O1 0.250000 0.312342 0.162914
O O2 0.120192 0.385104 0.279430
O O3 0.127097 0.204479 0.225093
O O4 0.126511 0.335638 0.003718
O O5 0.250000 0.704137 0.169182
O O6 0.127264 0.726129 0.348540
O O7 0.157776 0.858537 0.160756
O O8 0.091707 0.696860 0.086165
O O9 0.107337 0.477505 0.528056
O O10 0.000000 0.500000 0.336046
O O11 0.008557 0.329082 0.457972
O O12 0.500603 0.345071 0.860178
O O13 0.120789 0.024265 0.301644
O O14 0.250000 0.490422 0.646387
#
# Coordination Sequence:
#
# PCOD9380888 Si02
#       6
#     8   8   8   8   8   8
#     4  11  22  39  63  95 134 173 211 262 328 400
#     4  11  24  43  66  92 128 171 219 267 319 389
#     4  11  22  41  65  93 127 166 221 270 321 383
#     4  11  22  41  64  93 124 167 217 260 324 380
#     4  11  23  39  68  98 134 168 213 270 327 399
#     4  11  23  42  69 100 130 169 215 271 331 387
#
# _framework density 22.660457000000001
#
# number of rings (size 3 to 8) (size 9 to 14) (size 15 to 20)
#    0.000    1.000    1.667    7.500    0.000    0.000 
#    6.000    0.000    0.000    0.000    0.000    0.000 
#    0.000    0.000    0.000    0.000    0.000    0.000 
#
# Total GULP energy -134309.522385 kJ/mol
# GULP energy per Si atom -5596.230099 kJ/mol
# Density = 2.260888 g / cm^3
# Si number density = 22.660457 Si / 1000 Ang^3
#
#
#
# Elastic Constant Matrix: (Units=GPa)
#
#
# Indices 1 2 3 4 5 6 
#
# 1 128.9700 32.5742 20.1160 0.0000 0.0000 0.0000
# 2 32.5742 38.5363 8.5265 0.0000 0.0000 0.0000
# 3 20.1160 8.5265 93.5887 0.0000 0.0000 0.0000
# 4 0.0000 0.0000 0.0000 24.2683 0.0000 0.0000
# 5 0.0000 0.0000 0.0000 0.0000 -19.7952 0.0000
# 6 0.0000 0.0000 0.0000 0.0000 0.0000 25.6870
#
#
#
# Elastic Compliance Matrix: (Units=1/GPa)
#
#
# Indices 1 2 3 4 5 6 
#
# 1 0.010038 -0.008173 -0.001413 0.000000 0.000000 0.000000
# 2 -0.008173 0.033137 -0.001262 0.000000 0.000000 0.000000
# 3 -0.001413 -0.001262 0.011104 0.000000 0.000000 0.000000
# 4 0.000000 0.000000 0.000000 0.041206 0.000000 0.000000
# 5 0.000000 0.000000 0.000000 0.000000 -0.050517 0.000000
# 6 0.000000 0.000000 0.000000 0.000000 0.000000 0.038930
#
#
# Mechanical properties :
#
#
# Convention : Reuss Voigt Hill
#
# Bulk Modulus (GPa) = 30.69075 42.61427 36.65251
# Shear Modulus (GPa) = 42.93494 19.35723 31.14609
#
# Velocity S-wave (km/s) = 4.35755 2.92589 3.71140
# Velocity P-wave (km/s) = 6.23625 5.50099 5.88012
#
# Compressibility (1/GPa) = 0.03258311
#
# Stress axis : x y z
#
# Youngs Moduli (GPa) = 99.61835 30.17768 90.05937
#
# Poissons Ratio (x) = 0.24663 0.12726
# Poissons Ratio (y) = 0.81414 0.11369
# Poissons Ratio (z) = 0.14077 0.03810
#
# Static dielectric constant tensor:
#      x y z
#    x 1.876770 0.000000 0.000000 
#    y 0.000000 1.900430 0.000000 
#    z 0.000000 0.000000 1.826270 
# 
# From -- ./inp_files/6613.got.cif
#   From: 2010.05.17/outbox.cif.g08.bks.cpg/sg46_4_cif.got.tgz:6613.got - 2010.06.03 19:58:25.
