data_PCOD9380389
_publ_section_title
;
Structure prediction by ZEFSAII (Michael W. Deem and Ramdas Pophale) SiO2 
 PCOD9380389
Probable space group: I M A 2
;
_chemical_formula_sum "Si O2"
_cell_formula_units_Z 48
_cell_length_a 8.553641
_cell_length_b 9.330205
_cell_length_c 31.571617
_cell_angle_alpha 90.000000
_cell_angle_beta 90.000000
_cell_angle_gamma 90.000000
_cell_volume 2519.643111
_symmetry_space_group_name_H-M "I M A 2"
_symmetry_group_IT_number 46
_symmetry_cell_setting 'orthorhombic'
loop_
_space_group_symop_operation_xyz
x,y,z
-x,-y,z
1/2-x,y,z
1/2+x,-y,z
1/2+x,1/2+y,1/2+z
1/2-x,1/2-y,1/2+z
-x,1/2+y,1/2+z
x,1/2-y,1/2+z
loop_
_atom_site_type_symbol
_atom_site_label
_atom_site_fract_x
_atom_site_fract_y
_atom_site_fract_z
Si Si1 0.438627 0.339825 0.195940
Si Si2 0.561020 0.659880 0.615506
Si Si3 0.938094 0.839207 0.438715
Si Si4 0.061935 0.161648 0.278924
Si Si5 0.561425 0.840281 0.019737
Si Si6 0.063227 0.838388 0.859035
O O1 0.500000 0.500000 0.200891
O O2 0.250000 0.343970 0.195494
O O3 0.492343 0.268163 0.151910
O O4 0.486060 0.240750 0.235480
O O5 0.500000 0.500000 0.624347
O O6 0.750000 0.656340 0.616206
O O7 0.511130 0.698796 0.567600
O O8 0.750000 0.840212 0.437016
O O9 0.988730 0.769452 0.483437
O O10 0.001580 0.741326 0.400852
O O11 0.000000 0.000000 0.434385
O O12 0.250000 0.159955 0.281101
O O13 0.996673 0.250694 0.318439
O O14 0.000000 0.000000 0.279854
O O15 0.750000 0.845183 0.019374
O O16 0.500000 0.000000 0.010592
O O17 0.250000 0.840543 0.859307
O O18 0.000000 0.000000 0.857578
#
# Coordination Sequence:
#
# PCOD9380389 Si02
#       6
#     8   8   8   8   8   8
#     4  10  22  37  56  82 115 150 188 231 279 332
#     4   9  18  35  56  82 112 146 187 232 279 333
#     4  11  23  39  58  84 116 152 191 235 283 336
#     4  11  23  40  61  87 116 150 189 233 282 336
#     4   9  19  35  57  82 112 147 187 232 281 334
#     4  12  25  42  63  87 115 149 187 233 283 337
#
# _framework density 19.050315999999999
#
# number of rings (size 3 to 8) (size 9 to 14) (size 15 to 20)
#    0.000    1.667    0.000    4.500    0.000    6.667 
#    0.000    0.000    0.000    0.000    0.000    0.000 
#    0.000    0.000    0.000    0.000    0.000    0.000 
#
# Total GULP energy -134150.403948 kJ/mol
# GULP energy per Si atom -5589.600164 kJ/mol
# Density = 1.900696 g / cm^3
# Si number density = 19.050316 Si / 1000 Ang^3
#
#
#
# Elastic Constant Matrix: (Units=GPa)
#
#
# Indices 1 2 3 4 5 6 
#
# 1 56.3376 45.8943 47.1600 0.0000 0.0000 0.0000
# 2 45.8943 194.0730 124.1728 0.0000 0.0000 0.0000
# 3 47.1600 124.1728 161.5133 0.0000 0.0000 0.0000
# 4 0.0000 0.0000 0.0000 42.7074 0.0000 0.0000
# 5 0.0000 0.0000 0.0000 0.0000 -27.8407 0.0000
# 6 0.0000 0.0000 0.0000 0.0000 0.0000 38.4088
#
#
#
# Elastic Compliance Matrix: (Units=1/GPa)
#
#
# Indices 1 2 3 4 5 6 
#
# 1 0.024024 -0.002348 -0.005210 0.000000 0.000000 0.000000
# 2 -0.002348 0.010371 -0.007287 0.000000 0.000000 0.000000
# 3 -0.005210 -0.007287 0.013315 0.000000 0.000000 0.000000
# 4 0.000000 0.000000 0.000000 0.023415 0.000000 0.000000
# 5 0.000000 0.000000 0.000000 0.000000 -0.035919 0.000000
# 6 0.000000 0.000000 0.000000 0.000000 0.000000 0.026036
#
#
# Mechanical properties :
#
#
# Convention : Reuss Voigt Hill
#
# Bulk Modulus (GPa) = 55.49474 94.04200 74.76837
# Shear Modulus (GPa) = 51.57926 23.63490 37.60708
#
# Velocity S-wave (km/s) = 5.20904 3.52612 4.44790
# Velocity P-wave (km/s) = 8.08533 8.12713 8.10626
#
# Compressibility (1/GPa) = 0.01801973
#
# Stress axis : x y z
#
# Youngs Moduli (GPa) = 41.62554 96.42611 75.10202
#
# Poissons Ratio (x) = 0.22640 0.39125
# Poissons Ratio (y) = 0.09773 0.54730
# Poissons Ratio (z) = 0.21685 0.70270
#
# Static dielectric constant tensor:
#      x y z
#    x 1.643320 0.000000 0.000000 
#    y 0.000000 1.605620 0.000000 
#    z 0.000000 0.000000 1.666960 
# 
# From -- ./inp_files/24978.got.cif
#   From: 2010.05.17/outbox.cif.g08.bks.cpg/sg46_13_cif.got.tgz:24978.got - 2010.06.03 19:58:25.
