data_PCOD9380015
_publ_section_title
;
Structure prediction by ZEFSAII (Michael W. Deem and Ramdas Pophale) SiO2 
 PCOD9380015
Probable space group: I M A 2
;
_chemical_formula_sum "Si O2"
_cell_formula_units_Z 56
_cell_length_a 13.930962
_cell_length_b 9.596611
_cell_length_c 20.678695
_cell_angle_alpha 90.000000
_cell_angle_beta 90.000000
_cell_angle_gamma 90.000000
_cell_volume 2764.535214
_symmetry_space_group_name_H-M "I M A 2"
_symmetry_group_IT_number 46
_symmetry_cell_setting 'orthorhombic'
loop_
_space_group_symop_operation_xyz
x,y,z
-x,-y,z
1/2-x,y,z
1/2+x,-y,z
1/2+x,1/2+y,1/2+z
1/2-x,1/2-y,1/2+z
-x,1/2+y,1/2+z
x,1/2-y,1/2+z
loop_
_atom_site_type_symbol
_atom_site_label
_atom_site_fract_x
_atom_site_fract_y
_atom_site_fract_z
Si Si1 0.137703 0.615856 0.549510
Si Si2 0.636810 0.646874 0.638531
Si Si3 0.969157 0.839922 0.541607
Si Si4 0.452121 0.270987 0.256267
Si Si5 0.140981 0.622445 0.408705
Si Si6 0.026152 0.159922 0.394914
Si Si7 0.360441 0.557153 0.266821
O O1 0.250000 0.657897 0.555583
O O2 0.117595 0.497076 0.601156
O O3 0.124969 0.550132 0.477394
O O4 0.064430 0.744021 0.551003
O O5 0.750000 0.654329 0.652405
O O6 0.605490 0.773347 0.591478
O O7 0.576335 0.658034 0.703834
O O8 0.930237 0.829498 0.467324
O O9 0.000000 0.000000 0.553014
O O10 0.428407 0.219911 0.329021
O O11 0.392435 0.410247 0.238092
O O12 0.562951 0.322001 0.251477
O O13 0.250000 0.673317 0.408119
O O14 0.070644 0.751137 0.402722
O O15 0.128061 0.533418 0.344415
O O16 0.000000 0.000000 0.383590
O O17 0.250000 0.591757 0.252702
#
# Coordination Sequence:
#
# PCOD9380015 Si02
#       7
#     8   8   8   8   8   8   8
#     4   9  19  37  62  90 122 159 202 250 306 364
#     4  11  24  40  58  87 124 163 208 259 304 363
#     4  10  22  39  63  90 121 161 205 253 309 368
#     4  10  21  36  59  85 122 160 198 251 308 360
#     4   8  15  31  57  86 114 148 195 246 292 356
#     4   9  19  36  56  85 118 154 195 244 304 363
#     4   9  18  34  59  89 117 152 202 250 302 363
#
# _framework density 20.256568999999999
#
# number of rings (size 3 to 8) (size 9 to 14) (size 15 to 20)
#    0.000    2.571    0.000    0.857    4.000    1.714 
#    0.000    5.000    0.000    7.714    0.000    0.000 
#    0.000    0.000    0.000    0.000    0.000    0.000 
#
# Total GULP energy -156134.247198 kJ/mol
# GULP energy per Si atom -5576.223114 kJ/mol
# Density = 2.021046 g / cm^3
# Si number density = 20.256569 Si / 1000 Ang^3
#
#
#
# Elastic Constant Matrix: (Units=GPa)
#
#
# Indices 1 2 3 4 5 6 
#
# 1 81.5325 23.2761 48.0600 0.0000 0.0000 0.0000
# 2 23.2761 79.3734 47.3070 0.0000 0.0000 0.0000
# 3 48.0600 47.3070 108.9246 0.0000 0.0000 0.0000
# 4 0.0000 0.0000 0.0000 25.6235 0.0000 0.0000
# 5 0.0000 0.0000 0.0000 0.0000 24.0909 0.0000
# 6 0.0000 0.0000 0.0000 0.0000 0.0000 9.4837
#
#
#
# Elastic Compliance Matrix: (Units=1/GPa)
#
#
# Indices 1 2 3 4 5 6 
#
# 1 0.016603 -0.000678 -0.007031 0.000000 0.000000 0.000000
# 2 -0.000678 0.017027 -0.007096 0.000000 0.000000 0.000000
# 3 -0.007031 -0.007096 0.015365 0.000000 0.000000 0.000000
# 4 0.000000 0.000000 0.000000 0.039027 0.000000 0.000000
# 5 0.000000 0.000000 0.000000 0.000000 0.041509 0.000000
# 6 0.000000 0.000000 0.000000 0.000000 0.000000 0.105444
#
#
# Mechanical properties :
#
#
# Convention : Reuss Voigt Hill
#
# Bulk Modulus (GPa) = 51.58753 56.34630 53.96691
# Shear Modulus (GPa) = 18.44706 21.91878 20.18292
#
# Velocity S-wave (km/s) = 3.02101 3.29303 3.15995
# Velocity P-wave (km/s) = 6.13930 6.50657 6.32560
#
# Compressibility (1/GPa) = 0.01938453
#
# Stress axis : x y z
#
# Youngs Moduli (GPa) = 60.22915 58.73178 65.08457
#
# Poissons Ratio (x) = 0.03984 0.45762
# Poissons Ratio (y) = 0.04085 0.46181
# Poissons Ratio (z) = 0.42348 0.41673
#
# Static dielectric constant tensor:
#      x y z
#    x 1.741970 0.000000 0.000000 
#    y 0.000000 1.694580 0.000000 
#    z 0.000000 0.000000 1.787800 
# 
# From -- ./inp_files/22026.got.cif
#   From: 2010.05.17/outbox.cif.g08.bks.cpg/sg46_12_cif.got.tgz:22026.got - 2010.06.03 19:58:25.
