data_PCOD9380079
_publ_section_title
;
Structure prediction by ZEFSAII (Michael W. Deem and Ramdas Pophale) SiO2 
 PCOD9380079
Probable space group: I M A 2
;
_chemical_formula_sum "Si O2"
_cell_formula_units_Z 60
_cell_length_a 7.912926
_cell_length_b 31.123206
_cell_length_c 11.241319
_cell_angle_alpha 90.000000
_cell_angle_beta 90.000000
_cell_angle_gamma 90.000000
_cell_volume 2768.462873
_symmetry_space_group_name_H-M "I M A 2"
_symmetry_group_IT_number 46
_symmetry_cell_setting 'orthorhombic'
loop_
_space_group_symop_operation_xyz
x,y,z
-x,-y,z
1/2-x,y,z
1/2+x,-y,z
1/2+x,1/2+y,1/2+z
1/2-x,1/2-y,1/2+z
-x,1/2+y,1/2+z
x,1/2-y,1/2+z
loop_
_atom_site_type_symbol
_atom_site_label
_atom_site_fract_x
_atom_site_fract_y
_atom_site_fract_z
Si Si1 0.055366 0.886863 0.111240
Si Si2 0.441736 0.069819 0.330970
Si Si3 0.000000 0.500000 0.975291
Si Si4 0.451760 0.567352 0.156769
Si Si5 0.049462 0.451594 0.424199
Si Si6 0.951507 0.355184 0.002099
Si Si7 0.047270 0.211951 0.143528
Si Si8 0.053583 0.264232 0.913504
O O1 0.250000 0.885948 0.148068
O O2 0.957059 0.919918 0.194607
O O3 0.987522 0.838819 0.129026
O O4 0.036621 0.910381 0.985892
O O5 0.250000 0.056092 0.357994
O O6 0.568320 0.034122 0.379531
O O7 0.487446 0.113574 0.397546
O O8 0.055969 0.463852 0.069660
O O9 0.250000 0.560373 0.133038
O O10 0.494854 0.553363 0.287740
O O11 0.488139 0.616726 0.120515
O O12 0.750000 0.552566 0.435149
O O13 0.000000 0.500000 0.465297
O O14 0.750000 0.348505 0.995865
O O15 0.040310 0.310444 0.977683
O O16 0.250000 0.218374 0.145394
O O17 0.986311 0.229560 0.275490
O O18 0.980962 0.233481 0.019375
O O19 0.250000 0.251819 0.898535
#
# Coordination Sequence:
#
# PCOD9380079 Si02
#       8
#     8   8   4   8   8   8   8   8
#     4  12  26  44  65  91 126 167 210 262 320 380
#     4  11  22  38  62  91 125 164 210 260 313 372
#     4  10  22  36  62  92 126 162 216 262 320 366
#     4  10  21  39  61  91 130 167 210 261 314 374
#     4  12  26  44  66  91 125 169 214 261 313 378
#     4  10  21  37  61  94 129 164 206 258 315 372
#     4  10  22  42  66  95 127 166 210 263 321 388
#     4  10  21  39  65  94 129 167 213 263 321 390
#
# _framework density 21.672675999999999
#
# number of rings (size 3 to 8) (size 9 to 14) (size 15 to 20)
#    0.000    1.333    2.000    3.600    0.933    5.867 
#    0.000    1.333    0.000    0.000    0.000    0.000 
#    0.000    0.000    0.000    0.000    0.000    0.000 
#
# Total GULP energy -167005.184728 kJ/mol
# GULP energy per Si atom -5566.839491 kJ/mol
# Density = 2.162335 g / cm^3
# Si number density = 21.672676 Si / 1000 Ang^3
#
#
#
# Elastic Constant Matrix: (Units=GPa)
#
#
# Indices 1 2 3 4 5 6 
#
# 1 70.2195 -1.0532 9.2539 0.0000 0.0000 -0.0002
# 2 -1.0532 86.9923 68.2132 0.0002 -0.0001 -0.0010
# 3 9.2539 68.2132 124.3816 -0.0005 0.0002 0.0037
# 4 0.0000 0.0002 -0.0005 29.2928 0.0000 0.0016
# 5 0.0000 -0.0001 0.0002 0.0000 41.0976 -0.0009
# 6 -0.0002 -0.0010 0.0037 0.0016 -0.0009 -166.4578
#
#
#
# Elastic Compliance Matrix: (Units=1/GPa)
#
#
# Indices 1 2 3 4 5 6 
#
# 1 0.014540 0.001797 -0.002067 0.000000 0.000000 0.000000
# 2 0.001797 0.020390 -0.011316 0.000000 0.000000 0.000000
# 3 -0.002067 -0.011316 0.014400 0.000000 0.000000 0.000000
# 4 0.000000 0.000000 0.000000 0.034138 0.000000 0.000000
# 5 0.000000 0.000000 0.000000 0.000000 0.024332 0.000000
# 6 0.000000 0.000000 0.000000 0.000000 0.000000 -0.006008
#
#
# Mechanical properties :
#
#
# Convention : Reuss Voigt Hill
#
# Bulk Modulus (GPa) = 38.22982 48.26901 43.24941
# Shear Modulus (GPa) = 37.40125 -5.53486 15.93320
#
# Velocity S-wave (km/s) = 4.15870 -1.59981 2.71435
# Velocity P-wave (km/s) = 6.38261 4.34829 5.46101
#
# Compressibility (1/GPa) = 0.02615759
#
# Stress axis : x y z
#
# Youngs Moduli (GPa) = 68.77363 49.04274 69.44642
#
# Poissons Ratio (x) = -0.08814 0.14357
# Poissons Ratio (y) = -0.12360 0.78587
# Poissons Ratio (z) = 0.14218 0.55498
#
# Static dielectric constant tensor:
#      x y z
#    x 1.942550 0.000000 0.000000 
#    y 0.000000 1.774070 0.000000 
#    z 0.000000 0.000000 1.824260 
# 
# From -- ./inp_files/9532.got.cif
#   From: 2010.05.17/outbox.cif.g08.bks.cpg/sg46_5_cif.got.tgz:9532.got - 2010.06.03 19:58:25.
