data_PCOD9380038
_publ_section_title
;
Structure prediction by ZEFSAII (Michael W. Deem and Ramdas Pophale) SiO2 
 PCOD9380038
Probable space group: I M A 2
;
_chemical_formula_sum "Si O2"
_cell_formula_units_Z 64
_cell_length_a 9.189381
_cell_length_b 29.468376
_cell_length_c 12.998676
_cell_angle_alpha 90.000000
_cell_angle_beta 90.000000
_cell_angle_gamma 90.000000
_cell_volume 3519.991215
_symmetry_space_group_name_H-M "I M A 2"
_symmetry_group_IT_number 46
_symmetry_cell_setting 'orthorhombic'
loop_
_space_group_symop_operation_xyz
x,y,z
-x,-y,z
1/2-x,y,z
1/2+x,-y,z
1/2+x,1/2+y,1/2+z
1/2-x,1/2-y,1/2+z
-x,1/2+y,1/2+z
x,1/2-y,1/2+z
loop_
_atom_site_type_symbol
_atom_site_label
_atom_site_fract_x
_atom_site_fract_y
_atom_site_fract_z
Si Si1 0.925410 0.950579 0.135660
Si Si2 0.423661 0.048312 0.901559
Si Si3 0.420666 0.250807 0.034671
Si Si4 0.422218 0.884093 0.297674
Si Si5 0.575328 0.874108 0.739528
Si Si6 0.086909 0.799067 0.869819
Si Si7 0.074637 0.143670 0.505074
Si Si8 0.089385 0.782065 0.219290
O O1 0.750000 0.953538 0.147248
O O2 0.994597 0.918380 0.222004
O O3 0.956517 0.934249 0.017819
O O4 0.000000 0.000000 0.144110
O O5 0.250000 0.041852 0.897496
O O6 0.463342 0.082758 0.810367
O O7 0.500000 0.000000 0.889016
O O8 0.250000 0.248793 0.017231
O O9 0.496527 0.210798 0.971173
O O10 0.465920 0.302641 0.009334
O O11 0.464762 0.239372 0.150198
O O12 0.250000 0.894934 0.303967
O O13 0.493227 0.880516 0.410994
O O14 0.435762 0.833771 0.249168
O O15 0.750000 0.867178 0.746587
O O16 0.493162 0.832211 0.791483
O O17 0.540298 0.876541 0.618215
O O18 0.250000 0.815602 0.890270
O O19 0.095412 0.749481 0.818766
O O20 0.250000 0.140948 0.490197
O O21 0.250000 0.777952 0.168083
#
# Coordination Sequence:
#
# PCOD9380038 Si02
#       8
#     8   8   8   8   8   8   8   8
#     4  10  21  40  64  91 118 148 187 234 294 352
#     4   9  20  39  64  89 117 146 180 232 289 346
#     4  11  22  35  54  78 110 154 199 243 287 337
#     4  11  23  39  59  85 118 155 196 242 290 347
#     4  10  21  39  59  86 117 152 197 242 288 342
#     4  11  22  36  54  80 115 155 194 239 287 339
#     4  10  21  37  57  81 115 157 198 241 287 339
#     4  10  22  37  53  78 114 153 194 239 287 337
#
# _framework density 18.181864000000001
#
# number of rings (size 3 to 8) (size 9 to 14) (size 15 to 20)
#    0.000    1.750    2.500    1.500    1.750    3.500 
#    0.000    0.625    0.000    1.500    0.000    0.000 
#    0.000    0.000    0.000    0.000    0.000    0.000 
#
# Total GULP energy -178499.276030 kJ/mol
# GULP energy per Si atom -5578.102376 kJ/mol
# Density = 1.814048 g / cm^3
# Si number density = 18.181864 Si / 1000 Ang^3
#
#
#
# Elastic Constant Matrix: (Units=GPa)
#
#
# Indices 1 2 3 4 5 6 
#
# 1 59.6463 41.5274 57.0343 0.0000 0.0000 0.0000
# 2 41.5274 78.0173 53.6592 0.0000 0.0000 0.0000
# 3 57.0343 53.6592 116.7417 0.0001 -0.0001 -0.0001
# 4 0.0000 0.0000 0.0001 33.3243 0.0000 0.0000
# 5 0.0000 0.0000 -0.0001 0.0000 25.5508 0.0000
# 6 0.0000 0.0000 -0.0001 0.0000 0.0000 25.3794
#
#
#
# Elastic Compliance Matrix: (Units=1/GPa)
#
#
# Indices 1 2 3 4 5 6 
#
# 1 0.036513 -0.010479 -0.013022 0.000000 0.000000 0.000000
# 2 -0.010479 0.021750 -0.004878 0.000000 0.000000 0.000000
# 3 -0.013022 -0.004878 0.017170 0.000000 0.000000 0.000000
# 4 0.000000 0.000000 0.000000 0.030008 0.000000 0.000000
# 5 0.000000 0.000000 0.000000 0.000000 0.039138 0.000000
# 6 0.000000 0.000000 0.000000 0.000000 0.000000 0.039402
#
#
# Mechanical properties :
#
#
# Convention : Reuss Voigt Hill
#
# Bulk Modulus (GPa) = 53.54546 62.09415 57.81981
# Shear Modulus (GPa) = 20.24590 23.66320 21.95455
#
# Velocity S-wave (km/s) = 3.34057 3.61151 3.47868
# Velocity P-wave (km/s) = 6.66281 7.18446 6.92855
#
# Compressibility (1/GPa) = 0.01867572
#
# Stress axis : x y z
#
# Youngs Moduli (GPa) = 27.38756 45.97617 58.24175
#
# Poissons Ratio (x) = 0.48179 0.75842
# Poissons Ratio (y) = 0.28699 0.28409
# Poissons Ratio (z) = 0.35664 0.22426
#
# Static dielectric constant tensor:
#      x y z
#    x 1.635920 0.000000 0.000000 
#    y 0.000000 1.597920 0.000000 
#    z 0.000000 0.000000 1.635010 
# 
# From -- ./inp_files/9692.got.cif
#   From: 2010.05.17/outbox.cif.g08.bks.cpg/sg46_5_cif.got.tgz:9692.got - 2010.06.03 19:58:25.
