data_PCOD9380566
_publ_section_title
;
Structure prediction by ZEFSAII (Michael W. Deem and Ramdas Pophale) SiO2 
 PCOD9380566
Probable space group: I M A 2
;
_chemical_formula_sum "Si O2"
_cell_formula_units_Z 56
_cell_length_a 20.116562
_cell_length_b 9.129289
_cell_length_c 14.667260
_cell_angle_alpha 90.000000
_cell_angle_beta 90.000000
_cell_angle_gamma 90.000000
_cell_volume 2693.640952
_symmetry_space_group_name_H-M "I M A 2"
_symmetry_group_IT_number 46
_symmetry_cell_setting 'orthorhombic'
loop_
_space_group_symop_operation_xyz
x,y,z
-x,-y,z
1/2-x,y,z
1/2+x,-y,z
1/2+x,1/2+y,1/2+z
1/2-x,1/2-y,1/2+z
-x,1/2+y,1/2+z
x,1/2-y,1/2+z
loop_
_atom_site_type_symbol
_atom_site_label
_atom_site_fract_x
_atom_site_fract_y
_atom_site_fract_z
Si Si1 0.026965 0.168226 0.659040
Si Si2 0.909963 0.386268 0.659040
Si Si3 0.359403 0.375567 0.018194
Si Si4 0.819721 0.112027 0.659039
Si Si5 0.326477 0.446323 0.505174
Si Si6 0.859402 0.624432 0.299885
Si Si7 0.673524 0.946323 0.312906
O O1 0.070875 0.162736 0.566667
O O2 0.070876 0.162736 0.751412
O O3 0.986095 0.323923 0.659040
O O4 0.000000 0.000000 0.659040
O O5 0.877240 0.226684 0.659039
O O6 0.877573 0.469795 0.571951
O O7 0.877572 0.469795 0.746128
O O8 0.326777 0.506190 0.073801
O O9 0.321150 0.223885 0.032482
O O10 0.357521 0.428942 0.914104
O O11 0.750000 0.192495 0.659039
O O12 0.826776 0.006190 0.744278
O O13 0.250000 0.506112 0.503946
O O14 0.357521 0.428943 0.403975
O O15 0.821149 0.776115 0.285597
O O16 0.750000 0.006112 0.314135
#
# Coordination Sequence:
#
# PCOD9380566 Si02
#       7
#     8   8   8   8   8   8   8
#     4  11  23  49  62  90 138 178 240 272 337 417
#     4  12  25  41  66 100 145 178 218 292 348 403
#     4  10  22  42  69  91 130 188 226 283 334 411
#     4  11  20  37  62  92 128 179 222 278 350 401
#     4  11  23  43  68 106 136 170 232 290 347 411
#     4  10  22  42  69  91 130 188 226 283 334 411
#     4  11  23  43  68 106 136 170 232 290 347 411
#
# _framework density 20.789705999999999
#
# number of rings (size 3 to 8) (size 9 to 14) (size 15 to 20)
#    0.000    1.143    2.857    6.429    0.000    3.429 
#   10.286    2.857    0.000    0.000    0.000    0.000 
#    0.000    0.000    0.000    0.000    0.000    0.000 
#
# Total GULP energy -155889.020130 kJ/mol
# GULP energy per Si atom -5567.465005 kJ/mol
# Density = 2.074239 g / cm^3
# Si number density = 20.789706 Si / 1000 Ang^3
#
#
#
# Elastic Constant Matrix: (Units=GPa)
#
#
# Indices 1 2 3 4 5 6 
#
# 1 113.7853 23.6584 65.0648 0.0000 0.0000 0.0000
# 2 23.6584 82.5775 58.2173 0.0000 0.0000 0.0000
# 3 65.0648 58.2173 132.7331 0.0000 0.0000 0.0000
# 4 0.0000 0.0000 0.0000 49.6100 0.0000 0.0000
# 5 0.0000 0.0000 0.0000 0.0000 36.5902 0.0000
# 6 0.0000 0.0000 0.0000 0.0000 0.0000 7.2760
#
#
#
# Elastic Compliance Matrix: (Units=1/GPa)
#
#
# Indices 1 2 3 4 5 6 
#
# 1 0.012274 0.001050 -0.006477 0.000000 0.000000 0.000000
# 2 0.001050 0.017620 -0.008243 0.000000 0.000000 0.000000
# 3 -0.006477 -0.008243 0.014324 0.000000 0.000000 0.000000
# 4 0.000000 0.000000 0.000000 0.020157 0.000000 0.000000
# 5 0.000000 0.000000 0.000000 0.000000 0.027330 0.000000
# 6 0.000000 0.000000 0.000000 0.000000 0.000000 0.137437
#
#
# Mechanical properties :
#
#
# Convention : Reuss Voigt Hill
#
# Bulk Modulus (GPa) = 59.24790 69.21966 64.23378
# Shear Modulus (GPa) = 19.07601 30.83895 24.95748
#
# Velocity S-wave (km/s) = 3.03243 3.85564 3.46854
# Velocity P-wave (km/s) = 6.38916 7.29306 6.85602
#
# Compressibility (1/GPa) = 0.01687824
#
# Stress axis : x y z
#
# Youngs Moduli (GPa) = 81.47360 56.75247 69.81128
#
# Poissons Ratio (x) = -0.05958 0.45217
# Poissons Ratio (y) = -0.08554 0.57545
# Poissons Ratio (z) = 0.52771 0.46781
#
# Static dielectric constant tensor:
#      x y z
#    x 1.867270 0.000000 0.000000 
#    y 0.000000 1.735810 0.000000 
#    z 0.000000 0.000000 1.779820 
# 
# From -- ./inp_files/17114.got.cif
#   From: 2010.05.17/outbox.cif.g08.bks.cpg/sg46_9_cif.got.tgz:17114.got - 2010.06.03 19:58:25.
