data_PCOD9380271
_publ_section_title
;
Structure prediction by ZEFSAII (Michael W. Deem and Ramdas Pophale) SiO2 
 PCOD9380271
Probable space group: I M A 2
;
_chemical_formula_sum "Si O2"
_cell_formula_units_Z 52
_cell_length_a 15.460896
_cell_length_b 17.950761
_cell_length_c 7.896393
_cell_angle_alpha 90.000000
_cell_angle_beta 90.000000
_cell_angle_gamma 90.000000
_cell_volume 2191.524238
_symmetry_space_group_name_H-M "I M A 2"
_symmetry_group_IT_number 46
_symmetry_cell_setting 'orthorhombic'
loop_
_space_group_symop_operation_xyz
x,y,z
-x,-y,z
1/2-x,y,z
1/2+x,-y,z
1/2+x,1/2+y,1/2+z
1/2-x,1/2-y,1/2+z
-x,1/2+y,1/2+z
x,1/2-y,1/2+z
loop_
_atom_site_type_symbol
_atom_site_label
_atom_site_fract_x
_atom_site_fract_y
_atom_site_fract_z
Si Si1 0.605461 0.005769 0.512580
Si Si2 0.420339 0.663908 0.956730
Si Si3 0.380004 0.151536 0.358619
Si Si4 0.250000 0.280382 0.386553
Si Si5 0.584267 0.177648 0.861953
Si Si6 0.601119 0.866868 0.979127
Si Si7 0.153348 0.520020 0.402797
O O1 0.622469 0.084048 0.417681
O O2 0.500000 0.000000 0.526555
O O3 0.638417 0.931084 0.425305
O O4 0.643088 0.011544 0.700409
O O5 0.426120 0.667286 0.160679
O O6 0.517455 0.662754 0.882557
O O7 0.377984 0.740707 0.896298
O O8 0.324806 0.217833 0.435790
O O9 0.359004 0.155066 0.159482
O O10 0.172745 0.340968 0.345954
O O11 0.489582 0.171263 0.944542
O O12 0.633625 0.106359 0.936091
O O13 0.591776 0.956172 0.977532
O O14 0.250000 0.502267 0.459355
#
# Coordination Sequence:
#
# PCOD9380271 Si02
#       7
#     8   8   8   4   8   8   8
#     4   9  21  42  64  92 125 164 209 251 309 378
#     4  10  21  40  64  91 122 163 215 254 303 366
#     4  11  24  39  65  95 130 167 203 249 309 377
#     4  12  26  38  58 100 142 158 198 254 312 372
#     4  11  23  41  67  93 122 166 214 258 311 372
#     4  12  24  41  64  94 131 168 204 251 316 380
#     4  11  24  42  63  90 126 167 210 261 314 367
#
# _framework density 23.727779000000002
#
# number of rings (size 3 to 8) (size 9 to 14) (size 15 to 20)
#    0.000    1.231    2.308    4.615    1.077    8.615 
#    0.000    3.077    0.000    0.000    0.000    0.000 
#    0.000    0.000    0.000    0.000    0.000    0.000 
#
# Total GULP energy -144913.064984 kJ/mol
# GULP energy per Si atom -5573.579422 kJ/mol
# Density = 2.367377 g / cm^3
# Si number density = 23.727779 Si / 1000 Ang^3
#
#
#
# Elastic Constant Matrix: (Units=GPa)
#
#
# Indices 1 2 3 4 5 6 
#
# 1 36.1323 8.2528 -7.2447 0.0000 0.0000 0.0000
# 2 8.2528 216.1794 5.1535 0.0000 0.0000 0.0000
# 3 -7.2447 5.1535 33.4475 0.0000 0.0000 0.0000
# 4 0.0000 0.0000 0.0000 30.2499 0.0000 0.0000
# 5 0.0000 0.0000 0.0000 0.0000 146.2831 0.0000
# 6 0.0000 0.0000 0.0000 0.0000 0.0000 35.5040
#
#
#
# Elastic Compliance Matrix: (Units=1/GPa)
#
#
# Indices 1 2 3 4 5 6 
#
# 1 0.029278 -0.001274 0.006538 0.000000 0.000000 0.000000
# 2 -0.001274 0.004698 -0.001000 0.000000 0.000000 0.000000
# 3 0.006538 -0.001000 0.031468 0.000000 0.000000 0.000000
# 4 0.000000 0.000000 0.000000 0.033058 0.000000 0.000000
# 5 0.000000 0.000000 0.000000 0.000000 0.006836 0.000000
# 6 0.000000 0.000000 0.000000 0.000000 0.000000 0.028166
#
#
# Mechanical properties :
#
#
# Convention : Reuss Voigt Hill
#
# Bulk Modulus (GPa) = 13.51849 33.12026 23.31937
# Shear Modulus (GPa) = 33.41526 61.04724 47.23125
#
# Velocity S-wave (km/s) = 3.75677 5.07780 4.46639
# Velocity P-wave (km/s) = 4.95252 6.95467 6.03717
#
# Compressibility (1/GPa) = 0.07397279
#
# Stress axis : x y z
#
# Youngs Moduli (GPa) = 34.15554 212.84567 31.77858
#
# Poissons Ratio (x) = 0.27107 -0.20776
# Poissons Ratio (y) = 0.04350 0.03177
# Poissons Ratio (z) = -0.22330 0.21279
#
# Static dielectric constant tensor:
#      x y z
#    x 1.764910 0.000000 0.000000 
#    y 0.000000 1.960860 0.000000 
#    z 0.000000 0.000000 1.947260 
# 
# From -- ./inp_files/6757.got.cif
#   From: 2010.05.17/outbox.cif.g08.bks.cpg/sg46_4_cif.got.tgz:6757.got - 2010.06.03 19:58:25.
