data_PCOD9380185
_publ_section_title
;
Structure prediction by ZEFSAII (Michael W. Deem and Ramdas Pophale) SiO2 
 PCOD9380185
Probable space group: I M A 2
;
_chemical_formula_sum "Si O2"
_cell_formula_units_Z 40
_cell_length_a 15.800337
_cell_length_b 5.140179
_cell_length_c 24.614167
_cell_angle_alpha 90.000000
_cell_angle_beta 90.000000
_cell_angle_gamma 90.000000
_cell_volume 1999.077982
_symmetry_space_group_name_H-M "I M A 2"
_symmetry_group_IT_number 46
_symmetry_cell_setting 'orthorhombic'
loop_
_space_group_symop_operation_xyz
x,y,z
-x,-y,z
1/2-x,y,z
1/2+x,-y,z
1/2+x,1/2+y,1/2+z
1/2-x,1/2-y,1/2+z
-x,1/2+y,1/2+z
x,1/2-y,1/2+z
loop_
_atom_site_type_symbol
_atom_site_label
_atom_site_fract_x
_atom_site_fract_y
_atom_site_fract_z
Si Si1 0.596113 0.588321 0.502420
Si Si2 0.397464 0.484040 0.192125
Si Si3 0.750000 0.068971 0.777928
Si Si4 0.897921 0.014837 0.122702
Si Si5 0.842543 0.414039 0.951568
Si Si6 0.750000 0.566389 0.849323
O O1 0.500000 0.500000 0.505169
O O2 0.634781 0.543184 0.562251
O O3 0.637788 0.387494 0.460007
O O4 0.599039 0.884267 0.482864
O O5 0.500000 0.500000 0.203749
O O6 0.335051 0.528332 0.242503
O O7 0.375174 0.207830 0.165484
O O8 0.377769 0.704883 0.147212
O O9 0.750000 0.359353 0.801261
O O10 0.750000 0.856177 0.826320
O O11 0.000000 0.000000 0.119125
O O12 0.750000 0.461965 0.976724
O O13 0.829171 0.500244 0.889198
#
# Coordination Sequence:
#
# PCOD9380185 Si02
#       6
#     8   8   4   8   8   4
#     4  11  20  37  63  91 122 160 199 235 294 371
#     4  10  21  39  59  87 121 153 196 244 295 354
#     4  12  22  42  63  86 107 162 204 250 304 358
#     4   9  19  36  57  84 126 157 179 235 297 347
#     4  10  22  40  58  84 117 167 187 245 310 347
#     4  10  24  42  61  74 123 152 190 256 316 336
#
# _framework density 20.009222999999999
#
# number of rings (size 3 to 8) (size 9 to 14) (size 15 to 20)
#    0.600    1.200    0.000    4.800    0.000    3.200 
#   10.800    6.000    0.000    0.000    0.000    0.000 
#    0.000    0.000    0.000    0.000    0.000    0.000 
#
# Total GULP energy -111518.633052 kJ/mol
# GULP energy per Si atom -5575.931653 kJ/mol
# Density = 1.996368 g / cm^3
# Si number density = 20.009223 Si / 1000 Ang^3
#
#
#
# Elastic Constant Matrix: (Units=GPa)
#
#
# Indices 1 2 3 4 5 6 
#
# 1 51.8821 -1.1951 15.4894 0.0000 0.0000 0.0000
# 2 -1.1951 55.1978 -14.4627 0.0000 0.0000 0.0000
# 3 15.4894 -14.4627 56.8619 0.0000 0.0000 0.0000
# 4 0.0000 0.0000 0.0000 -2.9288 0.0000 0.0000
# 5 0.0000 0.0000 0.0000 0.0000 7.7644 0.0000
# 6 0.0000 0.0000 0.0000 0.0000 0.0000 44.2218
#
#
#
# Elastic Compliance Matrix: (Units=1/GPa)
#
#
# Indices 1 2 3 4 5 6 
#
# 1 0.021045 -0.001121 -0.006018 0.000000 0.000000 0.000000
# 2 -0.001121 0.019470 0.005258 0.000000 0.000000 0.000000
# 3 -0.006018 0.005258 0.020563 0.000000 0.000000 0.000000
# 4 0.000000 0.000000 0.000000 -0.341441 0.000000 0.000000
# 5 0.000000 0.000000 0.000000 0.000000 0.128793 0.000000
# 6 0.000000 0.000000 0.000000 0.000000 0.000000 0.022613
#
#
# Mechanical properties :
#
#
# Convention : Reuss Voigt Hill
#
# Bulk Modulus (GPa) = 17.44740 18.17833 17.81286
# Shear Modulus (GPa) = -47.13079 20.75218 -13.18931
#
# Velocity S-wave (km/s) = -4.85857 3.22394 -2.57020
# Velocity P-wave (km/s) = 4.76819 4.79199 0.33727
#
# Compressibility (1/GPa) = 0.05731514
#
# Stress axis : x y z
#
# Youngs Moduli (GPa) = 47.51651 51.36120 48.63093
#
# Poissons Ratio (x) = 0.05758 0.29266
# Poissons Ratio (y) = 0.05327 -0.25568
# Poissons Ratio (z) = 0.28595 -0.27003
#
# Static dielectric constant tensor:
#      x y z
#    x 1.744850 0.000000 0.000000 
#    y 0.000000 1.748190 0.000000 
#    z 0.000000 0.000000 1.710350 
# 
# From -- ./inp_files/23567.got.cif
#   From: 2010.05.17/outbox.cif.g08.bks.cpg/sg46_12_cif.got.tgz:23567.got - 2010.06.03 19:58:25.
