data_PCOD9380565
_publ_section_title
;
Structure prediction by ZEFSAII (Michael W. Deem and Ramdas Pophale) SiO2 
 PCOD9380565
Probable space group: I M A 2
;
_chemical_formula_sum "Si O2"
_cell_formula_units_Z 40
_cell_length_a 13.729875
_cell_length_b 5.511799
_cell_length_c 22.058163
_cell_angle_alpha 90.000000
_cell_angle_beta 90.000000
_cell_angle_gamma 90.000000
_cell_volume 1669.280410
_symmetry_space_group_name_H-M "I M A 2"
_symmetry_group_IT_number 46
_symmetry_cell_setting 'orthorhombic'
loop_
_space_group_symop_operation_xyz
x,y,z
-x,-y,z
1/2-x,y,z
1/2+x,-y,z
1/2+x,1/2+y,1/2+z
1/2-x,1/2-y,1/2+z
-x,1/2+y,1/2+z
x,1/2-y,1/2+z
loop_
_atom_site_type_symbol
_atom_site_label
_atom_site_fract_x
_atom_site_fract_y
_atom_site_fract_z
Si Si1 0.141667 0.609394 0.160030
Si Si2 0.000000 0.500000 0.688021
Si Si3 0.500000 0.000000 0.874851
Si Si4 0.862409 0.789837 0.774773
Si Si5 0.868438 0.173983 0.979695
Si Si6 0.635440 0.826085 0.544231
O O1 0.250000 0.709241 0.146551
O O2 0.137392 0.522580 0.229506
O O3 0.128508 0.379623 0.115805
O O4 0.056917 0.799227 0.150013
O O5 0.084184 0.405031 0.733015
O O6 0.570890 0.842553 0.832334
O O7 0.427540 0.846536 0.917298
O O8 0.750000 0.731760 0.788984
O O9 0.750000 0.174314 0.971232
O O10 0.897576 0.422775 0.013009
O O11 0.896348 0.931385 0.017751
O O12 0.750000 0.821766 0.531118
#
# Coordination Sequence:
#
# PCOD9380565 Si02
#       6
#     8   4   4   8   8   8
#     4  10  22  42  69 102 142 183 230 300 375 445
#     4  12  22  41  66 110 139 184 240 296 368 456
#     4  12  24  47  64 100 135 188 242 294 348 432
#     4  11  25  46  69 100 143 185 235 302 368 438
#     4  10  23  44  69  99 137 186 238 291 352 425
#     4   9  21  43  70 101 139 182 229 292 366 431
#
# _framework density 23.962420999999999
#
# number of rings (size 3 to 8) (size 9 to 14) (size 15 to 20)
#    0.000    1.600    2.000    1.200    2.800    3.200 
#    3.600    2.000    0.000    0.000    0.000    0.000 
#    0.000    0.000    0.000    0.000    0.000    0.000 
#
# Total GULP energy -111894.208236 kJ/mol
# GULP energy per Si atom -5594.710412 kJ/mol
# Density = 2.390788 g / cm^3
# Si number density = 23.962421 Si / 1000 Ang^3
#
#
#
# Elastic Constant Matrix: (Units=GPa)
#
#
# Indices 1 2 3 4 5 6 
#
# 1 187.4551 82.4871 50.7543 0.0000 0.0000 0.0000
# 2 82.4871 94.3109 29.6455 0.0000 0.0000 0.0000
# 3 50.7543 29.6455 113.8856 0.0000 0.0000 0.0000
# 4 0.0000 0.0000 0.0000 -59.6117 0.0000 0.0000
# 5 0.0000 0.0000 0.0000 0.0000 33.1631 0.0000
# 6 0.0000 0.0000 0.0000 0.0000 0.0000 37.7590
#
#
#
# Elastic Compliance Matrix: (Units=1/GPa)
#
#
# Indices 1 2 3 4 5 6 
#
# 1 0.009139 -0.007312 -0.002170 0.000000 0.000000 0.000000
# 2 -0.007312 0.017397 -0.001270 0.000000 0.000000 0.000000
# 3 -0.002170 -0.001270 0.010078 0.000000 0.000000 0.000000
# 4 0.000000 0.000000 0.000000 -0.016775 0.000000 0.000000
# 5 0.000000 0.000000 0.000000 0.000000 0.030154 0.000000
# 6 0.000000 0.000000 0.000000 0.000000 0.000000 0.026484
#
#
# Mechanical properties :
#
#
# Convention : Reuss Voigt Hill
#
# Bulk Modulus (GPa) = 66.17249 80.15837 73.16543
# Shear Modulus (GPa) = 48.53499 17.77973 33.15736
#
# Velocity S-wave (km/s) = 4.50540 2.72689 3.72388
# Velocity P-wave (km/s) = 7.39864 6.59082 7.00638
#
# Compressibility (1/GPa) = 0.01511202
#
# Stress axis : x y z
#
# Youngs Moduli (GPa) = 109.41554 57.47967 99.22215
#
# Poissons Ratio (x) = 0.42027 0.21529
# Poissons Ratio (y) = 0.80000 0.12604
# Poissons Ratio (z) = 0.23741 0.07301
#
# Static dielectric constant tensor:
#      x y z
#    x 1.927770 0.000000 0.000000 
#    y 0.000000 1.971880 0.000000 
#    z 0.000000 0.000000 1.891130 
# 
# From -- ./inp_files/23564.got.cif
#   From: 2010.05.17/outbox.cif.g08.bks.cpg/sg46_12_cif.got.tgz:23564.got - 2010.06.03 19:58:25.
