data_PCOD9380542
_publ_section_title
;
Structure prediction by ZEFSAII (Michael W. Deem and Ramdas Pophale) SiO2 
 PCOD9380542
Probable space group: I M A 2
;
_chemical_formula_sum "Si O2"
_cell_formula_units_Z 44
_cell_length_a 22.695228
_cell_length_b 9.493726
_cell_length_c 11.290652
_cell_angle_alpha 90.000000
_cell_angle_beta 90.000000
_cell_angle_gamma 90.000000
_cell_volume 2432.709579
_symmetry_space_group_name_H-M "I M A 2"
_symmetry_group_IT_number 46
_symmetry_cell_setting 'orthorhombic'
loop_
_space_group_symop_operation_xyz
x,y,z
-x,-y,z
1/2-x,y,z
1/2+x,-y,z
1/2+x,1/2+y,1/2+z
1/2-x,1/2-y,1/2+z
-x,1/2+y,1/2+z
x,1/2-y,1/2+z
loop_
_atom_site_type_symbol
_atom_site_label
_atom_site_fract_x
_atom_site_fract_y
_atom_site_fract_z
Si Si1 0.878735 0.459027 0.420140
Si Si2 0.250000 0.627670 0.704125
Si Si3 0.450473 0.820617 0.363369
Si Si4 0.500000 0.500000 0.071136
Si Si5 0.623926 0.518086 0.690442
Si Si6 0.250000 0.841281 0.928856
Si Si7 0.069080 0.304758 0.253121
O O1 0.911565 0.318935 0.376334
O O2 0.894238 0.482587 0.556794
O O3 0.809134 0.431346 0.412049
O O4 0.899996 0.591668 0.345477
O O5 0.309052 0.533707 0.707456
O O6 0.250000 0.725890 0.822214
O O7 0.250000 0.701722 0.571067
O O8 0.417242 0.928660 0.277887
O O9 0.513293 0.773445 0.311938
O O10 0.461884 0.897985 0.487426
O O11 0.457738 0.403049 0.150431
O O12 0.613090 0.683039 0.710929
#
# Coordination Sequence:
#
# PCOD9380542 Si02
#       7
#     8   4   8   4   8   4   8
#     4  11  24  42  65  93 130 167 216 272 321 388
#     4  10  22  45  68 100 126 176 221 274 326 394
#     4  12  22  40  65  94 125 173 213 261 327 389
#     4  12  24  38  64  96 132 166 222 254 330 398
#     4  11  24  42  67  92 133 166 217 273 326 385
#     4  10  22  41  70  94 128 172 227 266 328 396
#     4  12  24  41  62  96 132 172 210 269 327 381
#
# _framework density 18.086829999999999
#
# number of rings (size 3 to 8) (size 9 to 14) (size 15 to 20)
#    0.000    0.727    5.455    2.182    0.000    2.182 
#    0.000    0.000    0.000    1.091    0.000    0.000 
#    0.000    0.000    0.000    0.000    0.000    0.000 
#
# Total GULP energy -122910.208398 kJ/mol
# GULP energy per Si atom -5586.827654 kJ/mol
# Density = 1.804566 g / cm^3
# Si number density = 18.086830 Si / 1000 Ang^3
#
#
#
# Elastic Constant Matrix: (Units=GPa)
#
#
# Indices 1 2 3 4 5 6 
#
# 1 89.4523 38.1981 47.4801 0.0000 0.0000 0.0000
# 2 38.1981 101.0176 50.1213 0.0000 0.0000 0.0000
# 3 47.4801 50.1213 119.6141 0.0000 0.0000 0.0000
# 4 0.0000 0.0000 0.0000 55.6575 0.0000 0.0000
# 5 0.0000 0.0000 0.0000 0.0000 33.1329 0.0000
# 6 0.0000 0.0000 0.0000 0.0000 0.0000 -11.5710
#
#
#
# Elastic Compliance Matrix: (Units=1/GPa)
#
#
# Indices 1 2 3 4 5 6 
#
# 1 0.015056 -0.003444 -0.004533 0.000000 0.000000 0.000000
# 2 -0.003444 0.013285 -0.004200 0.000000 0.000000 0.000000
# 3 -0.004533 -0.004200 0.011920 0.000000 0.000000 0.000000
# 4 0.000000 0.000000 0.000000 0.017967 0.000000 0.000000
# 5 0.000000 0.000000 0.000000 0.000000 0.030181 0.000000
# 6 0.000000 0.000000 0.000000 0.000000 0.000000 -0.086423
#
#
# Mechanical properties :
#
#
# Convention : Reuss Voigt Hill
#
# Bulk Modulus (GPa) = 62.86646 64.63144 63.74895
# Shear Modulus (GPa) = 158.01613 27.06288 92.53950
#
# Velocity S-wave (km/s) = 9.35708 3.87237 7.16066
# Velocity P-wave (km/s) = 12.31152 7.47029 10.18280
#
# Compressibility (1/GPa) = 0.01590673
#
# Stress axis : x y z
#
# Youngs Moduli (GPa) = 66.41884 75.27096 83.89602
#
# Poissons Ratio (x) = 0.25923 0.38032
# Poissons Ratio (y) = 0.22874 0.35235
# Poissons Ratio (z) = 0.30110 0.31613
#
# Static dielectric constant tensor:
#      x y z
#    x 1.596110 0.000000 0.000000 
#    y 0.000000 1.599940 0.000000 
#    z 0.000000 0.000000 1.628380 
# 
# From -- ./inp_files/12676.got.cif
#   From: 2010.05.17/outbox.cif.g08.bks.cpg/sg46_7_cif.got.tgz:12676.got - 2010.06.03 19:58:25.
