data_PCOD9380810
_publ_section_title
;
Structure prediction by ZEFSAII (Michael W. Deem and Ramdas Pophale) SiO2 
 PCOD9380810
Probable space group: I M A 2
;
_chemical_formula_sum "Si O2"
_cell_formula_units_Z 56
_cell_length_a 20.663582
_cell_length_b 11.137074
_cell_length_c 13.056733
_cell_angle_alpha 90.000000
_cell_angle_beta 90.000000
_cell_angle_gamma 90.000000
_cell_volume 3004.770014
_symmetry_space_group_name_H-M "I M A 2"
_symmetry_group_IT_number 46
_symmetry_cell_setting 'orthorhombic'
loop_
_space_group_symop_operation_xyz
x,y,z
-x,-y,z
1/2-x,y,z
1/2+x,-y,z
1/2+x,1/2+y,1/2+z
1/2-x,1/2-y,1/2+z
-x,1/2+y,1/2+z
x,1/2-y,1/2+z
loop_
_atom_site_type_symbol
_atom_site_label
_atom_site_fract_x
_atom_site_fract_y
_atom_site_fract_z
Si Si1 0.179016 0.416075 0.367240
Si Si2 0.539484 0.605219 0.863384
Si Si3 0.822705 0.860709 0.296827
Si Si4 0.435769 0.815188 0.189516
Si Si5 0.492065 0.327640 0.493549
Si Si6 0.129584 0.455522 0.592259
Si Si7 0.562176 0.430070 0.296792
O O1 0.250000 0.457717 0.333697
O O2 0.176056 0.273899 0.342686
O O3 0.170058 0.451533 0.486998
O O4 0.120588 0.478331 0.308007
O O5 0.500000 0.500000 0.917730
O O6 0.613684 0.572568 0.840626
O O7 0.493639 0.633178 0.763529
O O8 0.542334 0.724649 0.929570
O O9 0.750000 0.909050 0.315535
O O10 0.837403 0.867687 0.175194
O O11 0.465492 0.772593 0.082708
O O12 0.414568 0.693671 0.245730
O O13 0.385725 0.919121 0.152365
O O14 0.439876 0.408080 0.552746
O O15 0.536726 0.392631 0.409916
O O16 0.500000 0.500000 0.249262
#
# Coordination Sequence:
#
# PCOD9380810 Si02
#       7
#     8   8   8   8   8   8   8
#     4  11  23  41  62  86 120 161 203 246 296 357
#     4  11  20  36  58  86 122 154 190 247 303 347
#     4  11  23  37  58  91 123 156 200 248 297 352
#     4  11  21  34  63  89 117 150 201 252 296 350
#     4  11  20  34  61  89 114 151 201 250 296 352
#     4  12  20  38  62  91 116 160 200 245 298 362
#     4  11  21  38  60  89 119 155 199 250 302 347
#
# _framework density 18.637034
#
# number of rings (size 3 to 8) (size 9 to 14) (size 15 to 20)
#    0.000    0.857    7.143    1.714    0.000    0.571 
#    0.000    1.429    0.000    0.000    0.000    0.000 
#    0.000    0.000    0.000    0.000    0.000    0.000 
#
# Total GULP energy -155918.377007 kJ/mol
# GULP energy per Si atom -5568.513465 kJ/mol
# Density = 1.859462 g / cm^3
# Si number density = 18.637034 Si / 1000 Ang^3
#
#
#
# Elastic Constant Matrix: (Units=GPa)
#
#
# Indices 1 2 3 4 5 6 
#
# 1 120.0673 34.5746 1.1177 0.0000 0.0000 0.0000
# 2 34.5746 72.5501 30.3490 0.0000 0.0000 0.0000
# 3 1.1177 30.3490 47.8185 0.0000 0.0000 0.0000
# 4 0.0000 0.0000 0.0000 25.2070 0.0000 0.0000
# 5 0.0000 0.0000 0.0000 0.0000 13.4511 0.0000
# 6 0.0000 0.0000 0.0000 0.0000 0.0000 24.1815
#
#
#
# Elastic Compliance Matrix: (Units=1/GPa)
#
#
# Indices 1 2 3 4 5 6 
#
# 1 0.010150 -0.006451 0.003857 0.000000 0.000000 0.000000
# 2 -0.006451 0.022865 -0.014361 0.000000 0.000000 0.000000
# 3 0.003857 -0.014361 0.029937 0.000000 0.000000 0.000000
# 4 0.000000 0.000000 0.000000 0.039671 0.000000 0.000000
# 5 0.000000 0.000000 0.000000 0.000000 0.074343 0.000000
# 6 0.000000 0.000000 0.000000 0.000000 0.000000 0.041354
#
#
# Mechanical properties :
#
#
# Convention : Reuss Voigt Hill
#
# Bulk Modulus (GPa) = 34.43238 41.39094 37.91166
# Shear Modulus (GPa) = 19.09041 24.19424 21.64232
#
# Velocity S-wave (km/s) = 3.20398 3.60694 3.41141
# Velocity P-wave (km/s) = 5.67474 6.29316 5.99193
#
# Compressibility (1/GPa) = 0.02904243
#
# Stress axis : x y z
#
# Youngs Moduli (GPa) = 98.51961 43.73467 33.40372
#
# Poissons Ratio (x) = 0.28211 -0.12883
# Poissons Ratio (y) = 0.63551 0.47971
# Poissons Ratio (z) = -0.37996 0.62808
#
# Static dielectric constant tensor:
#      x y z
#    x 1.665510 0.000000 0.000000 
#    y 0.000000 1.676940 0.000000 
#    z 0.000000 0.000000 1.661160 
# 
# From -- ./inp_files/12404.got.cif
#   From: 2010.05.17/outbox.cif.g08.bks.cpg/sg46_7_cif.got.tgz:12404.got - 2010.06.03 19:58:25.
