data_PCOD9380856
_publ_section_title
;
Structure prediction by ZEFSAII (Michael W. Deem and Ramdas Pophale) SiO2 
 PCOD9380856
Probable space group: I M A 2
;
_chemical_formula_sum "Si O2"
_cell_formula_units_Z 28
_cell_length_a 13.548299
_cell_length_b 11.025280
_cell_length_c 7.890429
_cell_angle_alpha 90.000000
_cell_angle_beta 90.000000
_cell_angle_gamma 90.000000
_cell_volume 1178.623284
_symmetry_space_group_name_H-M "I M A 2"
_symmetry_group_IT_number 46
_symmetry_cell_setting 'orthorhombic'
loop_
_space_group_symop_operation_xyz
x,y,z
-x,-y,z
1/2-x,y,z
1/2+x,-y,z
1/2+x,1/2+y,1/2+z
1/2-x,1/2-y,1/2+z
-x,1/2+y,1/2+z
x,1/2-y,1/2+z
loop_
_atom_site_type_symbol
_atom_site_label
_atom_site_fract_x
_atom_site_fract_y
_atom_site_fract_z
Si Si1 0.532685 0.375601 0.012500
Si Si2 0.414317 0.188499 0.190097
Si Si3 0.250000 0.480976 0.538769
Si Si4 0.750000 0.891365 0.692841
Si Si5 0.250000 0.926500 0.400449
O O1 0.500000 0.500000 0.108356
O O2 0.507371 0.250284 0.102656
O O3 0.456957 0.376264 0.854239
O O4 0.646551 0.373534 0.962587
O O5 0.347879 0.098005 0.081169
O O6 0.342275 0.302514 0.223152
O O7 0.250000 0.497186 0.335768
O O8 0.250000 0.573274 0.696006
O O9 0.750000 0.942453 0.501088
#
# Coordination Sequence:
#
# PCOD9380856 Si02
#       5
#     8   8   4   4   4
#     4  12  24  44  69 100 143 178 224 294 346 398
#     4  11  22  41  68 102 138 175 226 289 342 402
#     4  11  21  40  72 103 125 178 245 277 326 413
#     4  11  21  40  72 103 125 178 245 277 326 413
#     4  12  26  46  70 100 142 180 224 292 346 402
#
# _framework density 23.756530999999999
#
# number of rings (size 3 to 8) (size 9 to 14) (size 15 to 20)
#    0.000    0.571    8.571    0.000    4.000    1.143 
#    5.143    4.286    0.000    0.000    0.000    0.000 
#    0.000    0.000    0.000    0.000    0.000    0.000 
#
# Total GULP energy -78194.168178 kJ/mol
# GULP energy per Si atom -5585.297727 kJ/mol
# Density = 2.370246 g / cm^3
# Si number density = 23.756531 Si / 1000 Ang^3
#
#
#
# Elastic Constant Matrix: (Units=GPa)
#
#
# Indices 1 2 3 4 5 6 
#
# 1 165.5632 25.2533 6.5340 0.0000 0.0000 0.0000
# 2 25.2533 26.1657 -7.4861 0.0000 0.0000 0.0000
# 3 6.5340 -7.4861 38.1172 0.0000 0.0000 0.0000
# 4 0.0000 0.0000 0.0000 25.5219 0.0000 0.0000
# 5 0.0000 0.0000 0.0000 0.0000 12.2295 0.0000
# 6 0.0000 0.0000 0.0000 0.0000 0.0000 43.7926
#
#
#
# Elastic Compliance Matrix: (Units=1/GPa)
#
#
# Indices 1 2 3 4 5 6 
#
# 1 0.007357 -0.007905 -0.002814 0.000000 0.000000 0.000000
# 2 -0.007905 0.048988 0.010976 0.000000 0.000000 0.000000
# 3 -0.002814 0.010976 0.028873 0.000000 0.000000 0.000000
# 4 0.000000 0.000000 0.000000 0.039182 0.000000 0.000000
# 5 0.000000 0.000000 0.000000 0.000000 0.081770 0.000000
# 6 0.000000 0.000000 0.000000 0.000000 0.000000 0.022835
#
#
# Mechanical properties :
#
#
# Convention : Reuss Voigt Hill
#
# Bulk Modulus (GPa) = 11.66425 30.93871 21.30148
# Shear Modulus (GPa) = 19.45016 30.01177 24.73096
#
# Velocity S-wave (km/s) = 2.86445 3.55816 3.22998
# Velocity P-wave (km/s) = 3.98254 5.47103 4.78502
#
# Compressibility (1/GPa) = 0.08573203
#
# Stress axis : x y z
#
# Youngs Moduli (GPa) = 135.92834 20.41319 34.63459
#
# Poissons Ratio (x) = 0.16137 0.09745
# Poissons Ratio (y) = 1.07455 -0.38015
# Poissons Ratio (z) = 0.38246 -0.22406
#
# Static dielectric constant tensor:
#      x y z
#    x 1.894180 0.000000 0.000000 
#    y 0.000000 2.033560 0.000000 
#    z 0.000000 0.000000 1.945360 
# 
# From -- ./inp_files/4241.got.cif
#   From: 2010.05.17/outbox.cif.g08.bks.cpg/sg46_3_cif.got.tgz:4241.got - 2010.06.03 19:58:25.
