data_PCOD9380745
_publ_section_title
;
Structure prediction by ZEFSAII (Michael W. Deem and Ramdas Pophale) SiO2 
 PCOD9380745
Probable space group: I M A 2
;
_chemical_formula_sum "Si O2"
_cell_formula_units_Z 40
_cell_length_a 17.700070
_cell_length_b 4.776290
_cell_length_c 18.949560
_cell_angle_alpha 90.000000
_cell_angle_beta 90.000000
_cell_angle_gamma 90.000000
_cell_volume 1602.008448
_symmetry_space_group_name_H-M "I M A 2"
_symmetry_group_IT_number 46
_symmetry_cell_setting 'orthorhombic'
loop_
_space_group_symop_operation_xyz
x,y,z
-x,-y,z
1/2-x,y,z
1/2+x,-y,z
1/2+x,1/2+y,1/2+z
1/2-x,1/2-y,1/2+z
-x,1/2+y,1/2+z
x,1/2-y,1/2+z
loop_
_atom_site_type_symbol
_atom_site_label
_atom_site_fract_x
_atom_site_fract_y
_atom_site_fract_z
Si Si1 0.877167 0.112751 0.781070
Si Si2 0.750000 0.733509 0.705683
Si Si3 0.912563 0.591815 0.870779
Si Si4 0.625916 0.639035 0.603734
Si Si5 0.664458 0.136751 0.509886
Si Si6 0.000000 0.000000 0.672101
O O1 0.814271 0.939493 0.741215
O O2 0.904131 0.910094 0.845620
O O3 0.943266 0.156385 0.724528
O O4 0.860891 0.406382 0.817813
O O5 0.682350 0.549687 0.665920
O O6 0.000000 0.500000 0.864597
O O7 0.881149 0.510704 0.947176
O O8 0.621990 0.397724 0.545338
O O9 0.547569 0.775776 0.628048
O O10 0.669509 0.902743 0.570017
O O11 0.750000 0.219939 0.488340
#
# Coordination Sequence:
#
# PCOD9380745 Si02
#       6
#     8   4   8   8   8   4
#     4  11  25  44  73 104 142 182 240 296 367 431
#     4  10  24  44  74 104 142 184 232 298 366 434
#     4  12  26  47  69 102 143 190 241 297 355 435
#     4  11  25  46  71 104 143 185 239 297 368 434
#     4  12  26  46  71 101 143 188 244 297 358 434
#     4  10  24  46  72 106 140 188 232 304 368 446
#
# _framework density 24.968658000000001
#
# number of rings (size 3 to 8) (size 9 to 14) (size 15 to 20)
#    0.000    0.800    4.000    1.200    4.200   10.400 
#    0.000    0.000    0.000    0.000    0.000    0.000 
#    0.000    0.000    0.000    0.000    0.000    0.000 
#
# Total GULP energy -111569.008037 kJ/mol
# GULP energy per Si atom -5578.450402 kJ/mol
# Density = 2.491183 g / cm^3
# Si number density = 24.968658 Si / 1000 Ang^3
#
#
#
# Elastic Constant Matrix: (Units=GPa)
#
#
# Indices 1 2 3 4 5 6 
#
# 1 126.5113 21.5485 48.9069 0.0000 0.0000 0.0000
# 2 21.5485 127.4840 38.5748 0.0000 0.0000 0.0000
# 3 48.9069 38.5748 101.5221 0.0000 0.0000 0.0000
# 4 0.0000 0.0000 0.0000 41.0599 0.0000 0.0000
# 5 0.0000 0.0000 0.0000 0.0000 -17.7055 0.0000
# 6 0.0000 0.0000 0.0000 0.0000 0.0000 8.9175
#
#
#
# Elastic Compliance Matrix: (Units=1/GPa)
#
#
# Indices 1 2 3 4 5 6 
#
# 1 0.009721 -0.000256 -0.004586 0.000000 0.000000 0.000000
# 2 -0.000256 0.008870 -0.003247 0.000000 0.000000 0.000000
# 3 -0.004586 -0.003247 0.013293 0.000000 0.000000 0.000000
# 4 0.000000 0.000000 0.000000 0.024355 0.000000 0.000000
# 5 0.000000 0.000000 0.000000 0.000000 -0.056479 0.000000
# 6 0.000000 0.000000 0.000000 0.000000 0.000000 0.112139
#
#
# Mechanical properties :
#
#
# Convention : Reuss Voigt Hill
#
# Bulk Modulus (GPa) = 63.66677 63.73086 63.69882
# Shear Modulus (GPa) = 37.50667 22.88686 30.19676
#
# Velocity S-wave (km/s) = 3.87996 3.03086 3.48140
# Velocity P-wave (km/s) = 6.75472 6.15044 6.45965
#
# Compressibility (1/GPa) = 0.01570678
#
# Stress axis : x y z
#
# Youngs Moduli (GPa) = 102.87319 112.74151 75.22761
#
# Poissons Ratio (x) = 0.02881 0.34497
# Poissons Ratio (y) = 0.02628 0.24428
# Poissons Ratio (z) = 0.47175 0.36609
#
# Static dielectric constant tensor:
#      x y z
#    x 2.311480 0.000000 0.000000 
#    y 0.000000 1.940360 0.000000 
#    z 0.000000 0.000000 2.022580 
# 
# From -- ./inp_files/19809.got.cif
#   From: 2010.05.17/outbox.cif.g08.bks.cpg/sg46_10_cif.got.tgz:19809.got - 2010.06.03 19:58:25.
