data_PCOD9380261
_publ_section_title
;
Structure prediction by ZEFSAII (Michael W. Deem and Ramdas Pophale) SiO2 
 PCOD9380261
Probable space group: I M A 2
;
_chemical_formula_sum "Si O2"
_cell_formula_units_Z 48
_cell_length_a 8.652597
_cell_length_b 20.853079
_cell_length_c 14.717143
_cell_angle_alpha 90.000000
_cell_angle_beta 90.000000
_cell_angle_gamma 90.000000
_cell_volume 2655.462513
_symmetry_space_group_name_H-M "I M A 2"
_symmetry_group_IT_number 46
_symmetry_cell_setting 'orthorhombic'
loop_
_space_group_symop_operation_xyz
x,y,z
-x,-y,z
1/2-x,y,z
1/2+x,-y,z
1/2+x,1/2+y,1/2+z
1/2-x,1/2-y,1/2+z
-x,1/2+y,1/2+z
x,1/2-y,1/2+z
loop_
_atom_site_type_symbol
_atom_site_label
_atom_site_fract_x
_atom_site_fract_y
_atom_site_fract_z
Si Si1 0.436210 0.188484 0.980590
Si Si2 0.935682 0.878477 0.658028
Si Si3 0.066426 0.765253 0.166708
Si Si4 0.564740 0.687744 0.855791
Si Si5 0.563856 0.930453 0.855455
Si Si6 0.434340 0.569819 0.969793
O O1 0.250000 0.186910 0.992787
O O2 0.471890 0.251201 0.919995
O O3 0.484289 0.125533 0.924661
O O4 0.516402 0.195955 0.077356
O O5 0.750000 0.882131 0.649245
O O6 0.983194 0.910925 0.753069
O O7 0.985298 0.804276 0.660959
O O8 0.012111 0.912102 0.571685
O O9 0.250000 0.756435 0.168565
O O10 0.009405 0.799641 0.257999
O O11 0.750000 0.684523 0.847197
O O12 0.501793 0.624281 0.903877
O O13 0.750000 0.932066 0.856235
O O14 0.500000 0.000000 0.879051
O O15 0.500000 0.500000 0.946714
O O16 0.250000 0.569695 0.965299
#
# Coordination Sequence:
#
# PCOD9380261 Si02
#       6
#     8   8   8   8   8   8
#     4  10  21  40  63  86 119 162 206 247 303 368
#     4  11  21  38  61  89 126 165 203 248 307 368
#     4  12  24  37  60  95 126 155 203 260 306 359
#     4  11  22  41  66  88 120 164 206 253 305 366
#     4  10  22  39  60  88 121 160 201 246 298 359
#     4  12  25  41  61  92 127 163 205 252 310 371
#
# _framework density 18.075948
#
# number of rings (size 3 to 8) (size 9 to 14) (size 15 to 20)
#    0.000    1.000    3.333    4.500    0.000    4.000 
#    0.000    0.833    0.000    2.000    0.000    0.000 
#    0.000    0.000    0.000    0.000    0.000    0.000 
#
# Total GULP energy -134239.308049 kJ/mol
# GULP energy per Si atom -5593.304502 kJ/mol
# Density = 1.803481 g / cm^3
# Si number density = 18.075948 Si / 1000 Ang^3
#
#
#
# Elastic Constant Matrix: (Units=GPa)
#
#
# Indices 1 2 3 4 5 6 
#
# 1 49.5717 19.7030 28.5301 0.0000 0.0000 0.0000
# 2 19.7030 137.2524 45.8069 0.0000 0.0000 0.0000
# 3 28.5301 45.8069 109.0788 0.0000 0.0000 0.0000
# 4 0.0000 0.0000 0.0000 12.2726 0.0000 0.0000
# 5 0.0000 0.0000 0.0000 0.0000 19.8814 0.0000
# 6 0.0000 0.0000 0.0000 0.0000 0.0000 32.8633
#
#
#
# Elastic Compliance Matrix: (Units=1/GPa)
#
#
# Indices 1 2 3 4 5 6 
#
# 1 0.024036 -0.001573 -0.005626 0.000000 0.000000 0.000000
# 2 -0.001573 0.008576 -0.003190 0.000000 0.000000 0.000000
# 3 -0.005626 -0.003190 0.011979 0.000000 0.000000 0.000000
# 4 0.000000 0.000000 0.000000 0.081482 0.000000 0.000000
# 5 0.000000 0.000000 0.000000 0.000000 0.050298 0.000000
# 6 0.000000 0.000000 0.000000 0.000000 0.000000 0.030429
#
#
# Mechanical properties :
#
#
# Convention : Reuss Voigt Hill
#
# Bulk Modulus (GPa) = 41.99409 53.77586 47.88498
# Shear Modulus (GPa) = 21.22991 26.46100 23.84546
#
# Velocity S-wave (km/s) = 3.43079 3.83022 3.63599
# Velocity P-wave (km/s) = 6.24310 7.02676 6.64649
#
# Compressibility (1/GPa) = 0.02381287
#
# Stress axis : x y z
#
# Youngs Moduli (GPa) = 41.60431 116.60002 83.47956
#
# Poissons Ratio (x) = 0.18338 0.46968
# Poissons Ratio (y) = 0.06543 0.26632
# Poissons Ratio (z) = 0.23408 0.37198
#
# Static dielectric constant tensor:
#      x y z
#    x 1.605320 0.000000 0.000000 
#    y 0.000000 1.595060 0.000000 
#    z 0.000000 0.000000 1.597620 
# 
# From -- ./inp_files/13895.got.cif
#   From: 2010.05.17/outbox.cif.g08.bks.cpg/sg46_7_cif.got.tgz:13895.got - 2010.06.03 19:58:25.
