data_PCOD9380531
_publ_section_title
;
Structure prediction by ZEFSAII (Michael W. Deem and Ramdas Pophale) SiO2 
 PCOD9380531
Probable space group: I M A 2
;
_chemical_formula_sum "Si O2"
_cell_formula_units_Z 40
_cell_length_a 21.897626
_cell_length_b 7.959651
_cell_length_c 9.193980
_cell_angle_alpha 90.000000
_cell_angle_beta 90.000000
_cell_angle_gamma 90.000000
_cell_volume 1602.487368
_symmetry_space_group_name_H-M "I M A 2"
_symmetry_group_IT_number 46
_symmetry_cell_setting 'orthorhombic'
loop_
_space_group_symop_operation_xyz
x,y,z
-x,-y,z
1/2-x,y,z
1/2+x,-y,z
1/2+x,1/2+y,1/2+z
1/2-x,1/2-y,1/2+z
-x,1/2+y,1/2+z
x,1/2-y,1/2+z
loop_
_atom_site_type_symbol
_atom_site_label
_atom_site_fract_x
_atom_site_fract_y
_atom_site_fract_z
Si Si1 0.632346 0.271001 0.214600
Si Si2 0.130953 0.387034 0.633948
Si Si3 0.750000 0.810462 0.328348
Si Si4 0.936161 0.335375 0.970750
Si Si5 0.564861 0.726759 0.886281
Si Si6 0.750000 0.005194 0.649955
O O1 0.621042 0.246146 0.384176
O O2 0.690933 0.375519 0.164918
O O3 0.625210 0.085388 0.146546
O O4 0.574036 0.355811 0.140990
O O5 0.191883 0.361614 0.729397
O O6 0.080415 0.273863 0.716878
O O7 0.119117 0.322078 0.471358
O O8 0.750000 0.610152 0.296624
O O9 0.750000 0.897006 0.492762
O O10 0.935129 0.526457 0.915861
O O11 0.996347 0.229707 0.932495
#
# Coordination Sequence:
#
# PCOD9380531 Si02
#       6
#     8   8   4   8   8   4
#     4  11  24  43  68  99 137 177 226 284 345 405
#     4  11  23  42  68  99 136 182 230 283 340 406
#     4  12  25  46  72  98 133 176 226 282 345 424
#     4  10  22  41  65  96 137 183 229 285 337 400
#     4  10  22  41  65  97 137 181 234 280 336 405
#     4  12  27  48  72 102 135 176 228 286 353 424
#
# _framework density 24.961195
#
# number of rings (size 3 to 8) (size 9 to 14) (size 15 to 20)
#    0.000    1.200    0.000    6.600    0.000    8.000 
#    0.000    1.000    0.000    0.000    0.000    0.000 
#    0.000    0.000    0.000    0.000    0.000    0.000 
#
# Total GULP energy -111472.886087 kJ/mol
# GULP energy per Si atom -5573.644304 kJ/mol
# Density = 2.490438 g / cm^3
# Si number density = 24.961195 Si / 1000 Ang^3
#
#
#
# Elastic Constant Matrix: (Units=GPa)
#
#
# Indices 1 2 3 4 5 6 
#
# 1 94.2703 27.6040 20.9800 0.0000 0.0000 0.0000
# 2 27.6040 90.5006 49.5890 0.0000 0.0000 0.0000
# 3 20.9800 49.5890 107.0056 0.0000 0.0000 0.0000
# 4 0.0000 0.0000 0.0000 34.8404 0.0000 0.0000
# 5 0.0000 0.0000 0.0000 0.0000 25.0445 0.0000
# 6 0.0000 0.0000 0.0000 0.0000 0.0000 28.7899
#
#
#
# Elastic Compliance Matrix: (Units=1/GPa)
#
#
# Indices 1 2 3 4 5 6 
#
# 1 0.011707 -0.003100 -0.000859 0.000000 0.000000 0.000000
# 2 -0.003100 0.015632 -0.006636 0.000000 0.000000 0.000000
# 3 -0.000859 -0.006636 0.012589 0.000000 0.000000 0.000000
# 4 0.000000 0.000000 0.000000 0.028702 0.000000 0.000000
# 5 0.000000 0.000000 0.000000 0.000000 0.039929 0.000000
# 6 0.000000 0.000000 0.000000 0.000000 0.000000 0.034734
#
#
# Mechanical properties :
#
#
# Convention : Reuss Voigt Hill
#
# Bulk Modulus (GPa) = 53.36966 54.23583 53.80274
# Shear Modulus (GPa) = 29.28626 30.64185 29.96406
#
# Velocity S-wave (km/s) = 3.42902 3.50748 3.46847
# Velocity P-wave (km/s) = 6.09139 6.17887 6.13529
#
# Compressibility (1/GPa) = 0.01873724
#
# Stress axis : x y z
#
# Youngs Moduli (GPa) = 85.42130 63.97329 79.43447
#
# Poissons Ratio (x) = 0.19834 0.06820
# Poissons Ratio (y) = 0.26483 0.52714
# Poissons Ratio (z) = 0.07334 0.42454
#
# Static dielectric constant tensor:
#      x y z
#    x 2.147280 0.000000 0.000000 
#    y 0.000000 2.142000 0.000000 
#    z 0.000000 0.000000 1.953420 
# 
# From -- ./inp_files/7732.got.cif
#   From: 2010.05.17/outbox.cif.g08.bks.cpg/sg46_4_cif.got.tgz:7732.got - 2010.06.03 19:58:25.
