data_PCOD9380868
_publ_section_title
;
Structure prediction by ZEFSAII (Michael W. Deem and Ramdas Pophale) SiO2 
 PCOD9380868
Probable space group: I M A 2
;
_chemical_formula_sum "Si O2"
_cell_formula_units_Z 64
_cell_length_a 14.239109
_cell_length_b 19.621352
_cell_length_c 8.209056
_cell_angle_alpha 90.000000
_cell_angle_beta 90.000000
_cell_angle_gamma 90.000000
_cell_volume 2293.532834
_symmetry_space_group_name_H-M "I M A 2"
_symmetry_group_IT_number 46
_symmetry_cell_setting 'orthorhombic'
loop_
_space_group_symop_operation_xyz
x,y,z
-x,-y,z
1/2-x,y,z
1/2+x,-y,z
1/2+x,1/2+y,1/2+z
1/2-x,1/2-y,1/2+z
-x,1/2+y,1/2+z
x,1/2-y,1/2+z
loop_
_atom_site_type_symbol
_atom_site_label
_atom_site_fract_x
_atom_site_fract_y
_atom_site_fract_z
Si Si1 0.134347 0.980916 0.614950
Si Si2 0.137008 0.646156 0.923179
Si Si3 0.144031 0.109885 0.457906
Si Si4 0.363873 0.771997 0.754778
Si Si5 0.640226 0.400405 0.430018
Si Si6 0.636339 0.767429 0.256278
Si Si7 0.637744 0.643180 0.435869
Si Si8 0.601750 0.980630 0.153188
O O1 0.250000 0.984098 0.615388
O O2 0.105637 0.929278 0.470643
O O3 0.103999 0.947434 0.783030
O O4 0.101280 0.057685 0.586882
O O5 0.250000 0.639707 0.906443
O O6 0.118041 0.691040 0.085248
O O7 0.100991 0.694912 0.779415
O O8 0.250000 0.126697 0.512520
O O9 0.099412 0.178886 0.391609
O O10 0.151039 0.061909 0.295230
O O11 0.250000 0.765160 0.762810
O O12 0.397247 0.824372 0.896894
O O13 0.750000 0.390923 0.396555
O O14 0.638774 0.446721 0.590181
O O15 0.750000 0.765627 0.278377
O O16 0.605674 0.689509 0.283206
O O17 0.622647 0.803470 0.084256
O O18 0.750000 0.628730 0.421231
O O19 0.595433 0.572601 0.500795
O O20 0.500000 0.000000 0.210472
#
# Coordination Sequence:
#
# PCOD9380868 Si02
#       8
#     8   8   8   8   8   8   8   8
#     4   8  15  27  47  73  99 123 157 205 257 305
#     4   8  13  22  36  62  93 119 148 192 242 283
#     4   9  17  32  53  78 103 130 168 217 265 316
#     4   8  14  23  38  59  87 118 152 193 238 281
#     4   9  17  31  49  71  96 125 163 212 259 301
#     4   8  15  27  48  77 104 125 155 203 263 317
#     4   9  17  32  54  81 106 130 166 218 270 317
#     4  11  22  34  49  71 104 142 174 204 245 310
#
# _framework density 27.904551000000001
#
# number of rings (size 3 to 8) (size 9 to 14) (size 15 to 20)
#    0.000    3.250    0.000    3.375    0.000    2.000 
#    0.000    8.125    0.000    9.000    0.000    0.000 
#    0.000    0.000    0.000    0.000    0.000    0.000 
#
# Total GULP energy -178934.069753 kJ/mol
# GULP energy per Si atom -5591.689680 kJ/mol
# Density = 2.784104 g / cm^3
# Si number density = 27.904551 Si / 1000 Ang^3
#
#
#
# Elastic Constant Matrix: (Units=GPa)
#
#
# Indices 1 2 3 4 5 6 
#
# 1 94.5320 22.5699 13.3184 0.0000 0.0000 0.0000
# 2 22.5699 166.1633 14.4294 0.0000 0.0000 0.0000
# 3 13.3184 14.4294 55.9985 0.0000 0.0000 0.0000
# 4 0.0000 0.0000 0.0000 60.7233 0.0000 0.0000
# 5 0.0000 0.0000 0.0000 0.0000 12.8375 0.0000
# 6 0.0000 0.0000 0.0000 0.0000 0.0000 440.4629
#
#
#
# Elastic Compliance Matrix: (Units=1/GPa)
#
#
# Indices 1 2 3 4 5 6 
#
# 1 0.011222 -0.001322 -0.002328 0.000000 0.000000 0.000000
# 2 -0.001322 0.006312 -0.001312 0.000000 0.000000 0.000000
# 3 -0.002328 -0.001312 0.018749 0.000000 0.000000 0.000000
# 4 0.000000 0.000000 0.000000 0.016468 0.000000 0.000000
# 5 0.000000 0.000000 0.000000 0.000000 0.077897 0.000000
# 6 0.000000 0.000000 0.000000 0.000000 0.000000 0.002270
#
#
# Mechanical properties :
#
#
# Convention : Reuss Voigt Hill
#
# Bulk Modulus (GPa) = 37.93844 46.36993 42.15419
# Shear Modulus (GPa) = 32.97512 120.56315 76.76914
#
# Velocity S-wave (km/s) = 3.44133 6.58022 5.25081
# Velocity P-wave (km/s) = 5.42362 8.62472 7.20422
#
# Compressibility (1/GPa) = 0.02635849
#
# Stress axis : x y z
#
# Youngs Moduli (GPa) = 89.10973 158.43635 53.33499
#
# Poissons Ratio (x) = 0.20947 0.12418
# Poissons Ratio (y) = 0.11781 0.06997
# Poissons Ratio (z) = 0.20748 0.20786
#
# Static dielectric constant tensor:
#      x y z
#    x 2.215870 0.000000 0.000000 
#    y 0.000000 2.120550 0.000000 
#    z 0.000000 0.000000 2.249470 
# 
# From -- ./inp_files/11316.got.cif
#   From: 2010.05.17/outbox.cif.g08.bks.cpg/sg46_6_cif.got.tgz:11316.got - 2010.06.03 19:58:25.
