data_PCOD9380570
_publ_section_title
;
Structure prediction by ZEFSAII (Michael W. Deem and Ramdas Pophale) SiO2 
 PCOD9380570
Probable space group: I M A 2
;
_chemical_formula_sum "Si O2"
_cell_formula_units_Z 48
_cell_length_a 13.528937
_cell_length_b 17.076491
_cell_length_c 7.821001
_cell_angle_alpha 90.000000
_cell_angle_beta 90.000000
_cell_angle_gamma 90.000000
_cell_volume 1806.860606
_symmetry_space_group_name_H-M "I M A 2"
_symmetry_group_IT_number 46
_symmetry_cell_setting 'orthorhombic'
loop_
_space_group_symop_operation_xyz
x,y,z
-x,-y,z
1/2-x,y,z
1/2+x,-y,z
1/2+x,1/2+y,1/2+z
1/2-x,1/2-y,1/2+z
-x,1/2+y,1/2+z
x,1/2-y,1/2+z
loop_
_atom_site_type_symbol
_atom_site_label
_atom_site_fract_x
_atom_site_fract_y
_atom_site_fract_z
Si Si1 0.925655 0.830110 0.663480
Si Si2 0.547939 0.398748 0.580855
Si Si3 0.638097 0.077091 0.422125
Si Si4 0.637448 0.836376 0.267570
Si Si5 0.867590 0.500836 0.276985
Si Si6 0.362222 0.770349 0.615692
O O1 0.907818 0.843916 0.459746
O O2 0.080286 0.952996 0.926175
O O3 0.038347 0.803267 0.705967
O O4 0.893411 0.908318 0.758411
O O5 0.362818 0.255771 0.223055
O O6 0.612665 0.318720 0.571538
O O7 0.581365 0.442003 0.753195
O O8 0.435978 0.373515 0.626633
O O9 0.750000 0.051274 0.400144
O O10 0.602558 0.038549 0.596603
O O11 0.638051 0.171002 0.452300
O O12 0.750000 0.866118 0.264394
O O13 0.750000 0.491505 0.296233
O O14 0.250000 0.779255 0.687250
#
# Coordination Sequence:
#
# PCOD9380570 Si02
#       6
#     8   8   8   8   8   8
#     4  11  25  50  82 120 166 223 289 358 427 513
#     4  11  24  46  79 121 164 217 280 348 424 513
#     4  10  22  42  72 114 163 209 265 340 418 495
#     4  11  24  49  84 121 164 226 292 357 424 509
#     4  11  25  47  81 122 165 218 280 352 426 503
#     4  10  22  42  76 119 161 213 278 346 424 507
#
# _framework density 26.565414000000001
#
# number of rings (size 3 to 8) (size 9 to 14) (size 15 to 20)
#    0.000    1.333    1.667    3.000    2.333    2.000 
#    3.000    0.833    3.667    0.000    0.000    0.000 
#    0.000    0.000    0.000    0.000    0.000    0.000 
#
# Total GULP energy -134627.513726 kJ/mol
# GULP energy per Si atom -5609.479739 kJ/mol
# Density = 2.650495 g / cm^3
# Si number density = 26.565414 Si / 1000 Ang^3
#
#
#
# Elastic Constant Matrix: (Units=GPa)
#
#
# Indices 1 2 3 4 5 6 
#
# 1 233.6481 62.9838 77.1298 0.0000 0.0000 0.0000
# 2 62.9838 195.6707 94.1415 0.0000 0.0000 0.0000
# 3 77.1298 94.1415 217.4590 0.0000 0.0000 0.0000
# 4 0.0000 0.0000 0.0000 8.8896 0.0000 0.0000
# 5 0.0000 0.0000 0.0000 0.0000 24.6902 0.0000
# 6 0.0000 0.0000 0.0000 0.0000 0.0000 21.9394
#
#
#
# Elastic Compliance Matrix: (Units=1/GPa)
#
#
# Indices 1 2 3 4 5 6 
#
# 1 0.004984 -0.000952 -0.001356 0.000000 0.000000 0.000000
# 2 -0.000952 0.006637 -0.002536 0.000000 0.000000 0.000000
# 3 -0.001356 -0.002536 0.006177 0.000000 0.000000 0.000000
# 4 0.000000 0.000000 0.000000 0.112491 0.000000 0.000000
# 5 0.000000 0.000000 0.000000 0.000000 0.040502 0.000000
# 6 0.000000 0.000000 0.000000 0.000000 0.000000 0.045580
#
#
# Mechanical properties :
#
#
# Convention : Reuss Voigt Hill
#
# Bulk Modulus (GPa) = 123.28000 123.92090 123.60045
# Shear Modulus (GPa) = 21.85679 38.60536 30.23107
#
# Velocity S-wave (km/s) = 2.87148 3.81625 3.37706
# Velocity P-wave (km/s) = 7.58293 8.13431 7.86346
#
# Compressibility (1/GPa) = 0.00811162
#
# Stress axis : x y z
#
# Youngs Moduli (GPa) = 200.63812 150.67016 161.88884
#
# Poissons Ratio (x) = 0.14345 0.21946
# Poissons Ratio (y) = 0.19103 0.41048
# Poissons Ratio (z) = 0.27199 0.38204
#
# Static dielectric constant tensor:
#      x y z
#    x 2.056430 0.000000 0.000000 
#    y 0.000000 2.064830 0.000000 
#    z 0.000000 0.000000 2.107950 
# 
# From -- ./inp_files/11355.got.cif
#   From: 2010.05.17/outbox.cif.g08.bks.cpg/sg46_6_cif.got.tgz:11355.got - 2010.06.03 19:58:25.
