data_PCOD9380414
_publ_section_title
;
Structure prediction by ZEFSAII (Michael W. Deem and Ramdas Pophale) SiO2 
 PCOD9380414
Probable space group: I M A 2
;
_chemical_formula_sum "Si O2"
_cell_formula_units_Z 48
_cell_length_a 8.781508
_cell_length_b 20.752044
_cell_length_c 14.692955
_cell_angle_alpha 90.000000
_cell_angle_beta 90.000000
_cell_angle_gamma 90.000000
_cell_volume 2677.559494
_symmetry_space_group_name_H-M "I M A 2"
_symmetry_group_IT_number 46
_symmetry_cell_setting 'orthorhombic'
loop_
_space_group_symop_operation_xyz
x,y,z
-x,-y,z
1/2-x,y,z
1/2+x,-y,z
1/2+x,1/2+y,1/2+z
1/2-x,1/2-y,1/2+z
-x,1/2+y,1/2+z
x,1/2-y,1/2+z
loop_
_atom_site_type_symbol
_atom_site_label
_atom_site_fract_x
_atom_site_fract_y
_atom_site_fract_z
Si Si1 0.932035 0.728260 0.408420
Si Si2 0.932603 0.881092 0.410340
Si Si3 0.568673 0.307753 0.220619
Si Si4 0.432193 0.312944 0.612366
Si Si5 0.567675 0.431329 0.099605
Si Si6 0.431654 0.568846 0.721611
O O1 0.750000 0.722464 0.394865
O O2 0.967731 0.804650 0.409163
O O3 0.969981 0.699041 0.506728
O O4 0.017210 0.695092 0.325011
O O5 0.750000 0.888736 0.408029
O O6 0.998238 0.911684 0.502133
O O7 0.005152 0.913212 0.321595
O O8 0.750000 0.298034 0.213938
O O9 0.485628 0.249463 0.168680
O O10 0.530241 0.374639 0.170790
O O11 0.250000 0.319376 0.621456
O O12 0.512052 0.375207 0.654327
O O13 0.500000 0.500000 0.127361
O O14 0.750000 0.435638 0.091696
O O15 0.500000 0.500000 0.694764
O O16 0.250000 0.566196 0.723988
#
# Coordination Sequence:
#
# PCOD9380414 Si02
#       6
#     8   8   8   8   8   8
#     4  10  22  38  62  91 121 157 199 245 296 355
#     4  11  21  37  61  91 124 160 197 245 301 358
#     4  11  23  38  61  90 121 157 200 250 299 352
#     4  11  22  40  63  89 120 158 201 245 297 357
#     4  11  24  40  59  88 123 162 203 248 302 357
#     4  12  25  41  61  89 123 162 200 248 301 357
#
# _framework density 17.926772
#
# number of rings (size 3 to 8) (size 9 to 14) (size 15 to 20)
#    0.000    1.000    3.333    4.000    0.000    4.000 
#    0.000    0.833    0.000    2.000    0.000    0.000 
#    0.000    0.000    0.000    0.000    0.000    0.000 
#
# Total GULP energy -134245.171864 kJ/mol
# GULP energy per Si atom -5593.548828 kJ/mol
# Density = 1.788597 g / cm^3
# Si number density = 17.926772 Si / 1000 Ang^3
#
#
#
# Elastic Constant Matrix: (Units=GPa)
#
#
# Indices 1 2 3 4 5 6 
#
# 1 88.3788 73.6494 56.8321 0.0000 0.0000 0.0000
# 2 73.6494 156.0548 66.7179 -0.0001 0.0001 0.0000
# 3 56.8321 66.7179 111.6979 -0.0001 0.0001 0.0000
# 4 0.0000 -0.0001 -0.0001 12.8434 0.0002 0.0000
# 5 0.0000 0.0001 0.0001 0.0002 -90.5611 0.0000
# 6 0.0000 0.0000 0.0000 0.0000 0.0000 30.5893
#
#
#
# Elastic Compliance Matrix: (Units=1/GPa)
#
#
# Indices 1 2 3 4 5 6 
#
# 1 0.021788 -0.007444 -0.006639 0.000000 0.000000 0.000000
# 2 -0.007444 0.011149 -0.002872 0.000000 0.000000 0.000000
# 3 -0.006639 -0.002872 0.014046 0.000000 0.000000 0.000000
# 4 0.000000 0.000000 0.000000 0.077861 0.000000 0.000000
# 5 0.000000 0.000000 0.000000 0.000000 -0.011042 0.000000
# 6 0.000000 0.000000 0.000000 0.000000 0.000000 0.032691
#
#
# Mechanical properties :
#
#
# Convention : Reuss Voigt Hill
#
# Bulk Modulus (GPa) = 76.49605 83.39226 79.94416
# Shear Modulus (GPa) = 27.06202 1.16980 14.11591
#
# Velocity S-wave (km/s) = 3.88956 0.80868 2.80915
# Velocity P-wave (km/s) = 7.93319 6.89139 7.43057
#
# Compressibility (1/GPa) = 0.01307257
#
# Stress axis : x y z
#
# Youngs Moduli (GPa) = 45.89717 89.69393 71.19426
#
# Poissons Ratio (x) = 0.66770 0.47267
# Poissons Ratio (y) = 0.34167 0.20445
# Poissons Ratio (z) = 0.30472 0.25758
#
# Static dielectric constant tensor:
#      x y z
#    x 1.604040 0.000000 0.000000 
#    y 0.000000 1.595890 0.000000 
#    z 0.000000 0.000000 1.585390 
# 
# From -- ./inp_files/13891.got.cif
#   From: 2010.05.17/outbox.cif.g08.bks.cpg/sg46_7_cif.got.tgz:13891.got - 2010.06.03 19:58:25.
