data_PCOD9380252
_publ_section_title
;
Structure prediction by ZEFSAII (Michael W. Deem and Ramdas Pophale) SiO2 
 PCOD9380252
Probable space group: I M A 2
;
_chemical_formula_sum "Si O2"
_cell_formula_units_Z 64
_cell_length_a 13.649915
_cell_length_b 12.432005
_cell_length_c 18.433158
_cell_angle_alpha 90.000000
_cell_angle_beta 90.000000
_cell_angle_gamma 90.000000
_cell_volume 3128.029706
_symmetry_space_group_name_H-M "I M A 2"
_symmetry_group_IT_number 46
_symmetry_cell_setting 'orthorhombic'
loop_
_space_group_symop_operation_xyz
x,y,z
-x,-y,z
1/2-x,y,z
1/2+x,-y,z
1/2+x,1/2+y,1/2+z
1/2-x,1/2-y,1/2+z
-x,1/2+y,1/2+z
x,1/2-y,1/2+z
loop_
_atom_site_type_symbol
_atom_site_label
_atom_site_fract_x
_atom_site_fract_y
_atom_site_fract_z
Si Si1 0.452837 0.115714 0.322330
Si Si2 0.961932 0.389859 0.440544
Si Si3 0.866905 0.465902 0.590822
Si Si4 0.366458 0.181967 0.169960
Si Si5 0.638731 0.231506 0.816594
Si Si6 0.137888 0.744808 0.151783
Si Si7 0.365056 0.286713 0.960673
Si Si8 0.030538 0.122951 0.597967
O O1 0.397051 0.139075 0.248046
O O2 0.549201 0.188567 0.326161
O O3 0.380679 0.145749 0.387620
O O4 0.500000 0.000000 0.327006
O O5 0.913540 0.423289 0.516825
O O6 0.881507 0.346425 0.384070
O O7 0.000000 0.500000 0.406225
O O8 0.055871 0.311345 0.453867
O O9 0.750000 0.471935 0.581971
O O10 0.898231 0.585719 0.614908
O O11 0.885640 0.372689 0.651186
O O12 0.250000 0.193061 0.163736
O O13 0.414891 0.298358 0.155580
O O14 0.750000 0.274412 0.820342
O O15 0.626982 0.194753 0.732292
O O16 0.250000 0.734867 0.130654
O O17 0.072214 0.685581 0.092931
O O18 0.250000 0.255789 0.970415
O O19 0.403470 0.360633 0.026884
O O20 0.000000 0.000000 0.614004
#
# Coordination Sequence:
#
# PCOD9380252 Si02
#       8
#     8   8   8   8   8   8   8   8
#     4  11  23  42  70 100 130 172 219 278 334 399
#     4  11  23  39  67  96 134 171 215 275 338 403
#     4  10  21  39  70 104 132 167 215 279 343 396
#     4  11  24  42  70 104 137 172 219 278 344 407
#     4  10  22  40  61  91 130 170 210 261 325 394
#     4  10  21  40  64  95 130 169 220 276 328 389
#     4  11  25  45  65  94 135 178 227 279 336 397
#     4  12  25  43  66  92 132 181 230 272 328 395
#
# _framework density 20.460163999999999
#
# number of rings (size 3 to 8) (size 9 to 14) (size 15 to 20)
#    0.000    1.250    2.500    3.000    0.000    5.500 
#    0.000    0.000    0.000    0.750    0.000    0.000 
#    0.000    0.000    0.000    0.000    0.000    0.000 
#
# Total GULP energy -178495.495901 kJ/mol
# GULP energy per Si atom -5577.984247 kJ/mol
# Density = 2.041360 g / cm^3
# Si number density = 20.460164 Si / 1000 Ang^3
#
#
#
# Elastic Constant Matrix: (Units=GPa)
#
#
# Indices 1 2 3 4 5 6 
#
# 1 118.4459 27.1462 25.4861 0.0000 0.0000 0.0000
# 2 27.1462 83.3965 -4.7096 0.0000 0.0000 0.0000
# 3 25.4861 -4.7096 66.6377 0.0000 0.0000 0.0000
# 4 0.0000 0.0000 0.0000 21.5152 0.0000 0.0000
# 5 0.0000 0.0000 0.0000 0.0000 32.4932 0.0000
# 6 0.0000 0.0000 0.0000 0.0000 0.0000 39.8531
#
#
#
# Elastic Compliance Matrix: (Units=1/GPa)
#
#
# Indices 1 2 3 4 5 6 
#
# 1 0.010141 -0.003534 -0.004128 0.000000 0.000000 0.000000
# 2 -0.003534 0.013271 0.002290 0.000000 0.000000 0.000000
# 3 -0.004128 0.002290 0.016747 0.000000 0.000000 0.000000
# 4 0.000000 0.000000 0.000000 0.046479 0.000000 0.000000
# 5 0.000000 0.000000 0.000000 0.000000 0.030776 0.000000
# 6 0.000000 0.000000 0.000000 0.000000 0.000000 0.025092
#
#
# Mechanical properties :
#
#
# Convention : Reuss Voigt Hill
#
# Bulk Modulus (GPa) = 33.99843 40.48061 37.23952
# Shear Modulus (GPa) = 30.66444 33.47612 32.07028
#
# Velocity S-wave (km/s) = 3.87555 4.04934 3.96340
# Velocity P-wave (km/s) = 6.05636 6.45685 6.25981
#
# Compressibility (1/GPa) = 0.02941312
#
# Stress axis : x y z
#
# Youngs Moduli (GPa) = 98.61043 75.35466 59.71145
#
# Poissons Ratio (x) = 0.26631 0.24650
# Poissons Ratio (y) = 0.34850 -0.13671
# Poissons Ratio (z) = 0.40709 -0.17253
#
# Static dielectric constant tensor:
#      x y z
#    x 1.742220 0.000000 0.000000 
#    y 0.000000 1.655540 0.000000 
#    z 0.000000 0.000000 1.783340 
# 
# From -- ./inp_files/19644.got.cif
#   From: 2010.05.17/outbox.cif.g08.bks.cpg/sg46_10_cif.got.tgz:19644.got - 2010.06.03 19:58:25.
