data_PCOD9380601
_publ_section_title
;
Structure prediction by ZEFSAII (Michael W. Deem and Ramdas Pophale) SiO2 
 PCOD9380601
Probable space group: I M A 2
;
_chemical_formula_sum "Si O2"
_cell_formula_units_Z 44
_cell_length_a 24.716287
_cell_length_b 6.271502
_cell_length_c 14.079239
_cell_angle_alpha 90.000000
_cell_angle_beta 90.000000
_cell_angle_gamma 90.000000
_cell_volume 2182.398105
_symmetry_space_group_name_H-M "I M A 2"
_symmetry_group_IT_number 46
_symmetry_cell_setting 'orthorhombic'
loop_
_space_group_symop_operation_xyz
x,y,z
-x,-y,z
1/2-x,y,z
1/2+x,-y,z
1/2+x,1/2+y,1/2+z
1/2-x,1/2-y,1/2+z
-x,1/2+y,1/2+z
x,1/2-y,1/2+z
loop_
_atom_site_type_symbol
_atom_site_label
_atom_site_fract_x
_atom_site_fract_y
_atom_site_fract_z
Si Si1 0.111769 0.325257 0.269240
Si Si2 0.540018 0.172224 0.036653
Si Si3 0.363938 0.144676 0.071246
Si Si4 0.608719 0.015305 0.424257
Si Si5 0.687809 0.400787 0.409401
Si Si6 0.500000 0.000000 0.690482
O O1 0.142617 0.249253 0.174032
O O2 0.150307 0.471856 0.334393
O O3 0.055454 0.444407 0.245294
O O4 0.099063 0.112072 0.328346
O O5 0.512122 0.300509 0.121318
O O6 0.500000 0.000000 0.993498
O O7 0.590532 0.038821 0.076795
O O8 0.560576 0.332712 0.957082
O O9 0.384432 0.337796 0.005348
O O10 0.317637 0.028124 0.009663
O O11 0.661310 0.167076 0.419134
O O12 0.750000 0.391682 0.380233
#
# Coordination Sequence:
#
# PCOD9380601 Si02
#       6
#     8   8   8   8   8   4
#     4  11  24  44  68 106 137 182 231 277 347 419
#     4  11  20  40  65  93 135 185 222 270 332 405
#     4  10  22  44  68  94 132 177 230 279 338 410
#     4  10  23  44  62  97 137 178 229 279 340 400
#     4  10  25  46  70 100 136 179 236 296 345 400
#     4  12  24  42  68 100 144 182 220 280 334 412
#
# _framework density 20.161308999999999
#
# number of rings (size 3 to 8) (size 9 to 14) (size 15 to 20)
#    0.000    1.455    3.636    0.000    2.545    3.636 
#   27.818    1.818    0.000    0.000    0.000    0.000 
#    0.000    0.000    0.000    0.000    0.000    0.000 
#
# Total GULP energy -122913.663026 kJ/mol
# GULP energy per Si atom -5586.984683 kJ/mol
# Density = 2.011542 g / cm^3
# Si number density = 20.161309 Si / 1000 Ang^3
#
#
#
# Elastic Constant Matrix: (Units=GPa)
#
#
# Indices 1 2 3 4 5 6 
#
# 1 124.6549 41.1979 33.2333 0.0000 0.0000 0.0000
# 2 41.1979 111.2677 38.9147 0.0000 0.0000 0.0000
# 3 33.2333 38.9147 114.1503 0.0000 0.0000 0.0000
# 4 0.0000 0.0000 0.0000 24.9259 0.0000 0.0000
# 5 0.0000 0.0000 0.0000 0.0000 21.9548 0.0000
# 6 0.0000 0.0000 0.0000 0.0000 0.0000 12.5205
#
#
#
# Elastic Compliance Matrix: (Units=1/GPa)
#
#
# Indices 1 2 3 4 5 6 
#
# 1 0.009445 -0.002879 -0.001768 0.000000 0.000000 0.000000
# 2 -0.002879 0.011081 -0.002940 0.000000 0.000000 0.000000
# 3 -0.001768 -0.002940 0.010277 0.000000 0.000000 0.000000
# 4 0.000000 0.000000 0.000000 0.040119 0.000000 0.000000
# 5 0.000000 0.000000 0.000000 0.000000 0.045548 0.000000
# 6 0.000000 0.000000 0.000000 0.000000 0.000000 0.079869
#
#
# Mechanical properties :
#
#
# Convention : Reuss Voigt Hill
#
# Bulk Modulus (GPa) = 63.97830 64.08496 64.03163
# Shear Modulus (GPa) = 23.07096 27.66206 25.36651
#
# Velocity S-wave (km/s) = 3.38645 3.70812 3.55093
# Velocity P-wave (km/s) = 6.86242 7.08439 6.97429
#
# Compressibility (1/GPa) = 0.01563030
#
# Stress axis : x y z
#
# Youngs Moduli (GPa) = 105.87630 90.24242 97.30105
#
# Poissons Ratio (x) = 0.25977 0.17207
# Poissons Ratio (y) = 0.30478 0.28603
# Poissons Ratio (z) = 0.18724 0.26528
#
# Static dielectric constant tensor:
#      x y z
#    x 1.712140 0.000000 0.000000 
#    y 0.000000 1.706940 0.000000 
#    z 0.000000 0.000000 1.715770 
# 
# From -- ./inp_files/17514.got.cif
#   From: 2010.05.17/outbox.cif.g08.bks.cpg/sg46_9_cif.got.tgz:17514.got - 2010.06.03 19:58:25.
