data_PCOD9380030
_publ_section_title
;
Structure prediction by ZEFSAII (Michael W. Deem and Ramdas Pophale) SiO2 
 PCOD9380030
Probable space group: I M A 2
;
_chemical_formula_sum "Si O2"
_cell_formula_units_Z 36
_cell_length_a 13.039542
_cell_length_b 26.266206
_cell_length_c 5.067947
_cell_angle_alpha 90.000000
_cell_angle_beta 90.000000
_cell_angle_gamma 90.000000
_cell_volume 1735.768281
_symmetry_space_group_name_H-M "I M A 2"
_symmetry_group_IT_number 46
_symmetry_cell_setting 'orthorhombic'
loop_
_space_group_symop_operation_xyz
x,y,z
-x,-y,z
1/2-x,y,z
1/2+x,-y,z
1/2+x,1/2+y,1/2+z
1/2-x,1/2-y,1/2+z
-x,1/2+y,1/2+z
x,1/2-y,1/2+z
loop_
_atom_site_type_symbol
_atom_site_label
_atom_site_fract_x
_atom_site_fract_y
_atom_site_fract_z
Si Si1 0.126523 0.531369 0.511870
Si Si2 0.250000 0.282505 0.994773
Si Si3 0.872131 0.918353 0.862857
Si Si4 0.371599 0.901274 0.510399
Si Si5 0.069367 0.140110 0.364372
O O1 0.250000 0.526785 0.499630
O O2 0.091014 0.474306 0.447902
O O3 0.103640 0.574004 0.292330
O O4 0.104361 0.554320 0.797800
O O5 0.250000 0.265430 0.297748
O O6 0.352205 0.314829 0.930684
O O7 0.750000 0.915765 0.898415
O O8 0.917375 0.876755 0.063113
O O9 0.894227 0.905511 0.559286
O O10 0.250000 0.889269 0.495368
O O11 0.449349 0.855715 0.438905
#
# Coordination Sequence:
#
# PCOD9380030 Si02
#       5
#     8   4   8   8   8
#     4   9  19  33  52  81 124 167 195 238 265 318
#     4  12  26  46  66  88 114 138 192 258 326 370
#     4  11  20  35  55  86 123 153 203 237 281 339
#     4  10  21  37  54  84 121 159 202 224 274 339
#     4  12  23  38  63  84 111 155 189 244 303 350
#
# _framework density 20.740095
#
# number of rings (size 3 to 8) (size 9 to 14) (size 15 to 20)
#    0.000    1.333    2.222    4.000    0.000    8.889 
#    0.000    0.000    0.000    1.333    0.000    0.000 
#    0.000    0.000    0.000    0.000    0.000    0.000 
#
# Total GULP energy -100607.217629 kJ/mol
# GULP energy per Si atom -5589.289868 kJ/mol
# Density = 2.069289 g / cm^3
# Si number density = 20.740095 Si / 1000 Ang^3
#
#
#
# Elastic Constant Matrix: (Units=GPa)
#
#
# Indices 1 2 3 4 5 6 
#
# 1 127.1370 27.0148 3.6448 0.0360 0.0039 0.0001
# 2 27.0148 37.7894 -2.4092 0.0698 -0.0074 0.0004
# 3 3.6448 -2.4092 79.7548 0.1067 0.1284 0.0338
# 4 0.0360 0.0698 0.1067 27.6599 0.0062 0.0007
# 5 0.0039 -0.0074 0.1284 0.0062 35.5461 -0.0265
# 6 0.0001 0.0004 0.0338 0.0007 -0.0265 30.3575
#
#
#
# Elastic Compliance Matrix: (Units=1/GPa)
#
#
# Indices 1 2 3 4 5 6 
#
# 1 0.009306 -0.006692 -0.000627 0.000007 0.000000 0.000001
# 2 -0.006692 0.031327 0.001252 -0.000075 0.000003 -0.000002
# 3 -0.000627 0.001252 0.012605 -0.000051 -0.000045 -0.000014
# 4 0.000007 -0.000075 -0.000051 0.036154 -0.000006 -0.000001
# 5 0.000000 0.000003 -0.000045 -0.000006 0.028133 0.000025
# 6 0.000001 -0.000002 -0.000014 -0.000001 0.000025 0.032941
#
#
# Mechanical properties :
#
#
# Convention : Reuss Voigt Hill
#
# Bulk Modulus (GPa) = 24.32960 33.46467 28.89714
# Shear Modulus (GPa) = 28.36066 33.14139 30.75103
#
# Velocity S-wave (km/s) = 3.70189 4.00176 3.85474
# Velocity P-wave (km/s) = 5.47980 6.12555 5.81165
#
# Compressibility (1/GPa) = 0.04110219
#
# Stress axis : x y z
#
# Youngs Moduli (GPa) = 107.46279 31.92167 79.33307
#
# Poissons Ratio (x) = 0.21363 0.04978
# Poissons Ratio (y) = 0.71918 -0.09934
# Poissons Ratio (z) = 0.06743 -0.03997
#
# Static dielectric constant tensor:
#      x y z
#    x 1.879150 0.000000 0.000020 
#    y 0.000000 1.710380 -0.000020 
#    z 0.000020 -0.000020 1.697060 
# 
# From -- ./inp_files/1162.got.cif
#   From: 2010.05.17/outbox.cif.g08.bks.cpg/sg46_1_cif.got.tgz:1162.got - 2010.06.03 19:58:25.
