data_PCOD9380267
_publ_section_title
;
Structure prediction by ZEFSAII (Michael W. Deem and Ramdas Pophale) SiO2 
 PCOD9380267
Probable space group: I M A 2
;
_chemical_formula_sum "Si O2"
_cell_formula_units_Z 56
_cell_length_a 14.790924
_cell_length_b 12.992813
_cell_length_c 13.252599
_cell_angle_alpha 90.000000
_cell_angle_beta 90.000000
_cell_angle_gamma 90.000000
_cell_volume 2546.827617
_symmetry_space_group_name_H-M "I M A 2"
_symmetry_group_IT_number 46
_symmetry_cell_setting 'orthorhombic'
loop_
_space_group_symop_operation_xyz
x,y,z
-x,-y,z
1/2-x,y,z
1/2+x,-y,z
1/2+x,1/2+y,1/2+z
1/2-x,1/2-y,1/2+z
-x,1/2+y,1/2+z
x,1/2-y,1/2+z
loop_
_atom_site_type_symbol
_atom_site_label
_atom_site_fract_x
_atom_site_fract_y
_atom_site_fract_z
Si Si1 0.357811 0.973438 0.603720
Si Si2 0.851303 0.905495 0.402025
Si Si3 0.567641 0.586386 0.302050
Si Si4 0.858001 0.277104 0.988846
Si Si5 0.846047 0.823326 0.990840
Si Si6 0.028271 0.617027 0.586008
Si Si7 0.516190 0.315199 0.799429
O O1 0.250000 0.979499 0.616083
O O2 0.381032 0.853786 0.582981
O O3 0.379925 0.025271 0.496508
O O4 0.398527 0.036112 0.697245
O O5 0.750000 0.936858 0.366858
O O6 0.842795 0.791888 0.449039
O O7 0.930774 0.890011 0.322220
O O8 0.500000 0.500000 0.342811
O O9 0.639034 0.606990 0.391262
O O10 0.520623 0.697814 0.287029
O O11 0.750000 0.279955 0.973838
O O12 0.913744 0.314743 0.891617
O O13 0.896435 0.164169 0.012809
O O14 0.750000 0.848213 0.040835
O O15 0.933327 0.827025 0.061073
O O16 0.059566 0.643893 0.697851
O O17 0.000000 0.500000 0.575612
#
# Coordination Sequence:
#
# PCOD9380267 Si02
#       7
#     8   8   8   8   8   8   8
#     4  10  22  39  68 103 134 178 229 287 354 408
#     4   9  19  37  64  99 135 168 217 282 347 409
#     4  11  21  37  66 101 134 171 230 286 344 411
#     4  11  26  49  71 100 144 185 236 292 342 417
#     4  10  21  40  63  94 137 173 215 279 346 415
#     4  12  26  46  66 101 135 183 236 279 353 417
#     4  11  25  42  68 102 136 186 234 285 349 415
#
# _framework density 21.988139
#
# number of rings (size 3 to 8) (size 9 to 14) (size 15 to 20)
#    0.000    1.429    2.857    2.571    4.000    2.286 
#    0.000    0.714    0.000    0.000    0.000    0.000 
#    0.000    0.000    0.000    0.000    0.000    0.000 
#
# Total GULP energy -156376.270624 kJ/mol
# GULP energy per Si atom -5584.866808 kJ/mol
# Density = 2.193809 g / cm^3
# Si number density = 21.988139 Si / 1000 Ang^3
#
#
#
# Elastic Constant Matrix: (Units=GPa)
#
#
# Indices 1 2 3 4 5 6 
#
# 1 91.8587 20.9428 26.7409 0.0000 0.0000 0.0000
# 2 20.9428 93.5872 27.9797 0.0000 0.0000 0.0000
# 3 26.7409 27.9797 90.2454 0.0000 0.0000 0.0000
# 4 0.0000 0.0000 0.0000 25.6635 0.0000 0.0000
# 5 0.0000 0.0000 0.0000 0.0000 -9.2979 0.0000
# 6 0.0000 0.0000 0.0000 0.0000 0.0000 16.8213
#
#
#
# Elastic Compliance Matrix: (Units=1/GPa)
#
#
# Indices 1 2 3 4 5 6 
#
# 1 0.012188 -0.001816 -0.003048 0.000000 0.000000 0.000000
# 2 -0.001816 0.012047 -0.003197 0.000000 0.000000 0.000000
# 3 -0.003048 -0.003197 0.012975 0.000000 0.000000 0.000000
# 4 0.000000 0.000000 0.000000 0.038966 0.000000 0.000000
# 5 0.000000 0.000000 0.000000 0.000000 -0.107552 0.000000
# 6 0.000000 0.000000 0.000000 0.000000 0.000000 0.059449
#
#
# Mechanical properties :
#
#
# Convention : Reuss Voigt Hill
#
# Bulk Modulus (GPa) = 47.42103 47.44645 47.43374
# Shear Modulus (GPa) = 97.60755 19.97256 58.79005
#
# Velocity S-wave (km/s) = 6.66989 3.01713 5.17641
# Velocity P-wave (km/s) = 8.99611 5.81055 7.57273
#
# Compressibility (1/GPa) = 0.02108769
#
# Stress axis : x y z
#
# Youngs Moduli (GPa) = 82.04983 83.00519 77.06891
#
# Poissons Ratio (x) = 0.15074 0.23493
# Poissons Ratio (y) = 0.14900 0.24640
# Poissons Ratio (z) = 0.25012 0.26538
#
# Static dielectric constant tensor:
#      x y z
#    x 1.887420 0.000000 0.000000 
#    y 0.000000 1.856760 0.000000 
#    z 0.000000 0.000000 1.793430 
# 
# From -- ./inp_files/15932.got.cif
#   From: 2010.05.17/outbox.cif.g08.bks.cpg/sg46_8_cif.got.tgz:15932.got - 2010.06.03 19:58:25.
