data_PCOD9380501
_publ_section_title
;
Structure prediction by ZEFSAII (Michael W. Deem and Ramdas Pophale) SiO2 
 PCOD9380501
Probable space group: I M A 2
;
_chemical_formula_sum "Si O2"
_cell_formula_units_Z 56
_cell_length_a 20.387942
_cell_length_b 15.702465
_cell_length_c 8.625768
_cell_angle_alpha 90.000000
_cell_angle_beta 90.000000
_cell_angle_gamma 90.000000
_cell_volume 2761.461525
_symmetry_space_group_name_H-M "I M A 2"
_symmetry_group_IT_number 46
_symmetry_cell_setting 'orthorhombic'
loop_
_space_group_symop_operation_xyz
x,y,z
-x,-y,z
1/2-x,y,z
1/2+x,-y,z
1/2+x,1/2+y,1/2+z
1/2-x,1/2-y,1/2+z
-x,1/2+y,1/2+z
x,1/2-y,1/2+z
loop_
_atom_site_type_symbol
_atom_site_label
_atom_site_fract_x
_atom_site_fract_y
_atom_site_fract_z
Si Si1 0.606691 0.690569 0.957640
Si Si2 0.250000 0.770438 0.118091
Si Si3 0.364376 0.000537 0.950943
Si Si4 0.459726 0.423536 0.195753
Si Si5 0.750000 0.116580 0.815513
Si Si6 0.108949 0.658633 0.636867
Si Si7 0.823802 0.663781 0.638924
Si Si8 0.028805 0.768064 0.859103
O O1 0.628943 0.662310 0.787702
O O2 0.538415 0.741454 0.940999
O O3 0.592374 0.615469 0.077513
O O4 0.657712 0.755318 0.034208
O O5 0.250000 0.669467 0.155173
O O6 0.318246 0.809709 0.181225
O O7 0.250000 0.806581 0.942197
O O8 0.389793 0.939476 0.088379
O O9 0.330853 0.080947 0.031974
O O10 0.313036 0.942757 0.852166
O O11 0.421903 0.036309 0.842536
O O12 0.500000 0.500000 0.120450
O O13 0.508574 0.348691 0.252865
O O14 0.057200 0.689110 0.763471
O O15 0.084063 0.705005 0.480555
O O16 0.750000 0.670713 0.697145
#
# Coordination Sequence:
#
# PCOD9380501 Si02
#       8
#     8   4   8   8   4   8   8   8
#     4  12  25  44  69  98 133 174 229 278 332 409
#     4  10  22  40  66  94 132 174 220 272 322 404
#     4  11  23  42  68  97 135 176 220 275 337 395
#     4  12  25  42  67  99 134 171 222 282 339 398
#     4  10  22  44  66  98 130 180 222 274 336 396
#     4  11  23  40  69  96 131 178 225 267 335 396
#     4  12  24  45  70  97 135 178 224 277 337 400
#     4  12  22  42  68  97 131 176 225 271 334 401
#
# _framework density 20.279114
#
# number of rings (size 3 to 8) (size 9 to 14) (size 15 to 20)
#    0.000    0.571    6.429    2.143    0.000    1.143 
#    2.571    2.857    0.000    0.000    0.000    0.000 
#    0.000    0.000    0.000    0.000    0.000    0.000 
#
# Total GULP energy -156449.257468 kJ/mol
# GULP energy per Si atom -5587.473481 kJ/mol
# Density = 2.023296 g / cm^3
# Si number density = 20.279114 Si / 1000 Ang^3
#
#
#
# Elastic Constant Matrix: (Units=GPa)
#
#
# Indices 1 2 3 4 5 6 
#
# 1 66.5286 25.7792 -0.4586 0.0000 0.0000 0.0000
# 2 25.7792 107.0906 22.3811 0.0000 0.0000 0.0000
# 3 -0.4586 22.3811 35.7853 0.0000 0.0000 0.0000
# 4 0.0000 0.0000 0.0000 40.5780 0.0000 0.0000
# 5 0.0000 0.0000 0.0000 0.0000 24.3136 0.0000
# 6 0.0000 0.0000 0.0000 0.0000 0.0000 11.3799
#
#
#
# Elastic Compliance Matrix: (Units=1/GPa)
#
#
# Indices 1 2 3 4 5 6 
#
# 1 0.016885 -0.004728 0.003173 0.000000 0.000000 0.000000
# 2 -0.004728 0.012066 -0.007607 0.000000 0.000000 0.000000
# 3 0.003173 -0.007607 0.032743 0.000000 0.000000 0.000000
# 4 0.000000 0.000000 0.000000 0.024644 0.000000 0.000000
# 5 0.000000 0.000000 0.000000 0.000000 0.041129 0.000000
# 6 0.000000 0.000000 0.000000 0.000000 0.000000 0.087874
#
#
# Mechanical properties :
#
#
# Convention : Reuss Voigt Hill
#
# Bulk Modulus (GPa) = 23.05709 33.86754 28.46232
# Shear Modulus (GPa) = 20.15152 26.03450 23.09301
#
# Velocity S-wave (km/s) = 3.15573 3.58691 3.37821
# Velocity P-wave (km/s) = 4.96717 5.82165 5.41130
#
# Compressibility (1/GPa) = 0.04337060
#
# Stress axis : x y z
#
# Youngs Moduli (GPa) = 59.22430 82.87929 30.54128
#
# Poissons Ratio (x) = 0.39184 -0.09692
# Poissons Ratio (y) = 0.28000 0.23232
# Poissons Ratio (z) = -0.18793 0.63045
#
# Static dielectric constant tensor:
#      x y z
#    x 1.716010 0.000000 0.000000 
#    y 0.000000 1.710280 0.000000 
#    z 0.000000 0.000000 1.725300 
# 
# From -- ./inp_files/7437.got.cif
#   From: 2010.05.17/outbox.cif.g08.bks.cpg/sg46_4_cif.got.tgz:7437.got - 2010.06.03 19:58:25.
