data_PCOD9380055
_publ_section_title
;
Structure prediction by ZEFSAII (Michael W. Deem and Ramdas Pophale) SiO2 
 PCOD9380055
Probable space group: I M A 2
;
_chemical_formula_sum "Si O2"
_cell_formula_units_Z 64
_cell_length_a 18.351296
_cell_length_b 10.847280
_cell_length_c 16.224952
_cell_angle_alpha 90.000000
_cell_angle_beta 90.000000
_cell_angle_gamma 90.000000
_cell_volume 3229.765653
_symmetry_space_group_name_H-M "I M A 2"
_symmetry_group_IT_number 46
_symmetry_cell_setting 'orthorhombic'
loop_
_space_group_symop_operation_xyz
x,y,z
-x,-y,z
1/2-x,y,z
1/2+x,-y,z
1/2+x,1/2+y,1/2+z
1/2-x,1/2-y,1/2+z
-x,1/2+y,1/2+z
x,1/2-y,1/2+z
loop_
_atom_site_type_symbol
_atom_site_label
_atom_site_fract_x
_atom_site_fract_y
_atom_site_fract_z
Si Si1 0.112182 0.727172 0.650170
Si Si2 0.432652 0.430519 0.948238
Si Si3 0.547907 0.692616 0.118980
Si Si4 0.336329 0.822212 0.821748
Si Si5 0.418445 0.040501 0.175878
Si Si6 0.331983 0.334797 0.819137
Si Si7 0.334135 0.429334 0.233216
Si Si8 0.335777 0.666861 0.978985
O O1 0.148022 0.742356 0.739777
O O2 0.107631 0.581999 0.630459
O O3 0.151257 0.787147 0.572017
O O4 0.032253 0.790450 0.657633
O O5 0.500000 0.500000 0.905934
O O6 0.388947 0.336530 0.892547
O O7 0.376089 0.537562 0.970146
O O8 0.461893 0.360939 0.028295
O O9 0.578137 0.833062 0.123506
O O10 0.604898 0.601704 0.164576
O O11 0.250000 0.831948 0.833721
O O12 0.364560 0.759314 0.906182
O O13 0.359120 0.959538 0.792636
O O14 0.365737 0.073233 0.251396
O O15 0.500000 0.000000 0.203239
O O16 0.250000 0.371797 0.842240
O O17 0.329529 0.198696 0.781909
O O18 0.250000 0.456243 0.203192
O O19 0.250000 0.651117 0.965736
#
# Coordination Sequence:
#
# PCOD9380055 Si02
#       8
#     8   8   8   8   8   8   8   8
#     4  11  21  39  62  87 123 160 197 249 303 356
#     4  12  23  38  58  82 121 156 194 249 299 356
#     4  10  22  39  59  87 117 153 203 246 295 362
#     4  10  22  39  61  88 122 160 198 244 303 359
#     4   9  20  39  62  84 117 157 199 243 299 358
#     4  10  21  37  59  88 117 153 203 248 295 357
#     4   9  20  39  61  85 117 155 199 247 295 357
#     4  11  24  39  59  92 122 155 205 251 299 365
#
# _framework density 19.815678999999999
#
# number of rings (size 3 to 8) (size 9 to 14) (size 15 to 20)
#    0.000    1.750    1.250    2.625    0.000    7.000 
#    0.000    0.000    0.000    0.000    0.000    0.000 
#    0.000    0.000    0.000    0.000    0.000    0.000 
#
# Total GULP energy -178448.012071 kJ/mol
# GULP energy per Si atom -5576.500377 kJ/mol
# Density = 1.977058 g / cm^3
# Si number density = 19.815679 Si / 1000 Ang^3
#
#
#
# Elastic Constant Matrix: (Units=GPa)
#
#
# Indices 1 2 3 4 5 6 
#
# 1 27.5267 14.9624 -5.3660 0.0000 0.0000 0.0000
# 2 14.9624 62.9177 7.4179 0.0000 0.0000 0.0000
# 3 -5.3660 7.4179 42.2976 0.0000 0.0000 0.0000
# 4 0.0000 0.0000 0.0000 17.9177 0.0000 0.0000
# 5 0.0000 0.0000 0.0000 0.0000 30.6379 0.0000
# 6 0.0000 0.0000 0.0000 0.0000 0.0000 25.0213
#
#
#
# Elastic Compliance Matrix: (Units=1/GPa)
#
#
# Indices 1 2 3 4 5 6 
#
# 1 0.043973 -0.011350 0.007569 0.000000 0.000000 0.000000
# 2 -0.011350 0.019159 -0.004800 0.000000 0.000000 0.000000
# 3 0.007569 -0.004800 0.025444 0.000000 0.000000 0.000000
# 4 0.000000 0.000000 0.000000 0.055811 0.000000 0.000000
# 5 0.000000 0.000000 0.000000 0.000000 0.032639 0.000000
# 6 0.000000 0.000000 0.000000 0.000000 0.000000 0.039966
#
#
# Mechanical properties :
#
#
# Convention : Reuss Voigt Hill
#
# Bulk Modulus (GPa) = 14.00264 18.53005 16.26635
# Shear Modulus (GPa) = 19.38305 22.43057 20.90681
#
# Velocity S-wave (km/s) = 3.13096 3.36811 3.25170
# Velocity P-wave (km/s) = 4.48914 4.94945 4.72490
#
# Compressibility (1/GPa) = 0.07141509
#
# Stress axis : x y z
#
# Youngs Moduli (GPa) = 22.74119 52.19568 39.30198
#
# Poissons Ratio (x) = 0.59240 -0.29748
# Poissons Ratio (y) = 0.25810 0.18864
# Poissons Ratio (z) = -0.17213 0.25053
#
# Static dielectric constant tensor:
#      x y z
#    x 1.740160 0.000000 0.000000 
#    y 0.000000 1.700620 0.000000 
#    z 0.000000 0.000000 1.698050 
# 
# From -- ./inp_files/16773.got.cif
#   From: 2010.05.17/outbox.cif.g08.bks.cpg/sg46_9_cif.got.tgz:16773.got - 2010.06.03 19:58:25.
