data_PCOD9380951
_publ_section_title
;
Structure prediction by ZEFSAII (Michael W. Deem and Ramdas Pophale) SiO2 
 PCOD9380951
Probable space group: I M A 2
;
_chemical_formula_sum "Si O2"
_cell_formula_units_Z 32
_cell_length_a 14.574081
_cell_length_b 6.996427
_cell_length_c 11.734998
_cell_angle_alpha 90.000000
_cell_angle_beta 90.000000
_cell_angle_gamma 90.000000
_cell_volume 1196.576601
_symmetry_space_group_name_H-M "I M A 2"
_symmetry_group_IT_number 46
_symmetry_cell_setting 'orthorhombic'
loop_
_space_group_symop_operation_xyz
x,y,z
-x,-y,z
1/2-x,y,z
1/2+x,-y,z
1/2+x,1/2+y,1/2+z
1/2-x,1/2-y,1/2+z
-x,1/2+y,1/2+z
x,1/2-y,1/2+z
loop_
_atom_site_type_symbol
_atom_site_label
_atom_site_fract_x
_atom_site_fract_y
_atom_site_fract_z
Si Si1 0.750000 0.348087 0.835351
Si Si2 0.000000 0.500000 0.026730
Si Si3 0.250000 0.518698 0.499119
Si Si4 0.750000 0.705265 0.730457
Si Si5 0.595944 0.708494 0.372676
Si Si6 0.945311 0.205433 0.217975
O O1 0.750000 0.576474 0.846075
O O2 0.659387 0.308601 0.759253
O O3 0.750000 0.234118 0.953067
O O4 0.041212 0.668134 0.105789
O O5 0.077694 0.400601 0.948394
O O6 0.250000 0.428518 0.623345
O O7 0.344446 0.432903 0.448131
O O8 0.845711 0.805794 0.752382
O O9 0.494174 0.692037 0.324219
O O10 0.000000 0.000000 0.204791
#
# Coordination Sequence:
#
# PCOD9380951 Si02
#       6
#     4   4   4   4   8   8
#     4  12  26  46  72 118 152 206 274 320 408 484
#     4  12  26  48  80 110 156 226 256 322 424 462
#     4  11  27  45  84 112 159 223 250 335 418 465
#     4  11  23  47  72 112 157 195 270 327 384 481
#     4  11  24  50  75 112 157 204 270 330 389 490
#     4  12  26  51  76 115 161 205 272 339 392 489
#
# _framework density 26.742958000000002
#
# number of rings (size 3 to 8) (size 9 to 14) (size 15 to 20)
#    0.000    0.500    3.750    3.000    0.000    8.000 
#    2.250    0.000    0.000    0.000    0.000    0.000 
#    0.000    0.000    0.000    0.000    0.000    0.000 
#
# Total GULP energy -89337.178560 kJ/mol
# GULP energy per Si atom -5583.573660 kJ/mol
# Density = 2.668209 g / cm^3
# Si number density = 26.742958 Si / 1000 Ang^3
#
#
#
# Elastic Constant Matrix: (Units=GPa)
#
#
# Indices 1 2 3 4 5 6 
#
# 1 205.2874 -2.7569 32.4887 0.0000 0.0000 0.0000
# 2 -2.7569 90.0818 1.2372 0.0000 0.0000 0.0000
# 3 32.4887 1.2372 107.9347 0.0000 0.0000 0.0000
# 4 0.0000 0.0000 0.0000 29.8330 0.0000 0.0000
# 5 0.0000 0.0000 0.0000 0.0000 32.6985 0.0000
# 6 0.0000 0.0000 0.0000 0.0000 0.0000 29.4620
#
#
#
# Elastic Compliance Matrix: (Units=1/GPa)
#
#
# Indices 1 2 3 4 5 6 
#
# 1 0.005118 0.000178 -0.001542 0.000000 0.000000 0.000000
# 2 0.000178 0.011109 -0.000181 0.000000 0.000000 0.000000
# 3 -0.001542 -0.000181 0.009731 0.000000 0.000000 0.000000
# 4 0.000000 0.000000 0.000000 0.033520 0.000000 0.000000
# 5 0.000000 0.000000 0.000000 0.000000 0.030582 0.000000
# 6 0.000000 0.000000 0.000000 0.000000 0.000000 0.033942
#
#
# Mechanical properties :
#
#
# Convention : Reuss Voigt Hill
#
# Bulk Modulus (GPa) = 43.73144 51.69352 47.71248
# Shear Modulus (GPa) = 37.11522 43.22103 40.16812
#
# Velocity S-wave (km/s) = 3.72943 4.02452 3.87978
# Velocity P-wave (km/s) = 5.91040 6.40058 6.16037
#
# Compressibility (1/GPa) = 0.02286684
#
# Stress axis : x y z
#
# Youngs Moduli (GPa) = 195.39941 90.01748 102.76191
#
# Poissons Ratio (x) = -0.01601 0.15851
# Poissons Ratio (y) = -0.03474 0.01858
# Poissons Ratio (z) = 0.30140 0.01628
#
# Static dielectric constant tensor:
#      x y z
#    x 2.475350 0.000000 0.000000 
#    y 0.000000 2.253460 0.000000 
#    z 0.000000 0.000000 2.092550 
# 
# From -- ./inp_files/10781.got.cif
#   From: 2010.05.17/outbox.cif.g08.bks.cpg/sg46_6_cif.got.tgz:10781.got - 2010.06.03 19:58:25.
