data_PCOD9380553
_publ_section_title
;
Structure prediction by ZEFSAII (Michael W. Deem and Ramdas Pophale) SiO2 
 PCOD9380553
Probable space group: I M A 2
;
_chemical_formula_sum "Si O2"
_cell_formula_units_Z 40
_cell_length_a 8.349524
_cell_length_b 30.073922
_cell_length_c 7.488386
_cell_angle_alpha 90.000000
_cell_angle_beta 90.000000
_cell_angle_gamma 90.000000
_cell_volume 1880.355692
_symmetry_space_group_name_H-M "I M A 2"
_symmetry_group_IT_number 46
_symmetry_cell_setting 'orthorhombic'
loop_
_space_group_symop_operation_xyz
x,y,z
-x,-y,z
1/2-x,y,z
1/2+x,-y,z
1/2+x,1/2+y,1/2+z
1/2-x,1/2-y,1/2+z
-x,1/2+y,1/2+z
x,1/2-y,1/2+z
loop_
_atom_site_type_symbol
_atom_site_label
_atom_site_fract_x
_atom_site_fract_y
_atom_site_fract_z
Si Si1 0.941247 0.395500 0.626300
Si Si2 0.934260 0.211008 0.415924
Si Si3 0.566969 0.802817 0.041959
Si Si4 0.941795 0.049343 0.798987
Si Si5 0.061380 0.123428 0.524218
O O1 0.750000 0.395638 0.649837
O O2 0.990628 0.436208 0.500088
O O3 0.991312 0.351186 0.516706
O O4 0.018012 0.392758 0.822568
O O5 0.750000 0.206029 0.356704
O O6 0.057060 0.202685 0.255708
O O7 0.965304 0.260994 0.476234
O O8 0.972509 0.170985 0.552350
O O9 0.750000 0.800851 0.978451
O O10 0.750000 0.050957 0.790827
O O11 0.008273 0.085610 0.661191
O O12 0.000000 0.000000 0.756959
O O13 0.250000 0.130831 0.539026
#
# Coordination Sequence:
#
# PCOD9380553 Si02
#       5
#     8   8   8   8   8
#     4  10  22  42  65  91 127 167 211 262 319 380
#     4  11  22  38  59  86 123 165 209 254 310 374
#     4  11  22  37  58  88 123 161 208 257 310 372
#     4  11  25  44  68  96 126 164 214 265 322 382
#     4  11  23  41  65  93 129 167 210 262 318 378
#
# _framework density 21.272570000000002
#
# number of rings (size 3 to 8) (size 9 to 14) (size 15 to 20)
#    0.000    1.200    0.000    9.000    2.800    4.000 
#    0.000    2.000    0.000    0.000    0.000    0.000 
#    0.000    0.000    0.000    0.000    0.000    0.000 
#
# Total GULP energy -111785.130475 kJ/mol
# GULP energy per Si atom -5589.256524 kJ/mol
# Density = 2.122415 g / cm^3
# Si number density = 21.272570 Si / 1000 Ang^3
#
#
#
# Elastic Constant Matrix: (Units=GPa)
#
#
# Indices 1 2 3 4 5 6 
#
# 1 86.0513 0.5566 3.4420 -0.0001 0.0002 0.0000
# 2 0.5566 79.5846 16.1969 0.0000 -0.0003 0.0000
# 3 3.4420 16.1969 49.4302 -0.0008 0.0020 0.0002
# 4 -0.0001 0.0000 -0.0008 37.7111 0.0003 0.0000
# 5 0.0002 -0.0003 0.0020 0.0003 20.2871 -0.0002
# 6 0.0000 0.0000 0.0002 0.0000 -0.0002 32.6598
#
#
#
# Elastic Compliance Matrix: (Units=1/GPa)
#
#
# Indices 1 2 3 4 5 6 
#
# 1 0.011654 0.000090 -0.000841 0.000000 0.000000 0.000000
# 2 0.000090 0.013464 -0.004418 0.000000 0.000001 0.000000
# 3 -0.000841 -0.004418 0.021737 0.000000 -0.000002 0.000000
# 4 0.000000 0.000000 0.000000 0.026517 0.000000 0.000000
# 5 0.000000 0.000001 -0.000002 0.000000 0.049292 0.000000
# 6 0.000000 0.000000 0.000000 0.000000 0.000000 0.030619
#
#
# Mechanical properties :
#
#
# Convention : Reuss Voigt Hill
#
# Bulk Modulus (GPa) = 27.38515 28.38413 27.88464
# Shear Modulus (GPa) = 28.44247 31.12297 29.78272
#
# Velocity S-wave (km/s) = 3.66053 3.82914 3.74579
# Velocity P-wave (km/s) = 5.54684 5.73775 5.64310
#
# Compressibility (1/GPa) = 0.03651614
#
# Stress axis : x y z
#
# Youngs Moduli (GPa) = 85.80720 74.27359 46.00507
#
# Poissons Ratio (x) = -0.00666 0.03869
# Poissons Ratio (y) = -0.00769 0.20325
# Poissons Ratio (z) = 0.07215 0.32813
#
# Static dielectric constant tensor:
#      x y z
#    x 1.707470 0.000000 0.000000 
#    y 0.000000 1.788080 0.000000 
#    z 0.000000 0.000000 1.810490 
# 
# From -- ./inp_files/3531.got.cif
#   From: 2010.05.17/outbox.cif.g08.bks.cpg/sg46_2_cif.got.tgz:3531.got - 2010.06.03 19:58:25.
