data_PCOD9380182
_publ_section_title
;
Structure prediction by ZEFSAII (Michael W. Deem and Ramdas Pophale) SiO2 
 PCOD9380182
Probable space group: I M A 2
;
_chemical_formula_sum "Si O2"
_cell_formula_units_Z 40
_cell_length_a 24.921574
_cell_length_b 7.153481
_cell_length_c 8.857372
_cell_angle_alpha 90.000000
_cell_angle_beta 90.000000
_cell_angle_gamma 90.000000
_cell_volume 1579.056905
_symmetry_space_group_name_H-M "I M A 2"
_symmetry_group_IT_number 46
_symmetry_cell_setting 'orthorhombic'
loop_
_space_group_symop_operation_xyz
x,y,z
-x,-y,z
1/2-x,y,z
1/2+x,-y,z
1/2+x,1/2+y,1/2+z
1/2-x,1/2-y,1/2+z
-x,1/2+y,1/2+z
x,1/2-y,1/2+z
loop_
_atom_site_type_symbol
_atom_site_label
_atom_site_fract_x
_atom_site_fract_y
_atom_site_fract_z
Si Si1 0.608792 0.881652 0.102730
Si Si2 0.535332 0.149350 0.569474
Si Si3 0.029429 0.278940 0.846920
Si Si4 0.810657 0.335272 0.456255
Si Si5 0.653120 0.017017 0.634624
O O1 0.569791 0.925053 0.245785
O O2 0.647772 0.705807 0.140402
O O3 0.645552 0.054672 0.055925
O O4 0.574538 0.809390 0.957637
O O5 0.491493 0.183630 0.693271
O O6 0.527029 0.296687 0.441233
O O7 0.591506 0.084012 0.618545
O O8 0.500000 0.000000 0.455837
O O9 0.750000 0.386760 0.497340
O O10 0.818676 0.115430 0.491918
O O11 0.821469 0.396026 0.284682
#
# Coordination Sequence:
#
# PCOD9380182 Si02
#       5
#     8   8   8   8   8
#     4  11  23  48  72 101 148 187 242 295 357 430
#     4  11  20  38  67 101 144 181 227 278 355 432
#     4  10  21  38  70 103 141 187 225 282 353 438
#     4  12  29  49  73 106 140 194 255 311 367 415
#     4  12  26  48  75 104 151 189 242 306 359 438
#
# _framework density 25.331576999999999
#
# number of rings (size 3 to 8) (size 9 to 14) (size 15 to 20)
#    0.000    0.800    6.000    1.800    2.800    3.200 
#    0.000    4.000    0.000    0.000    0.000    0.000 
#    0.000    0.000    0.000    0.000    0.000    0.000 
#
# Total GULP energy -111352.800117 kJ/mol
# GULP energy per Si atom -5567.640006 kJ/mol
# Density = 2.527392 g / cm^3
# Si number density = 25.331577 Si / 1000 Ang^3
#
#
#
# Elastic Constant Matrix: (Units=GPa)
#
#
# Indices 1 2 3 4 5 6 
#
# 1 115.9058 0.0174 18.1718 0.0000 0.0000 0.0000
# 2 0.0174 78.5278 6.6465 0.0000 0.0000 0.0000
# 3 18.1718 6.6465 102.3871 0.0000 0.0000 0.0000
# 4 0.0000 0.0000 0.0000 -49.9037 0.0000 0.0000
# 5 0.0000 0.0000 0.0000 0.0000 34.7845 0.0000
# 6 0.0000 0.0000 0.0000 0.0000 0.0000 23.8547
#
#
#
# Elastic Compliance Matrix: (Units=1/GPa)
#
#
# Indices 1 2 3 4 5 6 
#
# 1 0.008876 0.000132 -0.001584 0.000000 0.000000 0.000000
# 2 0.000132 0.012807 -0.000855 0.000000 0.000000 0.000000
# 3 -0.001584 -0.000855 0.010103 0.000000 0.000000 0.000000
# 4 0.000000 0.000000 0.000000 -0.020039 0.000000 0.000000
# 5 0.000000 0.000000 0.000000 0.000000 0.028748 0.000000
# 6 0.000000 0.000000 0.000000 0.000000 0.000000 0.041920
#
#
# Mechanical properties :
#
#
# Convention : Reuss Voigt Hill
#
# Bulk Modulus (GPa) = 36.80134 38.49913 37.65024
# Shear Modulus (GPa) = 52.03601 19.87942 35.95772
#
# Velocity S-wave (km/s) = 4.53724 2.80441 3.77169
# Velocity P-wave (km/s) = 6.48137 5.07123 5.81917
#
# Compressibility (1/GPa) = 0.02717292
#
# Stress axis : x y z
#
# Youngs Moduli (GPa) = 112.66336 78.08432 98.97602
#
# Poissons Ratio (x) = -0.01031 0.15677
# Poissons Ratio (y) = -0.01488 0.08460
# Poissons Ratio (z) = 0.17845 0.06675
#
# Static dielectric constant tensor:
#      x y z
#    x 1.935220 0.000000 0.000000 
#    y 0.000000 2.484200 0.000000 
#    z 0.000000 0.000000 2.048300 
# 
# From -- ./inp_files/8105.got.cif
#   From: 2010.05.17/outbox.cif.g08.bks.cpg/sg46_5_cif.got.tgz:8105.got - 2010.06.03 19:58:25.
