data_PCOD9380130
_publ_section_title
;
Structure prediction by ZEFSAII (Michael W. Deem and Ramdas Pophale) SiO2 
 PCOD9380130
Probable space group: I M A 2
;
_chemical_formula_sum "Si O2"
_cell_formula_units_Z 64
_cell_length_a 20.764490
_cell_length_b 14.060290
_cell_length_c 10.202552
_cell_angle_alpha 90.000000
_cell_angle_beta 90.000000
_cell_angle_gamma 90.000000
_cell_volume 2978.683530
_symmetry_space_group_name_H-M "I M A 2"
_symmetry_group_IT_number 46
_symmetry_cell_setting 'orthorhombic'
loop_
_space_group_symop_operation_xyz
x,y,z
-x,-y,z
1/2-x,y,z
1/2+x,-y,z
1/2+x,1/2+y,1/2+z
1/2-x,1/2-y,1/2+z
-x,1/2+y,1/2+z
x,1/2-y,1/2+z
loop_
_atom_site_type_symbol
_atom_site_label
_atom_site_fract_x
_atom_site_fract_y
_atom_site_fract_z
Si Si1 0.177289 0.953162 0.758200
Si Si2 0.975578 0.338817 0.995893
Si Si3 0.179715 0.853233 0.197538
Si Si4 0.387277 0.139637 0.365764
Si Si5 0.575377 0.297502 0.272274
Si Si6 0.323491 0.057164 0.126868
Si Si7 0.323801 0.157762 0.849032
Si Si8 0.151852 0.955064 0.467398
O O1 0.250000 0.943788 0.815125
O O2 0.120774 0.886077 0.811033
O O3 0.157608 0.064045 0.767505
O O4 0.180376 0.926547 0.605425
O O5 0.952719 0.250922 0.902851
O O6 0.922799 0.421475 0.972169
O O7 0.044685 0.363136 0.937166
O O8 0.973949 0.321064 0.153231
O O9 0.250000 0.810788 0.170670
O O10 0.123622 0.777473 0.202118
O O11 0.169219 0.944333 0.104833
O O12 0.179918 0.900922 0.342394
O O13 0.379517 0.090691 0.223907
O O14 0.364837 0.247157 0.345023
O O15 0.342092 0.068230 0.448765
O O16 0.250000 0.069618 0.181067
O O17 0.325919 0.117997 0.996532
O O18 0.250000 0.182060 0.813880
#
# Coordination Sequence:
#
# PCOD9380130 Si02
#       8
#     8   8   8   8   8   8   8   8
#     4  10  21  38  60  89 124 157 191 246 311 363
#     4  10  23  39  61  88 119 160 205 252 289 356
#     4   9  17  34  61  88 115 152 193 244 302 358
#     4  11  22  38  63  81 114 162 199 242 302 355
#     4  10  22  39  60  88 124 156 203 248 296 356
#     4   9  20  37  57  87 119 146 197 252 299 364
#     4  10  23  37  56  89 122 155 196 247 308 366
#     4   9  20  38  59  88 117 152 205 249 290 354
#
# _framework density 21.486001999999999
#
# number of rings (size 3 to 8) (size 9 to 14) (size 15 to 20)
#    0.000    2.250    0.000    1.500    5.250    1.500 
#    0.000    3.125    0.000    0.000    0.000    0.000 
#    0.000    0.000    0.000    0.000    0.000    0.000 
#
# Total GULP energy -178496.425350 kJ/mol
# GULP energy per Si atom -5578.013292 kJ/mol
# Density = 2.143710 g / cm^3
# Si number density = 21.486002 Si / 1000 Ang^3
#
#
#
# Elastic Constant Matrix: (Units=GPa)
#
#
# Indices 1 2 3 4 5 6 
#
# 1 63.3419 20.9620 10.9993 0.0000 0.0000 0.0000
# 2 20.9620 79.2671 12.6939 0.0000 0.0000 0.0000
# 3 10.9993 12.6939 69.4820 0.0000 0.0000 0.0000
# 4 0.0000 0.0000 0.0000 21.5681 0.0000 0.0000
# 5 0.0000 0.0000 0.0000 0.0000 21.1033 0.0000
# 6 0.0000 0.0000 0.0000 0.0000 0.0000 -1.4107
#
#
#
# Elastic Compliance Matrix: (Units=1/GPa)
#
#
# Indices 1 2 3 4 5 6 
#
# 1 0.017565 -0.004326 -0.001990 0.000000 0.000000 0.000000
# 2 -0.004326 0.014061 -0.001884 0.000000 0.000000 0.000000
# 3 -0.001990 -0.001884 0.015051 0.000000 0.000000 0.000000
# 4 0.000000 0.000000 0.000000 0.046365 0.000000 0.000000
# 5 0.000000 0.000000 0.000000 0.000000 0.047386 0.000000
# 6 0.000000 0.000000 0.000000 0.000000 0.000000 -0.708872
#
#
# Mechanical properties :
#
#
# Convention : Reuss Voigt Hill
#
# Bulk Modulus (GPa) = 33.02889 33.48906 33.25898
# Shear Modulus (GPa) = -9.22593 19.41451 5.09429
#
# Velocity S-wave (km/s) = -2.07443 3.00924 1.54147
# Velocity P-wave (km/s) = 3.10934 5.26254 4.32217
#
# Compressibility (1/GPa) = 0.03027652
#
# Stress axis : x y z
#
# Youngs Moduli (GPa) = 56.93258 71.11690 66.43864
#
# Poissons Ratio (x) = 0.30767 0.13223
# Poissons Ratio (y) = 0.24630 0.12517
# Poissons Ratio (z) = 0.11331 0.13399
#
# Static dielectric constant tensor:
#      x y z
#    x 1.784090 0.000000 0.000000 
#    y 0.000000 1.784230 0.000000 
#    z 0.000000 0.000000 1.798160 
# 
# From -- ./inp_files/7954.got.cif
#   From: 2010.05.17/outbox.cif.g08.bks.cpg/sg46_4_cif.got.tgz:7954.got - 2010.06.03 19:58:25.
