data_PCOD9380679
_publ_section_title
;
Structure prediction by ZEFSAII (Michael W. Deem and Ramdas Pophale) SiO2 
 PCOD9380679
Probable space group: I M A 2
;
_chemical_formula_sum "Si O2"
_cell_formula_units_Z 48
_cell_length_a 15.444863
_cell_length_b 7.908250
_cell_length_c 17.583330
_cell_angle_alpha 90.000000
_cell_angle_beta 90.000000
_cell_angle_gamma 90.000000
_cell_volume 2147.660241
_symmetry_space_group_name_H-M "I M A 2"
_symmetry_group_IT_number 46
_symmetry_cell_setting 'orthorhombic'
loop_
_space_group_symop_operation_xyz
x,y,z
-x,-y,z
1/2-x,y,z
1/2+x,-y,z
1/2+x,1/2+y,1/2+z
1/2-x,1/2-y,1/2+z
-x,1/2+y,1/2+z
x,1/2-y,1/2+z
loop_
_atom_site_type_symbol
_atom_site_label
_atom_site_fract_x
_atom_site_fract_y
_atom_site_fract_z
Si Si1 0.398880 0.493206 0.446060
Si Si2 0.852663 0.352059 0.993089
Si Si3 0.969285 0.174160 0.643939
Si Si4 0.646634 0.852095 0.381122
Si Si5 0.901177 0.455108 0.728459
Si Si6 0.657376 0.676680 0.598876
O O1 0.500000 0.500000 0.464032
O O2 0.369422 0.688491 0.438180
O O3 0.386866 0.340872 0.385294
O O4 0.349225 0.420437 0.519398
O O5 0.750000 0.354994 0.008691
O O6 0.877784 0.529807 0.953068
O O7 0.909661 0.330948 0.068673
O O8 0.909334 0.259417 0.709045
O O9 0.064032 0.238641 0.613609
O O10 0.000000 0.000000 0.678387
O O11 0.750000 0.842413 0.379507
O O12 0.616891 0.961632 0.308926
O O13 0.840963 0.541780 0.666799
O O14 0.000000 0.500000 0.707672
O O15 0.750000 0.773295 0.600163
#
# Coordination Sequence:
#
# PCOD9380679 Si02
#       6
#     8   8   8   8   8   8
#     4  12  23  41  71 101 137 184 235 290 355 422
#     4  11  24  42  69 105 141 181 235 292 351 428
#     4  11  23  42  68 103 140 179 236 289 357 431
#     4  11  26  45  67 100 141 186 235 292 356 421
#     4  10  23  43  66  93 132 180 226 282 349 418
#     4  11  21  41  68  97 134 180 230 281 345 422
#
# _framework density 22.349905
#
# number of rings (size 3 to 8) (size 9 to 14) (size 15 to 20)
#    0.000    1.000    3.333    3.500    2.333    2.667 
#    6.000    0.000    0.000    0.000    0.000    0.000 
#    0.000    0.000    0.000    0.000    0.000    0.000 
#
# Total GULP energy -133755.412855 kJ/mol
# GULP energy per Si atom -5573.142202 kJ/mol
# Density = 2.229904 g / cm^3
# Si number density = 22.349905 Si / 1000 Ang^3
#
#
#
# Elastic Constant Matrix: (Units=GPa)
#
#
# Indices 1 2 3 4 5 6 
#
# 1 121.7263 14.2041 25.7967 0.0000 0.0000 0.0000
# 2 14.2041 98.4876 18.9243 0.0000 0.0000 0.0000
# 3 25.7967 18.9243 58.7306 0.0000 0.0000 0.0000
# 4 0.0000 0.0000 0.0000 14.8145 0.0000 0.0000
# 5 0.0000 0.0000 0.0000 0.0000 32.9669 0.0000
# 6 0.0000 0.0000 0.0000 0.0000 0.0000 20.5752
#
#
#
# Elastic Compliance Matrix: (Units=1/GPa)
#
#
# Indices 1 2 3 4 5 6 
#
# 1 0.009089 -0.000580 -0.003806 0.000000 0.000000 0.000000
# 2 -0.000580 0.010861 -0.003245 0.000000 0.000000 0.000000
# 3 -0.003806 -0.003245 0.019744 0.000000 0.000000 0.000000
# 4 0.000000 0.000000 0.000000 0.067501 0.000000 0.000000
# 5 0.000000 0.000000 0.000000 0.000000 0.030333 0.000000
# 6 0.000000 0.000000 0.000000 0.000000 0.000000 0.048602
#
#
# Mechanical properties :
#
#
# Convention : Reuss Voigt Hill
#
# Bulk Modulus (GPa) = 40.92715 44.08831 42.50773
# Shear Modulus (GPa) = 23.86224 28.33928 26.10076
#
# Velocity S-wave (km/s) = 3.27106 3.56474 3.42105
# Velocity P-wave (km/s) = 5.71124 6.05907 5.88772
#
# Compressibility (1/GPa) = 0.02443366
#
# Stress axis : x y z
#
# Youngs Moduli (GPa) = 110.01965 92.07536 50.64813
#
# Poissons Ratio (x) = 0.05337 0.19275
# Poissons Ratio (y) = 0.06377 0.16435
# Poissons Ratio (z) = 0.41869 0.29878
#
# Static dielectric constant tensor:
#      x y z
#    x 1.832310 0.000000 0.000000 
#    y 0.000000 2.341160 0.000000 
#    z 0.000000 0.000000 1.863480 
# 
# From -- ./inp_files/19409.got.cif
#   From: 2010.05.17/outbox.cif.g08.bks.cpg/sg46_10_cif.got.tgz:19409.got - 2010.06.03 19:58:25.
