data_PCOD9380449
_publ_section_title
;
Structure prediction by ZEFSAII (Michael W. Deem and Ramdas Pophale) SiO2 
 PCOD9380449
Probable space group: I M A 2
;
_chemical_formula_sum "Si O2"
_cell_formula_units_Z 60
_cell_length_a 23.584583
_cell_length_b 21.222120
_cell_length_c 5.007117
_cell_angle_alpha 90.000000
_cell_angle_beta 90.000000
_cell_angle_gamma 90.000000
_cell_volume 2506.136417
_symmetry_space_group_name_H-M "I M A 2"
_symmetry_group_IT_number 46
_symmetry_cell_setting 'orthorhombic'
loop_
_space_group_symop_operation_xyz
x,y,z
-x,-y,z
1/2-x,y,z
1/2+x,-y,z
1/2+x,1/2+y,1/2+z
1/2-x,1/2-y,1/2+z
-x,1/2+y,1/2+z
x,1/2-y,1/2+z
loop_
_atom_site_type_symbol
_atom_site_label
_atom_site_fract_x
_atom_site_fract_y
_atom_site_fract_z
Si Si1 0.066633 0.994705 0.859790
Si Si2 0.183362 0.208879 0.913309
Si Si3 0.599732 0.209205 0.287170
Si Si4 0.381157 0.112963 0.552105
Si Si5 0.250000 0.552747 0.380739
Si Si6 0.848929 0.403784 0.100932
Si Si7 0.163864 0.485842 0.722247
Si Si8 0.466543 0.291884 0.786088
O O1 0.088172 0.054083 0.690243
O O2 0.093188 0.932039 0.725654
O O3 0.098990 0.000860 0.140803
O O4 0.000000 0.000000 0.885172
O O5 0.250000 0.194319 0.890486
O O6 0.172137 0.268339 0.713865
O O7 0.147162 0.153751 0.784265
O O8 0.609046 0.230949 0.983990
O O9 0.636564 0.153067 0.406618
O O10 0.533030 0.191539 0.311149
O O11 0.334201 0.081773 0.357692
O O12 0.426827 0.152264 0.384037
O O13 0.198983 0.604533 0.322773
O O14 0.201172 0.499718 0.466090
O O15 0.818440 0.459479 0.927639
O O16 0.456450 0.266758 0.488082
#
# Coordination Sequence:
#
# PCOD9380449 Si02
#       8
#     8   8   8   8   4   8   8   8
#     4  10  23  40  62  96 129 169 219 273 339 403
#     4  10  23  42  63  91 129 175 221 281 337 383
#     4  10  23  41  68 100 129 172 227 272 337 416
#     4  11  23  38  62  94 127 174 227 276 327 408
#     4  10  22  44  68  90 128 172 218 272 348 392
#     4  10  22  44  65  93 133 173 213 281 341 407
#     4  10  24  40  66  96 127 176 220 279 335 412
#     4  10  22  39  62  93 134 180 222 281 341 402
#
# _framework density 23.941234000000001
#
# number of rings (size 3 to 8) (size 9 to 14) (size 15 to 20)
#    0.000    1.867    0.000    2.000    8.400    3.200 
#    4.800    0.667    0.000    0.000    0.000    0.000 
#    0.000    0.000    0.000    0.000    0.000    0.000 
#
# Total GULP energy -167453.914005 kJ/mol
# GULP energy per Si atom -5581.797133 kJ/mol
# Density = 2.388674 g / cm^3
# Si number density = 23.941234 Si / 1000 Ang^3
#
#
#
# Elastic Constant Matrix: (Units=GPa)
#
#
# Indices 1 2 3 4 5 6 
#
# 1 124.6750 19.0429 6.5404 0.0000 0.0000 0.0000
# 2 19.0429 64.7943 1.6074 0.0000 0.0000 0.0000
# 3 6.5404 1.6074 78.3306 0.0000 0.0000 0.0000
# 4 0.0000 0.0000 0.0000 28.9105 0.0000 0.0000
# 5 0.0000 0.0000 0.0000 0.0000 141.5729 0.0000
# 6 0.0000 0.0000 0.0000 0.0000 0.0000 21.9455
#
#
#
# Elastic Compliance Matrix: (Units=1/GPa)
#
#
# Indices 1 2 3 4 5 6 
#
# 1 0.008431 -0.002462 -0.000653 0.000000 0.000000 0.000000
# 2 -0.002462 0.016160 -0.000126 0.000000 0.000000 0.000000
# 3 -0.000653 -0.000126 0.012824 0.000000 0.000000 0.000000
# 4 0.000000 0.000000 0.000000 0.034589 0.000000 0.000000
# 5 0.000000 0.000000 0.000000 0.000000 0.007063 0.000000
# 6 0.000000 0.000000 0.000000 0.000000 0.000000 0.045567
#
#
# Mechanical properties :
#
#
# Convention : Reuss Voigt Hill
#
# Bulk Modulus (GPa) = 32.32865 35.79793 34.06329
# Shear Modulus (GPa) = 35.35359 54.52641 44.94000
#
# Velocity S-wave (km/s) = 3.84693 4.77750 4.33725
# Velocity P-wave (km/s) = 5.76754 6.73926 6.27224
#
# Compressibility (1/GPa) = 0.03093231
#
# Stress axis : x y z
#
# Youngs Moduli (GPa) = 118.60806 61.88094 77.98156
#
# Poissons Ratio (x) = 0.15233 0.05096
# Poissons Ratio (y) = 0.29197 0.00983
# Poissons Ratio (z) = 0.07751 0.00780
#
# Static dielectric constant tensor:
#      x y z
#    x 1.831430 0.000000 0.000000 
#    y 0.000000 1.927960 0.000000 
#    z 0.000000 0.000000 2.054930 
# 
# From -- ./inp_files/2397.got.cif
#   From: 2010.05.17/outbox.cif.g08.bks.cpg/sg46_2_cif.got.tgz:2397.got - 2010.06.03 19:58:25.
