data_PCOD9380892
_publ_section_title
;
Structure prediction by ZEFSAII (Michael W. Deem and Ramdas Pophale) SiO2 
 PCOD9380892
Probable space group: I M A 2
;
_chemical_formula_sum "Si O2"
_cell_formula_units_Z 64
_cell_length_a 8.680324
_cell_length_b 15.732603
_cell_length_c 24.051016
_cell_angle_alpha 90.000000
_cell_angle_beta 90.000000
_cell_angle_gamma 90.000000
_cell_volume 3284.505147
_symmetry_space_group_name_H-M "I M A 2"
_symmetry_group_IT_number 46
_symmetry_cell_setting 'orthorhombic'
loop_
_space_group_symop_operation_xyz
x,y,z
-x,-y,z
1/2-x,y,z
1/2+x,-y,z
1/2+x,1/2+y,1/2+z
1/2-x,1/2-y,1/2+z
-x,1/2+y,1/2+z
x,1/2-y,1/2+z
loop_
_atom_site_type_symbol
_atom_site_label
_atom_site_fract_x
_atom_site_fract_y
_atom_site_fract_z
Si Si1 0.066006 0.090791 0.613990
Si Si2 0.565928 0.409852 0.379851
Si Si3 0.065721 0.657559 0.999764
Si Si4 0.434807 0.745612 0.186252
Si Si5 0.065773 0.588847 0.612640
Si Si6 0.065612 0.348700 0.496353
Si Si7 0.066343 0.907805 0.375903
Si Si8 0.433774 0.252463 0.310100
O O1 0.250000 0.090427 0.615856
O O2 0.009199 0.108750 0.551234
O O3 0.000111 0.166434 0.651643
O O4 0.000000 0.000000 0.632250
O O5 0.500000 0.500000 0.359983
O O6 0.750000 0.411377 0.380282
O O7 0.504053 0.393202 0.442079
O O8 0.506796 0.332407 0.342295
O O9 0.250000 0.663525 0.008277
O O10 0.995840 0.752034 0.997440
O O11 0.036679 0.612281 0.940973
O O12 0.250000 0.738447 0.190439
O O13 0.470512 0.831963 0.152578
O O14 0.508382 0.747872 0.246952
O O15 0.250000 0.583771 0.606579
O O16 0.000000 0.500000 0.634518
O O17 0.991147 0.607032 0.552672
O O18 0.250000 0.349585 0.493397
O O19 0.250000 0.905827 0.367267
O O20 0.989439 0.833252 0.340372
O O21 0.000000 0.000000 0.361852
O O22 0.250000 0.258574 0.312683
#
# Coordination Sequence:
#
# PCOD9380892 Si02
#       8
#     8   8   8   8   8   8   8   8
#     4  12  25  42  67  98 133 172 217 267 324 386
#     4  12  25  44  68  97 133 171 217 266 324 387
#     4  11  22  39  65  97 134 173 214 262 323 386
#     4  11  25  46  69  93 128 171 219 271 326 383
#     4  11  24  42  67  96 132 171 215 265 323 384
#     4  12  23  38  65  98 134 172 214 261 323 387
#     4  11  24  42  67  97 133 173 217 267 323 385
#     4  12  26  45  69  96 129 169 220 271 326 386
#
# _framework density 19.485431999999999
#
# number of rings (size 3 to 8) (size 9 to 14) (size 15 to 20)
#    0.000    0.500    2.500    6.750    0.000    5.000 
#    0.000    3.750    0.000    0.000    0.000    0.000 
#    0.000    0.000    0.000    0.000    0.000    0.000 
#
# Total GULP energy -179218.318343 kJ/mol
# GULP energy per Si atom -5600.572448 kJ/mol
# Density = 1.944108 g / cm^3
# Si number density = 19.485432 Si / 1000 Ang^3
#
#
#
# Elastic Constant Matrix: (Units=GPa)
#
#
# Indices 1 2 3 4 5 6 
#
# 1 114.8286 68.4615 44.0472 0.0000 0.0000 0.0000
# 2 68.4615 183.6733 52.8041 0.0000 0.0000 0.0000
# 3 44.0472 52.8041 97.1443 0.0000 0.0000 0.0000
# 4 0.0000 0.0000 0.0000 -11.3384 0.0000 0.0000
# 5 0.0000 0.0000 0.0000 0.0000 32.2005 0.0000
# 6 0.0000 0.0000 0.0000 0.0000 0.0000 36.8068
#
#
#
# Elastic Compliance Matrix: (Units=1/GPa)
#
#
# Indices 1 2 3 4 5 6 
#
# 1 0.012185 -0.003500 -0.003622 0.000000 0.000000 0.000000
# 2 -0.003500 0.007458 -0.002467 0.000000 0.000000 0.000000
# 3 -0.003622 -0.002467 0.013277 0.000000 0.000000 0.000000
# 4 0.000000 0.000000 0.000000 -0.088196 0.000000 0.000000
# 5 0.000000 0.000000 0.000000 0.000000 0.031055 0.000000
# 6 0.000000 0.000000 0.000000 0.000000 0.000000 0.027169
#
#
# Mechanical properties :
#
#
# Convention : Reuss Voigt Hill
#
# Bulk Modulus (GPa) = 72.77217 80.69687 76.73452
# Shear Modulus (GPa) = 187.20309 26.88935 107.04622
#
# Velocity S-wave (km/s) = 9.81234 3.71883 7.41996
# Velocity P-wave (km/s) = 12.87649 7.74231 10.62420
#
# Compressibility (1/GPa) = 0.01374152
#
# Stress axis : x y z
#
# Youngs Moduli (GPa) = 82.06757 134.07681 75.31650
#
# Poissons Ratio (x) = 0.46933 0.27281
# Poissons Ratio (y) = 0.28727 0.18580
# Poissons Ratio (z) = 0.29727 0.33076
#
# Static dielectric constant tensor:
#      x y z
#    x 1.646730 0.000000 0.000000 
#    y 0.000000 1.670890 0.000000 
#    z 0.000000 0.000000 1.655030 
# 
# From -- ./inp_files/23161.got.cif
#   From: 2010.05.17/outbox.cif.g08.bks.cpg/sg46_12_cif.got.tgz:23161.got - 2010.06.03 19:58:25.
