data_PCOD9380785
_publ_section_title
;
Structure prediction by ZEFSAII (Michael W. Deem and Ramdas Pophale) SiO2 
 PCOD9380785
Probable space group: I M A 2
;
_chemical_formula_sum "Si O2"
_cell_formula_units_Z 32
_cell_length_a 19.609911
_cell_length_b 13.435966
_cell_length_c 5.049948
_cell_angle_alpha 90.000000
_cell_angle_beta 90.000000
_cell_angle_gamma 90.000000
_cell_volume 1330.550691
_symmetry_space_group_name_H-M "I M A 2"
_symmetry_group_IT_number 46
_symmetry_cell_setting 'orthorhombic'
loop_
_space_group_symop_operation_xyz
x,y,z
-x,-y,z
1/2-x,y,z
1/2+x,-y,z
1/2+x,1/2+y,1/2+z
1/2-x,1/2-y,1/2+z
-x,1/2+y,1/2+z
x,1/2-y,1/2+z
loop_
_atom_site_type_symbol
_atom_site_label
_atom_site_fract_x
_atom_site_fract_y
_atom_site_fract_z
Si Si1 0.852064 0.995043 0.867320
Si Si2 0.250000 0.319197 0.473440
Si Si3 0.175998 0.625136 0.870309
Si Si4 0.027458 0.695793 0.922624
Si Si5 0.500000 0.500000 0.592422
O O1 0.814757 0.891569 0.928466
O O2 0.833259 0.034349 0.577817
O O3 0.827144 0.076797 0.080534
O O4 0.932663 0.992520 0.915472
O O5 0.250000 0.269386 0.760514
O O6 0.250000 0.671945 0.915720
O O7 0.109975 0.692184 0.917861
O O8 0.005082 0.782349 0.719760
O O9 0.004187 0.594688 0.786566
#
# Coordination Sequence:
#
# PCOD9380785 Si02
#       5
#     8   4   8   8   4
#     4  11  23  42  67  98 132 190 238 287 362 439
#     4  12  24  40  66 104 138 180 240 302 360 432
#     4  11  21  41  69  94 133 178 226 288 357 425
#     4  11  25  42  66 102 137 178 238 288 349 436
#     4  10  26  46  72  98 148 196 238 302 378 418
#
# _framework density 24.050191999999999
#
# number of rings (size 3 to 8) (size 9 to 14) (size 15 to 20)
#    0.000    1.000    2.500    4.500    0.000   12.000 
#    0.000    0.000    0.000    0.000    0.000    0.000 
#    0.000    0.000    0.000    0.000    0.000    0.000 
#
# Total GULP energy -89695.630673 kJ/mol
# GULP energy per Si atom -5605.976917 kJ/mol
# Density = 2.399545 g / cm^3
# Si number density = 24.050192 Si / 1000 Ang^3
#
#
#
# Elastic Constant Matrix: (Units=GPa)
#
#
# Indices 1 2 3 4 5 6 
#
# 1 116.3307 10.1787 13.7361 0.0000 0.0000 0.0000
# 2 10.1787 78.2193 3.0019 0.0000 0.0000 0.0000
# 3 13.7361 3.0019 43.6015 0.0000 0.0000 0.0000
# 4 0.0000 0.0000 0.0000 56.3598 0.0000 0.0000
# 5 0.0000 0.0000 0.0000 0.0000 12.7549 0.0000
# 6 0.0000 0.0000 0.0000 0.0000 0.0000 41.6004
#
#
#
# Elastic Compliance Matrix: (Units=1/GPa)
#
#
# Indices 1 2 3 4 5 6 
#
# 1 0.009016 -0.001067 -0.002767 0.000000 0.000000 0.000000
# 2 -0.001067 0.012945 -0.000555 0.000000 0.000000 0.000000
# 3 -0.002767 -0.000555 0.023845 0.000000 0.000000 0.000000
# 4 0.000000 0.000000 0.000000 0.017743 0.000000 0.000000
# 5 0.000000 0.000000 0.000000 0.000000 0.078401 0.000000
# 6 0.000000 0.000000 0.000000 0.000000 0.000000 0.024038
#
#
# Mechanical properties :
#
#
# Convention : Reuss Voigt Hill
#
# Bulk Modulus (GPa) = 27.00688 32.44277 29.72482
# Shear Modulus (GPa) = 26.72238 36.22535 31.47386
#
# Velocity S-wave (km/s) = 3.33695 3.88524 3.62148
# Velocity P-wave (km/s) = 5.10888 5.80049 5.46564
#
# Compressibility (1/GPa) = 0.03702761
#
# Stress axis : x y z
#
# Youngs Moduli (GPa) = 110.91060 77.25146 41.93770
#
# Poissons Ratio (x) = 0.08243 0.11604
# Poissons Ratio (y) = 0.11835 0.02328
# Poissons Ratio (z) = 0.30689 0.04288
#
# Static dielectric constant tensor:
#      x y z
#    x 1.924030 0.000000 0.000000 
#    y 0.000000 1.895830 0.000000 
#    z 0.000000 0.000000 1.866250 
# 
# From -- ./inp_files/1555.got.cif
#   From: 2010.05.17/outbox.cif.g08.bks.cpg/sg46_1_cif.got.tgz:1555.got - 2010.06.03 19:58:25.
