data_PCOD9380875
_publ_section_title
;
Structure prediction by ZEFSAII (Michael W. Deem and Ramdas Pophale) SiO2 
 PCOD9380875
Probable space group: I M A 2
;
_chemical_formula_sum "Si O2"
_cell_formula_units_Z 48
_cell_length_a 14.108254
_cell_length_b 10.199979
_cell_length_c 12.644602
_cell_angle_alpha 90.000000
_cell_angle_beta 90.000000
_cell_angle_gamma 90.000000
_cell_volume 1819.607473
_symmetry_space_group_name_H-M "I M A 2"
_symmetry_group_IT_number 46
_symmetry_cell_setting 'orthorhombic'
loop_
_space_group_symop_operation_xyz
x,y,z
-x,-y,z
1/2-x,y,z
1/2+x,-y,z
1/2+x,1/2+y,1/2+z
1/2-x,1/2-y,1/2+z
-x,1/2+y,1/2+z
x,1/2-y,1/2+z
loop_
_atom_site_type_symbol
_atom_site_label
_atom_site_fract_x
_atom_site_fract_y
_atom_site_fract_z
Si Si1 0.348674 0.741703 0.764630
Si Si2 0.439017 0.176006 0.297149
Si Si3 0.420096 0.139887 0.052481
Si Si4 0.145280 0.082051 0.505657
Si Si5 0.359395 0.645338 0.524250
Si Si6 0.895997 0.967261 0.745905
O O1 0.250000 0.679686 0.801780
O O2 0.448654 0.698938 0.811668
O O3 0.354662 0.703819 0.642105
O O4 0.343848 0.899440 0.777530
O O5 0.428294 0.119198 0.178989
O O6 0.402606 0.083141 0.390705
O O7 0.382616 0.317632 0.287048
O O8 0.355918 0.263525 0.030029
O O9 0.525297 0.174774 0.006520
O O10 0.370404 0.010302 0.010946
O O11 0.250000 0.026461 0.498333
O O12 0.104038 0.029899 0.616780
O O13 0.250000 0.677702 0.485567
O O14 0.000000 0.000000 0.783731
#
# Coordination Sequence:
#
# PCOD9380875 Si02
#       6
#     8   8   8   8   8   8
#     4   9  17  34  61  85 112 154 195 231 292 362
#     4   9  20  37  58  84 116 150 194 247 293 340
#     4   9  19  37  57  81 117 151 189 246 293 338
#     4  11  22  36  59  89 115 152 202 246 293 348
#     4   9  17  33  59  82 107 148 191 231 290 352
#     4   9  19  39  62  85 118 157 193 246 302 351
#
# _framework density 26.379317
#
# number of rings (size 3 to 8) (size 9 to 14) (size 15 to 20)
#    0.000    2.667    0.000    2.000    0.000    4.000 
#   15.000    0.833    0.000    4.000    0.000    0.000 
#    0.000    0.000    0.000    0.000    0.000    0.000 
#
# Total GULP energy -133672.077802 kJ/mol
# GULP energy per Si atom -5569.669908 kJ/mol
# Density = 2.631928 g / cm^3
# Si number density = 26.379317 Si / 1000 Ang^3
#
#
#
# Elastic Constant Matrix: (Units=GPa)
#
#
# Indices 1 2 3 4 5 6 
#
# 1 162.5476 2.9348 18.8873 0.0000 0.0000 0.0000
# 2 2.9348 73.5781 13.6740 0.0000 0.0000 0.0000
# 3 18.8873 13.6740 139.7891 0.0000 0.0000 0.0000
# 4 0.0000 0.0000 0.0000 25.7125 0.0000 0.0000
# 5 0.0000 0.0000 0.0000 0.0000 1.2270 0.0000
# 6 0.0000 0.0000 0.0000 0.0000 0.0000 0.9694
#
#
#
# Elastic Compliance Matrix: (Units=1/GPa)
#
#
# Indices 1 2 3 4 5 6 
#
# 1 0.006251 -0.000094 -0.000835 0.000000 0.000000 0.000000
# 2 -0.000094 0.013844 -0.001341 0.000000 0.000000 0.000000
# 3 -0.000835 -0.001341 0.007398 0.000000 0.000000 0.000000
# 4 0.000000 0.000000 0.000000 0.038892 0.000000 0.000000
# 5 0.000000 0.000000 0.000000 0.000000 0.814983 0.000000
# 6 0.000000 0.000000 0.000000 0.000000 0.000000 1.031554
#
#
# Mechanical properties :
#
#
# Convention : Reuss Voigt Hill
#
# Bulk Modulus (GPa) = 43.57161 49.65633 46.61397
# Shear Modulus (GPa) = 2.59725 28.27636 15.43680
#
# Velocity S-wave (km/s) = 0.99334 3.27756 2.42169
# Velocity P-wave (km/s) = 4.22715 5.76091 5.05257
#
# Compressibility (1/GPa) = 0.02295073
#
# Stress axis : x y z
#
# Youngs Moduli (GPa) = 159.97932 72.23310 135.17673
#
# Poissons Ratio (x) = 0.00680 0.11292
# Poissons Ratio (y) = 0.01505 0.18134
# Poissons Ratio (z) = 0.13364 0.09690
#
# Static dielectric constant tensor:
#      x y z
#    x 2.088280 0.000000 0.000000 
#    y 0.000000 2.040210 0.000000 
#    z 0.000000 0.000000 2.157640 
# 
# From -- ./inp_files/15877.got.cif
#   From: 2010.05.17/outbox.cif.g08.bks.cpg/sg46_8_cif.got.tgz:15877.got - 2010.06.03 19:58:25.
