data_PCOD9380060
_publ_section_title
;
Structure prediction by ZEFSAII (Michael W. Deem and Ramdas Pophale) SiO2 
 PCOD9380060
Probable space group: I M A 2
;
_chemical_formula_sum "Si O2"
_cell_formula_units_Z 40
_cell_length_a 11.244692
_cell_length_b 22.540365
_cell_length_c 7.270399
_cell_angle_alpha 90.000000
_cell_angle_beta 90.000000
_cell_angle_gamma 90.000000
_cell_volume 1842.751419
_symmetry_space_group_name_H-M "I M A 2"
_symmetry_group_IT_number 46
_symmetry_cell_setting 'orthorhombic'
loop_
_space_group_symop_operation_xyz
x,y,z
-x,-y,z
1/2-x,y,z
1/2+x,-y,z
1/2+x,1/2+y,1/2+z
1/2-x,1/2-y,1/2+z
-x,1/2+y,1/2+z
x,1/2-y,1/2+z
loop_
_atom_site_type_symbol
_atom_site_label
_atom_site_fract_x
_atom_site_fract_y
_atom_site_fract_z
Si Si1 0.386391 0.784473 0.366400
Si Si2 0.618459 0.858047 0.443982
Si Si3 0.123269 0.032126 0.706383
Si Si4 0.880472 0.342993 0.464352
Si Si5 0.555445 0.559596 0.600478
O O1 0.250000 0.789081 0.447215
O O2 0.502094 0.816559 0.451277
O O3 0.414987 0.714610 0.347037
O O4 0.376423 0.814267 0.167517
O O5 0.750000 0.828437 0.440601
O O6 0.616433 0.903102 0.614563
O O7 0.608973 0.899240 0.259813
O O8 0.250000 0.005342 0.639594
O O9 0.129366 0.036455 0.927108
O O10 0.000000 0.000000 0.658136
O O11 0.750000 0.362351 0.404222
O O12 0.961944 0.399238 0.490963
O O13 0.500000 0.500000 0.687492
#
# Coordination Sequence:
#
# PCOD9380060 Si02
#       5
#     8   8   8   8   8
#     4   9  19  36  57  84 113 147 193 240 286 341
#     4  10  21  38  58  83 118 154 190 237 289 344
#     4  10  22  38  57  85 117 152 195 238 286 346
#     4   9  19  35  58  86 115 148 193 241 288 340
#     4  10  21  37  60  86 117 153 192 238 290 341
#
# _framework density 21.706671
#
# number of rings (size 3 to 8) (size 9 to 14) (size 15 to 20)
#    0.000    2.400    0.000    1.200    2.800    4.800 
#    0.000    9.000    0.000    0.000    0.000    0.000 
#    0.000    0.000    0.000    0.000    0.000    0.000 
#
# Total GULP energy -111391.491641 kJ/mol
# GULP energy per Si atom -5569.574582 kJ/mol
# Density = 2.165727 g / cm^3
# Si number density = 21.706671 Si / 1000 Ang^3
#
#
#
# Elastic Constant Matrix: (Units=GPa)
#
#
# Indices 1 2 3 4 5 6 
#
# 1 176.5051 76.7021 19.7891 -0.0017 0.0011 -0.0013
# 2 76.7021 83.4133 -5.7319 0.0003 0.0004 -0.0008
# 3 19.7891 -5.7319 53.6175 0.0025 0.0003 -0.0005
# 4 -0.0017 0.0003 0.0025 29.3575 0.0001 -0.0011
# 5 0.0011 0.0004 0.0003 0.0001 10.8935 0.0018
# 6 -0.0013 -0.0008 -0.0005 -0.0011 0.0018 -26.5663
#
#
#
# Elastic Compliance Matrix: (Units=1/GPa)
#
#
# Indices 1 2 3 4 5 6 
#
# 1 0.010619 -0.010108 -0.005000 0.000001 -0.000001 0.000000
# 2 -0.010108 0.021699 0.006050 -0.000001 0.000000 0.000000
# 3 -0.005000 0.006050 0.021143 -0.000002 0.000000 0.000000
# 4 0.000001 -0.000001 -0.000002 0.034063 0.000000 -0.000001
# 5 -0.000001 0.000000 0.000000 0.000000 0.091798 0.000006
# 6 0.000000 0.000000 0.000000 -0.000001 0.000006 -0.037642
#
#
# Mechanical properties :
#
#
# Convention : Reuss Voigt Hill
#
# Bulk Modulus (GPa) = 28.29202 55.00607 41.64904
# Shear Modulus (GPa) = 29.14176 17.58870 23.36523
#
# Velocity S-wave (km/s) = 3.66802 2.84965 3.28442
# Velocity P-wave (km/s) = 5.56788 6.01855 5.79760
#
# Compressibility (1/GPa) = 0.03534566
#
# Stress axis : x y z
#
# Youngs Moduli (GPa) = 94.17497 46.08556 47.29772
#
# Poissons Ratio (x) = 0.46582 0.23647
# Poissons Ratio (y) = 0.95190 -0.28616
# Poissons Ratio (z) = 0.47084 -0.27883
#
# Static dielectric constant tensor:
#      x y z
#    x 1.768950 0.000000 0.000000 
#    y 0.000000 1.791350 0.000000 
#    z 0.000000 0.000000 1.813960 
# 
# From -- ./inp_files/3537.got.cif
#   From: 2010.05.17/outbox.cif.g08.bks.cpg/sg46_2_cif.got.tgz:3537.got - 2010.06.03 19:58:25.
