data_PCOD9380169
_publ_section_title
;
Structure prediction by ZEFSAII (Michael W. Deem and Ramdas Pophale) SiO2 
 PCOD9380169
Probable space group: I M A 2
;
_chemical_formula_sum "Si O2"
_cell_formula_units_Z 56
_cell_length_a 20.385862
_cell_length_b 8.812665
_cell_length_c 15.185623
_cell_angle_alpha 90.000000
_cell_angle_beta 90.000000
_cell_angle_gamma 90.000000
_cell_volume 2728.154460
_symmetry_space_group_name_H-M "I M A 2"
_symmetry_group_IT_number 46
_symmetry_cell_setting 'orthorhombic'
loop_
_space_group_symop_operation_xyz
x,y,z
-x,-y,z
1/2-x,y,z
1/2+x,-y,z
1/2+x,1/2+y,1/2+z
1/2-x,1/2-y,1/2+z
-x,1/2+y,1/2+z
x,1/2-y,1/2+z
loop_
_atom_site_type_symbol
_atom_site_label
_atom_site_fract_x
_atom_site_fract_y
_atom_site_fract_z
Si Si1 0.432604 0.443648 0.767540
Si Si2 0.825199 0.064477 0.390898
Si Si3 0.864359 0.735753 0.991998
Si Si4 0.819812 0.557485 0.635499
Si Si5 0.922836 0.966676 0.645433
Si Si6 0.325314 0.786989 0.573196
Si Si7 0.557912 0.622577 0.340578
O O1 0.500000 0.500000 0.725571
O O2 0.386997 0.559597 0.824173
O O3 0.380345 0.395365 0.695176
O O4 0.458541 0.301298 0.824818
O O5 0.750000 0.087487 0.358364
O O6 0.830497 0.897056 0.435411
O O7 0.836175 0.184735 0.469232
O O8 0.817746 0.832162 0.053293
O O9 0.909786 0.648019 0.063788
O O10 0.898539 0.857155 0.927412
O O11 0.750000 0.567667 0.683485
O O12 0.829935 0.386170 0.602729
O O13 0.908453 0.920727 0.747091
O O14 0.877675 0.110865 0.623685
O O15 0.000000 0.000000 0.644962
O O16 0.250000 0.838793 0.590602
O O17 0.500000 0.500000 0.353641
#
# Coordination Sequence:
#
# PCOD9380169 Si02
#       7
#     8   8   8   8   8   8   8
#     4  11  24  39  61  91 124 165 208 254 311 373
#     4   9  19  40  63  86 119 160 206 251 309 376
#     4  10  21  38  64  91 120 162 203 256 314 362
#     4  11  23  40  61  91 125 159 207 259 312 366
#     4  10  21  40  63  88 124 166 207 251 309 375
#     4   9  21  39  61  88 121 161 205 255 312 376
#     4  10  23  40  59  93 129 159 207 256 312 369
#
# _framework density 20.526698
#
# number of rings (size 3 to 8) (size 9 to 14) (size 15 to 20)
#    0.000    2.000    1.429    0.857    4.000    8.571 
#    0.000    1.429    0.000    0.000    0.000    0.000 
#    0.000    0.000    0.000    0.000    0.000    0.000 
#
# Total GULP energy -155913.130154 kJ/mol
# GULP energy per Si atom -5568.326077 kJ/mol
# Density = 2.047998 g / cm^3
# Si number density = 20.526698 Si / 1000 Ang^3
#
#
#
# Elastic Constant Matrix: (Units=GPa)
#
#
# Indices 1 2 3 4 5 6 
#
# 1 121.4486 35.7495 34.0574 0.0000 0.0000 0.0000
# 2 35.7495 34.7490 -1.2827 0.0000 0.0000 0.0000
# 3 34.0574 -1.2827 66.9558 0.0000 0.0000 0.0000
# 4 0.0000 0.0000 0.0000 21.9150 0.0000 0.0000
# 5 0.0000 0.0000 0.0000 0.0000 16.0791 0.0000
# 6 0.0000 0.0000 0.0000 0.0000 0.0000 3.0605
#
#
#
# Elastic Compliance Matrix: (Units=1/GPa)
#
#
# Indices 1 2 3 4 5 6 
#
# 1 0.015160 -0.015892 -0.008015 0.000000 0.000000 0.000000
# 2 -0.015892 0.045458 0.008954 0.000000 0.000000 0.000000
# 3 -0.008015 0.008954 0.019184 0.000000 0.000000 0.000000
# 4 0.000000 0.000000 0.000000 0.045631 0.000000 0.000000
# 5 0.000000 0.000000 0.000000 0.000000 0.062192 0.000000
# 6 0.000000 0.000000 0.000000 0.000000 0.000000 0.326742
#
#
# Mechanical properties :
#
#
# Convention : Reuss Voigt Hill
#
# Bulk Modulus (GPa) = 20.04200 40.02242 30.03221
# Shear Modulus (GPa) = 8.91418 18.51956 13.71687
#
# Velocity S-wave (km/s) = 2.08618 3.00695 2.58785
# Velocity P-wave (km/s) = 3.94816 5.62101 4.85714
#
# Compressibility (1/GPa) = 0.04989523
#
# Stress axis : x y z
#
# Youngs Moduli (GPa) = 65.96461 21.99839 52.12714
#
# Poissons Ratio (x) = 0.34960 0.41782
# Poissons Ratio (y) = 1.04831 -0.46677
# Poissons Ratio (z) = 0.52874 -0.19698
#
# Static dielectric constant tensor:
#      x y z
#    x 1.711190 0.000000 0.000000 
#    y 0.000000 1.740650 0.000000 
#    z 0.000000 0.000000 1.755510 
# 
# From -- ./inp_files/17096.got.cif
#   From: 2010.05.17/outbox.cif.g08.bks.cpg/sg46_9_cif.got.tgz:17096.got - 2010.06.03 19:58:25.
