data_PCOD9380027
_publ_section_title
;
Structure prediction by ZEFSAII (Michael W. Deem and Ramdas Pophale) SiO2 
 PCOD9380027
Probable space group: I M A 2
;
_chemical_formula_sum "Si O2"
_cell_formula_units_Z 56
_cell_length_a 14.477628
_cell_length_b 11.989259
_cell_length_c 15.542731
_cell_angle_alpha 90.000000
_cell_angle_beta 90.000000
_cell_angle_gamma 90.000000
_cell_volume 2697.845570
_symmetry_space_group_name_H-M "I M A 2"
_symmetry_group_IT_number 46
_symmetry_cell_setting 'orthorhombic'
loop_
_space_group_symop_operation_xyz
x,y,z
-x,-y,z
1/2-x,y,z
1/2+x,-y,z
1/2+x,1/2+y,1/2+z
1/2-x,1/2-y,1/2+z
-x,1/2+y,1/2+z
x,1/2-y,1/2+z
loop_
_atom_site_type_symbol
_atom_site_label
_atom_site_fract_x
_atom_site_fract_y
_atom_site_fract_z
Si Si1 0.391881 0.028551 0.839860
Si Si2 0.352132 0.752756 0.131017
Si Si3 0.549348 0.732934 0.880805
Si Si4 0.525344 0.629334 0.702624
Si Si5 0.855507 0.768418 0.564776
Si Si6 0.351445 0.820537 0.938044
Si Si7 0.611155 0.495896 0.148859
O O1 0.390738 0.159781 0.851678
O O2 0.356424 0.993032 0.747267
O O3 0.500000 0.000000 0.840991
O O4 0.350452 0.949849 0.911521
O O5 0.250000 0.775127 0.166300
O O6 0.433820 0.793946 0.191743
O O7 0.360105 0.621607 0.109659
O O8 0.363668 0.813407 0.040063
O O9 0.558055 0.646707 0.801630
O O10 0.440687 0.764286 0.893712
O O11 0.587957 0.711770 0.976421
O O12 0.500000 0.500000 0.686480
O O13 0.594547 0.682074 0.630802
O O14 0.750000 0.732904 0.547753
O O15 0.854667 0.890266 0.608168
O O16 0.250000 0.771948 0.916242
O O17 0.500000 0.500000 0.147490
#
# Coordination Sequence:
#
# PCOD9380027 Si02
#       7
#     8   8   8   8   8   8   8
#     4   9  19  35  64  94 130 173 224 279 337 410
#     4  11  23  41  68 105 138 177 229 287 358 429
#     4  11  23  45  66  98 138 184 234 292 357 424
#     4  12  27  48  72 101 144 195 238 299 368 435
#     4  12  27  46  71 104 141 189 245 300 364 437
#     4  10  21  36  64 102 138 173 225 289 351 421
#     4  11  19  42  71  98 135 177 227 289 351 420
#
# _framework density 20.757303
#
# number of rings (size 3 to 8) (size 9 to 14) (size 15 to 20)
#    0.000    1.143    4.286    2.143    2.000    6.286 
#    0.000    0.000    0.000    0.000    0.000    0.000 
#    0.000    0.000    0.000    0.000    0.000    0.000 
#
# Total GULP energy -156281.106480 kJ/mol
# GULP energy per Si atom -5581.468089 kJ/mol
# Density = 2.071006 g / cm^3
# Si number density = 20.757303 Si / 1000 Ang^3
#
#
#
# Elastic Constant Matrix: (Units=GPa)
#
#
# Indices 1 2 3 4 5 6 
#
# 1 130.0753 16.4858 38.7764 0.0000 0.0000 0.0000
# 2 16.4858 100.1822 41.4811 0.0000 0.0000 0.0000
# 3 38.7764 41.4811 113.9874 0.0000 0.0000 0.0000
# 4 0.0000 0.0000 0.0000 38.5566 0.0000 0.0000
# 5 0.0000 0.0000 0.0000 0.0000 -119.2365 0.0000
# 6 0.0000 0.0000 0.0000 0.0000 0.0000 48.4651
#
#
#
# Elastic Compliance Matrix: (Units=1/GPa)
#
#
# Indices 1 2 3 4 5 6 
#
# 1 0.008560 -0.000239 -0.002825 0.000000 0.000000 0.000000
# 2 -0.000239 0.011759 -0.004198 0.000000 0.000000 0.000000
# 3 -0.002825 -0.004198 0.011262 0.000000 0.000000 0.000000
# 4 0.000000 0.000000 0.000000 0.025936 0.000000 0.000000
# 5 0.000000 0.000000 0.000000 0.000000 -0.008387 0.000000
# 6 0.000000 0.000000 0.000000 0.000000 0.000000 0.020633
#
#
# Mechanical properties :
#
#
# Convention : Reuss Voigt Hill
#
# Bulk Modulus (GPa) = 58.62643 59.74795 59.18719
# Shear Modulus (GPa) = 55.57168 10.05715 32.81441
#
# Velocity S-wave (km/s) = 5.17979 2.20355 3.98032
# Velocity P-wave (km/s) = 8.00492 5.94312 7.04980
#
# Compressibility (1/GPa) = 0.01705715
#
# Stress axis : x y z
#
# Youngs Moduli (GPa) = 116.81801 85.03858 88.79680
#
# Poissons Ratio (x) = 0.02032 0.25086
# Poissons Ratio (y) = 0.02791 0.37277
# Poissons Ratio (z) = 0.33003 0.35700
#
# Static dielectric constant tensor:
#      x y z
#    x 1.821240 0.000000 0.000000 
#    y 0.000000 1.751890 0.000000 
#    z 0.000000 0.000000 1.760150 
# 
# From -- ./inp_files/15920.got.cif
#   From: 2010.05.17/outbox.cif.g08.bks.cpg/sg46_8_cif.got.tgz:15920.got - 2010.06.03 19:58:25.
