data_PCOD9380849
_publ_section_title
;
Structure prediction by ZEFSAII (Michael W. Deem and Ramdas Pophale) SiO2 
 PCOD9380849
Probable space group: I M A 2
;
_chemical_formula_sum "Si O2"
_cell_formula_units_Z 40
_cell_length_a 25.777357
_cell_length_b 4.995717
_cell_length_c 14.106393
_cell_angle_alpha 90.000000
_cell_angle_beta 90.000000
_cell_angle_gamma 90.000000
_cell_volume 1816.570234
_symmetry_space_group_name_H-M "I M A 2"
_symmetry_group_IT_number 46
_symmetry_cell_setting 'orthorhombic'
loop_
_space_group_symop_operation_xyz
x,y,z
-x,-y,z
1/2-x,y,z
1/2+x,-y,z
1/2+x,1/2+y,1/2+z
1/2-x,1/2-y,1/2+z
-x,1/2+y,1/2+z
x,1/2-y,1/2+z
loop_
_atom_site_type_symbol
_atom_site_label
_atom_site_fract_x
_atom_site_fract_y
_atom_site_fract_z
Si Si1 0.534132 0.730304 0.196720
Si Si2 0.370339 0.978910 0.443277
Si Si3 0.850773 0.875788 0.646450
Si Si4 0.190030 0.619155 0.752622
Si Si5 0.442893 0.469336 0.410973
O O1 0.500000 0.500000 0.147670
O O2 0.590870 0.743548 0.152085
O O3 0.546539 0.619339 0.302279
O O4 0.500000 0.000000 0.201826
O O5 0.341214 0.993153 0.543694
O O6 0.406819 0.235368 0.446692
O O7 0.332503 0.979826 0.353129
O O8 0.409757 0.734646 0.426759
O O9 0.816105 0.625924 0.678869
O O10 0.842473 0.122245 0.718820
O O11 0.250000 0.696351 0.760660
O O12 0.500000 0.500000 0.455923
#
# Coordination Sequence:
#
# PCOD9380849 Si02
#       5
#     8   8   8   8   8
#     4  11  21  38  67 102 141 184 224 271 338 421
#     4  12  24  45  70 101 139 182 230 283 349 420
#     4  12  26  45  71 105 137 181 235 287 353 421
#     4  12  26  48  71  97 136 180 237 304 357 404
#     4  11  22  40  69 101 141 185 224 271 337 418
#
# _framework density 22.019518000000001
#
# number of rings (size 3 to 8) (size 9 to 14) (size 15 to 20)
#    0.000    0.400    4.000    6.000    0.000    4.000 
#    0.000    0.000    0.000    0.000    0.000    0.000 
#    0.000    0.000    0.000    0.000    0.000    0.000 
#
# Total GULP energy -111827.499506 kJ/mol
# GULP energy per Si atom -5591.374975 kJ/mol
# Density = 2.196940 g / cm^3
# Si number density = 22.019518 Si / 1000 Ang^3
#
#
#
# Elastic Constant Matrix: (Units=GPa)
#
#
# Indices 1 2 3 4 5 6 
#
# 1 111.8243 38.3254 42.8685 0.0000 0.0000 0.0000
# 2 38.3254 174.3591 30.8036 0.0000 0.0000 0.0000
# 3 42.8685 30.8036 96.8082 0.0000 0.0000 0.0000
# 4 0.0000 0.0000 0.0000 15.1561 0.0000 0.0000
# 5 0.0000 0.0000 0.0000 0.0000 -5.1618 0.0000
# 6 0.0000 0.0000 0.0000 0.0000 0.0000 32.6427
#
#
#
# Elastic Compliance Matrix: (Units=1/GPa)
#
#
# Indices 1 2 3 4 5 6 
#
# 1 0.011219 -0.001683 -0.004432 0.000000 0.000000 0.000000
# 2 -0.001683 0.006329 -0.001269 0.000000 0.000000 0.000000
# 3 -0.004432 -0.001269 0.012696 0.000000 0.000000 0.000000
# 4 0.000000 0.000000 0.000000 0.065980 0.000000 0.000000
# 5 0.000000 0.000000 0.000000 0.000000 -0.193731 0.000000
# 6 0.000000 0.000000 0.000000 0.000000 0.000000 0.030635
#
#
# Mechanical properties :
#
#
# Convention : Reuss Voigt Hill
#
# Bulk Modulus (GPa) = 64.61552 67.44297 66.02925
# Shear Modulus (GPa) = -106.50730 26.59366 -39.95682
#
# Velocity S-wave (km/s) = -6.96236 3.47901 -4.26444
# Velocity P-wave (km/s) = 5.93501 6.84348 2.40925
#
# Compressibility (1/GPa) = 0.01547616
#
# Stress axis : x y z
#
# Youngs Moduli (GPa) = 89.13842 157.99430 78.76428
#
# Poissons Ratio (x) = 0.26588 0.34911
# Poissons Ratio (y) = 0.15001 0.09993
# Poissons Ratio (z) = 0.39509 0.20045
#
# Static dielectric constant tensor:
#      x y z
#    x 1.815870 0.000000 0.000000 
#    y 0.000000 1.770610 0.000000 
#    z 0.000000 0.000000 1.921100 
# 
# From -- ./inp_files/17262.got.cif
#   From: 2010.05.17/outbox.cif.g08.bks.cpg/sg46_9_cif.got.tgz:17262.got - 2010.06.03 19:58:25.
