data_PCOD9380777
_publ_section_title
;
Structure prediction by ZEFSAII (Michael W. Deem and Ramdas Pophale) SiO2 
 PCOD9380777
Probable space group: I M A 2
;
_chemical_formula_sum "Si O2"
_cell_formula_units_Z 36
_cell_length_a 15.279673
_cell_length_b 4.951688
_cell_length_c 18.822300
_cell_angle_alpha 90.000000
_cell_angle_beta 90.000000
_cell_angle_gamma 90.000000
_cell_volume 1424.098483
_symmetry_space_group_name_H-M "I M A 2"
_symmetry_group_IT_number 46
_symmetry_cell_setting 'orthorhombic'
loop_
_space_group_symop_operation_xyz
x,y,z
-x,-y,z
1/2-x,y,z
1/2+x,-y,z
1/2+x,1/2+y,1/2+z
1/2-x,1/2-y,1/2+z
-x,1/2+y,1/2+z
x,1/2-y,1/2+z
loop_
_atom_site_type_symbol
_atom_site_label
_atom_site_fract_x
_atom_site_fract_y
_atom_site_fract_z
Si Si1 0.656493 0.315299 0.208170
Si Si2 0.352323 0.614008 0.494384
Si Si3 0.348635 0.175056 0.848043
Si Si4 0.095855 0.110813 0.573653
Si Si5 0.500000 0.500000 0.771847
O O1 0.750000 0.162206 0.200690
O O2 0.660606 0.479037 0.281061
O O3 0.649297 0.520551 0.142540
O O4 0.566444 0.154581 0.218858
O O5 0.250000 0.572206 0.505900
O O6 0.372778 0.501524 0.416732
O O7 0.371468 0.927264 0.507365
O O8 0.398281 0.421065 0.552007
O O9 0.250000 0.299685 0.859279
O O10 0.430133 0.356903 0.824119
O O11 0.000000 0.000000 0.586379
#
# Coordination Sequence:
#
# PCOD9380777 Si02
#       5
#     8   8   8   8   4
#     4  11  26  47  71 101 143 191 239 300 367 434
#     4  11  26  48  73 105 148 194 239 297 367 435
#     4  10  25  46  71 103 144 191 239 298 367 433
#     4  12  27  46  73 109 146 190 244 301 364 432
#     4  12  24  42  72 106 136 182 252 304 352 436
#
# _framework density 25.279150000000001
#
# number of rings (size 3 to 8) (size 9 to 14) (size 15 to 20)
#    0.000    0.889    0.000    5.333   10.889    1.778 
#    0.000    0.000    0.000    0.000    0.000    0.000 
#    0.000    0.000    0.000    0.000    0.000    0.000 
#
# Total GULP energy -100766.247876 kJ/mol
# GULP energy per Si atom -5598.124882 kJ/mol
# Density = 2.522161 g / cm^3
# Si number density = 25.279150 Si / 1000 Ang^3
#
#
#
# Elastic Constant Matrix: (Units=GPa)
#
#
# Indices 1 2 3 4 5 6 
#
# 1 171.7546 24.7487 18.5987 0.0000 0.0000 0.0000
# 2 24.7487 55.9330 7.7093 0.0000 0.0000 0.0000
# 3 18.5987 7.7093 128.4643 0.0000 0.0000 0.0000
# 4 0.0000 0.0000 0.0000 38.0907 0.0000 0.0000
# 5 0.0000 0.0000 0.0000 0.0000 30.5889 0.0000
# 6 0.0000 0.0000 0.0000 0.0000 0.0000 52.3380
#
#
#
# Elastic Compliance Matrix: (Units=1/GPa)
#
#
# Indices 1 2 3 4 5 6 
#
# 1 0.006290 -0.002680 -0.000750 0.000000 0.000000 0.000000
# 2 -0.002680 0.019169 -0.000762 0.000000 0.000000 0.000000
# 3 -0.000750 -0.000762 0.007939 0.000000 0.000000 0.000000
# 4 0.000000 0.000000 0.000000 0.026253 0.000000 0.000000
# 5 0.000000 0.000000 0.000000 0.000000 0.032692 0.000000
# 6 0.000000 0.000000 0.000000 0.000000 0.000000 0.019107
#
#
# Mechanical properties :
#
#
# Convention : Reuss Voigt Hill
#
# Bulk Modulus (GPa) = 39.97796 50.91837 45.44816
# Shear Modulus (GPa) = 39.01063 44.54322 41.77692
#
# Velocity S-wave (km/s) = 3.93261 4.20224 4.06966
# Velocity P-wave (km/s) = 6.03900 6.61296 6.33249
#
# Compressibility (1/GPa) = 0.02501378
#
# Stress axis : x y z
#
# Youngs Moduli (GPa) = 158.99361 52.16686 125.96727
#
# Poissons Ratio (x) = 0.13979 0.09445
# Poissons Ratio (y) = 0.42604 0.09604
# Poissons Ratio (z) = 0.11921 0.03977
#
# Static dielectric constant tensor:
#      x y z
#    x 2.043270 0.000000 0.000000 
#    y 0.000000 2.016170 0.000000 
#    z 0.000000 0.000000 1.970710 
# 
# From -- ./inp_files/21849.got.cif
#   From: 2010.05.17/outbox.cif.g08.bks.cpg/sg46_11_cif.got.tgz:21849.got - 2010.06.03 19:58:25.
