data_PCOD9380032
_publ_section_title
;
Structure prediction by ZEFSAII (Michael W. Deem and Ramdas Pophale) SiO2 
 PCOD9380032
Probable space group: I M A 2
;
_chemical_formula_sum "Si O2"
_cell_formula_units_Z 64
_cell_length_a 9.298484
_cell_length_b 25.383839
_cell_length_c 15.158390
_cell_angle_alpha 90.000000
_cell_angle_beta 90.000000
_cell_angle_gamma 90.000000
_cell_volume 3577.853297
_symmetry_space_group_name_H-M "I M A 2"
_symmetry_group_IT_number 46
_symmetry_cell_setting 'orthorhombic'
loop_
_space_group_symop_operation_xyz
x,y,z
-x,-y,z
1/2-x,y,z
1/2+x,-y,z
1/2+x,1/2+y,1/2+z
1/2-x,1/2-y,1/2+z
-x,1/2+y,1/2+z
x,1/2-y,1/2+z
loop_
_atom_site_type_symbol
_atom_site_label
_atom_site_fract_x
_atom_site_fract_y
_atom_site_fract_z
Si Si1 0.422924 0.555596 0.806880
Si Si2 0.921673 0.664443 0.488564
Si Si3 0.078376 0.354599 0.282696
Si Si4 0.418169 0.283897 0.962709
Si Si5 0.921261 0.359066 0.657342
Si Si6 0.421557 0.889877 0.490475
Si Si7 0.081942 0.265941 0.752622
Si Si8 0.577838 0.444869 0.174304
O O1 0.500000 0.500000 0.796993
O O2 0.250000 0.548559 0.809514
O O3 0.457238 0.594870 0.726658
O O4 0.467633 0.582893 0.899012
O O5 0.750000 0.661111 0.502697
O O6 0.948985 0.647420 0.387884
O O7 0.963227 0.726256 0.496044
O O8 0.006269 0.632860 0.562549
O O9 0.250000 0.363295 0.270165
O O10 0.045968 0.295955 0.245797
O O11 0.986473 0.399300 0.236113
O O12 0.250000 0.290693 0.983890
O O13 0.505269 0.333092 0.998622
O O14 0.431195 0.280915 0.856200
O O15 0.750000 0.355843 0.649695
O O16 0.984447 0.305055 0.697305
O O17 0.250000 0.882427 0.486353
O O18 0.453688 0.926500 0.573973
O O19 0.250000 0.272525 0.727778
O O20 0.500000 0.500000 0.192298
O O21 0.750000 0.449388 0.184541
#
# Coordination Sequence:
#
# PCOD9380032 Si02
#       8
#     8   8   8   8   8   8   8   8
#     4  10  22  39  57  80 113 152 193 235 281 336
#     4   9  20  38  58  83 116 152 192 236 283 340
#     4   9  20  40  62  83 113 150 192 242 291 340
#     4   9  18  33  55  83 113 151 192 226 272 335
#     4  11  22  35  55  85 119 153 190 236 287 338
#     4  10  21  37  55  82 119 152 185 232 285 340
#     4   9  18  34  56  83 114 150 190 229 277 341
#     4  11  24  40  60  85 114 150 196 242 292 345
#
# _framework density 17.887820000000001
#
# number of rings (size 3 to 8) (size 9 to 14) (size 15 to 20)
#    0.000    2.250    1.250    2.625    1.750    4.000 
#    0.000    3.125    0.000    1.500    0.000    0.000 
#    0.000    0.000    0.000    0.000    0.000    0.000 
#
# Total GULP energy -178676.630195 kJ/mol
# GULP energy per Si atom -5583.644694 kJ/mol
# Density = 1.784711 g / cm^3
# Si number density = 17.887820 Si / 1000 Ang^3
#
#
#
# Elastic Constant Matrix: (Units=GPa)
#
#
# Indices 1 2 3 4 5 6 
#
# 1 43.3677 57.1551 45.6926 0.0000 0.0000 0.0000
# 2 57.1551 115.3461 54.2223 0.0000 0.0000 0.0000
# 3 45.6926 54.2223 83.6002 0.0001 0.0000 0.0000
# 4 0.0000 0.0000 0.0001 22.0822 0.0000 0.0000
# 5 0.0000 0.0000 0.0000 0.0000 30.6063 0.0000
# 6 0.0000 0.0000 0.0000 0.0000 0.0000 33.4561
#
#
#
# Elastic Compliance Matrix: (Units=1/GPa)
#
#
# Indices 1 2 3 4 5 6 
#
# 1 0.111751 -0.038356 -0.036201 0.000000 0.000000 0.000000
# 2 -0.038356 0.025637 0.004336 0.000000 0.000000 0.000000
# 3 -0.036201 0.004336 0.028936 0.000000 0.000000 0.000000
# 4 0.000000 0.000000 0.000000 0.045285 0.000000 0.000000
# 5 0.000000 0.000000 0.000000 0.000000 0.032673 0.000000
# 6 0.000000 0.000000 0.000000 0.000000 0.000000 0.029890
#
#
# Mechanical properties :
#
#
# Convention : Reuss Voigt Hill
#
# Bulk Modulus (GPa) = 38.63867 61.82821 50.23344
# Shear Modulus (GPa) = 11.81361 22.91187 17.36274
#
# Velocity S-wave (km/s) = 2.57267 3.58280 3.11890
# Velocity P-wave (km/s) = 5.52017 7.19408 6.41198
#
# Compressibility (1/GPa) = 0.02588081
#
# Stress axis : x y z
#
# Youngs Moduli (GPa) = 8.94850 39.00615 34.55941
#
# Poissons Ratio (x) = 1.49611 1.25110
# Poissons Ratio (y) = 0.34323 -0.14985
# Poissons Ratio (z) = 0.32395 -0.16913
#
# Static dielectric constant tensor:
#      x y z
#    x 1.589620 0.000000 0.000000 
#    y 0.000000 1.578360 0.000000 
#    z 0.000000 0.000000 1.631680 
# 
# From -- ./inp_files/14452.got.cif
#   From: 2010.05.17/outbox.cif.g08.bks.cpg/sg46_8_cif.got.tgz:14452.got - 2010.06.03 19:58:25.
