data_PCOD9380282
_publ_section_title
;
Structure prediction by ZEFSAII (Michael W. Deem and Ramdas Pophale) SiO2 
 PCOD9380282
Probable space group: I M A 2
;
_chemical_formula_sum "Si O2"
_cell_formula_units_Z 60
_cell_length_a 14.351920
_cell_length_b 9.842460
_cell_length_c 19.167833
_cell_angle_alpha 90.000000
_cell_angle_beta 90.000000
_cell_angle_gamma 90.000000
_cell_volume 2707.613559
_symmetry_space_group_name_H-M "I M A 2"
_symmetry_group_IT_number 46
_symmetry_cell_setting 'orthorhombic'
loop_
_space_group_symop_operation_xyz
x,y,z
-x,-y,z
1/2-x,y,z
1/2+x,-y,z
1/2+x,1/2+y,1/2+z
1/2-x,1/2-y,1/2+z
-x,1/2+y,1/2+z
x,1/2-y,1/2+z
loop_
_atom_site_type_symbol
_atom_site_label
_atom_site_fract_x
_atom_site_fract_y
_atom_site_fract_z
Si Si1 0.584257 0.238812 0.280610
Si Si2 0.750000 0.629789 0.776263
Si Si3 0.950113 0.864017 0.662650
Si Si4 0.644703 0.962818 0.799607
Si Si5 0.420965 0.294209 0.872408
Si Si6 0.112479 0.988112 0.190430
Si Si7 0.050633 0.213792 0.018724
Si Si8 0.643879 0.074526 0.031082
O O1 0.522759 0.288426 0.214129
O O2 0.629881 0.377017 0.308266
O O3 0.518414 0.167606 0.337043
O O4 0.646422 0.121566 0.247717
O O5 0.666878 0.640566 0.835107
O O6 0.667740 0.620313 0.714620
O O7 0.876101 0.921460 0.719277
O O8 0.928530 0.773533 0.595313
O O9 0.000000 0.000000 0.634362
O O10 0.750000 0.923151 0.814212
O O11 0.583676 0.867072 0.849172
O O12 0.422380 0.308994 0.954708
O O13 0.141184 0.936322 0.115028
O O14 0.000000 0.000000 0.192168
O O15 0.940531 0.176290 0.012440
O O16 0.109097 0.074990 0.008887
O O17 0.750000 0.103831 0.007725
#
# Coordination Sequence:
#
# PCOD9380282 Si02
#       8
#     8   4   8   8   8   8   8   8
#     4  10  21  40  65  91 126 170 209 268 343 389
#     4  12  26  40  68  98 134 178 230 276 332 422
#     4   9  19  40  64  88 121 170 218 258 330 407
#     4  10  22  37  64  95 124 164 220 273 325 395
#     4  11  24  43  62  92 134 175 221 271 325 419
#     4  12  21  41  68 100 133 167 223 291 348 407
#     4  11  24  42  64  93 138 178 215 284 351 398
#     4  11  24  38  68 102 129 170 225 290 353 417
#
# _framework density 22.159734
#
# number of rings (size 3 to 8) (size 9 to 14) (size 15 to 20)
#    0.000    1.333    5.333    1.200    7.467    0.533 
#    2.400    0.000    0.000    0.000    0.000    0.000 
#    0.000    0.000    0.000    0.000    0.000    0.000 
#
# Total GULP energy -167023.998348 kJ/mol
# GULP energy per Si atom -5567.466612 kJ/mol
# Density = 2.210930 g / cm^3
# Si number density = 22.159734 Si / 1000 Ang^3
#
#
#
# Elastic Constant Matrix: (Units=GPa)
#
#
# Indices 1 2 3 4 5 6 
#
# 1 124.7033 -2.6076 9.5294 0.0000 0.0000 0.0000
# 2 -2.6076 37.9736 -11.1891 0.0000 0.0000 0.0000
# 3 9.5294 -11.1891 95.6007 0.0000 0.0000 0.0000
# 4 0.0000 0.0000 0.0000 20.3455 0.0000 0.0000
# 5 0.0000 0.0000 0.0000 0.0000 8.7239 0.0000
# 6 0.0000 0.0000 0.0000 0.0000 0.0000 -3.9236
#
#
#
# Elastic Compliance Matrix: (Units=1/GPa)
#
#
# Indices 1 2 3 4 5 6 
#
# 1 0.008085 0.000329 -0.000767 0.000000 0.000000 0.000000
# 2 0.000329 0.027288 0.003161 0.000000 0.000000 0.000000
# 3 -0.000767 0.003161 0.010907 0.000000 0.000000 0.000000
# 4 0.000000 0.000000 0.000000 0.049151 0.000000 0.000000
# 5 0.000000 0.000000 0.000000 0.000000 0.114627 0.000000
# 6 0.000000 0.000000 0.000000 0.000000 0.000000 -0.254869
#
#
# Mechanical properties :
#
#
# Convention : Reuss Voigt Hill
#
# Bulk Modulus (GPa) = 19.33312 27.74922 23.54117
# Shear Modulus (GPa) = -151.44706 22.53215 -64.45745
#
# Velocity S-wave (km/s) = -8.27597 3.19220 -5.39915
# Velocity P-wave (km/s) = 9.08729 5.11238 5.31237
#
# Compressibility (1/GPa) = 0.05172470
#
# Stress axis : x y z
#
# Youngs Moduli (GPa) = 123.69265 36.64600 91.68733
#
# Poissons Ratio (x) = -0.01206 0.07036
# Poissons Ratio (y) = -0.04070 -0.28982
# Poissons Ratio (z) = 0.09492 -0.11584
#
# Static dielectric constant tensor:
#      x y z
#    x 2.020860 0.000000 0.000000 
#    y 0.000000 2.100830 0.000000 
#    z 0.000000 0.000000 1.803560 
# 
# From -- ./inp_files/19590.got.cif
#   From: 2010.05.17/outbox.cif.g08.bks.cpg/sg46_10_cif.got.tgz:19590.got - 2010.06.03 19:58:25.
