data_PCOD9380864
_publ_section_title
;
Structure prediction by ZEFSAII (Michael W. Deem and Ramdas Pophale) SiO2 
 PCOD9380864
Probable space group: I M A 2
;
_chemical_formula_sum "Si O2"
_cell_formula_units_Z 64
_cell_length_a 30.125245
_cell_length_b 8.040394
_cell_length_c 11.897140
_cell_angle_alpha 90.000000
_cell_angle_beta 90.000000
_cell_angle_gamma 90.000000
_cell_volume 2881.711440
_symmetry_space_group_name_H-M "I M A 2"
_symmetry_group_IT_number 46
_symmetry_cell_setting 'orthorhombic'
loop_
_space_group_symop_operation_xyz
x,y,z
-x,-y,z
1/2-x,y,z
1/2+x,-y,z
1/2+x,1/2+y,1/2+z
1/2-x,1/2-y,1/2+z
-x,1/2+y,1/2+z
x,1/2-y,1/2+z
loop_
_atom_site_type_symbol
_atom_site_label
_atom_site_fract_x
_atom_site_fract_y
_atom_site_fract_z
Si Si1 0.083666 0.130589 0.279810
Si Si2 0.947800 0.533707 0.548077
Si Si3 0.874729 0.337992 0.421944
Si Si4 0.548126 0.931560 0.511099
Si Si5 0.329541 0.993147 0.345064
Si Si6 0.112277 0.036474 0.696391
Si Si7 0.297866 0.142014 0.571177
Si Si8 0.700894 0.461885 0.592460
O O1 0.075075 0.022734 0.169721
O O2 0.055508 0.050484 0.378501
O O3 0.078268 0.323150 0.246347
O O4 0.135061 0.134601 0.314588
O O5 0.921660 0.404070 0.470083
O O6 0.943284 0.730945 0.519492
O O7 0.000000 0.500000 0.551982
O O8 0.860808 0.152122 0.391991
O O9 0.873455 0.425128 0.300073
O O10 0.837890 0.390186 0.514650
O O11 0.583260 0.026278 0.590559
O O12 0.500000 0.000000 0.542087
O O13 0.300560 0.060930 0.447386
O O14 0.307112 0.943555 0.226915
O O15 0.158189 0.094468 0.639254
O O16 0.250000 0.093995 0.623106
O O17 0.298771 0.341495 0.565944
O O18 0.750000 0.393139 0.564925
#
# Coordination Sequence:
#
# PCOD9380864 Si02
#       8
#     8   8   8   8   8   8   8   8
#     4  11  21  44  71  94 133 182 237 290 349 422
#     4  11  25  44  65  99 143 181 232 293 366 426
#     4  12  27  45  68 101 144 191 225 293 368 425
#     4  11  24  42  72 104 135 181 243 300 348 423
#     4  12  25  43  74 101 138 184 240 288 360 433
#     4  11  23  44  70  98 141 185 231 288 356 425
#     4  11  24  43  72 103 133 182 241 293 352 428
#     4  11  25  47  72 102 142 185 237 299 362 430
#
# _framework density 22.209025
#
# number of rings (size 3 to 8) (size 9 to 14) (size 15 to 20)
#    0.000    0.750    5.000    2.250    3.500    3.000 
#    0.000    0.000    0.000    0.000    0.000    0.000 
#    0.000    0.000    0.000    0.000    0.000    0.000 
#
# Total GULP energy -178572.015548 kJ/mol
# GULP energy per Si atom -5580.375486 kJ/mol
# Density = 2.215848 g / cm^3
# Si number density = 22.209025 Si / 1000 Ang^3
#
#
#
# Elastic Constant Matrix: (Units=GPa)
#
#
# Indices 1 2 3 4 5 6 
#
# 1 109.4375 9.6917 22.4886 0.0000 0.0000 0.0000
# 2 9.6917 53.0264 34.7547 0.0000 0.0000 0.0000
# 3 22.4886 34.7547 123.7138 0.0000 0.0000 0.0000
# 4 0.0000 0.0000 0.0000 17.0706 0.0000 0.0000
# 5 0.0000 0.0000 0.0000 0.0000 1.5451 0.0000
# 6 0.0000 0.0000 0.0000 0.0000 0.0000 -38.4181
#
#
#
# Elastic Compliance Matrix: (Units=1/GPa)
#
#
# Indices 1 2 3 4 5 6 
#
# 1 0.009516 -0.000742 -0.001521 0.000000 0.000000 0.000000
# 2 -0.000742 0.023172 -0.006375 0.000000 0.000000 0.000000
# 3 -0.001521 -0.006375 0.010151 0.000000 0.000000 0.000000
# 4 0.000000 0.000000 0.000000 0.058580 0.000000 0.000000
# 5 0.000000 0.000000 0.000000 0.000000 0.647217 0.000000
# 6 0.000000 0.000000 0.000000 0.000000 0.000000 -0.026029
#
#
# Mechanical properties :
#
#
# Convention : Reuss Voigt Hill
#
# Bulk Modulus (GPa) = 39.12010 46.67197 42.89603
# Shear Modulus (GPa) = 6.68088 10.65570 8.66829
#
# Velocity S-wave (km/s) = 1.73629 2.19279 1.97776
# Velocity P-wave (km/s) = 4.65536 5.24134 4.95701
#
# Compressibility (1/GPa) = 0.02556231
#
# Stress axis : x y z
#
# Youngs Moduli (GPa) = 105.08639 43.15480 98.51633
#
# Poissons Ratio (x) = 0.03203 0.14988
# Poissons Ratio (y) = 0.07799 0.62803
# Poissons Ratio (z) = 0.15987 0.27511
#
# Static dielectric constant tensor:
#      x y z
#    x 1.818330 0.000000 0.000000 
#    y 0.000000 1.857330 0.000000 
#    z 0.000000 0.000000 1.839570 
# 
# From -- ./inp_files/13192.got.cif
#   From: 2010.05.17/outbox.cif.g08.bks.cpg/sg46_7_cif.got.tgz:13192.got - 2010.06.03 19:58:25.
