data_PCOD9380943
_publ_section_title
;
Structure prediction by ZEFSAII (Michael W. Deem and Ramdas Pophale) SiO2 
 PCOD9380943
Probable space group: I M A 2
;
_chemical_formula_sum "Si O2"
_cell_formula_units_Z 60
_cell_length_a 23.960775
_cell_length_b 9.297038
_cell_length_c 13.258719
_cell_angle_alpha 90.000000
_cell_angle_beta 90.000000
_cell_angle_gamma 90.000000
_cell_volume 2953.568404
_symmetry_space_group_name_H-M "I M A 2"
_symmetry_group_IT_number 46
_symmetry_cell_setting 'orthorhombic'
loop_
_space_group_symop_operation_xyz
x,y,z
-x,-y,z
1/2-x,y,z
1/2+x,-y,z
1/2+x,1/2+y,1/2+z
1/2-x,1/2-y,1/2+z
-x,1/2+y,1/2+z
x,1/2-y,1/2+z
loop_
_atom_site_type_symbol
_atom_site_label
_atom_site_fract_x
_atom_site_fract_y
_atom_site_fract_z
Si Si1 0.250000 0.249326 0.431571
Si Si2 0.813548 0.241178 0.598656
Si Si3 0.058679 0.932654 0.300278
Si Si4 0.051801 0.084468 0.087342
Si Si5 0.553324 0.587557 0.116064
Si Si6 0.843733 0.992518 0.963087
Si Si7 0.349547 0.018194 0.460347
Si Si8 0.601281 0.132345 0.769891
O O1 0.298144 0.376151 0.434111
O O2 0.299561 0.125622 0.436087
O O3 0.750000 0.227558 0.635606
O O4 0.822452 0.396427 0.548372
O O5 0.857124 0.202783 0.686860
O O6 0.824542 0.125755 0.510189
O O7 0.059192 0.759718 0.300533
O O8 0.065630 0.992414 0.187040
O O9 0.111453 0.982396 0.365411
O O10 0.000000 0.000000 0.336291
O O11 0.037780 0.245361 0.122894
O O12 0.000000 0.000000 0.038954
O O13 0.102766 0.084700 0.011384
O O14 0.500000 0.500000 0.075622
O O15 0.571137 0.503571 0.217664
O O16 0.607017 0.577388 0.043881
O O17 0.863932 0.080079 0.865610
#
# Coordination Sequence:
#
# PCOD9380943 Si02
#       8
#     4   8   8   8   8   8   8   8
#     4  12  26  46  66 106 140 184 240 292 348 412
#     4  11  23  44  71  94 130 183 231 288 347 422
#     4  11  23  43  71 105 140 182 236 289 355 427
#     4  11  25  43  69 102 142 184 231 290 354 420
#     4  11  24  43  69 101 141 184 233 289 354 421
#     4  12  25  46  70 100 140 181 238 292 349 417
#     4  11  24  44  69  98 139 183 235 293 351 411
#     4  11  26  44  70 104 135 181 236 290 355 417
#
# _framework density 20.314409999999999
#
# number of rings (size 3 to 8) (size 9 to 14) (size 15 to 20)
#    0.000    0.800    5.333    2.000    4.667    1.600 
#    1.200    3.333    0.000    0.000    0.000    0.000 
#    0.000    0.000    0.000    0.000    0.000    0.000 
#
# Total GULP energy -167144.743761 kJ/mol
# GULP energy per Si atom -5571.491459 kJ/mol
# Density = 2.026817 g / cm^3
# Si number density = 20.314410 Si / 1000 Ang^3
#
#
#
# Elastic Constant Matrix: (Units=GPa)
#
#
# Indices 1 2 3 4 5 6 
#
# 1 137.6834 56.9969 23.2453 0.0000 0.0000 0.0000
# 2 56.9969 138.6824 8.6231 0.0000 0.0000 0.0000
# 3 23.2453 8.6231 51.3530 0.0000 0.0000 0.0000
# 4 0.0000 0.0000 0.0000 -0.0811 0.0000 0.0000
# 5 0.0000 0.0000 0.0000 0.0000 -0.1440 0.0000
# 6 0.0000 0.0000 0.0000 0.0000 0.0000 50.6061
#
#
#
# Elastic Compliance Matrix: (Units=1/GPa)
#
#
# Indices 1 2 3 4 5 6 
#
# 1 0.009379 -0.003629 -0.003636 0.000000 0.000000 0.000000
# 2 -0.003629 0.008691 0.000183 0.000000 0.000000 0.000000
# 3 -0.003636 0.000183 0.021088 0.000000 0.000000 0.000000
# 4 0.000000 0.000000 0.000000-12.334837 0.000000 0.000000
# 5 0.000000 0.000000 0.000000 0.000000 -6.943897 0.000000
# 6 0.000000 0.000000 0.000000 0.000000 0.000000 0.019760
#
#
# Mechanical properties :
#
#
# Convention : Reuss Voigt Hill
#
# Bulk Modulus (GPa) = 40.00838 56.16104 48.08471
# Shear Modulus (GPa) = -0.26045 25.99977 12.86966
#
# Velocity S-wave (km/s) = -0.35845 3.58141 2.51972
# Velocity P-wave (km/s) = 4.42335 6.69387 5.67335
#
# Compressibility (1/GPa) = 0.02499476
#
# Stress axis : x y z
#
# Youngs Moduli (GPa) = 106.62024 115.06620 47.41979
#
# Poissons Ratio (x) = 0.41753 0.17243
# Poissons Ratio (y) = 0.38688 -0.00869
# Poissons Ratio (z) = 0.38769 -0.02108
#
# Static dielectric constant tensor:
#      x y z
#    x 1.741140 0.000000 0.000000 
#    y 0.000000 1.722050 0.000000 
#    z 0.000000 0.000000 1.717060 
# 
# From -- ./inp_files/17358.got.cif
#   From: 2010.05.17/outbox.cif.g08.bks.cpg/sg46_9_cif.got.tgz:17358.got - 2010.06.03 19:58:25.
