data_PCOD9380108
_publ_section_title
;
Structure prediction by ZEFSAII (Michael W. Deem and Ramdas Pophale) SiO2 
 PCOD9380108
Probable space group: I M A 2
;
_chemical_formula_sum "Si O2"
_cell_formula_units_Z 64
_cell_length_a 8.316046
_cell_length_b 25.039945
_cell_length_c 14.322712
_cell_angle_alpha 90.000000
_cell_angle_beta 90.000000
_cell_angle_gamma 90.000000
_cell_volume 2982.466078
_symmetry_space_group_name_H-M "I M A 2"
_symmetry_group_IT_number 46
_symmetry_cell_setting 'orthorhombic'
loop_
_space_group_symop_operation_xyz
x,y,z
-x,-y,z
1/2-x,y,z
1/2+x,-y,z
1/2+x,1/2+y,1/2+z
1/2-x,1/2-y,1/2+z
-x,1/2+y,1/2+z
x,1/2-y,1/2+z
loop_
_atom_site_type_symbol
_atom_site_label
_atom_site_fract_x
_atom_site_fract_y
_atom_site_fract_z
Si Si1 0.053892 0.337589 0.391680
Si Si2 0.558100 0.274608 0.686900
Si Si3 0.439256 0.442736 0.494264
Si Si4 0.061393 0.221968 0.397473
Si Si5 0.444097 0.336839 0.172227
Si Si6 0.439864 0.894151 0.390462
Si Si7 0.938544 0.557391 0.070653
Si Si8 0.057093 0.893476 0.174475
O O1 0.250000 0.336158 0.398011
O O2 0.992024 0.390516 0.442245
O O3 0.998604 0.279868 0.430442
O O4 0.014458 0.341005 0.281922
O O5 0.750000 0.274973 0.706539
O O6 0.462109 0.273883 0.785006
O O7 0.512205 0.219736 0.636321
O O8 0.517619 0.332340 0.644374
O O9 0.500000 0.500000 0.461576
O O10 0.250000 0.441936 0.480129
O O11 0.478181 0.433887 0.602993
O O12 0.250000 0.216490 0.420461
O O13 0.975436 0.166828 0.422012
O O14 0.250000 0.334243 0.163533
O O15 0.506217 0.390096 0.122111
O O16 0.250000 0.903425 0.394231
O O17 0.525805 0.933450 0.461619
O O18 0.492532 0.899616 0.282584
O O19 0.750000 0.558040 0.086941
O O20 0.000000 0.500000 0.102165
O O21 0.250000 0.899470 0.170443
#
# Coordination Sequence:
#
# PCOD9380108 Si02
#       8
#     8   8   8   8   8   8   8   8
#     4   8  17  35  57  81 110 144 179 218 267 324
#     4   9  17  31  54  85 116 144 179 223 274 330
#     4  11  23  38  56  78 106 142 186 230 270 317
#     4   9  16  31  56  84 114 145 180 222 271 331
#     4   9  19  37  59  82 112 148 184 224 273 331
#     4  10  21  38  59  83 113 146 181 226 278 333
#     4  11  24  40  58  81 109 145 190 235 279 331
#     4   9  20  38  57  80 111 144 178 220 271 325
#
# _framework density 21.458749999999998
#
# number of rings (size 3 to 8) (size 9 to 14) (size 15 to 20)
#    0.000    2.500    0.000    3.375    0.000    6.000 
#    0.000   10.000    0.000    0.000    0.000    0.000 
#    0.000    0.000    0.000    0.000    0.000    0.000 
#
# Total GULP energy -178625.137146 kJ/mol
# GULP energy per Si atom -5582.035536 kJ/mol
# Density = 2.140991 g / cm^3
# Si number density = 21.458750 Si / 1000 Ang^3
#
#
#
# Elastic Constant Matrix: (Units=GPa)
#
#
# Indices 1 2 3 4 5 6 
#
# 1 14.9916 4.6921 -6.5249 0.0000 0.0000 0.0000
# 2 4.6921 96.1472 13.7465 0.0000 0.0000 0.0000
# 3 -6.5249 13.7465 35.6543 0.0000 -0.0001 0.0000
# 4 0.0000 0.0000 0.0000 22.4282 0.0000 0.0000
# 5 0.0000 0.0000 -0.0001 0.0000 9.6355 0.0000
# 6 0.0000 0.0000 0.0000 0.0000 0.0000 36.4275
#
#
#
# Elastic Compliance Matrix: (Units=1/GPa)
#
#
# Indices 1 2 3 4 5 6 
#
# 1 0.075610 -0.005999 0.016150 0.000000 0.000000 0.000000
# 2 -0.005999 0.011483 -0.005525 0.000000 0.000000 0.000000
# 3 0.016150 -0.005525 0.033133 0.000000 0.000000 0.000000
# 4 0.000000 0.000000 0.000000 0.044587 0.000000 0.000000
# 5 0.000000 0.000000 0.000000 0.000000 0.103782 0.000000
# 6 0.000000 0.000000 0.000000 0.000000 0.000000 0.027452
#
#
# Mechanical properties :
#
#
# Convention : Reuss Voigt Hill
#
# Bulk Modulus (GPa) = 7.72331 18.95784 13.34058
# Shear Modulus (GPa) = 15.15355 22.69020 18.92188
#
# Velocity S-wave (km/s) = 2.66027 3.25528 2.97270
# Velocity P-wave (km/s) = 3.61151 4.79404 4.24416
#
# Compressibility (1/GPa) = 0.12947809
#
# Stress axis : x y z
#
# Youngs Moduli (GPa) = 13.22569 87.08190 30.18153
#
# Poissons Ratio (x) = 0.52240 -0.48743
# Poissons Ratio (y) = 0.07934 0.16676
# Poissons Ratio (z) = -0.21359 0.48115
#
# Static dielectric constant tensor:
#      x y z
#    x 1.734030 0.000000 0.000000 
#    y 0.000000 1.808260 0.000000 
#    z 0.000000 0.000000 1.796310 
# 
# From -- ./inp_files/14470.got.cif
#   From: 2010.05.17/outbox.cif.g08.bks.cpg/sg46_8_cif.got.tgz:14470.got - 2010.06.03 19:58:25.
