data_PCOD9380783
_publ_section_title
;
Structure prediction by ZEFSAII (Michael W. Deem and Ramdas Pophale) SiO2 
 PCOD9380783
Probable space group: I M A 2
;
_chemical_formula_sum "Si O2"
_cell_formula_units_Z 48
_cell_length_a 23.335443
_cell_length_b 10.156668
_cell_length_c 9.619879
_cell_angle_alpha 90.000000
_cell_angle_beta 90.000000
_cell_angle_gamma 90.000000
_cell_volume 2280.010862
_symmetry_space_group_name_H-M "I M A 2"
_symmetry_group_IT_number 46
_symmetry_cell_setting 'orthorhombic'
loop_
_space_group_symop_operation_xyz
x,y,z
-x,-y,z
1/2-x,y,z
1/2+x,-y,z
1/2+x,1/2+y,1/2+z
1/2-x,1/2-y,1/2+z
-x,1/2+y,1/2+z
x,1/2-y,1/2+z
loop_
_atom_site_type_symbol
_atom_site_label
_atom_site_fract_x
_atom_site_fract_y
_atom_site_fract_z
Si Si1 0.453260 0.212776 0.477080
Si Si2 0.569529 0.517823 0.610825
Si Si3 0.750000 0.178577 0.769021
Si Si4 0.250000 0.934622 0.452060
Si Si5 0.872993 0.484469 0.911132
Si Si6 0.981709 0.149320 0.733208
Si Si7 0.628460 0.177065 0.894779
O O1 0.422488 0.339882 0.540651
O O2 0.506649 0.181213 0.574777
O O3 0.478710 0.254303 0.327839
O O4 0.413877 0.084768 0.491191
O O5 0.500000 0.500000 0.622746
O O6 0.601578 0.502129 0.756514
O O7 0.599226 0.412984 0.510133
O O8 0.750000 0.142510 0.603557
O O9 0.750000 0.332420 0.819799
O O10 0.690904 0.131367 0.841533
O O11 0.307007 0.020826 0.436041
O O12 0.870585 0.328912 0.941883
O O13 0.916224 0.170665 0.768873
O O14 0.000000 0.000000 0.767311
#
# Coordination Sequence:
#
# PCOD9380783 Si02
#       7
#     8   8   4   4   8   8   8
#     4  12  25  45  67 106 140 189 229 290 362 435
#     4  12  24  46  70 110 147 183 237 299 364 435
#     4  10  26  44  73 105 140 192 246 296 350 424
#     4  10  26  50  69 105 144 188 246 300 354 430
#     4  11  28  43  75 101 147 183 246 295 359 423
#     4  12  26  41  71 103 144 184 230 291 363 428
#     4  11  25  43  72 104 142 185 236 298 354 426
#
# _framework density 21.052531999999999
#
# number of rings (size 3 to 8) (size 9 to 14) (size 15 to 20)
#    0.000    0.667    5.000    1.000   14.000    0.000 
#    0.000    1.667    0.000    0.000    0.000    0.000 
#    0.000    0.000    0.000    0.000    0.000    0.000 
#
# Total GULP energy -134147.980127 kJ/mol
# GULP energy per Si atom -5589.499172 kJ/mol
# Density = 2.100462 g / cm^3
# Si number density = 21.052532 Si / 1000 Ang^3
#
#
#
# Elastic Constant Matrix: (Units=GPa)
#
#
# Indices 1 2 3 4 5 6 
#
# 1 168.5175 47.7477 38.4807 0.0000 0.0000 0.0000
# 2 47.7477 101.5542 24.7327 0.0000 0.0000 0.0000
# 3 38.4807 24.7327 80.0896 0.0000 0.0000 0.0000
# 4 0.0000 0.0000 0.0000 24.5344 0.0000 0.0000
# 5 0.0000 0.0000 0.0000 0.0000 30.2052 0.0000
# 6 0.0000 0.0000 0.0000 0.0000 0.0000 28.8085
#
#
#
# Elastic Compliance Matrix: (Units=1/GPa)
#
#
# Indices 1 2 3 4 5 6 
#
# 1 0.007335 -0.002801 -0.002659 0.000000 0.000000 0.000000
# 2 -0.002801 0.011717 -0.002273 0.000000 0.000000 0.000000
# 3 -0.002659 -0.002273 0.014466 0.000000 0.000000 0.000000
# 4 0.000000 0.000000 0.000000 0.040759 0.000000 0.000000
# 5 0.000000 0.000000 0.000000 0.000000 0.033107 0.000000
# 6 0.000000 0.000000 0.000000 0.000000 0.000000 0.034712
#
#
# Mechanical properties :
#
#
# Convention : Reuss Voigt Hill
#
# Bulk Modulus (GPa) = 55.39551 63.56485 59.48018
# Shear Modulus (GPa) = 30.56625 32.65630 31.61127
#
# Velocity S-wave (km/s) = 3.81452 3.94278 3.87918
# Velocity P-wave (km/s) = 6.76542 7.14047 6.95547
#
# Compressibility (1/GPa) = 0.01805201
#
# Stress axis : x y z
#
# Youngs Moduli (GPa) = 136.33290 85.34309 69.12979
#
# Poissons Ratio (x) = 0.23905 0.18383
# Poissons Ratio (y) = 0.38187 0.15711
# Poissons Ratio (z) = 0.36254 0.19396
#
# Static dielectric constant tensor:
#      x y z
#    x 1.782550 0.000000 0.000000 
#    y 0.000000 1.798410 0.000000 
#    z 0.000000 0.000000 1.813280 
# 
# From -- ./inp_files/7852.got.cif
#   From: 2010.05.17/outbox.cif.g08.bks.cpg/sg46_4_cif.got.tgz:7852.got - 2010.06.03 19:58:25.
