data_PCOD9380134
_publ_section_title
;
Structure prediction by ZEFSAII (Michael W. Deem and Ramdas Pophale) SiO2 
 PCOD9380134
Probable space group: I M A 2
;
_chemical_formula_sum "Si O2"
_cell_formula_units_Z 56
_cell_length_a 15.283870
_cell_length_b 15.968858
_cell_length_c 9.457474
_cell_angle_alpha 90.000000
_cell_angle_beta 90.000000
_cell_angle_gamma 90.000000
_cell_volume 2308.247374
_symmetry_space_group_name_H-M "I M A 2"
_symmetry_group_IT_number 46
_symmetry_cell_setting 'orthorhombic'
loop_
_space_group_symop_operation_xyz
x,y,z
-x,-y,z
1/2-x,y,z
1/2+x,-y,z
1/2+x,1/2+y,1/2+z
1/2-x,1/2-y,1/2+z
-x,1/2+y,1/2+z
x,1/2-y,1/2+z
loop_
_atom_site_type_symbol
_atom_site_label
_atom_site_fract_x
_atom_site_fract_y
_atom_site_fract_z
Si Si1 0.647020 0.282310 0.262750
Si Si2 0.652046 0.642149 0.788128
Si Si3 0.957837 0.390164 0.762086
Si Si4 0.650784 0.069176 0.992779
Si Si5 0.347582 0.583480 0.024647
Si Si6 0.847696 0.692640 0.113396
Si Si7 0.594590 0.958901 0.758658
O O1 0.750000 0.254681 0.271629
O O2 0.578378 0.206678 0.270537
O O3 0.635340 0.353398 0.383498
O O4 0.637827 0.331883 0.114608
O O5 0.750000 0.602676 0.784257
O O6 0.561214 0.596145 0.763541
O O7 0.649685 0.713593 0.668595
O O8 0.641958 0.681973 0.945807
O O9 0.915793 0.423965 0.619463
O O10 0.917008 0.427777 0.903436
O O11 0.750000 0.076981 0.044540
O O12 0.640347 0.983318 0.904790
O O13 0.250000 0.586180 0.965110
O O14 0.354942 0.507996 0.134898
O O15 0.750000 0.660981 0.149232
O O16 0.911382 0.635822 0.207200
O O17 0.500000 0.000000 0.767469
#
# Coordination Sequence:
#
# PCOD9380134 Si02
#       7
#     8   8   8   8   8   8   8
#     4   9  19  34  56  88 130 174 212 253 315 381
#     4  10  25  42  65  97 128 165 224 279 332 390
#     4  12  22  34  64  93 134 164 213 267 329 373
#     4  10  22  39  60  96 134 171 216 264 318 394
#     4  10  21  38  60  95 132 171 215 261 316 394
#     4  10  22  45  68  90 124 170 215 272 331 388
#     4  11  23  40  67  92 128 175 219 257 321 394
#
# _framework density 24.260831
#
# number of rings (size 3 to 8) (size 9 to 14) (size 15 to 20)
#    0.000    1.714    0.000    5.143    8.000    2.286 
#    0.000    3.571    0.000    6.857    0.000    0.000 
#    0.000    0.000    0.000    0.000    0.000    0.000 
#
# Total GULP energy -156801.989032 kJ/mol
# GULP energy per Si atom -5600.071037 kJ/mol
# Density = 2.420561 g / cm^3
# Si number density = 24.260831 Si / 1000 Ang^3
#
#
#
# Elastic Constant Matrix: (Units=GPa)
#
#
# Indices 1 2 3 4 5 6 
#
# 1 181.0946 24.9007 69.2733 0.0000 0.0000 0.0000
# 2 24.9007 56.6132 18.8218 0.0000 0.0000 0.0000
# 3 69.2733 18.8218 125.8067 0.0000 0.0000 0.0000
# 4 0.0000 0.0000 0.0000 14.6265 0.0000 0.0000
# 5 0.0000 0.0000 0.0000 0.0000 44.3702 0.0000
# 6 0.0000 0.0000 0.0000 0.0000 0.0000 19.5459
#
#
#
# Elastic Compliance Matrix: (Units=1/GPa)
#
#
# Indices 1 2 3 4 5 6 
#
# 1 0.007193 -0.001944 -0.003670 0.000000 0.000000 0.000000
# 2 -0.001944 0.019114 -0.001789 0.000000 0.000000 0.000000
# 3 -0.003670 -0.001789 0.010237 0.000000 0.000000 0.000000
# 4 0.000000 0.000000 0.000000 0.068369 0.000000 0.000000
# 5 0.000000 0.000000 0.000000 0.000000 0.022538 0.000000
# 6 0.000000 0.000000 0.000000 0.000000 0.000000 0.051162
#
#
# Mechanical properties :
#
#
# Convention : Reuss Voigt Hill
#
# Bulk Modulus (GPa) = 46.00256 65.50067 55.75162
# Shear Modulus (GPa) = 24.91732 32.40979 28.66355
#
# Velocity S-wave (km/s) = 3.20825 3.65895 3.44099
# Velocity P-wave (km/s) = 5.72072 6.70132 6.23034
#
# Compressibility (1/GPa) = 0.02173792
#
# Stress axis : x y z
#
# Youngs Moduli (GPa) = 139.02247 52.31903 97.68306
#
# Poissons Ratio (x) = 0.10169 0.35849
# Poissons Ratio (y) = 0.27021 0.17478
# Poissons Ratio (z) = 0.51021 0.09361
#
# Static dielectric constant tensor:
#      x y z
#    x 1.908720 0.000000 0.000000 
#    y 0.000000 2.016830 0.000000 
#    z 0.000000 0.000000 1.876180 
# 
# From -- ./inp_files/5956.got.cif
#   From: 2010.05.17/outbox.cif.g08.bks.cpg/sg46_3_cif.got.tgz:5956.got - 2010.06.03 19:58:25.
