data_PCOD9380985
_publ_section_title
;
Structure prediction by ZEFSAII (Michael W. Deem and Ramdas Pophale) SiO2 
 PCOD9380985
Probable space group: I M A 2
;
_chemical_formula_sum "Si O2"
_cell_formula_units_Z 40
_cell_length_a 16.827453
_cell_length_b 11.118719
_cell_length_c 9.430200
_cell_angle_alpha 90.000000
_cell_angle_beta 90.000000
_cell_angle_gamma 90.000000
_cell_volume 1764.387793
_symmetry_space_group_name_H-M "I M A 2"
_symmetry_group_IT_number 46
_symmetry_cell_setting 'orthorhombic'
loop_
_space_group_symop_operation_xyz
x,y,z
-x,-y,z
1/2-x,y,z
1/2+x,-y,z
1/2+x,1/2+y,1/2+z
1/2-x,1/2-y,1/2+z
-x,1/2+y,1/2+z
x,1/2-y,1/2+z
loop_
_atom_site_type_symbol
_atom_site_label
_atom_site_fract_x
_atom_site_fract_y
_atom_site_fract_z
Si Si1 0.500000 0.500000 0.186940
Si Si2 0.878060 0.911018 0.869955
Si Si3 0.250000 0.367617 0.131509
Si Si4 0.490611 0.744365 0.011833
Si Si5 0.750000 0.890482 0.075751
Si Si6 0.573873 0.097674 0.263395
Si Si7 0.750000 0.498870 0.847015
O O1 0.427734 0.515368 0.295723
O O2 0.512757 0.621507 0.097903
O O3 0.823725 0.868594 0.739135
O O4 0.824832 0.950798 0.001482
O O5 0.934672 0.809674 0.937562
O O6 0.250000 0.249034 0.035431
O O7 0.250000 0.474125 0.014526
O O8 0.445994 0.836102 0.115908
O O9 0.438449 0.695789 0.884919
O O10 0.750000 0.886229 0.243495
O O11 0.664602 0.055548 0.295976
O O12 0.500000 0.000000 0.278848
#
# Coordination Sequence:
#
# PCOD9380985 Si02
#       7
#     4   8   4   8   4   8   4
#     4  12  24  44  76 106 148 196 264 310 382 464
#     4  11  25  44  71 108 145 194 254 317 393 456
#     4  11  25  45  71 107 151 192 254 335 395 447
#     4  12  26  46  76 108 148 202 254 323 381 469
#     4  11  25  39  71 105 147 190 248 328 390 443
#     4  12  29  48  77 113 154 205 263 318 394 468
#     4  12  28  48  72 114 156 204 256 321 391 478
#
# _framework density 22.670753000000001
#
# number of rings (size 3 to 8) (size 9 to 14) (size 15 to 20)
#    0.000    0.400    3.000    4.800    9.800    0.800 
#    0.000    2.000    0.000    0.000    0.000    0.000 
#    0.000    0.000    0.000    0.000    0.000    0.000 
#
# Total GULP energy -111576.734564 kJ/mol
# GULP energy per Si atom -5578.836728 kJ/mol
# Density = 2.261915 g / cm^3
# Si number density = 22.670753 Si / 1000 Ang^3
#
#
#
# Elastic Constant Matrix: (Units=GPa)
#
#
# Indices 1 2 3 4 5 6 
#
# 1 171.1307 64.2133 78.9167 0.0000 0.0000 0.0000
# 2 64.2133 93.2336 62.9295 0.0000 0.0000 0.0000
# 3 78.9167 62.9295 196.2318 0.0000 0.0000 0.0000
# 4 0.0000 0.0000 0.0000 48.2569 0.0000 0.0000
# 5 0.0000 0.0000 0.0000 0.0000 12.8093 0.0000
# 6 0.0000 0.0000 0.0000 0.0000 0.0000 14.6105
#
#
#
# Elastic Compliance Matrix: (Units=1/GPa)
#
#
# Indices 1 2 3 4 5 6 
#
# 1 0.008426 -0.004488 -0.001950 0.000000 0.000000 0.000000
# 2 -0.004488 0.016079 -0.003352 0.000000 0.000000 0.000000
# 3 -0.001950 -0.003352 0.006955 0.000000 0.000000 0.000000
# 4 0.000000 0.000000 0.000000 0.020722 0.000000 0.000000
# 5 0.000000 0.000000 0.000000 0.000000 0.078068 0.000000
# 6 0.000000 0.000000 0.000000 0.000000 0.000000 0.068444
#
#
# Mechanical properties :
#
#
# Convention : Reuss Voigt Hill
#
# Bulk Modulus (GPa) = 84.15797 96.96834 90.56315
# Shear Modulus (GPa) = 22.49891 32.10446 27.30168
#
# Velocity S-wave (km/s) = 3.15369 3.76722 3.47402
# Velocity P-wave (km/s) = 7.10376 7.86053 7.49170
#
# Compressibility (1/GPa) = 0.01188242
#
# Stress axis : x y z
#
# Youngs Moduli (GPa) = 118.67369 62.19397 143.78387
#
# Poissons Ratio (x) = 0.27911 0.28033
# Poissons Ratio (y) = 0.53257 0.48189
# Poissons Ratio (z) = 0.23137 0.20844
#
# Static dielectric constant tensor:
#      x y z
#    x 2.154400 0.000000 0.000000 
#    y 0.000000 2.010840 0.000000 
#    z 0.000000 0.000000 1.857530 
# 
# From -- ./inp_files/6422.got.cif
#   From: 2010.05.17/outbox.cif.g08.bks.cpg/sg46_4_cif.got.tgz:6422.got - 2010.06.03 19:58:25.
