data_PCOD9380011
_publ_section_title
;
Structure prediction by ZEFSAII (Michael W. Deem and Ramdas Pophale) SiO2 
 PCOD9380011
Probable space group: I M A 2
;
_chemical_formula_sum "Si O2"
_cell_formula_units_Z 64
_cell_length_a 8.636546
_cell_length_b 24.382452
_cell_length_c 15.898483
_cell_angle_alpha 90.000000
_cell_angle_beta 90.000000
_cell_angle_gamma 90.000000
_cell_volume 3347.905226
_symmetry_space_group_name_H-M "I M A 2"
_symmetry_group_IT_number 46
_symmetry_cell_setting 'orthorhombic'
loop_
_space_group_symop_operation_xyz
x,y,z
-x,-y,z
1/2-x,y,z
1/2+x,-y,z
1/2+x,1/2+y,1/2+z
1/2-x,1/2-y,1/2+z
-x,1/2+y,1/2+z
x,1/2-y,1/2+z
loop_
_atom_site_type_symbol
_atom_site_label
_atom_site_fract_x
_atom_site_fract_y
_atom_site_fract_z
Si Si1 0.935469 0.866203 0.860180
Si Si2 0.935799 0.131473 0.679618
Si Si3 0.563643 0.867326 0.179795
Si Si4 0.437322 0.061344 0.020944
Si Si5 0.435957 0.438710 0.025152
Si Si6 0.562864 0.634601 0.866631
Si Si7 0.064759 0.751293 0.922181
Si Si8 0.935834 0.247769 0.120806
O O1 0.750000 0.866954 0.855163
O O2 0.005911 0.884664 0.771691
O O3 0.991886 0.804706 0.879832
O O4 0.984446 0.904573 0.938129
O O5 0.750000 0.129450 0.676266
O O6 0.984735 0.194467 0.661046
O O7 0.003472 0.093402 0.606737
O O8 0.750000 0.868285 0.177468
O O9 0.507968 0.906187 0.104237
O O10 0.514160 0.884348 0.273501
O O11 0.510281 0.805331 0.162577
O O12 0.250000 0.059979 0.022304
O O13 0.500000 0.000000 0.019089
O O14 0.500000 0.500000 0.023634
O O15 0.250000 0.439847 0.026794
O O16 0.486807 0.405378 0.941845
O O17 0.750000 0.637468 0.868349
O O18 0.497517 0.695083 0.883425
O O19 0.250000 0.753525 0.913117
O O20 0.026181 0.751664 0.021584
O O21 0.750000 0.243681 0.128847
#
# Coordination Sequence:
#
# PCOD9380011 Si02
#       8
#     8   8   8   8   8   8   8   8
#     4  11  23  40  61  90 122 159 201 245 298 360
#     4  11  23  41  63  91 123 158 198 248 303 360
#     4  10  21  39  61  88 120 155 195 243 293 354
#     4  10  23  41  61  84 115 153 198 245 293 345
#     4  11  24  42  63  88 119 159 205 253 303 359
#     4  10  22  39  62  90 121 158 200 244 300 360
#     4  11  21  36  60  90 124 158 196 245 300 356
#     4  10  21  36  58  89 122 156 194 239 297 356
#
# _framework density 19.116430999999999
#
# number of rings (size 3 to 8) (size 9 to 14) (size 15 to 20)
#    0.000    1.500    2.500    2.250    0.000    7.000 
#    0.000    1.250    0.000    0.000    0.000    0.000 
#    0.000    0.000    0.000    0.000    0.000    0.000 
#
# Total GULP energy -178885.231887 kJ/mol
# GULP energy per Si atom -5590.163496 kJ/mol
# Density = 1.907292 g / cm^3
# Si number density = 19.116431 Si / 1000 Ang^3
#
#
#
# Elastic Constant Matrix: (Units=GPa)
#
#
# Indices 1 2 3 4 5 6 
#
# 1 26.6192 30.7280 44.8121 0.0000 0.0000 0.0000
# 2 30.7280 160.2369 97.7188 0.0000 0.0000 0.0000
# 3 44.8121 97.7188 198.2069 0.0000 -0.0003 0.0000
# 4 0.0000 0.0000 0.0000 -1.7842 0.0000 0.0000
# 5 0.0000 0.0000 -0.0003 0.0000 30.1009 -0.0001
# 6 0.0000 0.0000 0.0000 0.0000 -0.0001 30.6046
#
#
#
# Elastic Compliance Matrix: (Units=1/GPa)
#
#
# Indices 1 2 3 4 5 6 
#
# 1 0.063202 -0.004870 -0.011888 0.000000 0.000000 0.000000
# 2 -0.004870 0.009299 -0.003483 0.000000 0.000000 0.000000
# 3 -0.011888 -0.003483 0.009450 0.000000 0.000000 0.000000
# 4 0.000000 0.000000 0.000000 -0.560481 0.000000 0.000000
# 5 0.000000 0.000000 0.000000 0.000000 0.033222 0.000000
# 6 0.000000 0.000000 0.000000 0.000000 0.000000 0.032675
#
#
# Mechanical properties :
#
#
# Convention : Reuss Voigt Hill
#
# Bulk Modulus (GPa) = 24.11512 81.28675 52.70093
# Shear Modulus (GPa) = -13.95372 25.90454 5.97541
#
# Velocity S-wave (km/s) = -2.70466 3.68515 1.76991
# Velocity P-wave (km/s) = 1.69961 7.79239 5.63959
#
# Compressibility (1/GPa) = 0.04146777
#
# Stress axis : x y z
#
# Youngs Moduli (GPa) = 15.82236 107.53776 105.81581
#
# Poissons Ratio (x) = 0.52372 1.25794
# Poissons Ratio (y) = 0.07706 0.36861
# Poissons Ratio (z) = 0.18810 0.37461
#
# Static dielectric constant tensor:
#      x y z
#    x 1.644600 0.000000 0.000000 
#    y 0.000000 1.618080 0.000000 
#    z 0.000000 0.000000 1.677170 
# 
# From -- ./inp_files/14422.got.cif
#   From: 2010.05.17/outbox.cif.g08.bks.cpg/sg46_8_cif.got.tgz:14422.got - 2010.06.03 19:58:25.
