data_PCOD9380475
_publ_section_title
;
Structure prediction by ZEFSAII (Michael W. Deem and Ramdas Pophale) SiO2 
 PCOD9380475
Probable space group: I M A 2
;
_chemical_formula_sum "Si O2"
_cell_formula_units_Z 64
_cell_length_a 14.420825
_cell_length_b 9.769875
_cell_length_c 21.980188
_cell_angle_alpha 90.000000
_cell_angle_beta 90.000000
_cell_angle_gamma 90.000000
_cell_volume 3096.781162
_symmetry_space_group_name_H-M "I M A 2"
_symmetry_group_IT_number 46
_symmetry_cell_setting 'orthorhombic'
loop_
_space_group_symop_operation_xyz
x,y,z
-x,-y,z
1/2-x,y,z
1/2+x,-y,z
1/2+x,1/2+y,1/2+z
1/2-x,1/2-y,1/2+z
-x,1/2+y,1/2+z
x,1/2-y,1/2+z
loop_
_atom_site_type_symbol
_atom_site_label
_atom_site_fract_x
_atom_site_fract_y
_atom_site_fract_z
Si Si1 0.903573 0.563947 0.364330
Si Si2 0.636725 0.422339 0.005358
Si Si3 0.640520 0.904600 0.068010
Si Si4 0.639980 0.705855 0.952402
Si Si5 0.514352 0.845576 0.183936
Si Si6 0.859147 0.371175 0.477168
Si Si7 0.352716 0.123615 0.732783
Si Si8 0.139138 0.633793 0.145246
O O1 0.908790 0.708465 0.399347
O O2 0.869277 0.459842 0.416571
O O3 0.848008 0.578108 0.302633
O O4 0.000000 0.500000 0.344677
O O5 0.750000 0.429569 0.003453
O O6 0.612867 0.412953 0.076804
O O7 0.605358 0.555814 0.969374
O O8 0.602762 0.281160 0.975551
O O9 0.750000 0.918177 0.084132
O O10 0.578453 0.864596 0.124410
O O11 0.634489 0.792149 0.014796
O O12 0.605974 0.043346 0.035017
O O13 0.750000 0.701920 0.935873
O O14 0.572544 0.743560 0.226581
O O15 0.420623 0.764814 0.165716
O O16 0.500000 0.000000 0.208088
O O17 0.750000 0.358088 0.488212
O O18 0.250000 0.170586 0.712724
O O19 0.377638 0.994073 0.690367
O O20 0.250000 0.663466 0.145696
#
# Coordination Sequence:
#
# PCOD9380475 Si02
#       8
#     8   8   8   8   8   8   8   8
#     4  11  22  38  59  83 113 150 198 246 291 351
#     4   9  17  32  56  86 119 152 190 239 295 352
#     4   9  18  34  56  85 123 165 204 240 289 358
#     4   9  18  34  56  83 115 151 192 238 292 349
#     4  12  24  37  60  92 125 155 196 253 311 367
#     4   9  18  34  57  85 118 156 197 241 295 357
#     4  11  24  45  68  85 111 158 211 254 298 360
#     4  10  22  40  62  89 124 165 205 249 301 364
#
# _framework density 20.666618
#
# number of rings (size 3 to 8) (size 9 to 14) (size 15 to 20)
#    0.000    2.000    0.000    4.875    0.000    8.000 
#    0.000    4.375    0.000    1.500    0.000    0.000 
#    0.000    0.000    0.000    0.000    0.000    0.000 
#
# Total GULP energy -178795.183135 kJ/mol
# GULP energy per Si atom -5587.349473 kJ/mol
# Density = 2.061958 g / cm^3
# Si number density = 20.666618 Si / 1000 Ang^3
#
#
#
# Elastic Constant Matrix: (Units=GPa)
#
#
# Indices 1 2 3 4 5 6 
#
# 1 86.6417 49.2975 13.9979 0.0000 0.0000 0.0000
# 2 49.2975 165.0543 56.6145 0.0000 0.0000 0.0000
# 3 13.9979 56.6145 92.7806 0.0000 0.0000 0.0000
# 4 0.0000 0.0000 0.0000 14.6525 0.0000 0.0000
# 5 0.0000 0.0000 0.0000 0.0000 6.3799 0.0000
# 6 0.0000 0.0000 0.0000 0.0000 0.0000 27.7712
#
#
#
# Elastic Compliance Matrix: (Units=1/GPa)
#
#
# Indices 1 2 3 4 5 6 
#
# 1 0.013927 -0.004349 0.000553 0.000000 0.000000 0.000000
# 2 -0.004349 0.009021 -0.004848 0.000000 0.000000 0.000000
# 3 0.000553 -0.004848 0.013653 0.000000 0.000000 0.000000
# 4 0.000000 0.000000 0.000000 0.068248 0.000000 0.000000
# 5 0.000000 0.000000 0.000000 0.000000 0.156742 0.000000
# 6 0.000000 0.000000 0.000000 0.000000 0.000000 0.036008
#
#
# Mechanical properties :
#
#
# Convention : Reuss Voigt Hill
#
# Bulk Modulus (GPa) = 51.78302 64.92184 58.35243
# Shear Modulus (GPa) = 15.56052 24.73183 20.14618
#
# Velocity S-wave (km/s) = 2.74693 3.46309 3.12559
# Velocity P-wave (km/s) = 5.93057 6.89005 6.42823
#
# Compressibility (1/GPa) = 0.01931135
#
# Stress axis : x y z
#
# Youngs Moduli (GPa) = 71.80226 110.85774 73.24365
#
# Poissons Ratio (x) = 0.48215 -0.04048
# Poissons Ratio (y) = 0.31229 0.35510
# Poissons Ratio (z) = -0.03969 0.53746
#
# Static dielectric constant tensor:
#      x y z
#    x 1.833410 0.000000 0.000000 
#    y 0.000000 1.802390 0.000000 
#    z 0.000000 0.000000 1.695620 
# 
# From -- ./inp_files/23662.got.cif
#   From: 2010.05.17/outbox.cif.g08.bks.cpg/sg46_12_cif.got.tgz:23662.got - 2010.06.03 19:58:25.
