data_PCOD9380582
_publ_section_title
;
Structure prediction by ZEFSAII (Michael W. Deem and Ramdas Pophale) SiO2 
 PCOD9380582
Probable space group: I M A 2
;
_chemical_formula_sum "Si O2"
_cell_formula_units_Z 28
_cell_length_a 8.408514
_cell_length_b 17.441033
_cell_length_c 8.246755
_cell_angle_alpha 90.000000
_cell_angle_beta 90.000000
_cell_angle_gamma 90.000000
_cell_volume 1209.412764
_symmetry_space_group_name_H-M "I M A 2"
_symmetry_group_IT_number 46
_symmetry_cell_setting 'orthorhombic'
loop_
_space_group_symop_operation_xyz
x,y,z
-x,-y,z
1/2-x,y,z
1/2+x,-y,z
1/2+x,1/2+y,1/2+z
1/2-x,1/2-y,1/2+z
-x,1/2+y,1/2+z
x,1/2-y,1/2+z
loop_
_atom_site_type_symbol
_atom_site_label
_atom_site_fract_x
_atom_site_fract_y
_atom_site_fract_z
Si Si1 0.000000 0.500000 0.849051
Si Si2 0.425569 0.076545 0.673517
Si Si3 0.562215 0.641305 0.675358
Si Si4 0.936249 0.212553 0.842778
O O1 0.044529 0.568684 0.728862
O O2 0.911056 0.551349 0.985531
O O3 0.250000 0.093573 0.736558
O O4 0.536028 0.149231 0.701956
O O5 0.500000 0.000000 0.753425
O O6 0.750000 0.620483 0.670390
O O7 0.531849 0.711377 0.797986
O O8 0.504463 0.673080 0.503138
O O9 0.750000 0.229732 0.859571
#
# Coordination Sequence:
#
# PCOD9380582 Si02
#       4
#     4   8   8   8
#     4  10  26  42  72 100 140 178 234 278 346 406
#     4  10  22  43  71 100 137 180 228 281 346 409
#     4  12  26  47  73 101 140 185 234 286 351 417
#     4  12  27  46  72 103 142 182 235 288 347 417
#
# _framework density 23.151734000000001
#
# number of rings (size 3 to 8) (size 9 to 14) (size 15 to 20)
#    0.857    0.000    0.000    6.857    2.000    4.571 
#    0.000    0.000    0.000    0.000    0.000    0.000 
#    0.000    0.000    0.000    0.000    0.000    0.000 
#
# Total GULP energy -78061.222088 kJ/mol
# GULP energy per Si atom -5575.801578 kJ/mol
# Density = 2.309904 g / cm^3
# Si number density = 23.151734 Si / 1000 Ang^3
#
#
#
# Elastic Constant Matrix: (Units=GPa)
#
#
# Indices 1 2 3 4 5 6 
#
# 1 92.3672 -5.2887 14.8045 0.0000 0.0000 0.0000
# 2 -5.2887 151.1657 40.0268 -0.0001 0.0001 0.0000
# 3 14.8045 40.0268 108.3424 -0.0003 0.0001 0.0001
# 4 0.0000 -0.0001 -0.0003 38.0136 0.0001 0.0001
# 5 0.0000 0.0001 0.0001 0.0001 5.9881 0.0000
# 6 0.0000 0.0000 0.0001 0.0001 0.0000 -2.6831
#
#
#
# Elastic Compliance Matrix: (Units=1/GPa)
#
#
# Indices 1 2 3 4 5 6 
#
# 1 0.011174 0.000881 -0.001852 0.000000 0.000000 0.000000
# 2 0.000881 0.007402 -0.002855 0.000000 0.000000 0.000000
# 3 -0.001852 -0.002855 0.010538 0.000000 0.000000 0.000000
# 4 0.000000 0.000000 0.000000 0.026306 0.000000 0.000000
# 5 0.000000 0.000000 0.000000 0.000000 0.166997 -0.000001
# 6 0.000000 0.000000 0.000000 0.000000 -0.000001 -0.372707
#
#
# Mechanical properties :
#
#
# Convention : Reuss Voigt Hill
#
# Bulk Modulus (GPa) = 46.59521 50.10672 48.35097
# Shear Modulus (GPa) = -36.90477 28.41925 -4.24276
#
# Velocity S-wave (km/s) = -3.99687 3.50740 -1.35520
# Velocity P-wave (km/s) = 1.06315 6.17189 4.29895
#
# Compressibility (1/GPa) = 0.02146143
#
# Stress axis : x y z
#
# Youngs Moduli (GPa) = 89.49560 135.09675 94.89510
#
# Poissons Ratio (x) = -0.11908 0.17579
# Poissons Ratio (y) = -0.07889 0.27094
# Poissons Ratio (z) = 0.16579 0.38572
#
# Static dielectric constant tensor:
#      x y z
#    x 1.818700 0.000000 0.000000 
#    y 0.000000 1.867900 0.000000 
#    z 0.000000 0.000000 1.938140 
# 
# From -- ./inp_files/3223.got.cif
#   From: 2010.05.17/outbox.cif.g08.bks.cpg/sg46_2_cif.got.tgz:3223.got - 2010.06.03 19:58:25.
