data_PCOD9380231
_publ_section_title
;
Structure prediction by ZEFSAII (Michael W. Deem and Ramdas Pophale) SiO2 
 PCOD9380231
Probable space group: I M A 2
;
_chemical_formula_sum "Si O2"
_cell_formula_units_Z 64
_cell_length_a 17.291724
_cell_length_b 8.848732
_cell_length_c 18.089320
_cell_angle_alpha 90.000000
_cell_angle_beta 90.000000
_cell_angle_gamma 90.000000
_cell_volume 2767.843805
_symmetry_space_group_name_H-M "I M A 2"
_symmetry_group_IT_number 46
_symmetry_cell_setting 'orthorhombic'
loop_
_space_group_symop_operation_xyz
x,y,z
-x,-y,z
1/2-x,y,z
1/2+x,-y,z
1/2+x,1/2+y,1/2+z
1/2-x,1/2-y,1/2+z
-x,1/2+y,1/2+z
x,1/2-y,1/2+z
loop_
_atom_site_type_symbol
_atom_site_label
_atom_site_fract_x
_atom_site_fract_y
_atom_site_fract_z
Si Si1 0.339236 0.185056 0.898310
Si Si2 0.337903 0.689865 0.041259
Si Si3 0.570846 0.395079 0.431049
Si Si4 0.437952 0.290893 0.172162
Si Si5 0.160190 0.092921 0.260735
Si Si6 0.928267 0.208748 0.289719
Si Si7 0.663469 0.081491 0.701651
Si Si8 0.429535 0.396611 0.008605
O O1 0.250000 0.192033 0.922413
O O2 0.344023 0.270906 0.820054
O O3 0.393808 0.275216 0.954505
O O4 0.368187 0.013917 0.897133
O O5 0.250000 0.718771 0.018572
O O6 0.343193 0.688833 0.129649
O O7 0.392391 0.804469 0.998450
O O8 0.361925 0.518330 0.022874
O O9 0.500000 0.500000 0.454332
O O10 0.545337 0.275910 0.367896
O O11 0.373569 0.161589 0.184922
O O12 0.508130 0.243745 0.226188
O O13 0.399826 0.449640 0.197392
O O14 0.456055 0.320740 0.086219
O O15 0.250000 0.045218 0.255250
O O16 0.102590 0.961588 0.288515
O O17 0.854073 0.309323 0.268658
O O18 0.750000 0.016327 0.702811
O O19 0.500000 0.500000 0.980501
#
# Coordination Sequence:
#
# PCOD9380231 Si02
#       8
#     8   8   8   8   8   8   8   8
#     4  11  25  43  65  96 133 174 221 271 324 385
#     4  10  22  41  65  93 127 169 217 268 324 387
#     4  12  25  41  66  97 133 175 217 268 328 387
#     4  11  23  42  67  95 128 168 216 270 328 391
#     4  11  25  43  66  97 132 174 221 269 325 387
#     4  12  24  41  65  95 131 172 219 270 324 385
#     4  10  21  39  64  93 127 168 215 268 325 386
#     4  11  23  42  68  96 129 170 216 266 326 390
#
# _framework density 23.122693000000002
#
# number of rings (size 3 to 8) (size 9 to 14) (size 15 to 20)
#    0.000    1.000    0.000    7.500    0.000    7.500 
#    0.000    1.250    0.000    0.000    0.000    0.000 
#    0.000    0.000    0.000    0.000    0.000    0.000 
#
# Total GULP energy -179133.546017 kJ/mol
# GULP energy per Si atom -5597.923313 kJ/mol
# Density = 2.307006 g / cm^3
# Si number density = 23.122693 Si / 1000 Ang^3
#
#
#
# Elastic Constant Matrix: (Units=GPa)
#
#
# Indices 1 2 3 4 5 6 
#
# 1 141.6767 51.7071 53.9852 0.0000 0.0000 0.0000
# 2 51.7071 115.4767 54.2237 0.0000 0.0000 0.0000
# 3 53.9852 54.2237 69.3919 0.0000 0.0000 0.0000
# 4 0.0000 0.0000 0.0000 40.3289 0.0000 0.0000
# 5 0.0000 0.0000 0.0000 0.0000 22.0948 0.0000
# 6 0.0000 0.0000 0.0000 0.0000 0.0000 47.6635
#
#
#
# Elastic Compliance Matrix: (Units=1/GPa)
#
#
# Indices 1 2 3 4 5 6 
#
# 1 0.010159 -0.001323 -0.006869 0.000000 0.000000 0.000000
# 2 -0.001323 0.013851 -0.009794 0.000000 0.000000 0.000000
# 3 -0.006869 -0.009794 0.027408 0.000000 0.000000 0.000000
# 4 0.000000 0.000000 0.000000 0.024796 0.000000 0.000000
# 5 0.000000 0.000000 0.000000 0.000000 0.045259 0.000000
# 6 0.000000 0.000000 0.000000 0.000000 0.000000 0.020980
#
#
# Mechanical properties :
#
#
# Convention : Reuss Voigt Hill
#
# Bulk Modulus (GPa) = 64.74565 71.81972 68.28269
# Shear Modulus (GPa) = 27.23673 33.12605 30.18139
#
# Velocity S-wave (km/s) = 3.43581 3.78910 3.61677
# Velocity P-wave (km/s) = 6.61826 7.09019 6.85829
#
# Compressibility (1/GPa) = 0.01544505
#
# Stress axis : x y z
#
# Youngs Moduli (GPa) = 98.43711 72.19596 36.48541
#
# Poissons Ratio (x) = 0.09553 0.25063
# Poissons Ratio (y) = 0.13026 0.35734
# Poissons Ratio (z) = 0.67619 0.70709
#
# Static dielectric constant tensor:
#      x y z
#    x 1.903740 0.000000 0.000000 
#    y 0.000000 1.831770 0.000000 
#    z 0.000000 0.000000 1.867900 
# 
# From -- ./inp_files/22205.got.cif
#   From: 2010.05.17/outbox.cif.g08.bks.cpg/sg46_12_cif.got.tgz:22205.got - 2010.06.03 19:58:25.
