data_PCOD9380774
_publ_section_title
;
Structure prediction by ZEFSAII (Michael W. Deem and Ramdas Pophale) SiO2 
 PCOD9380774
Probable space group: I M A 2
;
_chemical_formula_sum "Si O2"
_cell_formula_units_Z 28
_cell_length_a 19.906560
_cell_length_b 8.587665
_cell_length_c 6.815320
_cell_angle_alpha 90.000000
_cell_angle_beta 90.000000
_cell_angle_gamma 90.000000
_cell_volume 1165.084874
_symmetry_space_group_name_H-M "I M A 2"
_symmetry_group_IT_number 46
_symmetry_cell_setting 'orthorhombic'
loop_
_space_group_symop_operation_xyz
x,y,z
-x,-y,z
1/2-x,y,z
1/2+x,-y,z
1/2+x,1/2+y,1/2+z
1/2-x,1/2-y,1/2+z
-x,1/2+y,1/2+z
x,1/2-y,1/2+z
loop_
_atom_site_type_symbol
_atom_site_label
_atom_site_fract_x
_atom_site_fract_y
_atom_site_fract_z
Si Si1 0.890644 0.369685 0.094230
Si Si2 0.611384 0.009010 0.154495
Si Si3 0.000000 0.500000 0.378993
Si Si4 0.250000 0.012349 0.658591
Si Si5 0.750000 0.633527 0.719900
O O1 0.884608 0.184697 0.072000
O O2 0.820032 0.424431 0.190479
O O3 0.954169 0.098548 0.732083
O O4 0.900028 0.461783 0.887720
O O5 0.552744 0.923348 0.032334
O O6 0.680782 0.919775 0.123409
O O7 0.250000 0.182851 0.750944
O O8 0.250000 0.045074 0.426068
#
# Coordination Sequence:
#
# PCOD9380774 Si02
#       5
#     8   8   4   4   4
#     4  11  24  47  71 103 135 184 235 279 346 411
#     4  11  24  47  71 103 135 184 235 279 346 411
#     4  12  26  42  72 100 144 178 226 290 332 424
#     4  10  25  44  70 103 135 175 229 294 341 400
#     4  10  25  44  70 103 135 175 229 294 341 400
#
# _framework density 24.032584
#
# number of rings (size 3 to 8) (size 9 to 14) (size 15 to 20)
#    0.000    1.143    2.857    1.714    4.000    2.286 
#   10.286    0.000    0.000    0.000    0.000    0.000 
#    0.000    0.000    0.000    0.000    0.000    0.000 
#
# Total GULP energy -78282.208771 kJ/mol
# GULP energy per Si atom -5591.586341 kJ/mol
# Density = 2.397788 g / cm^3
# Si number density = 24.032584 Si / 1000 Ang^3
#
#
#
# Elastic Constant Matrix: (Units=GPa)
#
#
# Indices 1 2 3 4 5 6 
#
# 1 202.6668 64.2742 80.3169 0.0000 0.0000 0.0000
# 2 64.2742 77.5731 26.8882 0.0000 0.0000 0.0000
# 3 80.3169 26.8882 143.8571 0.0000 0.0000 0.0000
# 4 0.0000 0.0000 0.0000 61.9693 0.0000 0.0000
# 5 0.0000 0.0000 0.0000 0.0000 47.7350 0.0000
# 6 0.0000 0.0000 0.0000 0.0000 0.0000 25.1630
#
#
#
# Elastic Compliance Matrix: (Units=1/GPa)
#
#
# Indices 1 2 3 4 5 6 
#
# 1 0.008040 -0.005460 -0.003469 0.000000 0.000000 0.000000
# 2 -0.005460 0.017491 -0.000221 0.000000 0.000000 0.000000
# 3 -0.003469 -0.000221 0.008929 0.000000 0.000000 0.000000
# 4 0.000000 0.000000 0.000000 0.016137 0.000000 0.000000
# 5 0.000000 0.000000 0.000000 0.000000 0.020949 0.000000
# 6 0.000000 0.000000 0.000000 0.000000 0.000000 0.039741
#
#
# Mechanical properties :
#
#
# Convention : Reuss Voigt Hill
#
# Bulk Modulus (GPa) = 61.87250 85.22840 73.55045
# Shear Modulus (GPa) = 37.04429 43.81464 40.42946
#
# Velocity S-wave (km/s) = 3.93035 4.27445 4.10601
# Velocity P-wave (km/s) = 6.81161 7.73963 7.29040
#
# Compressibility (1/GPa) = 0.01616227
#
# Stress axis : x y z
#
# Youngs Moduli (GPa) = 124.37433 57.17118 111.99240
#
# Poissons Ratio (x) = 0.31213 0.38845
# Poissons Ratio (y) = 0.67903 0.02477
# Poissons Ratio (z) = 0.43139 0.01264
#
# Static dielectric constant tensor:
#      x y z
#    x 1.905570 0.000000 0.000000 
#    y 0.000000 1.803660 0.000000 
#    z 0.000000 0.000000 2.049430 
# 
# From -- ./inp_files/7086.got.cif
#   From: 2010.05.17/outbox.cif.g08.bks.cpg/sg46_4_cif.got.tgz:7086.got - 2010.06.03 19:58:25.
