data_PCOD9380681
_publ_section_title
;
Structure prediction by ZEFSAII (Michael W. Deem and Ramdas Pophale) SiO2 
 PCOD9380681
Probable space group: I M A 2
;
_chemical_formula_sum "Si O2"
_cell_formula_units_Z 36
_cell_length_a 9.589213
_cell_length_b 14.685675
_cell_length_c 10.178366
_cell_angle_alpha 90.000000
_cell_angle_beta 90.000000
_cell_angle_gamma 90.000000
_cell_volume 1433.358882
_symmetry_space_group_name_H-M "I M A 2"
_symmetry_group_IT_number 46
_symmetry_cell_setting 'orthorhombic'
loop_
_space_group_symop_operation_xyz
x,y,z
-x,-y,z
1/2-x,y,z
1/2+x,-y,z
1/2+x,1/2+y,1/2+z
1/2-x,1/2-y,1/2+z
-x,1/2+y,1/2+z
x,1/2-y,1/2+z
loop_
_atom_site_type_symbol
_atom_site_label
_atom_site_fract_x
_atom_site_fract_y
_atom_site_fract_z
Si Si1 0.250000 0.119410 0.018680
Si Si2 0.250000 0.119410 0.600300
Si Si3 0.914256 0.185823 0.446197
Si Si4 0.585744 0.185823 0.172785
Si Si5 0.750000 0.712749 0.809491
Si Si6 0.000000 0.500000 0.055426
Si Si7 0.500000 0.500000 0.563555
O O1 0.250000 0.136392 0.180405
O O2 0.116060 0.056630 0.987771
O O3 0.250000 0.206274 0.925976
O O4 0.250000 0.206274 0.693006
O O5 0.250000 0.136392 0.438576
O O6 0.383940 0.056630 0.631210
O O7 0.750000 0.207483 0.436200
O O8 0.991760 0.207268 0.309491
O O9 0.970668 0.250000 0.559491
O O10 0.926765 0.079809 0.473047
O O11 0.750000 0.207483 0.182783
O O12 0.573235 0.079809 0.145934
#
# Coordination Sequence:
#
# PCOD9380681 Si02
#       7
#     4   4   8   8   4   4   4
#     4  11  28  48  79 104 157 186 260 291 387 419
#     4  11  28  48  79 104 157 186 260 291 387 419
#     4  10  23  43  66  98 139 182 230 291 359 428
#     4  10  23  43  66  98 139 182 230 291 359 428
#     4  10  28  54  72 112 146 208 232 324 358 450
#     4  12  25  45  74 112 135 199 238 308 345 463
#     4  12  25  45  74 112 135 199 238 308 345 463
#
# _framework density 25.115831
#
# number of rings (size 3 to 8) (size 9 to 14) (size 15 to 20)
#    0.000    1.333    2.222    0.667   12.444    0.889 
#    4.000    0.000    0.000    0.000    0.000    0.000 
#    0.000    0.000    0.000    0.000    0.000    0.000 
#
# Total GULP energy -100228.588521 kJ/mol
# GULP energy per Si atom -5568.254918 kJ/mol
# Density = 2.505867 g / cm^3
# Si number density = 25.115831 Si / 1000 Ang^3
#
#
#
# Elastic Constant Matrix: (Units=GPa)
#
#
# Indices 1 2 3 4 5 6 
#
# 1 94.8438 19.6306 15.5272 0.0002 0.0001 0.0000
# 2 19.6306 174.8401 75.8658 0.0008 0.0005 -0.0001
# 3 15.5272 75.8658 157.8241 0.0021 0.0018 -0.0003
# 4 0.0002 0.0008 0.0021 26.8735 0.0005 -0.0001
# 5 0.0001 0.0005 0.0018 0.0005 62.1372 0.0001
# 6 0.0000 -0.0001 -0.0003 -0.0001 0.0001 57.1286
#
#
#
# Elastic Compliance Matrix: (Units=1/GPa)
#
#
# Indices 1 2 3 4 5 6 
#
# 1 0.010841 -0.000953 -0.000608 0.000000 0.000000 0.000000
# 2 -0.000953 0.007311 -0.003420 0.000000 0.000000 0.000000
# 3 -0.000608 -0.003420 0.008040 -0.000001 0.000000 0.000000
# 4 0.000000 0.000000 -0.000001 0.037211 0.000000 0.000000
# 5 0.000000 0.000000 0.000000 0.000000 0.016093 0.000000
# 6 0.000000 0.000000 0.000000 0.000000 0.000000 0.017504
#
#
# Mechanical properties :
#
#
# Convention : Reuss Voigt Hill
#
# Bulk Modulus (GPa) = 61.62374 72.17280 66.89827
# Shear Modulus (GPa) = 44.49438 50.32684 47.41061
#
# Velocity S-wave (km/s) = 4.21356 4.48123 4.34946
# Velocity P-wave (km/s) = 6.94703 7.45477 7.20537
#
# Compressibility (1/GPa) = 0.01622751
#
# Stress axis : x y z
#
# Youngs Moduli (GPa) = 92.24641 136.78515 124.37445
#
# Poissons Ratio (x) = 0.13038 0.07566
# Poissons Ratio (y) = 0.08793 0.42542
# Poissons Ratio (z) = 0.05612 0.46787
#
# Static dielectric constant tensor:
#      x y z
#    x 1.770170 0.000000 0.000000 
#    y 0.000000 1.801470 0.000000 
#    z 0.000000 0.000000 2.081630 
# 
# From -- ./inp_files/10046.got.cif
#   From: 2010.05.17/outbox.cif.g08.bks.cpg/sg46_6_cif.got.tgz:10046.got - 2010.06.03 19:58:25.
