data_PCOD9380483
_publ_section_title
;
Structure prediction by ZEFSAII (Michael W. Deem and Ramdas Pophale) SiO2 
 PCOD9380483
Probable space group: I M A 2
;
_chemical_formula_sum "Si O2"
_cell_formula_units_Z 48
_cell_length_a 14.887530
_cell_length_b 8.782394
_cell_length_c 14.390431
_cell_angle_alpha 90.000000
_cell_angle_beta 90.000000
_cell_angle_gamma 90.000000
_cell_volume 1881.522291
_symmetry_space_group_name_H-M "I M A 2"
_symmetry_group_IT_number 46
_symmetry_cell_setting 'orthorhombic'
loop_
_space_group_symop_operation_xyz
x,y,z
-x,-y,z
1/2-x,y,z
1/2+x,-y,z
1/2+x,1/2+y,1/2+z
1/2-x,1/2-y,1/2+z
-x,1/2+y,1/2+z
x,1/2-y,1/2+z
loop_
_atom_site_type_symbol
_atom_site_label
_atom_site_fract_x
_atom_site_fract_y
_atom_site_fract_z
Si Si1 0.644295 0.273738 0.800130
Si Si2 0.152242 0.773740 0.013125
Si Si3 0.477823 0.351522 0.049161
Si Si4 0.845619 0.624677 0.523421
Si Si5 0.146398 0.397064 0.747923
Si Si6 0.639935 0.563475 0.228035
O O1 0.750000 0.272569 0.771847
O O2 0.641730 0.293448 0.911223
O O3 0.604387 0.435107 0.764300
O O4 0.613774 0.100574 0.772634
O O5 0.250000 0.732649 0.052276
O O6 0.150694 0.952489 0.993650
O O7 0.070417 0.727849 0.078176
O O8 0.500000 0.500000 0.991106
O O9 0.413463 0.415404 0.130547
O O10 0.425845 0.227143 0.991417
O O11 0.750000 0.692705 0.496650
O O12 0.851396 0.616764 0.635447
O O13 0.250000 0.407840 0.781412
O O14 0.115336 0.226167 0.777757
O O15 0.750000 0.566510 0.217582
#
# Coordination Sequence:
#
# PCOD9380483 Si02
#       6
#     8   8   8   8   8   8
#     4   9  18  36  64  95 128 170 221 276 336 398
#     4  10  22  40  63  93 133 180 220 266 338 406
#     4  11  23  38  60  94 132 164 217 276 329 403
#     4   9  19  39  66  92 123 169 218 277 335 388
#     4   8  15  31  61  94 121 156 210 273 331 386
#     4   9  19  38  66  98 126 161 219 282 340 394
#
# _framework density 25.511258999999999
#
# number of rings (size 3 to 8) (size 9 to 14) (size 15 to 20)
#    0.000    2.667    0.000    2.000    2.333    1.333 
#    3.000    1.667    3.667    0.000    0.000    1.167 
#    0.000    0.000    0.000    0.000    0.000    0.000 
#
# Total GULP energy -133837.772924 kJ/mol
# GULP energy per Si atom -5576.573872 kJ/mol
# Density = 2.545319 g / cm^3
# Si number density = 25.511259 Si / 1000 Ang^3
#
#
#
# Elastic Constant Matrix: (Units=GPa)
#
#
# Indices 1 2 3 4 5 6 
#
# 1 108.0118 56.2872 15.3525 0.0000 0.0000 0.0000
# 2 56.2872 211.5928 22.6000 0.0000 0.0000 0.0000
# 3 15.3525 22.6000 67.7950 0.0000 0.0000 0.0000
# 4 0.0000 0.0000 0.0000 -8.3818 0.0000 0.0000
# 5 0.0000 0.0000 0.0000 0.0000 7.6289 0.0000
# 6 0.0000 0.0000 0.0000 0.0000 0.0000 37.1420
#
#
#
# Elastic Compliance Matrix: (Units=1/GPa)
#
#
# Indices 1 2 3 4 5 6 
#
# 1 0.010905 -0.002734 -0.001558 0.000000 0.000000 0.000000
# 2 -0.002734 0.005586 -0.001243 0.000000 0.000000 0.000000
# 3 -0.001558 -0.001243 0.015517 0.000000 0.000000 0.000000
# 4 0.000000 0.000000 0.000000 -0.119307 0.000000 0.000000
# 5 0.000000 0.000000 0.000000 0.000000 0.131080 0.000000
# 6 0.000000 0.000000 0.000000 0.000000 0.000000 0.026924
#
#
# Mechanical properties :
#
#
# Convention : Reuss Voigt Hill
#
# Bulk Modulus (GPa) = 47.76049 63.98654 55.87351
# Shear Modulus (GPa) = 56.33457 26.82183 41.57820
#
# Velocity S-wave (km/s) = 4.70427 3.24600 4.04146
# Velocity P-wave (km/s) = 6.94758 6.25978 6.61263
#
# Compressibility (1/GPa) = 0.02093781
#
# Stress axis : x y z
#
# Youngs Moduli (GPa) = 91.70409 179.01194 64.44341
#
# Poissons Ratio (x) = 0.48949 0.10039
# Poissons Ratio (y) = 0.25076 0.08010
# Poissons Ratio (z) = 0.14286 0.22251
#
# Static dielectric constant tensor:
#      x y z
#    x 2.072870 0.000000 0.000000 
#    y 0.000000 2.070010 0.000000 
#    z 0.000000 0.000000 2.053040 
# 
# From -- ./inp_files/19421.got.cif
#   From: 2010.05.17/outbox.cif.g08.bks.cpg/sg46_10_cif.got.tgz:19421.got - 2010.06.03 19:58:25.
