data_PCOD9380466
_publ_section_title
;
Structure prediction by ZEFSAII (Michael W. Deem and Ramdas Pophale) SiO2 
 PCOD9380466
Probable space group: I M A 2
;
_chemical_formula_sum "Si O2"
_cell_formula_units_Z 64
_cell_length_a 17.843180
_cell_length_b 5.470162
_cell_length_c 30.450010
_cell_angle_alpha 90.000000
_cell_angle_beta 90.000000
_cell_angle_gamma 90.000000
_cell_volume 2972.075820
_symmetry_space_group_name_H-M "I M A 2"
_symmetry_group_IT_number 46
_symmetry_cell_setting 'orthorhombic'
loop_
_space_group_symop_operation_xyz
x,y,z
-x,-y,z
1/2-x,y,z
1/2+x,-y,z
1/2+x,1/2+y,1/2+z
1/2-x,1/2-y,1/2+z
-x,1/2+y,1/2+z
x,1/2-y,1/2+z
loop_
_atom_site_type_symbol
_atom_site_label
_atom_site_fract_x
_atom_site_fract_y
_atom_site_fract_z
Si Si1 0.052002 0.814027 0.423400
Si Si2 0.660554 0.447497 0.487339
Si Si3 0.835940 0.978304 0.280323
Si Si4 0.408872 0.506356 0.686039
Si Si5 0.410337 0.006364 0.635943
Si Si6 0.941380 0.826471 0.842764
Si Si7 0.837291 0.560099 0.041557
Si Si8 0.332316 0.725132 0.363871
O O1 0.093969 0.609609 0.452206
O O2 0.122498 0.913276 0.394660
O O3 0.004358 0.248059 0.382964
O O4 0.000000 0.000000 0.450477
O O5 0.750000 0.468053 0.473826
O O6 0.642505 0.700146 0.512636
O O7 0.656622 0.197594 0.515915
O O8 0.750000 0.874515 0.280235
O O9 0.900782 0.834062 0.306512
O O10 0.865688 0.026593 0.232055
O O11 0.831226 0.209504 0.312741
O O12 0.500000 0.500000 0.692129
O O13 0.387581 0.247801 0.663497
O O14 0.387923 0.745248 0.657137
O O15 0.382151 0.039410 0.586556
O O16 0.500000 0.000000 0.635650
O O17 0.874424 0.971962 0.865371
O O18 0.000000 0.000000 0.817014
O O19 0.750000 0.594158 0.052841
O O20 0.250000 0.714425 0.380903
#
# Coordination Sequence:
#
# PCOD9380466 Si02
#       8
#     8   8   8   8   8   8   8   8
#     4  11  22  41  62  94 130 175 229 284 342 403
#     4  10  23  43  68 104 139 180 226 280 341 408
#     4  11  24  41  62  93 131 177 231 285 336 399
#     4  10  24  39  66  96 137 178 225 280 342 404
#     4  10  22  44  65 101 135 176 217 277 348 413
#     4  10  23  38  63  89 125 177 224 287 341 403
#     4  10  22  43  73  99 134 177 221 275 343 414
#     4  10  22  40  61  87 125 175 223 281 339 398
#
# _framework density 21.533771999999999
#
# number of rings (size 3 to 8) (size 9 to 14) (size 15 to 20)
#    0.000    1.750    1.250    1.500    5.250    5.000 
#    0.000    2.500    0.000    0.000    0.000    0.000 
#    0.000    0.000    0.000    0.000    0.000    0.000 
#
# Total GULP energy -178202.330819 kJ/mol
# GULP energy per Si atom -5568.822838 kJ/mol
# Density = 2.148476 g / cm^3
# Si number density = 21.533772 Si / 1000 Ang^3
#
#
#
# Elastic Constant Matrix: (Units=GPa)
#
#
# Indices 1 2 3 4 5 6 
#
# 1 118.0692 51.8784 43.7766 0.0000 0.0000 0.0000
# 2 51.8784 133.2404 64.5518 0.0000 0.0000 0.0000
# 3 43.7766 64.5518 130.2226 0.0000 0.0000 0.0000
# 4 0.0000 0.0000 0.0000 27.7037 0.0000 0.0000
# 5 0.0000 0.0000 0.0000 0.0000 -78.8340 0.0000
# 6 0.0000 0.0000 0.0000 0.0000 0.0000 19.7304
#
#
#
# Elastic Compliance Matrix: (Units=1/GPa)
#
#
# Indices 1 2 3 4 5 6 
#
# 1 0.010598 -0.003159 -0.001997 0.000000 0.000000 0.000000
# 2 -0.003159 0.010819 -0.004301 0.000000 0.000000 0.000000
# 3 -0.001997 -0.004301 0.010482 0.000000 0.000000 0.000000
# 4 0.000000 0.000000 0.000000 0.036096 0.000000 0.000000
# 5 0.000000 0.000000 0.000000 0.000000 -0.012685 0.000000
# 6 0.000000 0.000000 0.000000 0.000000 0.000000 0.050683
#
#
# Mechanical properties :
#
#
# Convention : Reuss Voigt Hill
#
# Bulk Modulus (GPa) = 77.00749 77.99395 77.50072
# Shear Modulus (GPa) = 38.68886 8.47506 23.58196
#
# Velocity S-wave (km/s) = 4.24330 1.98601 3.31284
# Velocity P-wave (km/s) = 7.73604 6.44647 7.12051
#
# Compressibility (1/GPa) = 0.01298575
#
# Stress axis : x y z
#
# Youngs Moduli (GPa) = 94.35742 92.43011 95.39761
#
# Poissons Ratio (x) = 0.29199 0.19049
# Poissons Ratio (y) = 0.29808 0.41031
# Poissons Ratio (z) = 0.18841 0.39755
#
# Static dielectric constant tensor:
#      x y z
#    x 1.808710 0.000000 0.000000 
#    y 0.000000 1.992160 0.000000 
#    z 0.000000 0.000000 1.795200 
# 
# From -- ./inp_files/25491.got.cif
#   From: 2010.05.17/outbox.cif.g08.bks.cpg/sg46_13_cif.got.tgz:25491.got - 2010.06.03 19:58:25.
