data_PCOD9380585
_publ_section_title
;
Structure prediction by ZEFSAII (Michael W. Deem and Ramdas Pophale) SiO2 
 PCOD9380585
Probable space group: I M A 2
;
_chemical_formula_sum "Si O2"
_cell_formula_units_Z 40
_cell_length_a 25.191448
_cell_length_b 7.523918
_cell_length_c 9.015381
_cell_angle_alpha 90.000000
_cell_angle_beta 90.000000
_cell_angle_gamma 90.000000
_cell_volume 1708.760791
_symmetry_space_group_name_H-M "I M A 2"
_symmetry_group_IT_number 46
_symmetry_cell_setting 'orthorhombic'
loop_
_space_group_symop_operation_xyz
x,y,z
-x,-y,z
1/2-x,y,z
1/2+x,-y,z
1/2+x,1/2+y,1/2+z
1/2-x,1/2-y,1/2+z
-x,1/2+y,1/2+z
x,1/2-y,1/2+z
loop_
_atom_site_type_symbol
_atom_site_label
_atom_site_fract_x
_atom_site_fract_y
_atom_site_fract_z
Si Si1 0.190513 0.505857 0.385100
Si Si2 0.914091 0.804785 0.960282
Si Si3 0.850155 0.238438 0.619861
Si Si4 0.484549 0.319636 0.213730
Si Si5 0.419435 0.599934 0.861317
O O1 0.250000 0.432947 0.376507
O O2 0.145663 0.373245 0.448736
O O3 0.189251 0.667889 0.504237
O O4 0.172673 0.579200 0.222224
O O5 0.947898 0.911441 0.839736
O O6 0.919631 0.604981 0.902298
O O7 0.946984 0.802277 0.111425
O O8 0.872725 0.372879 0.741531
O O9 0.899742 0.191161 0.513781
O O10 0.500000 0.500000 0.124820
O O11 0.529636 0.199102 0.290813
#
# Coordination Sequence:
#
# PCOD9380585 Si02
#       5
#     8   8   8   8   8
#     4  11  24  45  70  99 134 176 226 286 342 399
#     4  12  25  41  64  99 134 174 226 275 334 406
#     4  10  22  43  71  99 130 175 225 276 342 415
#     4  12  24  41  65  96 136 181 222 271 335 404
#     4  11  22  42  67  99 139 176 221 280 340 408
#
# _framework density 23.408778999999999
#
# number of rings (size 3 to 8) (size 9 to 14) (size 15 to 20)
#    0.000    0.800    0.000    9.600    0.000    1.600 
#    0.000   13.000    0.000    0.000    0.000    0.000 
#    0.000    0.000    0.000    0.000    0.000    0.000 
#
# Total GULP energy -111725.266792 kJ/mol
# GULP energy per Si atom -5586.263340 kJ/mol
# Density = 2.335550 g / cm^3
# Si number density = 23.408779 Si / 1000 Ang^3
#
#
#
# Elastic Constant Matrix: (Units=GPa)
#
#
# Indices 1 2 3 4 5 6 
#
# 1 185.3861 53.2796 51.7013 0.0000 0.0000 0.0000
# 2 53.2796 97.1203 22.3855 0.0000 0.0000 0.0000
# 3 51.7013 22.3855 148.6611 0.0000 0.0000 0.0000
# 4 0.0000 0.0000 0.0000 24.8997 0.0000 0.0000
# 5 0.0000 0.0000 0.0000 0.0000 18.8868 0.0000
# 6 0.0000 0.0000 0.0000 0.0000 0.0000 29.6885
#
#
#
# Elastic Compliance Matrix: (Units=1/GPa)
#
#
# Indices 1 2 3 4 5 6 
#
# 1 0.006881 -0.003339 -0.001890 0.000000 0.000000 0.000000
# 2 -0.003339 0.012287 -0.000689 0.000000 0.000000 0.000000
# 3 -0.001890 -0.000689 0.007488 0.000000 0.000000 0.000000
# 4 0.000000 0.000000 0.000000 0.040161 0.000000 0.000000
# 5 0.000000 0.000000 0.000000 0.000000 0.052947 0.000000
# 6 0.000000 0.000000 0.000000 0.000000 0.000000 0.033683
#
#
# Mechanical properties :
#
#
# Convention : Reuss Voigt Hill
#
# Bulk Modulus (GPa) = 67.47959 76.21114 71.84536
# Shear Modulus (GPa) = 29.37312 34.94841 32.16077
#
# Velocity S-wave (km/s) = 3.54615 3.86808 3.71060
# Velocity P-wave (km/s) = 6.75693 7.25098 7.00831
#
# Compressibility (1/GPa) = 0.01481930
#
# Stress axis : x y z
#
# Youngs Moduli (GPa) = 145.32811 81.38588 133.54991
#
# Poissons Ratio (x) = 0.27176 0.25244
# Poissons Ratio (y) = 0.48528 0.09200
# Poissons Ratio (z) = 0.27471 0.05607
#
# Static dielectric constant tensor:
#      x y z
#    x 1.984770 0.000000 0.000000 
#    y 0.000000 1.952300 0.000000 
#    z 0.000000 0.000000 1.991120 
# 
# From -- ./inp_files/7706.got.cif
#   From: 2010.05.17/outbox.cif.g08.bks.cpg/sg46_4_cif.got.tgz:7706.got - 2010.06.03 19:58:25.
