data_PCOD9380532
_publ_section_title
;
Structure prediction by ZEFSAII (Michael W. Deem and Ramdas Pophale) SiO2 
 PCOD9380532
Probable space group: I M A 2
;
_chemical_formula_sum "Si O2"
_cell_formula_units_Z 40
_cell_length_a 26.185690
_cell_length_b 8.696230
_cell_length_c 7.874926
_cell_angle_alpha 90.000000
_cell_angle_beta 90.000000
_cell_angle_gamma 90.000000
_cell_volume 1793.252815
_symmetry_space_group_name_H-M "I M A 2"
_symmetry_group_IT_number 46
_symmetry_cell_setting 'orthorhombic'
loop_
_space_group_symop_operation_xyz
x,y,z
-x,-y,z
1/2-x,y,z
1/2+x,-y,z
1/2+x,1/2+y,1/2+z
1/2-x,1/2-y,1/2+z
-x,1/2+y,1/2+z
x,1/2-y,1/2+z
loop_
_atom_site_type_symbol
_atom_site_label
_atom_site_fract_x
_atom_site_fract_y
_atom_site_fract_z
Si Si1 0.805278 0.653419 0.151100
Si Si2 0.055166 0.043897 0.924201
Si Si3 0.827915 0.060398 0.338988
Si Si4 0.165867 0.590371 0.440577
Si Si5 0.594624 0.845050 0.245797
O O1 0.750000 0.731716 0.168805
O O2 0.811618 0.532556 0.306900
O O3 0.853905 0.768475 0.157934
O O4 0.804007 0.556620 0.975894
O O5 0.072588 0.202275 0.841931
O O6 0.104096 0.930068 0.917657
O O7 0.052911 0.089932 0.119990
O O8 0.000000 0.000000 0.856558
O O9 0.820634 0.234546 0.397319
O O10 0.885480 0.992214 0.348392
O O11 0.817411 0.062093 0.135938
#
# Coordination Sequence:
#
# PCOD9380532 Si02
#       5
#     8   8   8   8   8
#     4  11  24  43  66  93 132 182 224 272 339 401
#     4  10  22  41  66  95 129 174 221 271 340 401
#     4  11  21  43  67  90 134 175 212 282 335 389
#     4  10  23  41  66  95 137 169 220 278 335 398
#     4  10  22  44  64  95 136 166 228 280 324 411
#
# _framework density 22.305834999999998
#
# number of rings (size 3 to 8) (size 9 to 14) (size 15 to 20)
#    0.000    1.600    4.000    0.000    0.000    5.600 
#    0.000    1.000    0.000    0.000    0.000    0.000 
#    0.000    0.000    0.000    0.000    0.000    0.000 
#
# Total GULP energy -111478.444131 kJ/mol
# GULP energy per Si atom -5573.922207 kJ/mol
# Density = 2.225507 g / cm^3
# Si number density = 22.305835 Si / 1000 Ang^3
#
#
#
# Elastic Constant Matrix: (Units=GPa)
#
#
# Indices 1 2 3 4 5 6 
#
# 1 92.6503 -3.3973 21.2177 0.0000 0.0000 0.0000
# 2 -3.3973 81.2933 13.3734 0.0000 0.0000 0.0000
# 3 21.2177 13.3734 94.1015 0.0000 0.0000 0.0000
# 4 0.0000 0.0000 0.0000 31.0169 0.0000 0.0000
# 5 0.0000 0.0000 0.0000 0.0000 15.4611 0.0000
# 6 0.0000 0.0000 0.0000 0.0000 0.0000 15.9330
#
#
#
# Elastic Compliance Matrix: (Units=1/GPa)
#
#
# Indices 1 2 3 4 5 6 
#
# 1 0.011448 0.000925 -0.002713 0.000000 0.000000 0.000000
# 2 0.000925 0.012670 -0.002009 0.000000 0.000000 0.000000
# 3 -0.002713 -0.002009 0.011524 0.000000 0.000000 0.000000
# 4 0.000000 0.000000 0.000000 0.032241 0.000000 0.000000
# 5 0.000000 0.000000 0.000000 0.000000 0.064678 0.000000
# 6 0.000000 0.000000 0.000000 0.000000 0.000000 0.062763
#
#
# Mechanical properties :
#
#
# Convention : Reuss Voigt Hill
#
# Bulk Modulus (GPa) = 35.65276 36.71473 36.18374
# Shear Modulus (GPa) = 23.55512 28.27230 25.91371
#
# Velocity S-wave (km/s) = 3.25315 3.56404 3.41214
# Velocity P-wave (km/s) = 5.48899 5.78203 5.63741
#
# Compressibility (1/GPa) = 0.02804832
#
# Stress axis : x y z
#
# Youngs Moduli (GPa) = 87.34824 78.92469 86.77526
#
# Poissons Ratio (x) = -0.07298 0.23540
# Poissons Ratio (y) = -0.08077 0.17435
# Poissons Ratio (z) = 0.23696 0.15857
#
# Static dielectric constant tensor:
#      x y z
#    x 1.854480 0.000000 0.000000 
#    y 0.000000 1.811500 0.000000 
#    z 0.000000 0.000000 1.893330 
# 
# From -- ./inp_files/7702.got.cif
#   From: 2010.05.17/outbox.cif.g08.bks.cpg/sg46_4_cif.got.tgz:7702.got - 2010.06.03 19:58:25.
