data_PCOD9380643
_publ_section_title
;
Structure prediction by ZEFSAII (Michael W. Deem and Ramdas Pophale) SiO2 
 PCOD9380643
Probable space group: I M A 2
;
_chemical_formula_sum "Si O2"
_cell_formula_units_Z 40
_cell_length_a 21.986989
_cell_length_b 9.080361
_cell_length_c 8.404186
_cell_angle_alpha 90.000000
_cell_angle_beta 90.000000
_cell_angle_gamma 90.000000
_cell_volume 1677.894032
_symmetry_space_group_name_H-M "I M A 2"
_symmetry_group_IT_number 46
_symmetry_cell_setting 'orthorhombic'
loop_
_space_group_symop_operation_xyz
x,y,z
-x,-y,z
1/2-x,y,z
1/2+x,-y,z
1/2+x,1/2+y,1/2+z
1/2-x,1/2-y,1/2+z
-x,1/2+y,1/2+z
x,1/2-y,1/2+z
loop_
_atom_site_type_symbol
_atom_site_label
_atom_site_fract_x
_atom_site_fract_y
_atom_site_fract_z
Si Si1 0.410559 0.307913 0.270940
Si Si2 0.976926 0.147311 0.011770
Si Si3 0.182033 0.666977 0.778637
Si Si4 0.867312 0.551838 0.545752
Si Si5 0.106384 0.897093 0.588603
O O1 0.472318 0.184891 0.879221
O O2 0.356270 0.342122 0.396552
O O3 0.398221 0.159060 0.176668
O O4 0.409326 0.439870 0.143780
O O5 0.954288 0.295513 0.092732
O O6 0.912315 0.072168 0.967231
O O7 0.000000 0.000000 0.104261
O O8 0.250000 0.686384 0.841654
O O9 0.180920 0.544554 0.638949
O O10 0.155847 0.814718 0.698921
O O11 0.135110 0.611482 0.912670
#
# Coordination Sequence:
#
# PCOD9380643 Si02
#       5
#     8   8   8   8   8
#     4  11  23  42  64  94 135 174 212 265 321 386
#     4   9  21  37  59  90 128 167 205 250 313 378
#     4  11  23  44  69  95 127 169 218 276 328 375
#     4  10  23  41  62  93 130 166 215 263 317 387
#     4  11  23  42  68  98 131 170 221 266 317 392
#
# _framework density 23.839407999999999
#
# number of rings (size 3 to 8) (size 9 to 14) (size 15 to 20)
#    0.000    1.600    0.000    5.400    0.000   17.600 
#    0.000   16.000    0.000    0.000    0.000    0.000 
#    0.000    0.000    0.000    0.000    0.000    0.000 
#
# Total GULP energy -111490.905975 kJ/mol
# GULP energy per Si atom -5574.545299 kJ/mol
# Density = 2.378515 g / cm^3
# Si number density = 23.839408 Si / 1000 Ang^3
#
#
#
# Elastic Constant Matrix: (Units=GPa)
#
#
# Indices 1 2 3 4 5 6 
#
# 1 81.2422 44.5389 19.0130 0.0000 0.0000 0.0000
# 2 44.5389 116.9521 11.4935 0.0000 0.0000 0.0000
# 3 19.0130 11.4935 61.1639 0.0000 0.0000 0.0000
# 4 0.0000 0.0000 0.0000 60.3272 0.0000 0.0000
# 5 0.0000 0.0000 0.0000 0.0000 18.4400 0.0000
# 6 0.0000 0.0000 0.0000 0.0000 0.0000 7.9682
#
#
#
# Elastic Compliance Matrix: (Units=1/GPa)
#
#
# Indices 1 2 3 4 5 6 
#
# 1 0.016471 -0.005878 -0.004016 0.000000 0.000000 0.000000
# 2 -0.005878 0.010809 -0.000204 0.000000 0.000000 0.000000
# 3 -0.004016 -0.000204 0.017636 0.000000 0.000000 0.000000
# 4 0.000000 0.000000 0.000000 0.016576 0.000000 0.000000
# 5 0.000000 0.000000 0.000000 0.000000 0.054230 0.000000
# 6 0.000000 0.000000 0.000000 0.000000 0.000000 0.125499
#
#
# Mechanical properties :
#
#
# Convention : Reuss Voigt Hill
#
# Bulk Modulus (GPa) = 40.45114 45.49434 42.97274
# Shear Modulus (GPa) = 18.54208 29.63460 24.08834
#
# Velocity S-wave (km/s) = 2.79192 3.52958 3.18219
# Velocity P-wave (km/s) = 5.23432 5.97793 5.61844
#
# Compressibility (1/GPa) = 0.02472118
#
# Stress axis : x y z
#
# Youngs Moduli (GPa) = 60.71233 92.51464 56.70193
#
# Poissons Ratio (x) = 0.54381 0.22769
# Poissons Ratio (y) = 0.35687 0.01156
# Poissons Ratio (z) = 0.24379 0.01887
#
# Static dielectric constant tensor:
#      x y z
#    x 1.972850 0.000000 0.000000 
#    y 0.000000 1.914260 0.000000 
#    z 0.000000 0.000000 1.984040 
# 
# From -- ./inp_files/7723.got.cif
#   From: 2010.05.17/outbox.cif.g08.bks.cpg/sg46_4_cif.got.tgz:7723.got - 2010.06.03 19:58:25.
