data_PCOD9380547
_publ_section_title
;
Structure prediction by ZEFSAII (Michael W. Deem and Ramdas Pophale) SiO2 
 PCOD9380547
Probable space group: I M A 2
;
_chemical_formula_sum "Si O2"
_cell_formula_units_Z 60
_cell_length_a 30.101795
_cell_length_b 17.844015
_cell_length_c 4.832855
_cell_angle_alpha 90.000000
_cell_angle_beta 90.000000
_cell_angle_gamma 90.000000
_cell_volume 2595.904663
_symmetry_space_group_name_H-M "I M A 2"
_symmetry_group_IT_number 46
_symmetry_cell_setting 'orthorhombic'
loop_
_space_group_symop_operation_xyz
x,y,z
-x,-y,z
1/2-x,y,z
1/2+x,-y,z
1/2+x,1/2+y,1/2+z
1/2-x,1/2-y,1/2+z
-x,1/2+y,1/2+z
x,1/2-y,1/2+z
loop_
_atom_site_type_symbol
_atom_site_label
_atom_site_fract_x
_atom_site_fract_y
_atom_site_fract_z
Si Si1 0.096333 0.927246 0.250000
Si Si2 0.750000 0.130755 0.233087
Si Si3 0.625904 0.800671 0.816634
Si Si4 0.200415 0.415848 0.497581
Si Si5 0.036028 0.562966 0.262989
Si Si6 0.975199 0.802163 0.835958
Si Si7 0.183379 0.511226 0.999343
Si Si8 0.659574 0.299018 0.510558
O O1 0.061352 0.909174 0.490179
O O2 0.123394 0.858869 0.111537
O O3 0.132924 0.976532 0.409517
O O4 0.070409 0.965436 0.995772
O O5 0.790064 0.174296 0.064608
O O6 0.711823 0.082144 0.404785
O O7 0.630623 0.774414 0.501443
O O8 0.662807 0.858730 0.909201
O O9 0.575802 0.828938 0.865924
O O10 0.250000 0.388513 0.433935
O O11 0.198766 0.440570 0.815487
O O12 0.191882 0.491582 0.318008
O O13 0.000000 0.500000 0.189433
O O14 0.009670 0.632802 0.392880
O O15 0.980809 0.769800 0.529805
O O16 0.653460 0.276121 0.193197
#
# Coordination Sequence:
#
# PCOD9380547 Si02
#       8
#     8   4   8   8   8   8   8   8
#     4  11  26  43  64  94 134 171 211 274 331 381
#     4  10  22  42  62  94 136 168 224 266 302 390
#     4  10  23  42  63  95 127 166 214 263 319 389
#     4  12  23  40  67  96 126 175 211 260 323 379
#     4  12  26  45  67 103 131 171 223 280 340 398
#     4  10  23  43  68  94 129 177 220 264 327 399
#     4  11  24  41  62  94 132 173 214 259 321 391
#     4  11  24  41  66  96 129 176 220 265 322 378
#
# _framework density 23.113330000000001
#
# number of rings (size 3 to 8) (size 9 to 14) (size 15 to 20)
#    0.000    1.067    1.333    4.000    3.733    8.000 
#    0.000    0.000    0.000    0.000    0.000    0.000 
#    0.000    0.000    0.000    0.000    0.000    0.000 
#
# Total GULP energy -167449.428495 kJ/mol
# GULP energy per Si atom -5581.647617 kJ/mol
# Density = 2.306072 g / cm^3
# Si number density = 23.113330 Si / 1000 Ang^3
#
#
#
# Elastic Constant Matrix: (Units=GPa)
#
#
# Indices 1 2 3 4 5 6 
#
# 1 138.7147 32.9997 21.2873 0.0000 0.0000 0.0000
# 2 32.9997 28.7326 -2.9070 0.0000 0.0000 0.0000
# 3 21.2873 -2.9070 71.1190 0.0000 0.0000 0.0000
# 4 0.0000 0.0000 0.0000 24.7524 0.0000 0.0000
# 5 0.0000 0.0000 0.0000 0.0000 10.7960 0.0000
# 6 0.0000 0.0000 0.0000 0.0000 0.0000 25.6913
#
#
#
# Elastic Compliance Matrix: (Units=1/GPa)
#
#
# Indices 1 2 3 4 5 6 
#
# 1 0.010840 -0.012831 -0.003769 0.000000 0.000000 0.000000
# 2 -0.012831 0.050136 0.005890 0.000000 0.000000 0.000000
# 3 -0.003769 0.005890 0.015430 0.000000 0.000000 0.000000
# 4 0.000000 0.000000 0.000000 0.040400 0.000000 0.000000
# 5 0.000000 0.000000 0.000000 0.000000 0.092627 0.000000
# 6 0.000000 0.000000 0.000000 0.000000 0.000000 0.038924
#
#
# Mechanical properties :
#
#
# Convention : Reuss Voigt Hill
#
# Bulk Modulus (GPa) = 18.18660 37.92514 28.05587
# Shear Modulus (GPa) = 17.35475 24.72701 21.04088
#
# Velocity S-wave (km/s) = 2.74315 3.27435 3.02045
# Velocity P-wave (km/s) = 4.23304 5.54429 4.93243
#
# Compressibility (1/GPa) = 0.05498553
#
# Stress axis : x y z
#
# Youngs Moduli (GPa) = 92.25168 19.94565 64.80943
#
# Poissons Ratio (x) = 0.25592 0.24427
# Poissons Ratio (y) = 1.18369 -0.38172
# Poissons Ratio (z) = 0.34770 -0.11748
#
# Static dielectric constant tensor:
#      x y z
#    x 1.852340 0.000000 0.000000 
#    y 0.000000 1.868650 0.000000 
#    z 0.000000 0.000000 1.827730 
# 
# From -- ./inp_files/2592.got.cif
#   From: 2010.05.17/outbox.cif.g08.bks.cpg/sg46_2_cif.got.tgz:2592.got - 2010.06.03 19:58:25.
