data_PCOD9380883
_publ_section_title
;
Structure prediction by ZEFSAII (Michael W. Deem and Ramdas Pophale) SiO2 
 PCOD9380883
Probable space group: I M A 2
;
_chemical_formula_sum "Si O2"
_cell_formula_units_Z 48
_cell_length_a 14.839012
_cell_length_b 11.317942
_cell_length_c 13.586210
_cell_angle_alpha 90.000000
_cell_angle_beta 90.000000
_cell_angle_gamma 90.000000
_cell_volume 2281.764259
_symmetry_space_group_name_H-M "I M A 2"
_symmetry_group_IT_number 46
_symmetry_cell_setting 'orthorhombic'
loop_
_space_group_symop_operation_xyz
x,y,z
-x,-y,z
1/2-x,y,z
1/2+x,-y,z
1/2+x,1/2+y,1/2+z
1/2-x,1/2-y,1/2+z
-x,1/2+y,1/2+z
x,1/2-y,1/2+z
loop_
_atom_site_type_symbol
_atom_site_label
_atom_site_fract_x
_atom_site_fract_y
_atom_site_fract_z
Si Si1 0.647282 0.812749 0.095610
Si Si2 0.148757 0.265562 0.818772
Si Si3 0.480635 0.863065 0.609833
Si Si4 0.893470 0.525044 0.405928
Si Si5 0.965703 0.368483 0.896766
Si Si6 0.850617 0.297817 0.286264
O O1 0.750000 0.771762 0.078058
O O2 0.643502 0.833514 0.214063
O O3 0.571463 0.711629 0.092035
O O4 0.629601 0.915664 0.013466
O O5 0.250000 0.291299 0.857542
O O6 0.139266 0.121961 0.824438
O O7 0.058282 0.297487 0.877139
O O8 0.430395 0.849157 0.506660
O O9 0.422479 0.825839 0.702036
O O10 0.500000 0.000000 0.622754
O O11 0.854364 0.398905 0.371264
O O12 0.000000 0.500000 0.404179
O O13 0.886488 0.325614 0.827684
O O14 0.000000 0.500000 0.883679
O O15 0.750000 0.292227 0.247485
#
# Coordination Sequence:
#
# PCOD9380883 Si02
#       6
#     8   8   8   8   8   8
#     4  11  22  38  66 102 135 173 226 283 336 399
#     4  11  22  40  67 101 136 176 225 275 337 407
#     4  11  23  41  68 100 135 185 231 274 336 403
#     4  12  22  42  71 101 139 179 226 284 339 399
#     4  11  25  45  67  94 136 181 224 277 346 410
#     4  12  25  45  70 100 138 177 229 285 340 401
#
# _framework density 21.036353999999999
#
# number of rings (size 3 to 8) (size 9 to 14) (size 15 to 20)
#    0.000    0.667    5.000    3.000    0.000    4.000 
#    3.000    3.333    0.000    0.000    0.000    0.000 
#    0.000    0.000    0.000    0.000    0.000    0.000 
#
# Total GULP energy -133711.468515 kJ/mol
# GULP energy per Si atom -5571.311188 kJ/mol
# Density = 2.098847 g / cm^3
# Si number density = 21.036354 Si / 1000 Ang^3
#
#
#
# Elastic Constant Matrix: (Units=GPa)
#
#
# Indices 1 2 3 4 5 6 
#
# 1 117.2898 12.3255 25.1845 0.0000 0.0000 0.0000
# 2 12.3255 48.6944 21.7383 0.0000 0.0000 0.0000
# 3 25.1845 21.7383 132.0772 0.0000 0.0000 0.0000
# 4 0.0000 0.0000 0.0000 21.5187 0.0000 0.0000
# 5 0.0000 0.0000 0.0000 0.0000 35.1917 0.0000
# 6 0.0000 0.0000 0.0000 0.0000 0.0000 8.6566
#
#
#
# Elastic Compliance Matrix: (Units=1/GPa)
#
#
# Indices 1 2 3 4 5 6 
#
# 1 0.009009 -0.001633 -0.001449 0.000000 0.000000 0.000000
# 2 -0.001633 0.022461 -0.003385 0.000000 0.000000 0.000000
# 3 -0.001449 -0.003385 0.008405 0.000000 0.000000 0.000000
# 4 0.000000 0.000000 0.000000 0.046471 0.000000 0.000000
# 5 0.000000 0.000000 0.000000 0.000000 0.028416 0.000000
# 6 0.000000 0.000000 0.000000 0.000000 0.000000 0.115518
#
#
# Mechanical properties :
#
#
# Convention : Reuss Voigt Hill
#
# Bulk Modulus (GPa) = 37.12085 46.28422 41.70253
# Shear Modulus (GPa) = 19.82595 28.99429 24.41012
#
# Velocity S-wave (km/s) = 3.07328 3.71657 3.41013
# Velocity P-wave (km/s) = 5.50253 6.36136 5.94747
#
# Compressibility (1/GPa) = 0.02693904
#
# Stress axis : x y z
#
# Youngs Moduli (GPa) = 111.00431 44.52159 118.97964
#
# Poissons Ratio (x) = 0.07272 0.17239
# Poissons Ratio (y) = 0.18132 0.40279
# Poissons Ratio (z) = 0.16084 0.15072
#
# Static dielectric constant tensor:
#      x y z
#    x 1.708010 0.000000 0.000000 
#    y 0.000000 1.833160 0.000000 
#    z 0.000000 0.000000 1.840360 
# 
# From -- ./inp_files/15872.got.cif
#   From: 2010.05.17/outbox.cif.g08.bks.cpg/sg46_8_cif.got.tgz:15872.got - 2010.06.03 19:58:25.
