data_PCOD9380895
_publ_section_title
;
Structure prediction by ZEFSAII (Michael W. Deem and Ramdas Pophale) SiO2 
 PCOD9380895
Probable space group: I M A 2
;
_chemical_formula_sum "Si O2"
_cell_formula_units_Z 56
_cell_length_a 20.338821
_cell_length_b 8.499916
_cell_length_c 14.330528
_cell_angle_alpha 90.000000
_cell_angle_beta 90.000000
_cell_angle_gamma 90.000000
_cell_volume 2477.436889
_symmetry_space_group_name_H-M "I M A 2"
_symmetry_group_IT_number 46
_symmetry_cell_setting 'orthorhombic'
loop_
_space_group_symop_operation_xyz
x,y,z
-x,-y,z
1/2-x,y,z
1/2+x,-y,z
1/2+x,1/2+y,1/2+z
1/2-x,1/2-y,1/2+z
-x,1/2+y,1/2+z
x,1/2-y,1/2+z
loop_
_atom_site_type_symbol
_atom_site_label
_atom_site_fract_x
_atom_site_fract_y
_atom_site_fract_z
Si Si1 0.326065 0.498570 0.329810
Si Si2 0.676226 0.358518 0.839619
Si Si3 0.455133 0.144129 0.746650
Si Si4 0.825091 0.159885 0.566299
Si Si5 0.438153 0.085916 0.373897
Si Si6 0.893719 0.827304 0.570560
Si Si7 0.172021 0.003389 0.054549
O O1 0.250000 0.452949 0.312239
O O2 0.334389 0.682303 0.301645
O O3 0.380418 0.394407 0.279056
O O4 0.336614 0.492861 0.441844
O O5 0.750000 0.412120 0.811681
O O6 0.616913 0.478774 0.824473
O O7 0.677202 0.341156 0.952782
O O8 0.472272 0.300502 0.800536
O O9 0.457116 0.169556 0.636324
O O10 0.500000 0.000000 0.775859
O O11 0.750000 0.152537 0.600162
O O12 0.853574 0.332982 0.590588
O O13 0.859504 0.996032 0.590759
O O14 0.404702 0.174534 0.460067
O O15 0.500000 0.000000 0.420093
O O16 0.856602 0.665118 0.594411
O O17 0.250000 0.001501 0.070777
#
# Coordination Sequence:
#
# PCOD9380895 Si02
#       7
#     8   8   8   8   8   8   8
#     4   9  18  37  65  95 128 167 212 266 327 387
#     4   8  16  34  63  93 122 160 208 259 316 381
#     4  12  26  43  62  93 133 168 217 272 328 395
#     4   8  16  32  59  93 128 164 203 260 320 376
#     4  11  23  43  66  88 124 170 216 265 326 382
#     4  11  22  40  65  91 124 172 219 265 321 392
#     4   9  17  35  64  97 130 166 214 263 320 390
#
# _framework density 22.604005999999998
#
# number of rings (size 3 to 8) (size 9 to 14) (size 15 to 20)
#    0.000    2.286    1.429    3.429    0.000    2.286 
#    5.143    0.714    0.000    0.000    0.000    0.000 
#    0.000    0.000    0.000    0.000    0.000    0.000 
#
# Total GULP energy -156264.901428 kJ/mol
# GULP energy per Si atom -5580.889337 kJ/mol
# Density = 2.255256 g / cm^3
# Si number density = 22.604006 Si / 1000 Ang^3
#
#
#
# Elastic Constant Matrix: (Units=GPa)
#
#
# Indices 1 2 3 4 5 6 
#
# 1 42.6688 30.9029 -2.6720 0.0000 0.0000 0.0000
# 2 30.9029 136.7336 14.6290 0.0000 0.0000 0.0000
# 3 -2.6720 14.6290 39.2852 0.0000 0.0000 0.0000
# 4 0.0000 0.0000 0.0000 21.6055 0.0000 0.0000
# 5 0.0000 0.0000 0.0000 0.0000 11.7607 0.0000
# 6 0.0000 0.0000 0.0000 0.0000 0.0000 36.6037
#
#
#
# Elastic Compliance Matrix: (Units=1/GPa)
#
#
# Indices 1 2 3 4 5 6 
#
# 1 0.028788 -0.006994 0.004563 0.000000 0.000000 0.000000
# 2 -0.006994 0.009316 -0.003945 0.000000 0.000000 0.000000
# 3 0.004563 -0.003945 0.027234 0.000000 0.000000 0.000000
# 4 0.000000 0.000000 0.000000 0.046284 0.000000 0.000000
# 5 0.000000 0.000000 0.000000 0.000000 0.085029 0.000000
# 6 0.000000 0.000000 0.000000 0.000000 0.000000 0.027320
#
#
# Mechanical properties :
#
#
# Convention : Reuss Voigt Hill
#
# Bulk Modulus (GPa) = 19.01690 33.82303 26.41996
# Shear Modulus (GPa) = 19.66547 25.71585 22.69066
#
# Velocity S-wave (km/s) = 2.95278 3.37659 3.17177
# Velocity P-wave (km/s) = 4.47845 5.49524 5.01269
#
# Compressibility (1/GPa) = 0.05258480
#
# Stress axis : x y z
#
# Youngs Moduli (GPa) = 34.73701 107.33819 36.71848
#
# Poissons Ratio (x) = 0.75077 -0.16753
# Poissons Ratio (y) = 0.24296 0.14485
# Poissons Ratio (z) = -0.15849 0.42344
#
# Static dielectric constant tensor:
#      x y z
#    x 1.826810 0.000000 0.000000 
#    y 0.000000 1.838070 0.000000 
#    z 0.000000 0.000000 1.862930 
# 
# From -- ./inp_files/17100.got.cif
#   From: 2010.05.17/outbox.cif.g08.bks.cpg/sg46_9_cif.got.tgz:17100.got - 2010.06.03 19:58:25.
