data_PCOD9380516
_publ_section_title
;
Structure prediction by ZEFSAII (Michael W. Deem and Ramdas Pophale) SiO2 
 PCOD9380516
Probable space group: I M A 2
;
_chemical_formula_sum "Si O2"
_cell_formula_units_Z 40
_cell_length_a 11.507962
_cell_length_b 6.967502
_cell_length_c 19.639571
_cell_angle_alpha 90.000000
_cell_angle_beta 90.000000
_cell_angle_gamma 90.000000
_cell_volume 1574.735138
_symmetry_space_group_name_H-M "I M A 2"
_symmetry_group_IT_number 46
_symmetry_cell_setting 'orthorhombic'
loop_
_space_group_symop_operation_xyz
x,y,z
-x,-y,z
1/2-x,y,z
1/2+x,-y,z
1/2+x,1/2+y,1/2+z
1/2-x,1/2-y,1/2+z
-x,1/2+y,1/2+z
x,1/2-y,1/2+z
loop_
_atom_site_type_symbol
_atom_site_label
_atom_site_fract_x
_atom_site_fract_y
_atom_site_fract_z
Si Si1 0.750000 0.618314 0.128541
Si Si2 0.250000 0.408200 0.501730
Si Si3 0.250000 0.480546 0.936038
Si Si4 0.250000 0.762165 0.301564
Si Si5 0.001956 0.721132 0.318411
Si Si6 0.564016 0.260625 0.477871
Si Si7 0.750000 0.805537 0.785281
Si Si8 0.000000 0.500000 0.086727
O O1 0.750000 0.698399 0.204318
O O2 0.872879 0.500385 0.123577
O O3 0.750000 0.786546 0.071350
O O4 0.359326 0.550821 0.491009
O O5 0.250000 0.246630 0.442232
O O6 0.250000 0.613424 0.870045
O O7 0.141048 0.566407 0.975547
O O8 0.383894 0.798431 0.278544
O O9 0.250000 0.528855 0.311383
O O10 0.871363 0.790876 0.306634
O O11 0.000000 0.500000 0.298094
O O12 0.017627 0.730788 0.400606
O O13 0.493166 0.201485 0.544194
#
# Coordination Sequence:
#
# PCOD9380516 Si02
#       8
#     4   4   4   4   8   8   4   4
#     4  12  28  44  74 109 159 221 265 330 379 498
#     4  11  22  44  76 119 160 212 253 337 417 490
#     4   9  17  41  63 112 154 188 252 311 409 471
#     4   8  17  35  65 101 140 193 250 335 378 464
#     4   9  19  35  65 106 142 191 244 322 384 473
#     4  10  22  40  71 113 157 192 252 333 418 466
#     4  10  22  42  66 111 147 212 276 293 411 465
#     4  12  26  48  70 122 152 208 266 326 412 482
#
# _framework density 25.401098000000001
#
# number of rings (size 3 to 8) (size 9 to 14) (size 15 to 20)
#    0.000    2.000    2.000    1.200    7.000    0.800 
#    0.000    0.000    0.000    2.400   57.200    0.000 
#    0.000    0.000    0.000    0.000    0.000    0.000 
#
# Total GULP energy -111509.206497 kJ/mol
# GULP energy per Si atom -5575.460325 kJ/mol
# Density = 2.534328 g / cm^3
# Si number density = 25.401098 Si / 1000 Ang^3
#
#
#
# Elastic Constant Matrix: (Units=GPa)
#
#
# Indices 1 2 3 4 5 6 
#
# 1 255.4825 39.3592 52.2912 0.0000 0.0000 0.0000
# 2 39.3592 149.7132 14.3851 0.0000 0.0000 0.0000
# 3 52.2912 14.3851 93.4339 0.0000 0.0000 0.0000
# 4 0.0000 0.0000 0.0000 6.7170 0.0000 0.0000
# 5 0.0000 0.0000 0.0000 0.0000 18.3911 0.0000
# 6 0.0000 0.0000 0.0000 0.0000 0.0000 -252.4089
#
#
#
# Elastic Compliance Matrix: (Units=1/GPa)
#
#
# Indices 1 2 3 4 5 6 
#
# 1 0.004554 -0.000967 -0.002400 0.000000 0.000000 0.000000
# 2 -0.000967 0.006985 -0.000534 0.000000 0.000000 0.000000
# 3 -0.002400 -0.000534 0.012128 0.000000 0.000000 0.000000
# 4 0.000000 0.000000 0.000000 0.148876 0.000000 0.000000
# 5 0.000000 0.000000 0.000000 0.000000 0.054374 0.000000
# 6 0.000000 0.000000 0.000000 0.000000 0.000000 -0.003962
#
#
# Mechanical properties :
#
#
# Convention : Reuss Voigt Hill
#
# Bulk Modulus (GPa) = 63.03087 78.96673 70.99880
# Shear Modulus (GPa) = 21.18226 -19.28721 0.94752
#
# Velocity S-wave (km/s) = 2.89089 -2.75854 0.61142
# Velocity P-wave (km/s) = 6.00092 4.58360 5.33949
#
# Compressibility (1/GPa) = 0.01586524
#
# Stress axis : x y z
#
# Youngs Moduli (GPa) = 219.57160 143.16543 82.45232
#
# Poissons Ratio (x) = 0.13840 0.19789
# Poissons Ratio (y) = 0.21226 0.04406
# Poissons Ratio (z) = 0.52698 0.07650
#
# Static dielectric constant tensor:
#      x y z
#    x 2.266940 0.000000 0.000000 
#    y 0.000000 1.977800 0.000000 
#    z 0.000000 0.000000 2.024450 
# 
# From -- ./inp_files/21671.got.cif
#   From: 2010.05.17/outbox.cif.g08.bks.cpg/sg46_11_cif.got.tgz:21671.got - 2010.06.03 19:58:25.
