data_PCOD9380478
_publ_section_title
;
Structure prediction by ZEFSAII (Michael W. Deem and Ramdas Pophale) SiO2 
 PCOD9380478
Probable space group: I M A 2
;
_chemical_formula_sum "Si O2"
_cell_formula_units_Z 64
_cell_length_a 8.684337
_cell_length_b 15.798840
_cell_length_c 24.196937
_cell_angle_alpha 90.000000
_cell_angle_beta 90.000000
_cell_angle_gamma 90.000000
_cell_volume 3319.879058
_symmetry_space_group_name_H-M "I M A 2"
_symmetry_group_IT_number 46
_symmetry_cell_setting 'orthorhombic'
loop_
_space_group_symop_operation_xyz
x,y,z
-x,-y,z
1/2-x,y,z
1/2+x,-y,z
1/2+x,1/2+y,1/2+z
1/2-x,1/2-y,1/2+z
-x,1/2+y,1/2+z
x,1/2-y,1/2+z
loop_
_atom_site_type_symbol
_atom_site_label
_atom_site_fract_x
_atom_site_fract_y
_atom_site_fract_z
Si Si1 0.064840 0.909079 0.088140
Si Si2 0.934204 0.652067 0.964772
Si Si3 0.565243 0.089624 0.580750
Si Si4 0.935385 0.342329 0.467655
Si Si5 0.934373 0.588368 0.355041
Si Si6 0.933488 0.410428 0.849135
Si Si7 0.935997 0.253043 0.159901
Si Si8 0.434003 0.252561 0.782313
O O1 0.250000 0.912492 0.089189
O O2 0.016676 0.832451 0.127922
O O3 0.018751 0.885583 0.025418
O O4 0.000000 0.000000 0.104173
O O5 0.750000 0.649557 0.963014
O O6 0.992467 0.748898 0.964741
O O7 0.001044 0.607642 0.910355
O O8 0.995424 0.609276 0.020601
O O9 0.750000 0.086181 0.576217
O O10 0.524667 0.166340 0.621850
O O11 0.500000 0.000000 0.600558
O O12 0.750000 0.335058 0.466369
O O13 0.994050 0.394278 0.415201
O O14 0.750000 0.583796 0.359441
O O15 0.975022 0.668171 0.316678
O O16 0.000000 0.500000 0.333142
O O17 0.750000 0.413816 0.851215
O O18 0.000000 0.500000 0.829334
O O19 0.987430 0.333398 0.810618
O O20 0.750000 0.251766 0.165815
O O21 0.012333 0.257007 0.219537
O O22 0.250000 0.263023 0.785471
#
# Coordination Sequence:
#
# PCOD9380478 Si02
#       8
#     8   8   8   8   8   8   8   8
#     4  10  22  40  62  92 125 161 205 251 305 368
#     4  12  23  38  63  96 131 166 207 255 314 381
#     4  11  23  42  65  93 128 166 211 261 315 377
#     4  11  21  38  64  93 128 167 204 252 315 377
#     4  11  24  41  63  93 129 165 209 259 312 377
#     4  12  25  43  68  95 128 168 209 258 317 377
#     4  10  23  44  65  87 123 168 212 260 315 371
#     4  11  25  44  65  93 126 163 214 267 314 373
#
# _framework density 19.277811
#
# number of rings (size 3 to 8) (size 9 to 14) (size 15 to 20)
#    0.000    1.000    2.500    4.500    0.000    6.000 
#    0.000    3.750    0.000    0.000    0.000    0.000 
#    0.000    0.000    0.000    0.000    0.000    0.000 
#
# Total GULP energy -179058.054763 kJ/mol
# GULP energy per Si atom -5595.564211 kJ/mol
# Density = 1.923393 g / cm^3
# Si number density = 19.277811 Si / 1000 Ang^3
#
#
#
# Elastic Constant Matrix: (Units=GPa)
#
#
# Indices 1 2 3 4 5 6 
#
# 1 88.9528 59.8440 47.2792 0.0000 0.0000 0.0000
# 2 59.8440 167.9703 51.4062 0.0000 0.0000 0.0000
# 3 47.2792 51.4062 113.9316 0.0000 0.0000 0.0000
# 4 0.0000 0.0000 0.0000 -5.6097 0.0000 0.0000
# 5 0.0000 0.0000 0.0000 0.0000 -327.4483 0.0000
# 6 0.0000 0.0000 0.0000 0.0000 0.0000 35.9766
#
#
#
# Elastic Compliance Matrix: (Units=1/GPa)
#
#
# Indices 1 2 3 4 5 6 
#
# 1 0.016924 -0.004502 -0.004992 0.000000 0.000000 0.000000
# 2 -0.004502 0.008105 -0.001789 0.000000 0.000000 0.000000
# 3 -0.004992 -0.001789 0.011656 0.000000 0.000000 0.000000
# 4 0.000000 0.000000 0.000000 -0.178264 0.000000 0.000000
# 5 0.000000 0.000000 0.000000 0.000000 -0.003054 0.000000
# 6 0.000000 0.000000 0.000000 0.000000 0.000000 0.027796
#
#
# Mechanical properties :
#
#
# Convention : Reuss Voigt Hill
#
# Bulk Modulus (GPa) = 70.82348 76.43485 73.62916
# Shear Modulus (GPa) = -55.82430 -45.26123 -50.54277
#
# Velocity S-wave (km/s) = -5.38708 -4.85071 -5.12592
# Velocity P-wave (km/s) = 1.36972 2.89183 1.80091
#
# Compressibility (1/GPa) = 0.01411961
#
# Stress axis : x y z
#
# Youngs Moduli (GPa) = 59.08857 123.38423 85.79468
#
# Poissons Ratio (x) = 0.55546 0.42827
# Poissons Ratio (y) = 0.26601 0.15346
# Poissons Ratio (z) = 0.29496 0.22070
#
# Static dielectric constant tensor:
#      x y z
#    x 1.646370 0.000000 0.000000 
#    y 0.000000 1.676930 0.000000 
#    z 0.000000 0.000000 1.642290 
# 
# From -- ./inp_files/23148.got.cif
#   From: 2010.05.17/outbox.cif.g08.bks.cpg/sg46_12_cif.got.tgz:23148.got - 2010.06.03 19:58:25.
