data_PCOD9380593
_publ_section_title
;
Structure prediction by ZEFSAII (Michael W. Deem and Ramdas Pophale) SiO2 
 PCOD9380593
Probable space group: I M A 2
;
_chemical_formula_sum "Si O2"
_cell_formula_units_Z 64
_cell_length_a 30.809349
_cell_length_b 8.540344
_cell_length_c 10.584100
_cell_angle_alpha 90.000000
_cell_angle_beta 90.000000
_cell_angle_gamma 90.000000
_cell_volume 2784.914205
_symmetry_space_group_name_H-M "I M A 2"
_symmetry_group_IT_number 46
_symmetry_cell_setting 'orthorhombic'
loop_
_space_group_symop_operation_xyz
x,y,z
-x,-y,z
1/2-x,y,z
1/2+x,-y,z
1/2+x,1/2+y,1/2+z
1/2-x,1/2-y,1/2+z
-x,1/2+y,1/2+z
x,1/2-y,1/2+z
loop_
_atom_site_type_symbol
_atom_site_label
_atom_site_fract_x
_atom_site_fract_y
_atom_site_fract_z
Si Si1 0.158213 0.369171 0.364370
Si Si2 0.991661 0.318895 0.390110
Si Si3 0.917634 0.099733 0.383020
Si Si4 0.301352 0.221262 0.604426
Si Si5 0.824805 0.373759 0.005370
Si Si6 0.799481 0.317810 0.274196
Si Si7 0.421615 0.209819 0.267938
Si Si8 0.533724 0.885231 0.583879
O O1 0.178781 0.337016 0.500330
O O2 0.179486 0.272268 0.246409
O O3 0.168035 0.547330 0.324578
O O4 0.109066 0.306957 0.361911
O O5 0.027890 0.238496 0.301353
O O6 0.004581 0.251496 0.526916
O O7 0.000000 0.500000 0.401345
O O8 0.944440 0.255425 0.350576
O O9 0.874638 0.132760 0.461970
O O10 0.909516 0.972739 0.271299
O O11 0.948853 0.997056 0.472657
O O12 0.250000 0.243046 0.611060
O O13 0.311998 0.048695 0.547820
O O14 0.814014 0.274484 0.131976
O O15 0.800404 0.315973 0.879920
O O16 0.750000 0.380654 0.266326
O O17 0.422534 0.310079 0.140359
O O18 0.500000 0.000000 0.655805
#
# Coordination Sequence:
#
# PCOD9380593 Si02
#       8
#     8   8   8   8   8   8   8   8
#     4  11  24  39  68  98 132 173 223 278 338 409
#     4  10  23  39  62  90 126 173 218 273 335 404
#     4  10  22  44  61  93 135 171 223 282 343 406
#     4  11  22  43  68  99 134 176 221 279 351 416
#     4  11  23  44  67  96 134 179 224 283 341 411
#     4  11  24  44  67  97 135 179 225 285 352 419
#     4  11  21  39  64  90 127 167 221 267 338 395
#     4   9  19  38  63  89 126 168 209 276 339 401
#
# _framework density 22.980961000000001
#
# number of rings (size 3 to 8) (size 9 to 14) (size 15 to 20)
#    0.000    1.500    1.250    6.000    3.500    2.000 
#    6.750    2.500    0.000    0.000    0.000    0.000 
#    0.000    0.000    0.000    0.000    0.000    0.000 
#
# Total GULP energy -178556.333034 kJ/mol
# GULP energy per Si atom -5579.885407 kJ/mol
# Density = 2.292866 g / cm^3
# Si number density = 22.980961 Si / 1000 Ang^3
#
#
#
# Elastic Constant Matrix: (Units=GPa)
#
#
# Indices 1 2 3 4 5 6 
#
# 1 74.0653 1.1840 3.6076 0.0000 0.0000 0.0000
# 2 1.1840 71.0510 17.2344 0.0000 0.0000 0.0000
# 3 3.6076 17.2344 78.8190 0.0000 0.0000 0.0000
# 4 0.0000 0.0000 0.0000 33.8497 0.0000 0.0000
# 5 0.0000 0.0000 0.0000 0.0000 23.4995 0.0000
# 6 0.0000 0.0000 0.0000 0.0000 0.0000 21.4338
#
#
#
# Elastic Compliance Matrix: (Units=1/GPa)
#
#
# Indices 1 2 3 4 5 6 
#
# 1 0.013532 -0.000079 -0.000602 0.000000 0.000000 0.000000
# 2 -0.000079 0.014863 -0.003246 0.000000 0.000000 0.000000
# 3 -0.000602 -0.003246 0.013425 0.000000 0.000000 0.000000
# 4 0.000000 0.000000 0.000000 0.029542 0.000000 0.000000
# 5 0.000000 0.000000 0.000000 0.000000 0.042554 0.000000
# 6 0.000000 0.000000 0.000000 0.000000 0.000000 0.046655
#
#
# Mechanical properties :
#
#
# Convention : Reuss Voigt Hill
#
# Bulk Modulus (GPa) = 29.44252 29.77635 29.60943
# Shear Modulus (GPa) = 27.81660 29.21723 28.51692
#
# Velocity S-wave (km/s) = 3.48288 3.56949 3.52645
# Velocity P-wave (km/s) = 5.38642 5.47480 5.43079
#
# Compressibility (1/GPa) = 0.03396448
#
# Stress axis : x y z
#
# Youngs Moduli (GPa) = 73.89783 67.28043 74.48970
#
# Poissons Ratio (x) = 0.00535 0.04484
# Poissons Ratio (y) = 0.00587 0.24182
# Poissons Ratio (z) = 0.04449 0.21841
#
# Static dielectric constant tensor:
#      x y z
#    x 1.915900 0.000000 0.000000 
#    y 0.000000 2.000170 0.000000 
#    z 0.000000 0.000000 2.052740 
# 
# From -- ./inp_files/13205.got.cif
#   From: 2010.05.17/outbox.cif.g08.bks.cpg/sg46_7_cif.got.tgz:13205.got - 2010.06.03 19:58:25.
