data_PCOD9380433
_publ_section_title
;
Structure prediction by ZEFSAII (Michael W. Deem and Ramdas Pophale) SiO2 
 PCOD9380433
Probable space group: I M A 2
;
_chemical_formula_sum "Si O2"
_cell_formula_units_Z 40
_cell_length_a 22.500156
_cell_length_b 9.490829
_cell_length_c 9.208342
_cell_angle_alpha 90.000000
_cell_angle_beta 90.000000
_cell_angle_gamma 90.000000
_cell_volume 1966.396618
_symmetry_space_group_name_H-M "I M A 2"
_symmetry_group_IT_number 46
_symmetry_cell_setting 'orthorhombic'
loop_
_space_group_symop_operation_xyz
x,y,z
-x,-y,z
1/2-x,y,z
1/2+x,-y,z
1/2+x,1/2+y,1/2+z
1/2-x,1/2-y,1/2+z
-x,1/2+y,1/2+z
x,1/2-y,1/2+z
loop_
_atom_site_type_symbol
_atom_site_label
_atom_site_fract_x
_atom_site_fract_y
_atom_site_fract_z
Si Si1 0.580967 0.856633 0.139250
Si Si2 0.317461 0.946061 0.078020
Si Si3 0.018495 0.344428 0.334300
Si Si4 0.556040 0.076646 0.392531
Si Si5 0.819629 0.328187 0.904010
O O1 0.570585 0.716114 0.231835
O O2 0.643545 0.913797 0.083286
O O3 0.563534 0.978380 0.252197
O O4 0.539781 0.848090 0.000073
O O5 0.250000 0.989313 0.061322
O O6 0.322341 0.861044 0.231648
O O7 0.330982 0.832653 0.952535
O O8 0.000000 0.500000 0.293670
O O9 0.965408 0.229789 0.337529
O O10 0.621626 0.088937 0.463551
O O11 0.500000 0.000000 0.471435
O O12 0.750000 0.360515 0.948391
#
# Coordination Sequence:
#
# PCOD9380433 Si02
#       5
#     8   8   8   8   8
#     4  10  22  39  56  83 116 150 191 243 298 343
#     4   9  18  36  59  84 118 156 194 243 295 350
#     4  11  21  35  56  81 112 152 193 235 290 357
#     4   9  19  35  55  80 116 150 185 241 295 336
#     4   9  17  31  57  86 112 148 192 234 285 346
#
# _framework density 20.341775999999999
#
# number of rings (size 3 to 8) (size 9 to 14) (size 15 to 20)
#    0.000    2.400    0.000    3.000    0.000    5.600 
#    0.000   11.000    0.000    2.400    0.000    0.000 
#    0.000    0.000    0.000    0.000    0.000    0.000 
#
# Total GULP energy -111342.299056 kJ/mol
# GULP energy per Si atom -5567.114953 kJ/mol
# Density = 2.029548 g / cm^3
# Si number density = 20.341776 Si / 1000 Ang^3
#
#
#
# Elastic Constant Matrix: (Units=GPa)
#
#
# Indices 1 2 3 4 5 6 
#
# 1 117.6093 53.4392 2.0433 0.0000 0.0000 0.0000
# 2 53.4392 134.7013 27.3975 0.0000 0.0000 0.0000
# 3 2.0433 27.3975 53.1824 0.0000 0.0000 0.0000
# 4 0.0000 0.0000 0.0000 21.8642 0.0000 0.0000
# 5 0.0000 0.0000 0.0000 0.0000 11.4884 0.0000
# 6 0.0000 0.0000 0.0000 0.0000 0.0000 31.5828
#
#
#
# Elastic Compliance Matrix: (Units=1/GPa)
#
#
# Indices 1 2 3 4 5 6 
#
# 1 0.010552 -0.004584 0.001956 0.000000 0.000000 0.000000
# 2 -0.004584 0.010284 -0.005122 0.000000 0.000000 0.000000
# 3 0.001956 -0.005122 0.021367 0.000000 0.000000 0.000000
# 4 0.000000 0.000000 0.000000 0.045737 0.000000 0.000000
# 5 0.000000 0.000000 0.000000 0.000000 0.087045 0.000000
# 6 0.000000 0.000000 0.000000 0.000000 0.000000 0.031663
#
#
# Mechanical properties :
#
#
# Convention : Reuss Voigt Hill
#
# Bulk Modulus (GPa) = 37.44907 52.36142 44.90525
# Shear Modulus (GPa) = 21.64063 27.82796 24.73430
#
# Velocity S-wave (km/s) = 3.26521 3.70269 3.49081
# Velocity P-wave (km/s) = 5.71536 6.63902 6.19443
#
# Compressibility (1/GPa) = 0.02670293
#
# Stress axis : x y z
#
# Youngs Moduli (GPa) = 94.77257 97.23710 46.80187
#
# Poissons Ratio (x) = 0.44573 -0.09155
# Poissons Ratio (y) = 0.43443 0.23971
# Poissons Ratio (z) = -0.18538 0.49804
#
# Static dielectric constant tensor:
#      x y z
#    x 1.832740 0.000000 0.000000 
#    y 0.000000 1.727120 0.000000 
#    z 0.000000 0.000000 1.727590 
# 
# From -- ./inp_files/7704.got.cif
#   From: 2010.05.17/outbox.cif.g08.bks.cpg/sg46_4_cif.got.tgz:7704.got - 2010.06.03 19:58:25.
