data_PCOD9380544
_publ_section_title
;
Structure prediction by ZEFSAII (Michael W. Deem and Ramdas Pophale) SiO2 
 PCOD9380544
Probable space group: I M A 2
;
_chemical_formula_sum "Si O2"
_cell_formula_units_Z 48
_cell_length_a 28.783254
_cell_length_b 8.308795
_cell_length_c 8.831439
_cell_angle_alpha 90.000000
_cell_angle_beta 90.000000
_cell_angle_gamma 90.000000
_cell_volume 2112.075348
_symmetry_space_group_name_H-M "I M A 2"
_symmetry_group_IT_number 46
_symmetry_cell_setting 'orthorhombic'
loop_
_space_group_symop_operation_xyz
x,y,z
-x,-y,z
1/2-x,y,z
1/2+x,-y,z
1/2+x,1/2+y,1/2+z
1/2-x,1/2-y,1/2+z
-x,1/2+y,1/2+z
x,1/2-y,1/2+z
loop_
_atom_site_type_symbol
_atom_site_label
_atom_site_fract_x
_atom_site_fract_y
_atom_site_fract_z
Si Si1 0.436150 0.330126 0.909180
Si Si2 0.000000 0.500000 0.663770
Si Si3 0.000000 0.000000 0.650072
Si Si4 0.750000 0.981947 0.879054
Si Si5 0.660704 0.488038 0.957907
Si Si6 0.839209 0.319578 0.286355
Si Si7 0.250000 0.185061 0.560132
Si Si8 0.065021 0.944258 0.904421
O O1 0.464930 0.398232 0.767092
O O2 0.430379 0.138453 0.904043
O O3 0.467012 0.391208 0.048627
O O4 0.385960 0.411991 0.927449
O O5 0.034893 0.596126 0.551784
O O6 0.966944 0.099416 0.761992
O O7 0.750000 0.859428 0.736616
O O8 0.704579 0.089796 0.859267
O O9 0.750000 0.873684 0.027424
O O10 0.656275 0.381842 0.113369
O O11 0.704246 0.603988 0.987695
O O12 0.668132 0.368867 0.816407
O O13 0.885649 0.365582 0.378138
#
# Coordination Sequence:
#
# PCOD9380544 Si02
#       8
#     8   4   4   4   8   8   4   8
#     4  11  23  43  66  93 129 171 223 269 327 384
#     4  10  26  38  64  98 122 178 216 276 324 388
#     4  10  22  42  60  94 130 166 216 280 320 380
#     4  10  23  46  72 102 132 172 217 266 322 388
#     4  11  25  43  67  99 137 171 214 270 327 388
#     4  11  25  43  67  99 137 171 214 270 327 388
#     4  10  23  46  72 102 132 172 217 266 322 388
#     4  11  23  43  66  93 129 171 223 269 327 384
#
# _framework density 22.726461
#
# number of rings (size 3 to 8) (size 9 to 14) (size 15 to 20)
#    0.000    1.333    1.667    2.500    2.333    9.333 
#    0.000    0.000    0.000    0.000    0.000    0.000 
#    0.000    0.000    0.000    0.000    0.000    0.000 
#
# Total GULP energy -134416.793411 kJ/mol
# GULP energy per Si atom -5600.699725 kJ/mol
# Density = 2.267473 g / cm^3
# Si number density = 22.726461 Si / 1000 Ang^3
#
#
#
# Elastic Constant Matrix: (Units=GPa)
#
#
# Indices 1 2 3 4 5 6 
#
# 1 147.0575 11.1685 39.2660 0.0000 0.0000 0.0000
# 2 11.1685 60.1689 16.6146 0.0000 0.0000 0.0000
# 3 39.2660 16.6146 89.0200 0.0000 0.0000 0.0000
# 4 0.0000 0.0000 0.0000 37.0361 0.0000 0.0000
# 5 0.0000 0.0000 0.0000 0.0000 58.8689 0.0000
# 6 0.0000 0.0000 0.0000 0.0000 0.0000 29.2993
#
#
#
# Elastic Compliance Matrix: (Units=1/GPa)
#
#
# Indices 1 2 3 4 5 6 
#
# 1 0.007723 -0.000520 -0.003310 0.000000 0.000000 0.000000
# 2 -0.000520 0.017558 -0.003048 0.000000 0.000000 0.000000
# 3 -0.003310 -0.003048 0.013262 0.000000 0.000000 0.000000
# 4 0.000000 0.000000 0.000000 0.027001 0.000000 0.000000
# 5 0.000000 0.000000 0.000000 0.000000 0.016987 0.000000
# 6 0.000000 0.000000 0.000000 0.000000 0.000000 0.034131
#
#
# Mechanical properties :
#
#
# Convention : Reuss Voigt Hill
#
# Bulk Modulus (GPa) = 40.34034 47.81607 44.07820
# Shear Modulus (GPa) = 36.05455 40.32067 38.18761
#
# Velocity S-wave (km/s) = 3.98736 4.21666 4.10361
# Velocity P-wave (km/s) = 6.24400 6.69272 6.47225
#
# Compressibility (1/GPa) = 0.02478908
#
# Stress axis : x y z
#
# Youngs Moduli (GPa) = 129.47922 56.95432 75.40260
#
# Poissons Ratio (x) = 0.02960 0.24956
# Poissons Ratio (y) = 0.06729 0.22981
# Poissons Ratio (z) = 0.42853 0.17358
#
# Static dielectric constant tensor:
#      x y z
#    x 1.774990 0.000000 0.000000 
#    y 0.000000 1.823420 0.000000 
#    z 0.000000 0.000000 1.860740 
# 
# From -- ./inp_files/8429.got.cif
#   From: 2010.05.17/outbox.cif.g08.bks.cpg/sg46_5_cif.got.tgz:8429.got - 2010.06.03 19:58:25.
