data_PCOD9380350
_publ_section_title
;
Structure prediction by ZEFSAII (Michael W. Deem and Ramdas Pophale) SiO2 
 PCOD9380350
Probable space group: I M A 2
;
_chemical_formula_sum "Si O2"
_cell_formula_units_Z 60
_cell_length_a 17.563690
_cell_length_b 7.874660
_cell_length_c 19.200227
_cell_angle_alpha 90.000000
_cell_angle_beta 90.000000
_cell_angle_gamma 90.000000
_cell_volume 2655.546668
_symmetry_space_group_name_H-M "I M A 2"
_symmetry_group_IT_number 46
_symmetry_cell_setting 'orthorhombic'
loop_
_space_group_symop_operation_xyz
x,y,z
-x,-y,z
1/2-x,y,z
1/2+x,-y,z
1/2+x,1/2+y,1/2+z
1/2-x,1/2-y,1/2+z
-x,1/2+y,1/2+z
x,1/2-y,1/2+z
loop_
_atom_site_type_symbol
_atom_site_label
_atom_site_fract_x
_atom_site_fract_y
_atom_site_fract_z
Si Si1 0.167202 0.332756 0.706090
Si Si2 0.970773 0.820719 0.625568
Si Si3 0.892745 0.108598 0.941875
Si Si4 0.336617 0.058874 0.361719
Si Si5 0.631092 0.291058 0.652906
Si Si6 0.250000 0.753708 0.030032
Si Si7 0.660784 0.323645 0.302989
Si Si8 0.943746 0.741462 0.971121
O O1 0.250000 0.262253 0.686521
O O2 0.097314 0.239749 0.672619
O O3 0.161382 0.338002 0.789398
O O4 0.162348 0.525338 0.676682
O O5 0.942771 0.841044 0.546753
O O6 0.043912 0.697606 0.628176
O O7 0.000000 0.000000 0.650974
O O8 0.881926 0.065195 0.860070
O O9 0.968893 0.220225 0.950389
O O10 0.905141 0.927119 0.978485
O O11 0.817911 0.196461 0.973282
O O12 0.250000 0.069154 0.390958
O O13 0.397619 0.129040 0.415893
O O14 0.349555 0.866307 0.335531
O O15 0.683435 0.225353 0.590650
O O16 0.634360 0.180967 0.723584
O O17 0.750000 0.363598 0.302943
#
# Coordination Sequence:
#
# PCOD9380350 Si02
#       8
#     8   8   8   8   8   4   8   8
#     4  10  22  46  74 101 130 180 234 282 340 421
#     4  12  28  45  63 102 144 180 228 286 349 412
#     4  11  25  40  66  98 132 171 229 277 327 402
#     4   9  22  42  68  97 133 173 222 275 338 400
#     4  11  22  43  74  98 135 179 230 284 343 414
#     4  12  20  40  70  98 128 176 220 278 334 398
#     4  10  21  42  69 105 127 170 229 279 335 411
#     4  11  26  43  62  95 132 179 221 274 336 400
#
# _framework density 22.594218000000001
#
# number of rings (size 3 to 8) (size 9 to 14) (size 15 to 20)
#    0.000    1.333    3.333    2.000    6.533    1.600 
#    1.200    1.333    0.000    0.000    0.000    0.000 
#    0.000    0.000    0.000    0.000    0.000    0.000 
#
# Total GULP energy -167355.396619 kJ/mol
# GULP energy per Si atom -5578.513221 kJ/mol
# Density = 2.254279 g / cm^3
# Si number density = 22.594218 Si / 1000 Ang^3
#
#
#
# Elastic Constant Matrix: (Units=GPa)
#
#
# Indices 1 2 3 4 5 6 
#
# 1 156.9908 26.0650 43.8805 0.0000 0.0000 0.0000
# 2 26.0650 29.1624 -3.6477 0.0000 0.0000 0.0000
# 3 43.8805 -3.6477 86.9357 0.0000 0.0000 0.0000
# 4 0.0000 0.0000 0.0000 24.4491 0.0000 0.0000
# 5 0.0000 0.0000 0.0000 0.0000 46.5521 0.0000
# 6 0.0000 0.0000 0.0000 0.0000 0.0000 13.9198
#
#
#
# Elastic Compliance Matrix: (Units=1/GPa)
#
#
# Indices 1 2 3 4 5 6 
#
# 1 0.009259 -0.008907 -0.005047 0.000000 0.000000 0.000000
# 2 -0.008907 0.043040 0.006302 0.000000 0.000000 0.000000
# 3 -0.005047 0.006302 0.014315 0.000000 0.000000 0.000000
# 4 0.000000 0.000000 0.000000 0.040901 0.000000 0.000000
# 5 0.000000 0.000000 0.000000 0.000000 0.021481 0.000000
# 6 0.000000 0.000000 0.000000 0.000000 0.000000 0.071840
#
#
# Mechanical properties :
#
#
# Convention : Reuss Voigt Hill
#
# Bulk Modulus (GPa) = 19.48986 45.07605 32.28296
# Shear Modulus (GPa) = 21.43659 30.77026 26.10343
#
# Velocity S-wave (km/s) = 3.08354 3.69435 3.40268
# Velocity P-wave (km/s) = 4.61762 6.17990 5.45498
#
# Compressibility (1/GPa) = 0.05130872
#
# Stress axis : x y z
#
# Youngs Moduli (GPa) = 107.99746 23.23406 69.85760
#
# Poissons Ratio (x) = 0.20695 0.35260
# Poissons Ratio (y) = 0.96197 -0.44023
# Poissons Ratio (z) = 0.54511 -0.14642
#
# Static dielectric constant tensor:
#      x y z
#    x 1.812900 0.000000 0.000000 
#    y 0.000000 1.891530 0.000000 
#    z 0.000000 0.000000 1.822080 
# 
# From -- ./inp_files/19980.got.cif
#   From: 2010.05.17/outbox.cif.g08.bks.cpg/sg46_10_cif.got.tgz:19980.got - 2010.06.03 19:58:25.
