data_PCOD9380728
_publ_section_title
;
Structure prediction by ZEFSAII (Michael W. Deem and Ramdas Pophale) SiO2 
 PCOD9380728
Probable space group: I M A 2
;
_chemical_formula_sum "Si O2"
_cell_formula_units_Z 40
_cell_length_a 19.109431
_cell_length_b 11.885095
_cell_length_c 8.059440
_cell_angle_alpha 90.000000
_cell_angle_beta 90.000000
_cell_angle_gamma 90.000000
_cell_volume 1830.439081
_symmetry_space_group_name_H-M "I M A 2"
_symmetry_group_IT_number 46
_symmetry_cell_setting 'orthorhombic'
loop_
_space_group_symop_operation_xyz
x,y,z
-x,-y,z
1/2-x,y,z
1/2+x,-y,z
1/2+x,1/2+y,1/2+z
1/2-x,1/2-y,1/2+z
-x,1/2+y,1/2+z
x,1/2-y,1/2+z
loop_
_atom_site_type_symbol
_atom_site_label
_atom_site_fract_x
_atom_site_fract_y
_atom_site_fract_z
Si Si1 0.669096 0.343463 0.292940
Si Si2 0.584974 0.346906 0.620732
Si Si3 0.438290 0.266117 0.043014
Si Si4 0.672767 0.561670 0.077454
Si Si5 0.397096 0.414356 0.749056
O O1 0.750000 0.332972 0.342818
O O2 0.621890 0.377672 0.447967
O O3 0.638908 0.227452 0.224654
O O4 0.664490 0.437398 0.149676
O O5 0.516828 0.271598 0.583192
O O6 0.571413 0.463850 0.713911
O O7 0.392934 0.362811 0.136653
O O8 0.391771 0.154111 0.077188
O O9 0.439913 0.323906 0.861782
O O10 0.750000 0.603638 0.127245
O O11 0.666568 0.565022 0.876566
#
# Coordination Sequence:
#
# PCOD9380728 Si02
#       5
#     8   8   8   8   8
#     4  11  25  44  70 106 141 184 237 296 357 415
#     4  12  24  43  72 103 143 184 233 291 353 426
#     4  10  24  45  67 102 140 184 232 288 344 418
#     4   9  23  46  72 103 144 187 235 287 349 420
#     4  10  24  42  70 103 138 187 233 284 354 409
#
# _framework density 21.852681
#
# number of rings (size 3 to 8) (size 9 to 14) (size 15 to 20)
#    1.200    0.400    0.000    3.600    2.800    6.400 
#    3.600    0.000    0.000    0.000    0.000    0.000 
#    0.000    0.000    0.000    0.000    0.000    0.000 
#
# Total GULP energy -111342.162872 kJ/mol
# GULP energy per Si atom -5567.108144 kJ/mol
# Density = 2.180294 g / cm^3
# Si number density = 21.852681 Si / 1000 Ang^3
#
#
#
# Elastic Constant Matrix: (Units=GPa)
#
#
# Indices 1 2 3 4 5 6 
#
# 1 112.2737 59.3908 46.9857 0.0000 0.0000 0.0000
# 2 59.3908 136.1058 33.7162 0.0000 0.0000 0.0000
# 3 46.9857 33.7162 73.0704 0.0000 0.0000 0.0000
# 4 0.0000 0.0000 0.0000 46.1018 0.0000 0.0000
# 5 0.0000 0.0000 0.0000 0.0000 26.5112 0.0000
# 6 0.0000 0.0000 0.0000 0.0000 0.0000 26.1912
#
#
#
# Elastic Compliance Matrix: (Units=1/GPa)
#
#
# Indices 1 2 3 4 5 6 
#
# 1 0.014232 -0.004452 -0.007097 0.000000 0.000000 0.000000
# 2 -0.004452 0.009688 -0.001607 0.000000 0.000000 0.000000
# 3 -0.007097 -0.001607 0.018991 0.000000 0.000000 0.000000
# 4 0.000000 0.000000 0.000000 0.021691 0.000000 0.000000
# 5 0.000000 0.000000 0.000000 0.000000 0.037720 0.000000
# 6 0.000000 0.000000 0.000000 0.000000 0.000000 0.038181
#
#
# Mechanical properties :
#
#
# Convention : Reuss Voigt Hill
#
# Bulk Modulus (GPa) = 60.25057 66.84837 63.54947
# Shear Modulus (GPa) = 29.01095 31.85134 30.43114
#
# Velocity S-wave (km/s) = 3.64754 3.82193 3.73575
# Velocity P-wave (km/s) = 6.73576 7.08047 6.91026
#
# Compressibility (1/GPa) = 0.01659735
#
# Stress axis : x y z
#
# Youngs Moduli (GPa) = 70.26413 103.21876 52.65721
#
# Poissons Ratio (x) = 0.45954 0.37372
# Poissons Ratio (y) = 0.31283 0.08465
# Poissons Ratio (z) = 0.49867 0.16592
#
# Static dielectric constant tensor:
#      x y z
#    x 1.810490 0.000000 0.000000 
#    y 0.000000 1.781000 0.000000 
#    z 0.000000 0.000000 1.885690 
# 
# From -- ./inp_files/6368.got.cif
#   From: 2010.05.17/outbox.cif.g08.bks.cpg/sg46_4_cif.got.tgz:6368.got - 2010.06.03 19:58:25.
