data_PCOD9380885
_publ_section_title
;
Structure prediction by ZEFSAII (Michael W. Deem and Ramdas Pophale) SiO2 
 PCOD9380885
Probable space group: I M A 2
;
_chemical_formula_sum "Si O2"
_cell_formula_units_Z 40
_cell_length_a 23.176066
_cell_length_b 12.437736
_cell_length_c 7.395666
_cell_angle_alpha 90.000000
_cell_angle_beta 90.000000
_cell_angle_gamma 90.000000
_cell_volume 2131.858340
_symmetry_space_group_name_H-M "I M A 2"
_symmetry_group_IT_number 46
_symmetry_cell_setting 'orthorhombic'
loop_
_space_group_symop_operation_xyz
x,y,z
-x,-y,z
1/2-x,y,z
1/2+x,-y,z
1/2+x,1/2+y,1/2+z
1/2-x,1/2-y,1/2+z
-x,1/2+y,1/2+z
x,1/2-y,1/2+z
loop_
_atom_site_type_symbol
_atom_site_label
_atom_site_fract_x
_atom_site_fract_y
_atom_site_fract_z
Si Si1 0.486009 0.652361 0.811230
Si Si2 0.358259 0.367262 0.263441
Si Si3 0.012502 0.380390 0.392440
Si Si4 0.597081 0.530445 0.922298
Si Si5 0.815544 0.633638 0.646640
O O1 0.499755 0.619479 0.605762
O O2 0.477157 0.779832 0.815453
O O3 0.543221 0.615292 0.921885
O O4 0.433017 0.583296 0.886320
O O5 0.421433 0.352305 0.351128
O O6 0.367911 0.045663 0.607055
O O7 0.319152 0.394311 0.434919
O O8 0.335729 0.257447 0.172825
O O9 0.000000 0.500000 0.320419
O O10 0.639784 0.562901 0.760696
O O11 0.750000 0.623135 0.712695
#
# Coordination Sequence:
#
# PCOD9380885 Si02
#       5
#     8   8   8   8   8
#     4  11  22  39  58  92 133 171 204 255 324 396
#     4  12  22  36  58  90 129 171 212 264 321 390
#     4  12  22  38  61  91 136 171 208 257 318 394
#     4  11  23  40  57  88 133 167 209 261 325 393
#     4  12  23  39  61  91 131 172 220 275 328 381
#
# _framework density 18.762972999999999
#
# number of rings (size 3 to 8) (size 9 to 14) (size 15 to 20)
#    0.000    0.400    8.000    1.800    5.600    0.800 
#    0.000    0.000    0.000    0.000    0.000    7.000 
#    0.000    0.000    0.000    0.000    0.000    0.000 
#
# Total GULP energy -111785.314274 kJ/mol
# GULP energy per Si atom -5589.265714 kJ/mol
# Density = 1.872027 g / cm^3
# Si number density = 18.762973 Si / 1000 Ang^3
#
#
#
# Elastic Constant Matrix: (Units=GPa)
#
#
# Indices 1 2 3 4 5 6 
#
# 1 102.6896 43.8406 24.2905 0.0000 0.0000 0.0000
# 2 43.8406 131.6801 23.4141 0.0000 0.0000 0.0000
# 3 24.2905 23.4141 101.7270 0.0000 0.0000 0.0000
# 4 0.0000 0.0000 0.0000 22.6873 0.0000 0.0000
# 5 0.0000 0.0000 0.0000 0.0000 21.3106 0.0000
# 6 0.0000 0.0000 0.0000 0.0000 0.0000 16.8079
#
#
#
# Elastic Compliance Matrix: (Units=1/GPa)
#
#
# Indices 1 2 3 4 5 6 
#
# 1 0.011723 -0.003550 -0.001982 0.000000 0.000000 0.000000
# 2 -0.003550 0.008994 -0.001222 0.000000 0.000000 0.000000
# 3 -0.001982 -0.001222 0.010585 0.000000 0.000000 0.000000
# 4 0.000000 0.000000 0.000000 0.044078 0.000000 0.000000
# 5 0.000000 0.000000 0.000000 0.000000 0.046925 0.000000
# 6 0.000000 0.000000 0.000000 0.000000 0.000000 0.059496
#
#
# Mechanical properties :
#
#
# Convention : Reuss Voigt Hill
#
# Bulk Modulus (GPa) = 56.20583 57.68745 56.94664
# Shear Modulus (GPa) = 24.84605 28.46460 26.65532
#
# Velocity S-wave (km/s) = 3.64291 3.89917 3.77322
# Velocity P-wave (km/s) = 6.90762 7.14727 7.02847
#
# Compressibility (1/GPa) = 0.01779175
#
# Stress axis : x y z
#
# Youngs Moduli (GPa) = 85.30482 111.19086 94.47508
#
# Poissons Ratio (x) = 0.39478 0.18725
# Poissons Ratio (y) = 0.30287 0.11547
# Poissons Ratio (z) = 0.16907 0.13590
#
# Static dielectric constant tensor:
#      x y z
#    x 1.624020 0.000000 0.000000 
#    y 0.000000 1.659800 0.000000 
#    z 0.000000 0.000000 1.723580 
# 
# From -- ./inp_files/7263.got.cif
#   From: 2010.05.17/outbox.cif.g08.bks.cpg/sg46_4_cif.got.tgz:7263.got - 2010.06.03 19:58:25.
