data_PCOD9380365
_publ_section_title
;
Structure prediction by ZEFSAII (Michael W. Deem and Ramdas Pophale) SiO2 
 PCOD9380365
Probable space group: I M A 2
;
_chemical_formula_sum "Si O2"
_cell_formula_units_Z 44
_cell_length_a 10.734354
_cell_length_b 7.603659
_cell_length_c 24.924726
_cell_angle_alpha 90.000000
_cell_angle_beta 90.000000
_cell_angle_gamma 90.000000
_cell_volume 2034.365293
_symmetry_space_group_name_H-M "I M A 2"
_symmetry_group_IT_number 46
_symmetry_cell_setting 'orthorhombic'
loop_
_space_group_symop_operation_xyz
x,y,z
-x,-y,z
1/2-x,y,z
1/2+x,-y,z
1/2+x,1/2+y,1/2+z
1/2-x,1/2-y,1/2+z
-x,1/2+y,1/2+z
x,1/2-y,1/2+z
loop_
_atom_site_type_symbol
_atom_site_label
_atom_site_fract_x
_atom_site_fract_y
_atom_site_fract_z
Si Si1 0.750000 0.244634 0.359000
Si Si2 0.750000 0.658729 0.325523
Si Si3 0.750000 0.120884 0.237728
Si Si4 0.750000 0.965572 0.704602
Si Si5 0.021478 0.206852 0.892616
Si Si6 0.437658 0.179008 0.616944
Si Si7 0.000000 0.000000 0.184137
Si Si8 0.388160 0.361037 0.000503
O O1 0.750000 0.457038 0.348408
O O2 0.750000 0.151477 0.301237
O O3 0.615951 0.206122 0.386810
O O4 0.750000 0.627848 0.262065
O O5 0.624937 0.752159 0.347389
O O6 0.750000 0.322808 0.213531
O O7 0.626179 0.017462 0.218647
O O8 0.640040 0.894932 0.667344
O O9 0.085751 0.237338 0.949851
O O10 0.000000 0.000000 0.885927
O O11 0.509950 0.335646 0.644037
O O12 0.386995 0.236366 0.558599
O O13 0.500000 0.000000 0.599654
O O14 0.500000 0.500000 0.995655
O O15 0.250000 0.443006 0.995649
#
# Coordination Sequence:
#
# PCOD9380365 Si02
#       8
#     4   4   4   4   8   8   4   8
#     4   9  22  41  62  99 138 174 224 283 350 411
#     4   9  20  36  73  97 126 178 234 272 338 417
#     4  11  25  45  70 102 147 180 237 292 346 426
#     4  11  21  42  73 100 141 190 223 283 362 416
#     4  10  21  43  68  99 129 177 228 283 340 409
#     4  11  24  44  70 100 142 185 227 287 352 416
#     4  12  26  46  70 110 136 188 242 286 342 428
#     4  11  25  45  67  96 136 178 231 282 345 409
#
# _framework density 21.628367999999998
#
# number of rings (size 3 to 8) (size 9 to 14) (size 15 to 20)
#    0.000    1.455    3.636    0.545    5.091    0.727 
#    1.636    0.000    0.000    0.000    0.000    0.000 
#    0.000    0.000    0.000    0.000    0.000    0.000 
#
# Total GULP energy -122516.866448 kJ/mol
# GULP energy per Si atom -5568.948475 kJ/mol
# Density = 2.157914 g / cm^3
# Si number density = 21.628368 Si / 1000 Ang^3
#
#
#
# Elastic Constant Matrix: (Units=GPa)
#
#
# Indices 1 2 3 4 5 6 
#
# 1 159.3906 13.8953 63.1523 0.0000 0.0000 0.0000
# 2 13.8953 42.0154 5.2181 0.0000 0.0000 0.0000
# 3 63.1523 5.2181 146.4557 0.0000 0.0000 0.0000
# 4 0.0000 0.0000 0.0000 32.0577 0.0000 0.0000
# 5 0.0000 0.0000 0.0000 0.0000 28.3807 0.0000
# 6 0.0000 0.0000 0.0000 0.0000 0.0000 20.8945
#
#
#
# Elastic Compliance Matrix: (Units=1/GPa)
#
#
# Indices 1 2 3 4 5 6 
#
# 1 0.007757 -0.002160 -0.003268 0.000000 0.000000 0.000000
# 2 -0.002160 0.024508 0.000058 0.000000 0.000000 0.000000
# 3 -0.003268 0.000058 0.008235 0.000000 0.000000 0.000000
# 4 0.000000 0.000000 0.000000 0.031194 0.000000 0.000000
# 5 0.000000 0.000000 0.000000 0.000000 0.035235 0.000000
# 6 0.000000 0.000000 0.000000 0.000000 0.000000 0.047859
#
#
# Mechanical properties :
#
#
# Convention : Reuss Voigt Hill
#
# Bulk Modulus (GPa) = 33.60104 56.93256 45.26680
# Shear Modulus (GPa) = 28.49861 33.97300 31.23580
#
# Velocity S-wave (km/s) = 3.63388 3.96758 3.80439
# Velocity P-wave (km/s) = 5.75987 6.88253 6.34608
#
# Compressibility (1/GPa) = 0.02976099
#
# Stress axis : x y z
#
# Youngs Moduli (GPa) = 128.91701 40.80338 121.43199
#
# Poissons Ratio (x) = 0.08812 0.39683
# Poissons Ratio (y) = 0.27840 -0.00704
# Poissons Ratio (z) = 0.42129 -0.00237
#
# Static dielectric constant tensor:
#      x y z
#    x 1.868840 0.000000 0.000000 
#    y 0.000000 1.648560 0.000000 
#    z 0.000000 0.000000 1.788540 
# 
# From -- ./inp_files/23436.got.cif
#   From: 2010.05.17/outbox.cif.g08.bks.cpg/sg46_12_cif.got.tgz:23436.got - 2010.06.03 19:58:25.
