data_PCOD9380047
_publ_section_title
;
Structure prediction by ZEFSAII (Michael W. Deem and Ramdas Pophale) SiO2 
 PCOD9380047
Probable space group: I M A 2
;
_chemical_formula_sum "Si O2"
_cell_formula_units_Z 64
_cell_length_a 8.733338
_cell_length_b 25.598842
_cell_length_c 15.063203
_cell_angle_alpha 90.000000
_cell_angle_beta 90.000000
_cell_angle_gamma 90.000000
_cell_volume 3367.579968
_symmetry_space_group_name_H-M "I M A 2"
_symmetry_group_IT_number 46
_symmetry_cell_setting 'orthorhombic'
loop_
_space_group_symop_operation_xyz
x,y,z
-x,-y,z
1/2-x,y,z
1/2+x,-y,z
1/2+x,1/2+y,1/2+z
1/2-x,1/2-y,1/2+z
-x,1/2+y,1/2+z
x,1/2-y,1/2+z
loop_
_atom_site_type_symbol
_atom_site_label
_atom_site_fract_x
_atom_site_fract_y
_atom_site_fract_z
Si Si1 0.429896 0.774714 0.932050
Si Si2 0.568037 0.835468 0.415285
Si Si3 0.570270 0.263246 0.643944
Si Si4 0.434290 0.892259 0.913178
Si Si5 0.432941 0.058082 0.090871
Si Si6 0.066520 0.869299 0.239131
Si Si7 0.066150 0.153329 0.619276
Si Si8 0.934230 0.556134 0.239879
O O1 0.250000 0.765547 0.912022
O O2 0.525588 0.725348 0.899883
O O3 0.474789 0.831475 0.896314
O O4 0.446011 0.776281 0.039221
O O5 0.750000 0.842643 0.408992
O O6 0.483534 0.869170 0.341108
O O7 0.516585 0.847941 0.516031
O O8 0.750000 0.256619 0.662704
O O9 0.515440 0.313168 0.698796
O O10 0.490838 0.207910 0.660013
O O11 0.250000 0.895863 0.915474
O O12 0.502324 0.928289 0.836441
O O13 0.500319 0.909823 0.007583
O O14 0.250000 0.056904 0.086220
O O15 0.488710 0.086351 0.180245
O O16 0.500000 0.000000 0.086417
O O17 0.250000 0.872790 0.230071
O O18 0.250000 0.154357 0.619347
O O19 0.016280 0.102600 0.673645
O O20 0.750000 0.554126 0.242114
O O21 0.000000 0.500000 0.213593
#
# Coordination Sequence:
#
# PCOD9380047 Si02
#       8
#     8   8   8   8   8   8   8   8
#     4   9  18  35  56  83 119 159 196 235 287 353
#     4  10  21  37  58  87 122 160 199 250 305 358
#     4   9  18  34  57  84 116 153 193 236 289 353
#     4  11  22  39  61  88 123 161 199 245 299 361
#     4  12  25  42  64  89 121 162 204 250 301 359
#     4  11  22  39  60  89 124 161 203 249 298 358
#     4   9  21  40  60  84 118 154 198 252 305 357
#     4  11  24  42  61  86 116 154 203 255 304 360
#
# _framework density 19.004743999999999
#
# number of rings (size 3 to 8) (size 9 to 14) (size 15 to 20)
#    0.000    1.750    1.250    3.000    1.750    3.500 
#    0.000    0.625    0.000    1.500    0.000    0.000 
#    0.000    0.000    0.000    0.000    0.000    0.000 
#
# Total GULP energy -178834.796651 kJ/mol
# GULP energy per Si atom -5588.587395 kJ/mol
# Density = 1.896149 g / cm^3
# Si number density = 19.004744 Si / 1000 Ang^3
#
#
#
# Elastic Constant Matrix: (Units=GPa)
#
#
# Indices 1 2 3 4 5 6 
#
# 1 56.5495 28.1503 16.9599 0.0000 0.0000 0.0000
# 2 28.1503 86.7362 14.8415 0.0000 0.0000 0.0000
# 3 16.9599 14.8415 43.4629 0.0000 0.0000 0.0000
# 4 0.0000 0.0000 0.0000 30.9050 0.0000 0.0000
# 5 0.0000 0.0000 0.0000 0.0000 23.2393 0.0000
# 6 0.0000 0.0000 0.0000 0.0000 0.0000 33.1707
#
#
#
# Elastic Compliance Matrix: (Units=1/GPa)
#
#
# Indices 1 2 3 4 5 6 
#
# 1 0.022826 -0.006249 -0.006773 0.000000 0.000000 0.000000
# 2 -0.006249 0.013956 -0.002327 0.000000 0.000000 0.000000
# 3 -0.006773 -0.002327 0.026446 0.000000 0.000000 0.000000
# 4 0.000000 0.000000 0.000000 0.032357 0.000000 0.000000
# 5 0.000000 0.000000 0.000000 0.000000 0.043031 0.000000
# 6 0.000000 0.000000 0.000000 0.000000 0.000000 0.030147
#
#
# Mechanical properties :
#
#
# Convention : Reuss Voigt Hill
#
# Bulk Modulus (GPa) = 30.74213 34.07247 32.40730
# Shear Modulus (GPa) = 23.77523 25.91614 24.84568
#
# Velocity S-wave (km/s) = 3.54081 3.69679 3.61964
# Velocity P-wave (km/s) = 5.73825 6.01573 5.87863
#
# Compressibility (1/GPa) = 0.03252865
#
# Stress axis : x y z
#
# Youngs Moduli (GPa) = 43.81014 71.65599 37.81341
#
# Poissons Ratio (x) = 0.44779 0.25611
# Poissons Ratio (y) = 0.27378 0.08799
# Poissons Ratio (z) = 0.29673 0.16674
#
# Static dielectric constant tensor:
#      x y z
#    x 1.635600 0.000000 0.000000 
#    y 0.000000 1.640430 0.000000 
#    z 0.000000 0.000000 1.669700 
# 
# From -- ./inp_files/14475.got.cif
#   From: 2010.05.17/outbox.cif.g08.bks.cpg/sg46_8_cif.got.tgz:14475.got - 2010.06.03 19:58:25.
