data_PCOD9380313
_publ_section_title
;
Structure prediction by ZEFSAII (Michael W. Deem and Ramdas Pophale) SiO2 
 PCOD9380313
Probable space group: I M A 2
;
_chemical_formula_sum "Si O2"
_cell_formula_units_Z 40
_cell_length_a 29.236442
_cell_length_b 6.327913
_cell_length_c 10.216846
_cell_angle_alpha 90.000000
_cell_angle_beta 90.000000
_cell_angle_gamma 90.000000
_cell_volume 1890.174352
_symmetry_space_group_name_H-M "I M A 2"
_symmetry_group_IT_number 46
_symmetry_cell_setting 'orthorhombic'
loop_
_space_group_symop_operation_xyz
x,y,z
-x,-y,z
1/2-x,y,z
1/2+x,-y,z
1/2+x,1/2+y,1/2+z
1/2-x,1/2-y,1/2+z
-x,1/2+y,1/2+z
x,1/2-y,1/2+z
loop_
_atom_site_type_symbol
_atom_site_label
_atom_site_fract_x
_atom_site_fract_y
_atom_site_fract_z
Si Si1 0.076187 0.407918 0.803260
Si Si2 0.452909 0.398451 0.081834
Si Si3 0.700176 0.522040 0.592506
Si Si4 0.829100 0.670238 0.319846
Si Si5 0.376042 0.791348 0.683251
O O1 0.057572 0.307025 0.668840
O O2 0.122320 0.283532 0.841072
O O3 0.091687 0.646642 0.774747
O O4 0.043802 0.366445 0.926322
O O5 0.500000 0.500000 0.129779
O O6 0.410071 0.557150 0.103282
O O7 0.750000 0.415331 0.599964
O O8 0.696218 0.645505 0.456247
O O9 0.695535 0.687208 0.711489
O O10 0.656825 0.365155 0.602208
O O11 0.841786 0.440747 0.263571
#
# Coordination Sequence:
#
# PCOD9380313 Si02
#       5
#     8   8   8   8   8
#     4  10  22  43  63  92 124 162 209 257 317 376
#     4  11  25  41  65  93 125 164 210 263 317 378
#     4  11  23  39  63  95 128 167 214 260 310 376
#     4  10  21  41  64  89 126 166 206 259 314 369
#     4  10  22  41  66  91 124 168 208 267 315 370
#
# _framework density 21.16207
#
# number of rings (size 3 to 8) (size 9 to 14) (size 15 to 20)
#    0.000    1.600    0.000    5.400    2.800    4.800 
#    0.000    0.000    0.000    0.000    0.000    0.000 
#    0.000    0.000    0.000    0.000    0.000    0.000 
#
# Total GULP energy -111737.526102 kJ/mol
# GULP energy per Si atom -5586.876305 kJ/mol
# Density = 2.111390 g / cm^3
# Si number density = 21.162070 Si / 1000 Ang^3
#
#
#
# Elastic Constant Matrix: (Units=GPa)
#
#
# Indices 1 2 3 4 5 6 
#
# 1 75.5813 -9.1247 15.0432 0.0000 0.0000 0.0000
# 2 -9.1247 48.3504 14.2845 0.0000 0.0000 0.0000
# 3 15.0432 14.2845 99.0719 0.0000 0.0000 0.0000
# 4 0.0000 0.0000 0.0000 14.0615 0.0000 0.0000
# 5 0.0000 0.0000 0.0000 0.0000-3286.0562 0.0000
# 6 0.0000 0.0000 0.0000 0.0000 0.0000 12.4192
#
#
#
# Elastic Compliance Matrix: (Units=1/GPa)
#
#
# Indices 1 2 3 4 5 6 
#
# 1 0.014176 0.003459 -0.002651 0.000000 0.000000 0.000000
# 2 0.003459 0.022446 -0.003762 0.000000 0.000000 0.000000
# 3 -0.002651 -0.003762 0.011039 0.000000 0.000000 0.000000
# 4 0.000000 0.000000 0.000000 0.071116 0.000000 0.000000
# 5 0.000000 0.000000 0.000000 0.000000 -0.000304 0.000000
# 6 0.000000 0.000000 0.000000 0.000000 0.000000 0.080521
#
#
# Mechanical properties :
#
#
# Convention : Reuss Voigt Hill
#
# Bulk Modulus (GPa) = 23.95059 29.26774 26.60916
# Shear Modulus (GPa) = 22.84991 -638.39507 -307.77258
#
# Velocity S-wave (km/s) = 3.28953 -17.38748 -12.07277
# Velocity P-wave (km/s) = 5.07644 19.72914 13.48089
#
# Compressibility (1/GPa) = 0.04175263
#
# Stress axis : x y z
#
# Youngs Moduli (GPa) = 70.54179 44.55068 90.59137
#
# Poissons Ratio (x) = -0.15408 0.24017
# Poissons Ratio (y) = -0.24397 0.34076
# Poissons Ratio (z) = 0.18702 0.16758
#
# Static dielectric constant tensor:
#      x y z
#    x 4.899280 0.000000 0.000000 
#    y 0.000000 1.764830 0.000000 
#    z 0.000000 0.000000 1.759170 
# 
# From -- ./inp_files/12923.got.cif
#   From: 2010.05.17/outbox.cif.g08.bks.cpg/sg46_7_cif.got.tgz:12923.got - 2010.06.03 19:58:25.
