data_PCOD9380122
_publ_section_title
;
Structure prediction by ZEFSAII (Michael W. Deem and Ramdas Pophale) SiO2 
 PCOD9380122
Probable space group: I M A 2
;
_chemical_formula_sum "Si O2"
_cell_formula_units_Z 64
_cell_length_a 17.024331
_cell_length_b 9.232863
_cell_length_c 20.887356
_cell_angle_alpha 90.000000
_cell_angle_beta 90.000000
_cell_angle_gamma 90.000000
_cell_volume 3283.143874
_symmetry_space_group_name_H-M "I M A 2"
_symmetry_group_IT_number 46
_symmetry_cell_setting 'orthorhombic'
loop_
_space_group_symop_operation_xyz
x,y,z
-x,-y,z
1/2-x,y,z
1/2+x,-y,z
1/2+x,1/2+y,1/2+z
1/2-x,1/2-y,1/2+z
-x,1/2+y,1/2+z
x,1/2-y,1/2+z
loop_
_atom_site_type_symbol
_atom_site_label
_atom_site_fract_x
_atom_site_fract_y
_atom_site_fract_z
Si Si1 0.081501 0.581648 0.979240
Si Si2 0.658426 0.564709 0.093561
Si Si3 0.343418 0.401994 0.580846
Si Si4 0.842196 0.632869 0.724728
Si Si5 0.087692 0.445912 0.228540
Si Si6 0.911093 0.056474 0.333900
Si Si7 0.081127 0.575957 0.464873
Si Si8 0.659915 0.136268 0.835303
O O1 0.108887 0.531876 0.908641
O O2 0.069103 0.753717 0.977873
O O3 0.000000 0.500000 0.993023
O O4 0.141762 0.536803 0.033729
O O5 0.750000 0.565115 0.110873
O O6 0.637391 0.730659 0.075266
O O7 0.609992 0.516450 0.155510
O O8 0.250000 0.419139 0.571003
O O9 0.360735 0.437584 0.655376
O O10 0.387443 0.496263 0.528178
O O11 0.750000 0.675703 0.722162
O O12 0.896118 0.774421 0.733124
O O13 0.857831 0.526770 0.783273
O O14 0.144273 0.523404 0.279083
O O15 0.000000 0.500000 0.242168
O O16 0.897963 0.227520 0.324743
O O17 0.000000 0.000000 0.324909
O O18 0.139562 0.568253 0.404386
O O19 0.000000 0.500000 0.445778
O O20 0.750000 0.186717 0.835032
#
# Coordination Sequence:
#
# PCOD9380122 Si02
#       8
#     8   8   8   8   8   8   8   8
#     4  10  22  39  58  84 117 152 196 245 292 349
#     4  10  21  38  60  86 117 153 195 242 295 352
#     4   9  20  38  58  84 118 153 191 238 292 352
#     4  10  21  39  61  85 117 154 194 238 290 351
#     4  11  22  38  61  87 117 154 197 243 290 347
#     4  10  22  39  59  85 117 155 197 243 294 349
#     4  11  23  38  60  86 116 155 199 244 295 354
#     4  11  23  39  59  87 122 154 193 245 297 350
#
# _framework density 19.493510000000001
#
# number of rings (size 3 to 8) (size 9 to 14) (size 15 to 20)
#    0.000    1.750    0.000    4.875    0.000    8.500 
#    0.000    2.500    0.000    0.000    0.000    0.000 
#    0.000    0.000    0.000    0.000    0.000    0.000 
#
# Total GULP energy -178724.621683 kJ/mol
# GULP energy per Si atom -5585.144428 kJ/mol
# Density = 1.944914 g / cm^3
# Si number density = 19.493510 Si / 1000 Ang^3
#
#
#
# Elastic Constant Matrix: (Units=GPa)
#
#
# Indices 1 2 3 4 5 6 
#
# 1 59.7085 27.0528 33.5629 0.0000 0.0000 0.0000
# 2 27.0528 60.9095 52.5373 0.0000 0.0000 0.0000
# 3 33.5629 52.5373 91.6240 0.0000 0.0000 0.0000
# 4 0.0000 0.0000 0.0000 38.4860 0.0000 0.0000
# 5 0.0000 0.0000 0.0000 0.0000 19.0826 0.0000
# 6 0.0000 0.0000 0.0000 0.0000 0.0000 25.8468
#
#
#
# Elastic Compliance Matrix: (Units=1/GPa)
#
#
# Indices 1 2 3 4 5 6 
#
# 1 0.022010 -0.005582 -0.004862 0.000000 0.000000 0.000000
# 2 -0.005582 0.033900 -0.017393 0.000000 0.000000 0.000000
# 3 -0.004862 -0.017393 0.022668 0.000000 0.000000 0.000000
# 4 0.000000 0.000000 0.000000 0.025983 0.000000 0.000000
# 5 0.000000 0.000000 0.000000 0.000000 0.052404 0.000000
# 6 0.000000 0.000000 0.000000 0.000000 0.000000 0.038690
#
#
# Mechanical properties :
#
#
# Convention : Reuss Voigt Hill
#
# Bulk Modulus (GPa) = 43.66109 48.72755 46.19432
# Shear Modulus (GPa) = 19.30772 23.28901 21.29837
#
# Velocity S-wave (km/s) = 3.15059 3.46020 3.30902
# Velocity P-wave (km/s) = 5.97338 6.40430 6.19259
#
# Compressibility (1/GPa) = 0.02290369
#
# Stress axis : x y z
#
# Youngs Moduli (GPa) = 45.43376 29.49881 44.11438
#
# Poissons Ratio (x) = 0.16467 0.21447
# Poissons Ratio (y) = 0.25363 0.76729
# Poissons Ratio (z) = 0.22088 0.51308
#
# Static dielectric constant tensor:
#      x y z
#    x 1.734130 0.000000 0.000000 
#    y 0.000000 1.660030 0.000000 
#    z 0.000000 0.000000 1.670540 
# 
# From -- ./inp_files/22231.got.cif
#   From: 2010.05.17/outbox.cif.g08.bks.cpg/sg46_12_cif.got.tgz:22231.got - 2010.06.03 19:58:25.
