data_PCOD9380760
_publ_section_title
;
Structure prediction by ZEFSAII (Michael W. Deem and Ramdas Pophale) SiO2 
 PCOD9380760
Probable space group: I M A 2
;
_chemical_formula_sum "Si O2"
_cell_formula_units_Z 32
_cell_length_a 19.974183
_cell_length_b 12.560036
_cell_length_c 4.895874
_cell_angle_alpha 90.000000
_cell_angle_beta 90.000000
_cell_angle_gamma 90.000000
_cell_volume 1228.259526
_symmetry_space_group_name_H-M "I M A 2"
_symmetry_group_IT_number 46
_symmetry_cell_setting 'orthorhombic'
loop_
_space_group_symop_operation_xyz
x,y,z
-x,-y,z
1/2-x,y,z
1/2+x,-y,z
1/2+x,1/2+y,1/2+z
1/2-x,1/2-y,1/2+z
-x,1/2+y,1/2+z
x,1/2-y,1/2+z
loop_
_atom_site_type_symbol
_atom_site_label
_atom_site_fract_x
_atom_site_fract_y
_atom_site_fract_z
Si Si1 0.626952 0.457921 0.572790
Si Si2 0.750000 0.326761 0.340321
Si Si3 0.974510 0.318329 0.808234
Si Si4 0.500000 0.000000 0.681999
Si Si5 0.830747 0.818214 0.330525
O O1 0.686061 0.400684 0.407523
O O2 0.599116 0.371440 0.792774
O O3 0.564409 0.483509 0.373600
O O4 0.649282 0.566416 0.718593
O O5 0.750000 0.275587 0.041626
O O6 0.984733 0.283244 0.499372
O O7 0.015754 0.406393 0.966226
O O8 0.750000 0.819483 0.336463
O O9 0.853022 0.775854 0.624656
#
# Coordination Sequence:
#
# PCOD9380760 Si02
#       5
#     8   4   8   4   8
#     4  12  27  54  81 121 164 219 281 342 423 508
#     4  12  30  50  84 124 162 224 280 358 428 494
#     4  12  27  50  77 113 163 210 268 337 405 493
#     4  12  30  50  80 122 162 218 276 336 416 500
#     4  10  24  46  75 111 151 197 260 331 401 480
#
# _framework density 26.053125999999999
#
# number of rings (size 3 to 8) (size 9 to 14) (size 15 to 20)
#    0.000    0.500    3.750    2.250    7.000    2.000 
#    0.000    0.000    0.000    0.000    0.000    0.000 
#    0.000    0.000    0.000    0.000    0.000    0.000 
#
# Total GULP energy -89659.528036 kJ/mol
# GULP energy per Si atom -5603.720502 kJ/mol
# Density = 2.599383 g / cm^3
# Si number density = 26.053126 Si / 1000 Ang^3
#
#
#
# Elastic Constant Matrix: (Units=GPa)
#
#
# Indices 1 2 3 4 5 6 
#
# 1 142.4325 20.7296 19.2807 0.0000 0.0000 0.0000
# 2 20.7296 75.2027 -10.9218 0.0000 0.0000 0.0000
# 3 19.2807 -10.9218 108.6732 0.0000 0.0000 0.0000
# 4 0.0000 0.0000 0.0000 43.3018 0.0000 0.0000
# 5 0.0000 0.0000 0.0000 0.0000 27.1957 0.0000
# 6 0.0000 0.0000 0.0000 0.0000 0.0000 44.0325
#
#
#
# Elastic Compliance Matrix: (Units=1/GPa)
#
#
# Indices 1 2 3 4 5 6 
#
# 1 0.007571 -0.002316 -0.001576 0.000000 0.000000 0.000000
# 2 -0.002316 0.014203 0.001838 0.000000 0.000000 0.000000
# 3 -0.001576 0.001838 0.009666 0.000000 0.000000 0.000000
# 4 0.000000 0.000000 0.000000 0.023094 0.000000 0.000000
# 5 0.000000 0.000000 0.000000 0.000000 0.036771 0.000000
# 6 0.000000 0.000000 0.000000 0.000000 0.000000 0.022710
#
#
# Mechanical properties :
#
#
# Convention : Reuss Voigt Hill
#
# Bulk Modulus (GPa) = 36.58587 42.72060 39.65323
# Shear Modulus (GPa) = 39.29786 42.72066 41.00926
#
# Velocity S-wave (km/s) = 3.88799 4.05378 3.97175
# Velocity P-wave (km/s) = 5.85052 6.19225 6.02381
#
# Compressibility (1/GPa) = 0.02733296
#
# Stress axis : x y z
#
# Youngs Moduli (GPa) = 132.07821 70.40886 103.45251
#
# Poissons Ratio (x) = 0.16306 0.16305
# Poissons Ratio (y) = 0.30588 -0.19017
# Poissons Ratio (z) = 0.20816 -0.12943
#
# Static dielectric constant tensor:
#      x y z
#    x 2.067800 0.000000 0.000000 
#    y 0.000000 2.069550 0.000000 
#    z 0.000000 0.000000 1.998410 
# 
# From -- ./inp_files/1928.got.cif
#   From: 2010.05.17/outbox.cif.g08.bks.cpg/sg46_1_cif.got.tgz:1928.got - 2010.06.03 19:58:25.
