data_PCOD9380790
_publ_section_title
;
Structure prediction by ZEFSAII (Michael W. Deem and Ramdas Pophale) SiO2 
 PCOD9380790
Probable space group: I M A 2
;
_chemical_formula_sum "Si O2"
_cell_formula_units_Z 24
_cell_length_a 9.138577
_cell_length_b 5.146959
_cell_length_c 18.187675
_cell_angle_alpha 90.000000
_cell_angle_beta 90.000000
_cell_angle_gamma 90.000000
_cell_volume 855.473319
_symmetry_space_group_name_H-M "I M A 2"
_symmetry_group_IT_number 46
_symmetry_cell_setting 'orthorhombic'
loop_
_space_group_symop_operation_xyz
x,y,z
-x,-y,z
1/2-x,y,z
1/2+x,-y,z
1/2+x,1/2+y,1/2+z
1/2-x,1/2-y,1/2+z
-x,1/2+y,1/2+z
x,1/2-y,1/2+z
loop_
_atom_site_type_symbol
_atom_site_label
_atom_site_fract_x
_atom_site_fract_y
_atom_site_fract_z
Si Si1 0.500000 0.500000 0.785100
Si Si2 0.000000 0.500000 0.030237
Si Si3 0.250000 0.307718 0.368061
Si Si4 0.250000 0.862057 0.002178
Si Si5 0.250000 0.275368 0.621279
Si Si6 0.750000 0.348167 0.240897
O O1 0.607709 0.664151 0.836889
O O2 0.396516 0.678074 0.733501
O O3 0.105956 0.335469 0.082159
O O4 0.105950 0.694364 0.986701
O O5 0.250000 0.378823 0.453303
O O6 0.250000 0.584858 0.327494
O O7 0.250000 0.929005 0.089909
O O8 0.250000 0.124519 0.699147
#
# Coordination Sequence:
#
# PCOD9380790 Si02
#       6
#     4   4   4   4   4   4
#     4  10  26  49  78 118 162 207 274 342 398 485
#     4  10  26  49  74 116 154 207 268 340 398 477
#     4  11  26  48  82 116 158 213 268 337 412 484
#     4  11  26  52  81 117 162 210 275 336 411 486
#     4  11  26  47  76 113 158 213 268 330 399 483
#     4  11  26  49  77 118 158 216 271 333 410 481
#
# _framework density 28.054646999999999
#
# number of rings (size 3 to 8) (size 9 to 14) (size 15 to 20)
#    0.000    1.333    0.000    2.000    4.667   18.667 
#    0.000    5.000    0.000    0.000    0.000    0.000 
#    0.000    0.000    0.000    0.000    0.000    0.000 
#
# Total GULP energy -67344.275650 kJ/mol
# GULP energy per Si atom -5612.022971 kJ/mol
# Density = 2.799079 g / cm^3
# Si number density = 28.054647 Si / 1000 Ang^3
#
#
#
# Elastic Constant Matrix: (Units=GPa)
#
#
# Indices 1 2 3 4 5 6 
#
# 1 224.5558 66.5157 62.1894 0.0000 0.0000 0.0000
# 2 66.5157 128.7407 47.6656 0.0000 0.0000 0.0000
# 3 62.1894 47.6656 157.2983 0.0000 0.0000 0.0000
# 4 0.0000 0.0000 0.0000 35.6384 0.0000 0.0000
# 5 0.0000 0.0000 0.0000 0.0000 24.8728 0.0000
# 6 0.0000 0.0000 0.0000 0.0000 0.0000 53.1846
#
#
#
# Elastic Compliance Matrix: (Units=1/GPa)
#
#
# Indices 1 2 3 4 5 6 
#
# 1 0.005553 -0.002316 -0.001494 0.000000 0.000000 0.000000
# 2 -0.002316 0.009715 -0.002028 0.000000 0.000000 0.000000
# 3 -0.001494 -0.002028 0.007562 0.000000 0.000000 0.000000
# 4 0.000000 0.000000 0.000000 0.028060 0.000000 0.000000
# 5 0.000000 0.000000 0.000000 0.000000 0.040205 0.000000
# 6 0.000000 0.000000 0.000000 0.000000 0.000000 0.018802
#
#
# Mechanical properties :
#
#
# Convention : Reuss Voigt Hill
#
# Bulk Modulus (GPa) = 89.64788 95.92624 92.78706
# Shear Modulus (GPa) = 39.90706 45.02076 42.46391
#
# Velocity S-wave (km/s) = 3.77566 4.01028 3.89474
# Velocity P-wave (km/s) = 7.14364 7.46391 7.30553
#
# Compressibility (1/GPa) = 0.01115475
#
# Stress axis : x y z
#
# Youngs Moduli (GPa) = 180.08631 102.93254 132.23185
#
# Poissons Ratio (x) = 0.23839 0.19750
# Poissons Ratio (y) = 0.41708 0.26820
# Poissons Ratio (z) = 0.26897 0.20878
#
# Static dielectric constant tensor:
#      x y z
#    x 2.098050 0.000000 0.000000 
#    y 0.000000 2.203990 0.000000 
#    z 0.000000 0.000000 2.151990 
# 
# From -- ./inp_files/17818.got.cif
#   From: 2010.05.17/outbox.cif.g08.bks.cpg/sg46_9_cif.got.tgz:17818.got - 2010.06.03 19:58:25.
