data_PCOD9380490
_publ_section_title
;
Structure prediction by ZEFSAII (Michael W. Deem and Ramdas Pophale) SiO2 
 PCOD9380490
Probable space group: I M A 2
;
_chemical_formula_sum "Si O2"
_cell_formula_units_Z 40
_cell_length_a 25.015203
_cell_length_b 14.170811
_cell_length_c 4.947938
_cell_angle_alpha 90.000000
_cell_angle_beta 90.000000
_cell_angle_gamma 90.000000
_cell_volume 1753.973334
_symmetry_space_group_name_H-M "I M A 2"
_symmetry_group_IT_number 46
_symmetry_cell_setting 'orthorhombic'
loop_
_space_group_symop_operation_xyz
x,y,z
-x,-y,z
1/2-x,y,z
1/2+x,-y,z
1/2+x,1/2+y,1/2+z
1/2-x,1/2-y,1/2+z
-x,1/2+y,1/2+z
x,1/2-y,1/2+z
loop_
_atom_site_type_symbol
_atom_site_label
_atom_site_fract_x
_atom_site_fract_y
_atom_site_fract_z
Si Si1 0.250000 0.692934 0.135280
Si Si2 0.688620 0.686091 0.629868
Si Si3 0.617118 0.985456 0.947187
Si Si4 0.141117 0.899794 0.447764
Si Si5 0.500000 0.000000 0.786422
Si Si6 0.528541 0.309682 0.989735
O O1 0.250000 0.712291 0.453283
O O2 0.303019 0.640462 0.041826
O O3 0.750000 0.650426 0.594451
O O4 0.682801 0.776184 0.432958
O O5 0.645675 0.608933 0.544275
O O6 0.639252 0.068500 0.138319
O O7 0.629549 0.009579 0.636502
O O8 0.553128 0.989328 0.965030
O O9 0.092380 0.828129 0.499654
O O10 0.504164 0.093270 0.600228
O O11 0.514128 0.224438 0.191665
#
# Coordination Sequence:
#
# PCOD9380490 Si02
#       6
#     4   8   8   8   4   8
#     4  12  24  40  64  94 128 164 212 268 318 404
#     4  10  22  40  64  94 129 170 220 279 339 408
#     4  11  24  42  65  93 135 171 222 281 337 401
#     4  11  24  40  64  96 128 173 218 268 331 410
#     4  10  26  44  66 102 132 176 238 282 332 430
#     4  11  23  42  66  92 131 176 216 278 341 389
#
# _framework density 22.805364000000001
#
# number of rings (size 3 to 8) (size 9 to 14) (size 15 to 20)
#    0.000    1.200    0.000    6.000    2.800    8.800 
#    0.000    0.000    0.000    0.000    0.000    0.000 
#    0.000    0.000    0.000    0.000    0.000    0.000 
#
# Total GULP energy -111980.729382 kJ/mol
# GULP energy per Si atom -5599.036469 kJ/mol
# Density = 2.275346 g / cm^3
# Si number density = 22.805364 Si / 1000 Ang^3
#
#
#
# Elastic Constant Matrix: (Units=GPa)
#
#
# Indices 1 2 3 4 5 6 
#
# 1 79.1635 25.3538 -5.8386 0.0000 0.0000 0.0000
# 2 25.3538 71.3046 -4.5017 0.0000 0.0000 0.0000
# 3 -5.8386 -4.5017 66.3531 0.0000 0.0000 0.0000
# 4 0.0000 0.0000 0.0000 30.4860 0.0000 0.0000
# 5 0.0000 0.0000 0.0000 0.0000 -83.5862 0.0000
# 6 0.0000 0.0000 0.0000 0.0000 0.0000 34.0242
#
#
#
# Elastic Compliance Matrix: (Units=1/GPa)
#
#
# Indices 1 2 3 4 5 6 
#
# 1 0.014311 -0.005031 0.000918 0.000000 0.000000 0.000000
# 2 -0.005031 0.015853 0.000633 0.000000 0.000000 0.000000
# 3 0.000918 0.000633 0.015195 0.000000 0.000000 0.000000
# 4 0.000000 0.000000 0.000000 0.032802 0.000000 0.000000
# 5 0.000000 0.000000 0.000000 0.000000 -0.011964 0.000000
# 6 0.000000 0.000000 0.000000 0.000000 0.000000 0.029391
#
#
# Mechanical properties :
#
#
# Convention : Reuss Voigt Hill
#
# Bulk Modulus (GPa) = 26.04229 27.42758 26.73494
# Shear Modulus (GPa) = 43.34751 9.63865 26.49308
#
# Velocity S-wave (km/s) = 4.36450 2.05807 3.41208
# Velocity P-wave (km/s) = 6.06981 4.20719 5.22222
#
# Compressibility (1/GPa) = 0.03839907
#
# Stress axis : x y z
#
# Youngs Moduli (GPa) = 69.87657 63.07938 65.81283
#
# Poissons Ratio (x) = 0.31733 -0.06041
# Poissons Ratio (y) = 0.35152 -0.04165
# Poissons Ratio (z) = -0.06414 -0.03992
#
# Static dielectric constant tensor:
#      x y z
#    x 1.845370 0.000000 0.000000 
#    y 0.000000 1.840060 0.000000 
#    z 0.000000 0.000000 1.806760 
# 
# From -- ./inp_files/2320.got.cif
#   From: 2010.05.17/outbox.cif.g08.bks.cpg/sg46_2_cif.got.tgz:2320.got - 2010.06.03 19:58:25.
