data_PCOD9380882
_publ_section_title
;
Structure prediction by ZEFSAII (Michael W. Deem and Ramdas Pophale) SiO2 
 PCOD9380882
Probable space group: I M A 2
;
_chemical_formula_sum "Si O2"
_cell_formula_units_Z 40
_cell_length_a 14.575531
_cell_length_b 15.009711
_cell_length_c 7.689872
_cell_angle_alpha 90.000000
_cell_angle_beta 90.000000
_cell_angle_gamma 90.000000
_cell_volume 1682.347963
_symmetry_space_group_name_H-M "I M A 2"
_symmetry_group_IT_number 46
_symmetry_cell_setting 'orthorhombic'
loop_
_space_group_symop_operation_xyz
x,y,z
-x,-y,z
1/2-x,y,z
1/2+x,-y,z
1/2+x,1/2+y,1/2+z
1/2-x,1/2-y,1/2+z
-x,1/2+y,1/2+z
x,1/2-y,1/2+z
loop_
_atom_site_type_symbol
_atom_site_label
_atom_site_fract_x
_atom_site_fract_y
_atom_site_fract_z
Si Si1 0.353713 0.522637 0.591590
Si Si2 0.893999 0.974363 0.458946
Si Si3 0.351371 0.661931 0.099210
Si Si4 0.542803 0.323223 0.447583
Si Si5 0.853010 0.627401 0.302515
O O1 0.250000 0.560394 0.601934
O O2 0.369012 0.459104 0.758529
O O3 0.430890 0.599986 0.587168
O O4 0.358309 0.462509 0.419165
O O5 0.868595 0.900847 0.602079
O O6 0.846143 0.067348 0.507522
O O7 0.000000 0.000000 0.477280
O O8 0.250000 0.702692 0.105642
O O9 0.391920 0.648262 0.289252
O O10 0.421546 0.728420 0.008351
O O11 0.439140 0.318779 0.378798
O O12 0.750000 0.664666 0.323459
#
# Coordination Sequence:
#
# PCOD9380882 Si02
#       5
#     8   8   8   8   8
#     4  11  22  38  65 101 139 178 231 288 349 419
#     4  12  22  41  70 103 136 179 231 287 346 419
#     4  12  24  40  66  98 139 180 224 285 356 418
#     4  12  24  43  63 101 145 187 228 291 359 421
#     4  11  23  44  69  96 135 187 239 289 340 412
#
# _framework density 23.776292000000002
#
# number of rings (size 3 to 8) (size 9 to 14) (size 15 to 20)
#    0.000    0.400    4.000    6.600    0.000    0.000 
#    0.000    1.000    0.000    0.000    0.000    0.000 
#    0.000    0.000    0.000    0.000    0.000    0.000 
#
# Total GULP energy -111938.282642 kJ/mol
# GULP energy per Si atom -5596.914132 kJ/mol
# Density = 2.372218 g / cm^3
# Si number density = 23.776292 Si / 1000 Ang^3
#
#
#
# Elastic Constant Matrix: (Units=GPa)
#
#
# Indices 1 2 3 4 5 6 
#
# 1 209.8034 37.6036 25.7660 0.0000 0.0000 0.0000
# 2 37.6036 23.0915 6.1599 0.0000 0.0000 0.0000
# 3 25.7660 6.1599 101.6494 0.0000 0.0000 0.0000
# 4 0.0000 0.0000 0.0000 27.4388 0.0000 0.0000
# 5 0.0000 0.0000 0.0000 0.0000 -0.8732 0.0000
# 6 0.0000 0.0000 0.0000 0.0000 0.0000 18.2653
#
#
#
# Elastic Compliance Matrix: (Units=1/GPa)
#
#
# Indices 1 2 3 4 5 6 
#
# 1 0.006845 -0.010860 -0.001077 0.000000 0.000000 0.000000
# 2 -0.010860 0.061246 -0.000959 0.000000 0.000000 0.000000
# 3 -0.001077 -0.000959 0.010169 0.000000 0.000000 0.000000
# 4 0.000000 0.000000 0.000000 0.036445 0.000000 0.000000
# 5 0.000000 0.000000 0.000000 0.000000 -1.145181 0.000000
# 6 0.000000 0.000000 0.000000 0.000000 0.000000 0.054749
#
#
# Mechanical properties :
#
#
# Convention : Reuss Voigt Hill
#
# Bulk Modulus (GPa) = 19.05880 52.62261 35.84071
# Shear Modulus (GPa) = -5.36224 26.63381 10.63579
#
# Velocity S-wave (km/s) = -1.50339 3.35055 2.11731
# Velocity P-wave (km/s) = 2.24047 6.09497 4.59175
#
# Compressibility (1/GPa) = 0.05246919
#
# Stress axis : x y z
#
# Youngs Moduli (GPa) = 146.09164 16.32758 98.33968
#
# Poissons Ratio (x) = 0.17731 0.10591
# Poissons Ratio (y) = 1.58649 0.09429
# Poissons Ratio (z) = 0.15734 0.01566
#
# Static dielectric constant tensor:
#      x y z
#    x 2.461230 0.000000 0.000000 
#    y 0.000000 1.916050 0.000000 
#    z 0.000000 0.000000 2.002980 
# 
# From -- ./inp_files/5408.got.cif
#   From: 2010.05.17/outbox.cif.g08.bks.cpg/sg46_3_cif.got.tgz:5408.got - 2010.06.03 19:58:25.
