data_PCOD9380839
_publ_section_title
;
Structure prediction by ZEFSAII (Michael W. Deem and Ramdas Pophale) SiO2 
 PCOD9380839
Probable space group: I M A 2
;
_chemical_formula_sum "Si O2"
_cell_formula_units_Z 56
_cell_length_a 8.669527
_cell_length_b 14.857367
_cell_length_c 21.301077
_cell_angle_alpha 90.000000
_cell_angle_beta 90.000000
_cell_angle_gamma 90.000000
_cell_volume 2743.713859
_symmetry_space_group_name_H-M "I M A 2"
_symmetry_group_IT_number 46
_symmetry_cell_setting 'orthorhombic'
loop_
_space_group_symop_operation_xyz
x,y,z
-x,-y,z
1/2-x,y,z
1/2+x,-y,z
1/2+x,1/2+y,1/2+z
1/2-x,1/2-y,1/2+z
-x,1/2+y,1/2+z
x,1/2-y,1/2+z
loop_
_atom_site_type_symbol
_atom_site_label
_atom_site_fract_x
_atom_site_fract_y
_atom_site_fract_z
Si Si1 0.934735 0.904462 0.681070
Si Si2 0.932849 0.218681 0.574678
Si Si3 0.566129 0.405603 0.322335
Si Si4 0.569044 0.598783 0.965270
Si Si5 0.930502 0.778525 0.342499
Si Si6 0.434278 0.904961 0.238364
Si Si7 0.434014 0.095136 0.097362
O O1 0.750000 0.907290 0.682987
O O2 0.992842 0.824345 0.637195
O O3 0.001320 0.895739 0.751226
O O4 0.000000 0.000000 0.655952
O O5 0.750000 0.225097 0.582609
O O6 0.978130 0.152127 0.518781
O O7 0.003116 0.317069 0.562596
O O8 0.500000 0.500000 0.347094
O O9 0.750000 0.409089 0.320601
O O10 0.506283 0.317349 0.357401
O O11 0.500000 0.500000 0.957504
O O12 0.750000 0.593409 0.982676
O O13 0.556365 0.654376 0.900951
O O14 0.750000 0.765612 0.327597
O O15 0.013834 0.824934 0.283550
O O16 0.250000 0.909383 0.233775
O O17 0.505744 0.895147 0.169124
O O18 0.500000 0.000000 0.263858
O O19 0.250000 0.092895 0.097033
O O20 0.500000 0.000000 0.073695
#
# Coordination Sequence:
#
# PCOD9380839 Si02
#       7
#     8   8   8   8   8   8   8
#     4  11  21  36  58  87 122 157 196 241 294 351
#     4  12  24  40  61  86 118 156 198 242 293 348
#     4  11  22  38  60  88 121 155 195 241 293 349
#     4  11  25  44  65  89 118 153 195 242 291 345
#     4  11  23  40  61  86 118 156 198 243 293 347
#     4  11  21  35  57  88 123 158 197 240 293 350
#     4  11  22  39  61  88 121 155 195 241 293 348
#
# _framework density 20.410294
#
# number of rings (size 3 to 8) (size 9 to 14) (size 15 to 20)
#    0.000    0.857    0.000   10.714    0.000    3.429 
#    0.000    0.714    0.000    3.429    0.000    0.000 
#    0.000    0.000    0.000    0.000    0.000    0.000 
#
# Total GULP energy -156761.110238 kJ/mol
# GULP energy per Si atom -5598.611080 kJ/mol
# Density = 2.036384 g / cm^3
# Si number density = 20.410294 Si / 1000 Ang^3
#
#
#
# Elastic Constant Matrix: (Units=GPa)
#
#
# Indices 1 2 3 4 5 6 
#
# 1 214.0687 76.3015 19.3428 0.0000 0.0000 0.0000
# 2 76.3015 180.1583 19.2702 0.0000 0.0000 0.0000
# 3 19.3428 19.2702 13.6311 0.0000 0.0000 0.0000
# 4 0.0000 0.0000 0.0000 18.6774 0.0000 0.0000
# 5 0.0000 0.0000 0.0000 0.0000 20.5782 0.0000
# 6 0.0000 0.0000 0.0000 0.0000 0.0000 39.8458
#
#
#
# Elastic Compliance Matrix: (Units=1/GPa)
#
#
# Indices 1 2 3 4 5 6 
#
# 1 0.005850 -0.001873 -0.005653 0.000000 0.000000 0.000000
# 2 -0.001873 0.007139 -0.007435 0.000000 0.000000 0.000000
# 3 -0.005653 -0.007435 0.091894 0.000000 0.000000 0.000000
# 4 0.000000 0.000000 0.000000 0.053541 0.000000 0.000000
# 5 0.000000 0.000000 0.000000 0.000000 0.048595 0.000000
# 6 0.000000 0.000000 0.000000 0.000000 0.000000 0.025097
#
#
# Mechanical properties :
#
#
# Convention : Reuss Voigt Hill
#
# Bulk Modulus (GPa) = 13.34027 70.85413 42.09720
# Shear Modulus (GPa) = 17.42011 35.34985 26.38498
#
# Velocity S-wave (km/s) = 2.92463 4.16620 3.59935
# Velocity P-wave (km/s) = 4.23732 7.61139 6.15987
#
# Compressibility (1/GPa) = 0.07496101
#
# Stress axis : x y z
#
# Youngs Moduli (GPa) = 170.94725 140.07317 10.88207
#
# Poissons Ratio (x) = 0.26233 0.06152
# Poissons Ratio (y) = 0.32015 0.08091
# Poissons Ratio (z) = 0.96641 1.04144
#
# Static dielectric constant tensor:
#      x y z
#    x 1.680550 0.000000 0.000000 
#    y 0.000000 1.763430 0.000000 
#    z 0.000000 0.000000 1.707760 
# 
# From -- ./inp_files/21097.got.cif
#   From: 2010.05.17/outbox.cif.g08.bks.cpg/sg46_11_cif.got.tgz:21097.got - 2010.06.03 19:58:25.
