data_PCOD9380968
_publ_section_title
;
Structure prediction by ZEFSAII (Michael W. Deem and Ramdas Pophale) SiO2 
 PCOD9380968
Probable space group: I M A 2
;
_chemical_formula_sum "Si O2"
_cell_formula_units_Z 48
_cell_length_a 14.440737
_cell_length_b 8.624942
_cell_length_c 17.716346
_cell_angle_alpha 90.000000
_cell_angle_beta 90.000000
_cell_angle_gamma 90.000000
_cell_volume 2206.580090
_symmetry_space_group_name_H-M "I M A 2"
_symmetry_group_IT_number 46
_symmetry_cell_setting 'orthorhombic'
loop_
_space_group_symop_operation_xyz
x,y,z
-x,-y,z
1/2-x,y,z
1/2+x,-y,z
1/2+x,1/2+y,1/2+z
1/2-x,1/2-y,1/2+z
-x,1/2+y,1/2+z
x,1/2-y,1/2+z
loop_
_atom_site_type_symbol
_atom_site_label
_atom_site_fract_x
_atom_site_fract_y
_atom_site_fract_z
Si Si1 0.250000 0.605917 0.160210
Si Si2 0.750000 0.939745 0.826668
Si Si3 0.423353 0.102677 0.453289
Si Si4 0.923324 0.890792 0.050087
Si Si5 0.040912 0.330721 0.328922
Si Si6 0.250000 0.566847 0.992043
Si Si7 0.750000 0.434432 0.502784
Si Si8 0.964027 0.322130 0.164935
O O1 0.250000 0.534769 0.246153
O O2 0.250000 0.750263 0.999882
O O3 0.147392 0.683725 0.154847
O O4 0.652357 0.849204 0.822595
O O5 0.750000 0.013347 0.912883
O O6 0.389330 0.248070 0.500569
O O7 0.473331 0.186344 0.384112
O O8 0.337268 0.991784 0.445207
O O9 0.500000 0.000000 0.494265
O O10 0.835976 0.001926 0.051190
O O11 0.978490 0.804990 0.117273
O O12 0.000000 0.000000 0.012406
O O13 0.000000 0.500000 0.351021
O O14 0.991110 0.292991 0.251148
O O15 0.250000 0.507699 0.080303
O O16 0.000000 0.500000 0.152117
#
# Coordination Sequence:
#
# PCOD9380968 Si02
#       8
#     4   4   8   8   8   4   4   8
#     4  12  22  43  73 108 145 196 255 306 378 463
#     4  12  23  43  76 100 144 200 256 306 367 470
#     4  12  25  42  69 101 146 191 239 315 371 451
#     4  12  25  44  70 105 148 192 249 306 386 459
#     4  11  24  44  70 106 144 199 257 306 382 460
#     4  12  28  47  70 109 146 189 257 314 388 448
#     4  12  27  47  75 107 145 201 252 328 383 461
#     4  11  24  43  71 107 148 201 253 317 379 463
#
# _framework density 21.753121
#
# number of rings (size 3 to 8) (size 9 to 14) (size 15 to 20)
#    0.000    0.333    5.000    6.000    2.333    2.000 
#    0.000    1.667    0.000    2.000    0.000    0.000 
#    0.000    0.000    0.000    0.000    0.000    0.000 
#
# Total GULP energy -133719.794178 kJ/mol
# GULP energy per Si atom -5571.658091 kJ/mol
# Density = 2.170361 g / cm^3
# Si number density = 21.753121 Si / 1000 Ang^3
#
#
#
# Elastic Constant Matrix: (Units=GPa)
#
#
# Indices 1 2 3 4 5 6 
#
# 1 162.6257 39.0619 6.7580 0.0000 0.0000 0.0000
# 2 39.0619 118.6541 25.3306 0.0000 0.0000 0.0000
# 3 6.7580 25.3306 134.1634 0.0000 0.0000 0.0000
# 4 0.0000 0.0000 0.0000 12.9078 0.0000 0.0000
# 5 0.0000 0.0000 0.0000 0.0000 38.2783 0.0000
# 6 0.0000 0.0000 0.0000 0.0000 0.0000 42.0207
#
#
#
# Elastic Compliance Matrix: (Units=1/GPa)
#
#
# Indices 1 2 3 4 5 6 
#
# 1 0.006678 -0.002216 0.000082 0.000000 0.000000 0.000000
# 2 -0.002216 0.009517 -0.001685 0.000000 0.000000 0.000000
# 3 0.000082 -0.001685 0.007768 0.000000 0.000000 0.000000
# 4 0.000000 0.000000 0.000000 0.077472 0.000000 0.000000
# 5 0.000000 0.000000 0.000000 0.000000 0.026124 0.000000
# 6 0.000000 0.000000 0.000000 0.000000 0.000000 0.023798
#
#
# Mechanical properties :
#
#
# Convention : Reuss Voigt Hill
#
# Bulk Modulus (GPa) = 61.25821 61.97158 61.61490
# Shear Modulus (GPa) = 30.40677 41.59423 36.00050
#
# Velocity S-wave (km/s) = 3.74279 4.37751 4.07253
# Velocity P-wave (km/s) = 6.84834 7.35530 7.10634
#
# Compressibility (1/GPa) = 0.01632434
#
# Stress axis : x y z
#
# Youngs Moduli (GPa) = 149.74684 105.07363 128.73910
#
# Poissons Ratio (x) = 0.23284 -0.01056
# Poissons Ratio (y) = 0.33183 0.21696
# Poissons Ratio (z) = -0.01228 0.17708
#
# Static dielectric constant tensor:
#      x y z
#    x 1.770940 0.000000 0.000000 
#    y 0.000000 1.789050 0.000000 
#    z 0.000000 0.000000 1.847730 
# 
# From -- ./inp_files/19479.got.cif
#   From: 2010.05.17/outbox.cif.g08.bks.cpg/sg46_10_cif.got.tgz:19479.got - 2010.06.03 19:58:25.
