data_PCOD9380004
_publ_section_title
;
Structure prediction by ZEFSAII (Michael W. Deem and Ramdas Pophale) SiO2 
 PCOD9380004
Probable space group: I M A 2
;
_chemical_formula_sum "Si O2"
_cell_formula_units_Z 40
_cell_length_a 14.152807
_cell_length_b 13.063169
_cell_length_c 9.810520
_cell_angle_alpha 90.000000
_cell_angle_beta 90.000000
_cell_angle_gamma 90.000000
_cell_volume 1813.773938
_symmetry_space_group_name_H-M "I M A 2"
_symmetry_group_IT_number 46
_symmetry_cell_setting 'orthorhombic'
loop_
_space_group_symop_operation_xyz
x,y,z
-x,-y,z
1/2-x,y,z
1/2+x,-y,z
1/2+x,1/2+y,1/2+z
1/2-x,1/2-y,1/2+z
-x,1/2+y,1/2+z
x,1/2-y,1/2+z
loop_
_atom_site_type_symbol
_atom_site_label
_atom_site_fract_x
_atom_site_fract_y
_atom_site_fract_z
Si Si1 0.639070 0.999769 0.575910
Si Si2 0.638597 0.280153 0.117232
Si Si3 0.446879 0.295271 0.991784
Si Si4 0.137270 0.576241 0.772001
Si Si5 0.862860 0.641737 0.699955
O O1 0.750000 0.969370 0.577506
O O2 0.630263 0.101651 0.668546
O O3 0.614538 0.044609 0.426095
O O4 0.577198 0.897758 0.581950
O O5 0.750000 0.270312 0.074260
O O6 0.557056 0.268318 0.004669
O O7 0.612822 0.187730 0.217810
O O8 0.391001 0.205909 0.068540
O O9 0.410491 0.316154 0.839284
O O10 0.250000 0.577688 0.768559
O O11 0.107452 0.477153 0.685702
O O12 0.750000 0.646280 0.720247
#
# Coordination Sequence:
#
# PCOD9380004 Si02
#       5
#     8   8   8   8   8
#     4   9  18  36  61  86 119 159 207 260 310 369
#     4  10  21  36  57  88 122 162 211 261 303 366
#     4  11  22  37  63  96 124 166 212 256 321 378
#     4   8  17  35  59  85 118 162 206 252 307 365
#     4  10  21  40  65  92 125 163 211 264 316 376
#
# _framework density 22.053463000000001
#
# number of rings (size 3 to 8) (size 9 to 14) (size 15 to 20)
#    0.000    2.400    0.000    3.600    2.800    0.800 
#    0.000    2.000    4.400    7.200    0.000    0.000 
#    0.000    0.000    0.000    0.000    0.000    0.000 
#
# Total GULP energy -111482.612836 kJ/mol
# GULP energy per Si atom -5574.130642 kJ/mol
# Density = 2.200327 g / cm^3
# Si number density = 22.053463 Si / 1000 Ang^3
#
#
#
# Elastic Constant Matrix: (Units=GPa)
#
#
# Indices 1 2 3 4 5 6 
#
# 1 150.7309 10.7643 22.5638 0.0000 0.0000 0.0000
# 2 10.7643 138.7566 29.1175 0.0000 0.0000 0.0000
# 3 22.5638 29.1175 26.4374 0.0000 0.0000 0.0000
# 4 0.0000 0.0000 0.0000 37.8017 0.0000 0.0000
# 5 0.0000 0.0000 0.0000 0.0000 22.7452 0.0000
# 6 0.0000 0.0000 0.0000 0.0000 0.0000 4.3520
#
#
#
# Elastic Compliance Matrix: (Units=1/GPa)
#
#
# Indices 1 2 3 4 5 6 
#
# 1 0.007715 0.001019 -0.007707 0.000000 0.000000 0.000000
# 2 0.001019 0.009508 -0.011341 0.000000 0.000000 0.000000
# 3 -0.007707 -0.011341 0.056894 0.000000 0.000000 0.000000
# 4 0.000000 0.000000 0.000000 0.026454 0.000000 0.000000
# 5 0.000000 0.000000 0.000000 0.000000 0.043965 0.000000
# 6 0.000000 0.000000 0.000000 0.000000 0.000000 0.229777
#
#
# Mechanical properties :
#
#
# Convention : Reuss Voigt Hill
#
# Bulk Modulus (GPa) = 26.27544 48.97958 37.62751
# Shear Modulus (GPa) = 11.81873 29.87840 20.84856
#
# Velocity S-wave (km/s) = 2.31749 3.68478 3.07801
# Velocity P-wave (km/s) = 4.37050 6.35304 5.45263
#
# Compressibility (1/GPa) = 0.03805835
#
# Stress axis : x y z
#
# Youngs Moduli (GPa) = 129.61304 105.17780 17.57663
#
# Poissons Ratio (x) = -0.10715 0.13546
# Poissons Ratio (y) = -0.13204 0.19934
# Poissons Ratio (z) = 0.99891 1.19283
#
# Static dielectric constant tensor:
#      x y z
#    x 1.883110 0.000000 0.000000 
#    y 0.000000 1.900190 0.000000 
#    z 0.000000 0.000000 1.822120 
# 
# From -- ./inp_files/10923.got.cif
#   From: 2010.05.17/outbox.cif.g08.bks.cpg/sg46_6_cif.got.tgz:10923.got - 2010.06.03 19:58:25.
