data_PCOD9380867
_publ_section_title
;
Structure prediction by ZEFSAII (Michael W. Deem and Ramdas Pophale) SiO2 
 PCOD9380867
Probable space group: I M A 2
;
_chemical_formula_sum "Si O2"
_cell_formula_units_Z 40
_cell_length_a 14.582369
_cell_length_b 12.754189
_cell_length_c 10.554444
_cell_angle_alpha 90.000000
_cell_angle_beta 90.000000
_cell_angle_gamma 90.000000
_cell_volume 1962.981886
_symmetry_space_group_name_H-M "I M A 2"
_symmetry_group_IT_number 46
_symmetry_cell_setting 'orthorhombic'
loop_
_space_group_symop_operation_xyz
x,y,z
-x,-y,z
1/2-x,y,z
1/2+x,-y,z
1/2+x,1/2+y,1/2+z
1/2-x,1/2-y,1/2+z
-x,1/2+y,1/2+z
x,1/2-y,1/2+z
loop_
_atom_site_type_symbol
_atom_site_label
_atom_site_fract_x
_atom_site_fract_y
_atom_site_fract_z
Si Si1 0.410473 0.930049 0.101550
Si Si2 0.101909 0.450781 0.843892
Si Si3 0.981746 0.748513 0.233739
Si Si4 0.897564 0.953541 0.623625
Si Si5 0.348129 0.880601 0.832394
O O1 0.454511 0.818810 0.141547
O O2 0.500000 0.000000 0.071214
O O3 0.361408 0.985634 0.222020
O O4 0.352348 0.921022 0.975648
O O5 0.000000 0.500000 0.852957
O O6 0.081495 0.330015 0.810344
O O7 0.144120 0.462153 0.982876
O O8 0.059119 0.686673 0.313614
O O9 0.915702 0.665746 0.165091
O O10 0.852210 0.024070 0.731991
O O11 0.000000 0.000000 0.615247
O O12 0.250000 0.824076 0.812194
#
# Coordination Sequence:
#
# PCOD9380867 Si02
#       5
#     8   8   8   8   8
#     4   9  18  34  55  78 100 131 175 218 255 295
#     4   8  16  31  54  78  97 123 172 224 256 286
#     4   9  17  31  56  79  97 130 177 219 252 294
#     4   9  17  31  51  74  99 132 175 216 249 292
#     4  11  22  33  48  77 114 142 163 199 259 319
#
# _framework density 20.377161000000001
#
# number of rings (size 3 to 8) (size 9 to 14) (size 15 to 20)
#    0.000    3.200    0.000    3.000    0.000    4.000 
#    0.000    1.000    0.000   10.800    0.000    0.000 
#    0.000    0.000    0.000    0.000    0.000    0.000 
#
# Total GULP energy -111342.262990 kJ/mol
# GULP energy per Si atom -5567.113150 kJ/mol
# Density = 2.033078 g / cm^3
# Si number density = 20.377161 Si / 1000 Ang^3
#
#
#
# Elastic Constant Matrix: (Units=GPa)
#
#
# Indices 1 2 3 4 5 6 
#
# 1 41.1902 -21.7807 3.2508 0.0000 0.0000 0.0000
# 2 -21.7807 67.0762 16.6140 0.0000 0.0000 0.0000
# 3 3.2508 16.6140 137.8255 0.0000 0.0000 0.0000
# 4 0.0000 0.0000 0.0000 -1.6917 0.0000 0.0000
# 5 0.0000 0.0000 0.0000 0.0000 -32.6788 0.0000
# 6 0.0000 0.0000 0.0000 0.0000 0.0000 -14.5098
#
#
#
# Elastic Compliance Matrix: (Units=1/GPa)
#
#
# Indices 1 2 3 4 5 6 
#
# 1 0.029799 0.010153 -0.001927 0.000000 0.000000 0.000000
# 2 0.010153 0.018827 -0.002509 0.000000 0.000000 0.000000
# 3 -0.001927 -0.002509 0.007603 0.000000 0.000000 0.000000
# 4 0.000000 0.000000 0.000000 -0.591130 0.000000 0.000000
# 5 0.000000 0.000000 0.000000 0.000000 -0.030601 0.000000
# 6 0.000000 0.000000 0.000000 0.000000 0.000000 -0.068919
#
#
# Mechanical properties :
#
#
# Convention : Reuss Voigt Hill
#
# Bulk Modulus (GPa) = 14.77890 26.91779 20.84835
# Shear Modulus (GPa) = -8.02180 6.75779 -0.63201
#
# Velocity S-wave (km/s) = -1.98626 1.82306 -0.55752
# Velocity P-wave (km/s) = 1.41709 4.20355 3.13672
#
# Compressibility (1/GPa) = 0.06766403
#
# Stress axis : x y z
#
# Youngs Moduli (GPa) = 33.55864 53.11580 131.51957
#
# Poissons Ratio (x) = -0.53930 0.25341
# Poissons Ratio (y) = -0.34073 0.32997
# Poissons Ratio (z) = 0.06466 0.13326
#
# Static dielectric constant tensor:
#      x y z
#    x 1.692100 0.000000 0.000000 
#    y 0.000000 1.761100 0.000000 
#    z 0.000000 0.000000 1.780180 
# 
# From -- ./inp_files/10933.got.cif
#   From: 2010.05.17/outbox.cif.g08.bks.cpg/sg46_6_cif.got.tgz:10933.got - 2010.06.03 19:58:25.
