data_PCOD9380773
_publ_section_title
;
Structure prediction by ZEFSAII (Michael W. Deem and Ramdas Pophale) SiO2 
 PCOD9380773
Probable space group: I M A 2
;
_chemical_formula_sum "Si O2"
_cell_formula_units_Z 48
_cell_length_a 16.334696
_cell_length_b 14.020326
_cell_length_c 10.159654
_cell_angle_alpha 90.000000
_cell_angle_beta 90.000000
_cell_angle_gamma 90.000000
_cell_volume 2326.741232
_symmetry_space_group_name_H-M "I M A 2"
_symmetry_group_IT_number 46
_symmetry_cell_setting 'orthorhombic'
loop_
_space_group_symop_operation_xyz
x,y,z
-x,-y,z
1/2-x,y,z
1/2+x,-y,z
1/2+x,1/2+y,1/2+z
1/2-x,1/2-y,1/2+z
-x,1/2+y,1/2+z
x,1/2-y,1/2+z
loop_
_atom_site_type_symbol
_atom_site_label
_atom_site_fract_x
_atom_site_fract_y
_atom_site_fract_z
Si Si1 0.443316 0.738856 0.277490
Si Si2 0.653557 0.561397 0.472834
Si Si3 0.904336 0.029293 0.708502
Si Si4 0.550981 0.750182 0.027504
Si Si5 0.151640 0.930818 0.209338
Si Si6 0.653990 0.564620 0.950055
O O1 0.398110 0.639594 0.248652
O O2 0.519784 0.738830 0.176148
O O3 0.475069 0.742423 0.426676
O O4 0.391005 0.831893 0.243454
O O5 0.750000 0.577886 0.491791
O O6 0.634785 0.533985 0.323343
O O7 0.603869 0.654706 0.512718
O O8 0.628871 0.473531 0.567349
O O9 0.862086 0.007334 0.570430
O O10 0.000000 0.000000 0.698542
O O11 0.602686 0.658734 0.981880
O O12 0.250000 0.919268 0.215058
O O13 0.128401 0.011127 0.316776
O O14 0.750000 0.587902 0.940727
#
# Coordination Sequence:
#
# PCOD9380773 Si02
#       6
#     8   8   8   8   8   8
#     4  12  25  39  67  93 127 168 211 260 317 375
#     4  11  24  43  66  93 129 168 209 262 319 377
#     4  12  23  43  62  94 129 163 213 256 314 377
#     4  12  23  40  65  98 124 166 210 262 317 380
#     4  10  25  44  64  93 130 170 213 262 315 376
#     4  11  24  43  66  93 129 168 209 262 319 377
#
# _framework density 20.629709999999999
#
# number of rings (size 3 to 8) (size 9 to 14) (size 15 to 20)
#    0.000    0.667    3.333    4.000    0.000    2.667 
#    0.000    9.167    0.000    0.000    0.000    0.000 
#    0.000    0.000    0.000    0.000    0.000    0.000 
#
# Total GULP energy -134377.161699 kJ/mol
# GULP energy per Si atom -5599.048404 kJ/mol
# Density = 2.058276 g / cm^3
# Si number density = 20.629710 Si / 1000 Ang^3
#
#
#
# Elastic Constant Matrix: (Units=GPa)
#
#
# Indices 1 2 3 4 5 6 
#
# 1 30.3408 26.5754 -5.8962 0.0000 0.0000 0.0000
# 2 26.5754 86.7754 -31.9916 0.0000 0.0000 0.0000
# 3 -5.8962 -31.9916 60.3209 0.0000 0.0000 0.0000
# 4 0.0000 0.0000 0.0000 29.2208 0.0000 0.0000
# 5 0.0000 0.0000 0.0000 0.0000 21.0901 0.0000
# 6 0.0000 0.0000 0.0000 0.0000 0.0000 32.7526
#
#
#
# Elastic Compliance Matrix: (Units=1/GPa)
#
#
# Indices 1 2 3 4 5 6 
#
# 1 0.045686 -0.015346 -0.003673 0.000000 0.000000 0.000000
# 2 -0.015346 0.019480 0.008831 0.000000 0.000000 0.000000
# 3 -0.003673 0.008831 0.020903 0.000000 0.000000 0.000000
# 4 0.000000 0.000000 0.000000 0.034222 0.000000 0.000000
# 5 0.000000 0.000000 0.000000 0.000000 0.047416 0.000000
# 6 0.000000 0.000000 0.000000 0.000000 0.000000 0.030532
#
#
# Mechanical properties :
#
#
# Convention : Reuss Voigt Hill
#
# Bulk Modulus (GPa) = 15.22233 17.20136 16.21185
# Shear Modulus (GPa) = 20.78901 29.19600 24.99250
#
# Velocity S-wave (km/s) = 3.17791 3.76605 3.48441
# Velocity P-wave (km/s) = 4.56731 5.22179 4.90548
#
# Compressibility (1/GPa) = 0.06569295
#
# Stress axis : x y z
#
# Youngs Moduli (GPa) = 21.88832 51.33596 47.84090
#
# Poissons Ratio (x) = 0.78779 0.17572
# Poissons Ratio (y) = 0.33590 -0.42249
# Poissons Ratio (z) = 0.08040 -0.45335
#
# Static dielectric constant tensor:
#      x y z
#    x 1.725370 0.000000 0.000000 
#    y 0.000000 1.704310 0.000000 
#    z 0.000000 0.000000 1.703730 
# 
# From -- ./inp_files/6605.got.cif
#   From: 2010.05.17/outbox.cif.g08.bks.cpg/sg46_4_cif.got.tgz:6605.got - 2010.06.03 19:58:25.
