data_PCOD9380065
_publ_section_title
;
Structure prediction by ZEFSAII (Michael W. Deem and Ramdas Pophale) SiO2 
 PCOD9380065
Probable space group: I M A 2
;
_chemical_formula_sum "Si O2"
_cell_formula_units_Z 36
_cell_length_a 25.271490
_cell_length_b 11.680374
_cell_length_c 5.101209
_cell_angle_alpha 90.000000
_cell_angle_beta 90.000000
_cell_angle_gamma 90.000000
_cell_volume 1505.777192
_symmetry_space_group_name_H-M "I M A 2"
_symmetry_group_IT_number 46
_symmetry_cell_setting 'orthorhombic'
loop_
_space_group_symop_operation_xyz
x,y,z
-x,-y,z
1/2-x,y,z
1/2+x,-y,z
1/2+x,1/2+y,1/2+z
1/2-x,1/2-y,1/2+z
-x,1/2+y,1/2+z
x,1/2-y,1/2+z
loop_
_atom_site_type_symbol
_atom_site_label
_atom_site_fract_x
_atom_site_fract_y
_atom_site_fract_z
Si Si1 0.687248 0.824439 0.574920
Si Si2 0.461502 0.324625 0.539677
Si Si3 0.857572 0.428719 0.130219
Si Si4 0.750000 0.314216 0.938561
Si Si5 0.078068 0.581519 0.622610
O O1 0.750000 0.853673 0.595523
O O2 0.677511 0.774639 0.287012
O O3 0.653185 0.935638 0.633484
O O4 0.448955 0.267202 0.263541
O O5 0.433526 0.446166 0.584295
O O6 0.524031 0.353109 0.560575
O O7 0.802960 0.376689 0.029721
O O8 0.876760 0.386909 0.413193
O O9 0.902504 0.400922 0.917417
O O10 0.750000 0.202161 0.126278
#
# Coordination Sequence:
#
# PCOD9380065 Si02
#       5
#     8   8   8   4   8
#     4  10  21  37  60  89 123 165 208 255 319 376
#     4  11  24  45  68  96 133 167 211 272 331 392
#     4  12  24  44  65  96 135 169 220 271 313 379
#     4  12  28  46  66  94 132 180 226 264 310 368
#     4  11  26  41  68 100 127 170 219 266 327 388
#
# _framework density 23.907919
#
# number of rings (size 3 to 8) (size 9 to 14) (size 15 to 20)
#    0.000    0.889    1.111    5.333    0.000   14.222 
#    0.000    0.000    0.000    0.000    0.000    0.000 
#    0.000    0.000    0.000    0.000    0.000    0.000 
#
# Total GULP energy -100993.001815 kJ/mol
# GULP energy per Si atom -5610.722323 kJ/mol
# Density = 2.385350 g / cm^3
# Si number density = 23.907919 Si / 1000 Ang^3
#
#
#
# Elastic Constant Matrix: (Units=GPa)
#
#
# Indices 1 2 3 4 5 6 
#
# 1 94.2987 10.6934 -5.1944 0.0000 0.0000 0.0000
# 2 10.6934 64.1594 -6.9200 0.0000 0.0000 0.0000
# 3 -5.1944 -6.9200 64.4248 0.0000 0.0000 0.0000
# 4 0.0000 0.0000 0.0000 29.8691 0.0000 0.0000
# 5 0.0000 0.0000 0.0000 0.0000 15.8845 0.0000
# 6 0.0000 0.0000 0.0000 0.0000 0.0000 39.8497
#
#
#
# Elastic Compliance Matrix: (Units=1/GPa)
#
#
# Indices 1 2 3 4 5 6 
#
# 1 0.010839 -0.001732 0.000688 0.000000 0.000000 0.000000
# 2 -0.001732 0.016046 0.001584 0.000000 0.000000 0.000000
# 3 0.000688 0.001584 0.015748 0.000000 0.000000 0.000000
# 4 0.000000 0.000000 0.000000 0.033479 0.000000 0.000000
# 5 0.000000 0.000000 0.000000 0.000000 0.062954 0.000000
# 6 0.000000 0.000000 0.000000 0.000000 0.000000 0.025094
#
#
# Mechanical properties :
#
#
# Convention : Reuss Voigt Hill
#
# Bulk Modulus (GPa) = 22.87759 24.44899 23.66329
# Shear Modulus (GPa) = 28.14494 32.07427 30.10961
#
# Velocity S-wave (km/s) = 3.43479 3.66673 3.55265
# Velocity P-wave (km/s) = 5.03192 5.30801 5.17181
#
# Compressibility (1/GPa) = 0.04371090
#
# Stress axis : x y z
#
# Youngs Moduli (GPa) = 92.26001 62.32190 63.50190
#
# Poissons Ratio (x) = 0.10796 -0.04368
# Poissons Ratio (y) = 0.15983 -0.10058
# Poissons Ratio (z) = -0.06346 -0.09871
#
# Static dielectric constant tensor:
#      x y z
#    x 1.900150 0.000000 0.000000 
#    y 0.000000 1.894220 0.000000 
#    z 0.000000 0.000000 1.816240 
# 
# From -- ./inp_files/2273.got.cif
#   From: 2010.05.17/outbox.cif.g08.bks.cpg/sg46_2_cif.got.tgz:2273.got - 2010.06.03 19:58:25.
