data_PCOD9380727
_publ_section_title
;
Structure prediction by ZEFSAII (Michael W. Deem and Ramdas Pophale) SiO2 
 PCOD9380727
Probable space group: I M A 2
;
_chemical_formula_sum "Si O2"
_cell_formula_units_Z 28
_cell_length_a 26.759855
_cell_length_b 5.028173
_cell_length_c 9.150561
_cell_angle_alpha 90.000000
_cell_angle_beta 90.000000
_cell_angle_gamma 90.000000
_cell_volume 1231.237085
_symmetry_space_group_name_H-M "I M A 2"
_symmetry_group_IT_number 46
_symmetry_cell_setting 'orthorhombic'
loop_
_space_group_symop_operation_xyz
x,y,z
-x,-y,z
1/2-x,y,z
1/2+x,-y,z
1/2+x,1/2+y,1/2+z
1/2-x,1/2-y,1/2+z
-x,1/2+y,1/2+z
x,1/2-y,1/2+z
loop_
_atom_site_type_symbol
_atom_site_label
_atom_site_fract_x
_atom_site_fract_y
_atom_site_fract_z
Si Si1 0.347498 0.526435 0.687740
Si Si2 0.041717 0.193309 0.162774
Si Si3 0.191020 0.473833 0.018802
Si Si4 0.500000 0.000000 0.443694
O O1 0.405514 0.447175 0.676601
O O2 0.318479 0.317023 0.585244
O O3 0.335806 0.816720 0.625653
O O4 0.330171 0.498580 0.855094
O O5 0.017980 0.216456 0.323698
O O6 0.043926 0.457164 0.064124
O O7 0.000000 0.000000 0.089676
O O8 0.250000 0.530246 0.016080
#
# Coordination Sequence:
#
# PCOD9380727 Si02
#       4
#     8   8   8   4
#     4  12  27  45  78 106 143 191 240 291 367 423
#     4  10  26  42  70  99 143 180 232 286 344 428
#     4  12  26  49  74 107 144 187 243 301 357 423
#     4  10  24  42  68  94 144 182 228 282 344 406
#
# _framework density 22.741354000000001
#
# number of rings (size 3 to 8) (size 9 to 14) (size 15 to 20)
#    0.857    0.000    0.000    6.000   10.000    0.000 
#    0.000    0.000    0.000    0.000    0.000    0.000 
#    0.000    0.000    0.000    0.000    0.000    0.000 
#
# Total GULP energy -78028.420821 kJ/mol
# GULP energy per Si atom -5573.458630 kJ/mol
# Density = 2.268959 g / cm^3
# Si number density = 22.741354 Si / 1000 Ang^3
#
#
#
# Elastic Constant Matrix: (Units=GPa)
#
#
# Indices 1 2 3 4 5 6 
#
# 1 123.4478 15.9835 20.0011 0.0000 0.0000 0.0000
# 2 15.9835 35.7263 -13.5461 0.0000 0.0000 0.0000
# 3 20.0011 -13.5461 143.6400 0.0000 0.0000 0.0000
# 4 0.0000 0.0000 0.0000 33.9879 0.0000 0.0000
# 5 0.0000 0.0000 0.0000 0.0000 11.3473 0.0000
# 6 0.0000 0.0000 0.0000 0.0000 0.0000 38.8516
#
#
#
# Elastic Compliance Matrix: (Units=1/GPa)
#
#
# Indices 1 2 3 4 5 6 
#
# 1 0.008977 -0.004657 -0.001689 0.000000 0.000000 0.000000
# 2 -0.004657 0.031444 0.003614 0.000000 0.000000 0.000000
# 3 -0.001689 0.003614 0.007538 0.000000 0.000000 0.000000
# 4 0.000000 0.000000 0.000000 0.029422 0.000000 0.000000
# 5 0.000000 0.000000 0.000000 0.000000 0.088127 0.000000
# 6 0.000000 0.000000 0.000000 0.000000 0.000000 0.025739
#
#
# Mechanical properties :
#
#
# Convention : Reuss Voigt Hill
#
# Bulk Modulus (GPa) = 23.53220 38.63233 31.08227
# Shear Modulus (GPa) = 23.71055 35.52905 29.61980
#
# Velocity S-wave (km/s) = 3.23246 3.95690 3.61288
# Velocity P-wave (km/s) = 4.92970 6.15635 5.57685
#
# Compressibility (1/GPa) = 0.04249496
#
# Stress axis : x y z
#
# Youngs Moduli (GPa) = 111.39309 31.80237 132.66357
#
# Poissons Ratio (x) = 0.14810 0.22409
# Poissons Ratio (y) = 0.51873 -0.47942
# Poissons Ratio (z) = 0.18816 -0.11493
#
# Static dielectric constant tensor:
#      x y z
#    x 1.849140 0.000000 0.000000 
#    y 0.000000 2.247090 0.000000 
#    z 0.000000 0.000000 1.804310 
# 
# From -- ./inp_files/8057.got.cif
#   From: 2010.05.17/outbox.cif.g08.bks.cpg/sg46_5_cif.got.tgz:8057.got - 2010.06.03 19:58:25.
