data_PCOD9380481
_publ_section_title
;
Structure prediction by ZEFSAII (Michael W. Deem and Ramdas Pophale) SiO2 
 PCOD9380481
Probable space group: I M A 2
;
_chemical_formula_sum "Si O2"
_cell_formula_units_Z 48
_cell_length_a 20.648629
_cell_length_b 11.353485
_cell_length_c 9.067650
_cell_angle_alpha 90.000000
_cell_angle_beta 90.000000
_cell_angle_gamma 90.000000
_cell_volume 2125.764550
_symmetry_space_group_name_H-M "I M A 2"
_symmetry_group_IT_number 46
_symmetry_cell_setting 'orthorhombic'
loop_
_space_group_symop_operation_xyz
x,y,z
-x,-y,z
1/2-x,y,z
1/2+x,-y,z
1/2+x,1/2+y,1/2+z
1/2-x,1/2-y,1/2+z
-x,1/2+y,1/2+z
x,1/2-y,1/2+z
loop_
_atom_site_type_symbol
_atom_site_label
_atom_site_fract_x
_atom_site_fract_y
_atom_site_fract_z
Si Si1 0.674881 0.619489 0.477550
Si Si2 0.677268 0.126074 0.842931
Si Si3 0.486592 0.135811 0.741529
Si Si4 0.081620 0.310601 0.953447
Si Si5 0.074470 0.492644 0.704494
Si Si6 0.111376 0.742516 0.613089
O O1 0.750000 0.619975 0.523534
O O2 0.667083 0.513948 0.358745
O O3 0.650338 0.746915 0.428283
O O4 0.622959 0.581886 0.602044
O O5 0.750000 0.148969 0.896618
O O6 0.667565 0.177427 0.681285
O O7 0.627693 0.193500 0.951593
O O8 0.469283 0.216060 0.882491
O O9 0.429817 0.158127 0.623129
O O10 0.547620 0.182975 0.647849
O O11 0.500000 0.000000 0.779101
O O12 0.072969 0.428464 0.860300
O O13 0.102688 0.622908 0.706562
O O14 0.000000 0.500000 0.649440
#
# Coordination Sequence:
#
# PCOD9380481 Si02
#       6
#     8   8   8   8   8   8
#     4  10  23  44  68  94 135 185 228 273 344 419
#     4  10  22  40  63  91 126 171 224 272 329 404
#     4  12  26  40  67 100 135 172 224 283 352 408
#     4  12  23  44  64  98 137 171 222 286 338 417
#     4  11  22  42  68  97 132 177 227 279 342 407
#     4  11  22  39  65  93 127 170 213 278 338 397
#
# _framework density 22.580110000000001
#
# number of rings (size 3 to 8) (size 9 to 14) (size 15 to 20)
#    0.000    1.000    3.333    3.000    2.333    4.667 
#    0.000    0.000    0.000    0.000    0.000    0.000 
#    0.000    0.000    0.000    0.000    0.000    0.000 
#
# Total GULP energy -134156.468933 kJ/mol
# GULP energy per Si atom -5589.852872 kJ/mol
# Density = 2.252872 g / cm^3
# Si number density = 22.580110 Si / 1000 Ang^3
#
#
#
# Elastic Constant Matrix: (Units=GPa)
#
#
# Indices 1 2 3 4 5 6 
#
# 1 108.9431 -6.0915 12.3012 0.0000 0.0000 0.0000
# 2 -6.0915 42.7552 20.6619 0.0000 0.0000 0.0000
# 3 12.3012 20.6619 58.8412 0.0000 0.0000 0.0000
# 4 0.0000 0.0000 0.0000 23.4343 0.0000 0.0000
# 5 0.0000 0.0000 0.0000 0.0000 16.9312 0.0000
# 6 0.0000 0.0000 0.0000 0.0000 0.0000 33.7240
#
#
#
# Elastic Compliance Matrix: (Units=1/GPa)
#
#
# Indices 1 2 3 4 5 6 
#
# 1 0.009679 0.002839 -0.003020 0.000000 0.000000 0.000000
# 2 0.002839 0.029002 -0.010777 0.000000 0.000000 0.000000
# 3 -0.003020 -0.010777 0.021411 0.000000 0.000000 0.000000
# 4 0.000000 0.000000 0.000000 0.042672 0.000000 0.000000
# 5 0.000000 0.000000 0.000000 0.000000 0.059063 0.000000
# 6 0.000000 0.000000 0.000000 0.000000 0.000000 0.029652
#
#
# Mechanical properties :
#
#
# Convention : Reuss Voigt Hill
#
# Bulk Modulus (GPa) = 26.19631 29.36475 27.78053
# Shear Modulus (GPa) = 22.11205 27.06242 24.58724
#
# Velocity S-wave (km/s) = 3.13273 3.46570 3.30341
# Velocity P-wave (km/s) = 4.97111 5.38959 5.18458
#
# Compressibility (1/GPa) = 0.03817332
#
# Stress axis : x y z
#
# Youngs Moduli (GPa) = 103.31814 34.48088 46.70564
#
# Poissons Ratio (x) = -0.09787 0.14106
# Poissons Ratio (y) = -0.29327 0.50336
# Poissons Ratio (z) = 0.31204 0.37161
#
# Static dielectric constant tensor:
#      x y z
#    x 1.885070 0.000000 0.000000 
#    y 0.000000 1.823150 0.000000 
#    z 0.000000 0.000000 1.827310 
# 
# From -- ./inp_files/7834.got.cif
#   From: 2010.05.17/outbox.cif.g08.bks.cpg/sg46_4_cif.got.tgz:7834.got - 2010.06.03 19:58:25.
