data_PCOD9380255
_publ_section_title
;
Structure prediction by ZEFSAII (Michael W. Deem and Ramdas Pophale) SiO2 
 PCOD9380255
Probable space group: I M A 2
;
_chemical_formula_sum "Si O2"
_cell_formula_units_Z 64
_cell_length_a 27.941008
_cell_length_b 10.142628
_cell_length_c 9.451122
_cell_angle_alpha 90.000000
_cell_angle_beta 90.000000
_cell_angle_gamma 90.000000
_cell_volume 2678.403083
_symmetry_space_group_name_H-M "I M A 2"
_symmetry_group_IT_number 46
_symmetry_cell_setting 'orthorhombic'
loop_
_space_group_symop_operation_xyz
x,y,z
-x,-y,z
1/2-x,y,z
1/2+x,-y,z
1/2+x,1/2+y,1/2+z
1/2-x,1/2-y,1/2+z
-x,1/2+y,1/2+z
x,1/2-y,1/2+z
loop_
_atom_site_type_symbol
_atom_site_label
_atom_site_fract_x
_atom_site_fract_y
_atom_site_fract_z
Si Si1 0.007296 0.810418 0.021670
Si Si2 0.807918 0.566942 0.090269
Si Si3 0.947859 0.432377 0.123166
Si Si4 0.360980 0.050431 0.183785
Si Si5 0.132404 0.862605 0.421240
Si Si6 0.099749 0.937983 0.905963
Si Si7 0.039112 0.384040 0.795826
Si Si8 0.805790 0.751812 0.834466
O O1 0.039543 0.721461 0.129805
O O2 0.970125 0.863798 0.130238
O O3 0.045114 0.907247 0.954029
O O4 0.979006 0.727503 0.903967
O O5 0.750000 0.557871 0.086453
O O6 0.821979 0.617694 0.247703
O O7 0.829817 0.430823 0.028402
O O8 0.823923 0.681253 0.978184
O O9 0.912537 0.479576 0.245508
O O10 0.000000 0.500000 0.126972
O O11 0.917605 0.429016 0.977729
O O12 0.403432 0.114413 0.279321
O O13 0.314778 0.136142 0.218540
O O14 0.356617 0.909722 0.262415
O O15 0.374836 0.030087 0.021092
O O16 0.125631 0.705465 0.416216
O O17 0.000000 0.500000 0.825182
O O18 0.750000 0.773639 0.860445
#
# Coordination Sequence:
#
# PCOD9380255 Si02
#       8
#     8   8   8   8   8   8   8   8
#     4  11  22  39  55  79 116 160 198 255 304 352
#     4   9  19  39  66  91 120 155 195 250 316 377
#     4  11  23  36  56  83 116 159 205 248 298 358
#     4  11  23  37  61  85 119 160 204 253 309 370
#     4  10  21  40  60  84 118 157 201 248 312 363
#     4  11  22  38  56  83 117 163 202 247 303 364
#     4  12  23  38  57  83 119 158 207 252 303 361
#     4   9  20  39  62  90 122 154 194 253 318 372
#
# _framework density 23.894835
#
# number of rings (size 3 to 8) (size 9 to 14) (size 15 to 20)
#    0.000    1.500    2.500    4.125    1.750    4.000 
#    0.000    0.625    0.000    2.250    0.000    0.000 
#    0.000    0.000    0.000    0.000    0.000    0.000 
#
# Total GULP energy -178294.579573 kJ/mol
# GULP energy per Si atom -5571.705612 kJ/mol
# Density = 2.384045 g / cm^3
# Si number density = 23.894835 Si / 1000 Ang^3
#
#
#
# Elastic Constant Matrix: (Units=GPa)
#
#
# Indices 1 2 3 4 5 6 
#
# 1 45.8951 6.8961 -1.1552 0.0000 0.0000 0.0000
# 2 6.8961 15.4810 1.6449 0.0000 0.0000 0.0000
# 3 -1.1552 1.6449 92.3407 0.0000 0.0000 0.0000
# 4 0.0000 0.0000 0.0000 50.4663 0.0000 0.0000
# 5 0.0000 0.0000 0.0000 0.0000 22.5527 0.0000
# 6 0.0000 0.0000 0.0000 0.0000 0.0000 34.3029
#
#
#
# Elastic Compliance Matrix: (Units=1/GPa)
#
#
# Indices 1 2 3 4 5 6 
#
# 1 0.023373 -0.010462 0.000479 0.000000 0.000000 0.000000
# 2 -0.010462 0.069401 -0.001367 0.000000 0.000000 0.000000
# 3 0.000479 -0.001367 0.010860 0.000000 0.000000 0.000000
# 4 0.000000 0.000000 0.000000 0.019815 0.000000 0.000000
# 5 0.000000 0.000000 0.000000 0.000000 0.044341 0.000000
# 6 0.000000 0.000000 0.000000 0.000000 0.000000 0.029152
#
#
# Mechanical properties :
#
#
# Convention : Reuss Voigt Hill
#
# Bulk Modulus (GPa) = 12.35606 18.72095 15.53850
# Shear Modulus (GPa) = 20.27406 31.21977 25.74692
#
# Velocity S-wave (km/s) = 2.91601 3.61854 3.28611
# Velocity P-wave (km/s) = 4.06445 5.03092 4.57329
#
# Compressibility (1/GPa) = 0.08093197
#
# Stress axis : x y z
#
# Youngs Moduli (GPa) = 42.78450 14.40903 92.08269
#
# Poissons Ratio (x) = 0.15075 -0.04409
# Poissons Ratio (y) = 0.44763 0.12589
# Poissons Ratio (z) = -0.02048 0.01970
#
# Static dielectric constant tensor:
#      x y z
#    x 1.942740 0.000000 0.000000 
#    y 0.000000 2.013690 0.000000 
#    z 0.000000 0.000000 1.996680 
# 
# From -- ./inp_files/8494.got.cif
#   From: 2010.05.17/outbox.cif.g08.bks.cpg/sg46_5_cif.got.tgz:8494.got - 2010.06.03 19:58:25.
