data_PCOD9380468
_publ_section_title
;
Structure prediction by ZEFSAII (Michael W. Deem and Ramdas Pophale) SiO2 
 PCOD9380468
Probable space group: I M A 2
;
_chemical_formula_sum "Si O2"
_cell_formula_units_Z 48
_cell_length_a 17.181124
_cell_length_b 10.975750
_cell_length_c 12.435796
_cell_angle_alpha 90.000000
_cell_angle_beta 90.000000
_cell_angle_gamma 90.000000
_cell_volume 2345.089206
_symmetry_space_group_name_H-M "I M A 2"
_symmetry_group_IT_number 46
_symmetry_cell_setting 'orthorhombic'
loop_
_space_group_symop_operation_xyz
x,y,z
-x,-y,z
1/2-x,y,z
1/2+x,-y,z
1/2+x,1/2+y,1/2+z
1/2-x,1/2-y,1/2+z
-x,1/2+y,1/2+z
x,1/2-y,1/2+z
loop_
_atom_site_type_symbol
_atom_site_label
_atom_site_fract_x
_atom_site_fract_y
_atom_site_fract_z
Si Si1 0.548906 0.711316 0.583260
Si Si2 0.078872 0.648468 0.739521
Si Si3 0.339730 0.887017 0.813752
Si Si4 0.435744 0.899044 0.484103
Si Si5 0.341249 0.509587 0.545613
Si Si6 0.340098 0.438689 0.130079
O O1 0.506965 0.655240 0.688217
O O2 0.477942 0.772213 0.515518
O O3 0.600056 0.604103 0.532064
O O4 0.607132 0.821601 0.609215
O O5 0.106146 0.786282 0.761157
O O6 0.081679 0.592450 0.858110
O O7 0.133055 0.580598 0.653201
O O8 0.250000 0.850109 0.794823
O O9 0.352034 0.013218 0.751118
O O10 0.349789 0.906434 0.940255
O O11 0.500000 0.000000 0.510862
O O12 0.363423 0.946071 0.554434
O O13 0.250000 0.473454 0.552018
O O14 0.250000 0.408827 0.113453
#
# Coordination Sequence:
#
# PCOD9380468 Si02
#       6
#     8   8   8   8   8   8
#     4  11  23  41  66  99 127 170 211 273 325 384
#     4  12  23  41  64  95 130 169 209 268 324 382
#     4  10  23  41  64  92 127 171 217 265 316 383
#     4  10  22  40  61  92 126 164 212 260 319 381
#     4  11  25  44  66  98 132 171 219 266 324 381
#     4  10  22  43  66  93 127 170 219 265 323 383
#
# _framework density 20.468304
#
# number of rings (size 3 to 8) (size 9 to 14) (size 15 to 20)
#    0.000    1.333    1.667    3.500    2.333    1.333 
#    0.000    0.000    0.000    0.000    0.000    0.000 
#    0.000    0.000    0.000    0.000    0.000    0.000 
#
# Total GULP energy -134012.511217 kJ/mol
# GULP energy per Si atom -5583.854634 kJ/mol
# Density = 2.042172 g / cm^3
# Si number density = 20.468304 Si / 1000 Ang^3
#
#
#
# Elastic Constant Matrix: (Units=GPa)
#
#
# Indices 1 2 3 4 5 6 
#
# 1 80.7996 29.2957 23.8009 0.0000 0.0000 0.0000
# 2 29.2957 47.6241 4.6481 0.0000 0.0000 0.0000
# 3 23.8009 4.6481 98.2815 0.0000 0.0000 0.0000
# 4 0.0000 0.0000 0.0000 24.3079 0.0000 0.0000
# 5 0.0000 0.0000 0.0000 0.0000 28.1034 0.0000
# 6 0.0000 0.0000 0.0000 0.0000 0.0000 41.4899
#
#
#
# Elastic Compliance Matrix: (Units=1/GPa)
#
#
# Indices 1 2 3 4 5 6 
#
# 1 0.017154 -0.010194 -0.003672 0.000000 0.000000 0.000000
# 2 -0.010194 0.027153 0.001184 0.000000 0.000000 0.000000
# 3 -0.003672 0.001184 0.011008 0.000000 0.000000 0.000000
# 4 0.000000 0.000000 0.000000 0.041139 0.000000 0.000000
# 5 0.000000 0.000000 0.000000 0.000000 0.035583 0.000000
# 6 0.000000 0.000000 0.000000 0.000000 0.000000 0.024102
#
#
# Mechanical properties :
#
#
# Convention : Reuss Voigt Hill
#
# Bulk Modulus (GPa) = 33.38664 38.02164 35.70414
# Shear Modulus (GPa) = 26.11162 30.04427 28.07794
#
# Velocity S-wave (km/s) = 3.57558 3.83540 3.70777
# Velocity P-wave (km/s) = 5.77868 6.18304 5.98428
#
# Compressibility (1/GPa) = 0.02995210
#
# Stress axis : x y z
#
# Youngs Moduli (GPa) = 58.29557 36.82861 90.84214
#
# Poissons Ratio (x) = 0.37542 0.33358
# Poissons Ratio (y) = 0.59425 -0.10760
# Poissons Ratio (z) = 0.21407 -0.04362
#
# Static dielectric constant tensor:
#      x y z
#    x 1.712780 0.000000 0.000000 
#    y 0.000000 1.755800 0.000000 
#    z 0.000000 0.000000 1.710300 
# 
# From -- ./inp_files/11791.got.cif
#   From: 2010.05.17/outbox.cif.g08.bks.cpg/sg46_6_cif.got.tgz:11791.got - 2010.06.03 19:58:25.
