data_PCOD9380723
_publ_section_title
;
Structure prediction by ZEFSAII (Michael W. Deem and Ramdas Pophale) SiO2 
 PCOD9380723
Probable space group: I M A 2
;
_chemical_formula_sum "Si O2"
_cell_formula_units_Z 60
_cell_length_a 9.291103
_cell_length_b 19.785971
_cell_length_c 16.231887
_cell_angle_alpha 90.000000
_cell_angle_beta 90.000000
_cell_angle_gamma 90.000000
_cell_volume 2983.964510
_symmetry_space_group_name_H-M "I M A 2"
_symmetry_group_IT_number 46
_symmetry_cell_setting 'orthorhombic'
loop_
_space_group_symop_operation_xyz
x,y,z
-x,-y,z
1/2-x,y,z
1/2+x,-y,z
1/2+x,1/2+y,1/2+z
1/2-x,1/2-y,1/2+z
-x,1/2+y,1/2+z
x,1/2-y,1/2+z
loop_
_atom_site_type_symbol
_atom_site_label
_atom_site_fract_x
_atom_site_fract_y
_atom_site_fract_z
Si Si1 0.575362 0.929599 0.051940
Si Si2 0.081772 0.869325 0.209294
Si Si3 0.423638 0.206108 0.962340
Si Si4 0.750000 0.477777 0.233583
Si Si5 0.418038 0.930180 0.390618
Si Si6 0.916239 0.756859 0.779328
Si Si7 0.026972 0.400245 0.201099
Si Si8 0.576294 0.845741 0.525527
O O1 0.750000 0.935984 0.053833
O O2 0.512626 0.906434 0.140109
O O3 0.500000 0.000000 0.028597
O O4 0.532665 0.868338 0.990691
O O5 0.250000 0.864326 0.184303
O O6 0.075886 0.910679 0.294718
O O7 0.012814 0.796896 0.231141
O O8 0.250000 0.203654 0.957961
O O9 0.471712 0.229463 0.872062
O O10 0.459153 0.265721 0.026818
O O11 0.870265 0.537794 0.220988
O O12 0.624999 0.419969 0.237742
O O13 0.250000 0.934153 0.415059
O O14 0.502611 0.875406 0.444385
O O15 0.500000 0.000000 0.404592
O O16 0.750000 0.731779 0.782981
O O17 0.916961 0.829457 0.736181
O O18 0.019319 0.387770 0.102902
O O19 0.750000 0.852461 0.522564
#
# Coordination Sequence:
#
# PCOD9380723 Si02
#       8
#     8   8   8   4   8   8   8   8
#     4  11  23  43  68  96 129 169 218 269 326 385
#     4  11  24  42  65  94 127 163 216 268 320 380
#     4   9  21  41  65  95 126 164 211 258 310 383
#     4  10  24  42  58  88 128 160 216 258 308 370
#     4  11  25  39  58  90 127 165 206 256 314 377
#     4  11  21  42  67  93 126 169 213 259 318 380
#     4  11  23  40  62  90 122 171 208 259 309 374
#     4  11  21  38  63  91 124 163 210 253 310 379
#
# _framework density 20.107478
#
# number of rings (size 3 to 8) (size 9 to 14) (size 15 to 20)
#    0.000    1.333    2.667    2.400    3.733    3.733 
#    2.400    2.667    0.000    0.000    0.000    0.000 
#    0.000    0.000    0.000    0.000    0.000    0.000 
#
# Total GULP energy -167020.095600 kJ/mol
# GULP energy per Si atom -5567.336520 kJ/mol
# Density = 2.006171 g / cm^3
# Si number density = 20.107478 Si / 1000 Ang^3
#
#
#
# Elastic Constant Matrix: (Units=GPa)
#
#
# Indices 1 2 3 4 5 6 
#
# 1 87.1734 23.3465 -7.1840 0.0000 0.0000 0.0000
# 2 23.3465 120.1616 -5.9895 0.0000 0.0000 0.0000
# 3 -7.1840 -5.9895 14.0504 0.0000 0.0000 0.0000
# 4 0.0000 0.0000 0.0000 29.3903 0.0000 0.0000
# 5 0.0000 0.0000 0.0000 0.0000 37.7198 0.0000
# 6 0.0000 0.0000 0.0000 0.0000 0.0000 26.0654
#
#
#
# Elastic Compliance Matrix: (Units=1/GPa)
#
#
# Indices 1 2 3 4 5 6 
#
# 1 0.012500 -0.002156 0.005472 0.000000 0.000000 0.000000
# 2 -0.002156 0.008875 0.002681 0.000000 0.000000 0.000000
# 3 0.005472 0.002681 0.075113 0.000000 0.000000 0.000000
# 4 0.000000 0.000000 0.000000 0.034025 0.000000 0.000000
# 5 0.000000 0.000000 0.000000 0.000000 0.026511 0.000000
# 6 0.000000 0.000000 0.000000 0.000000 0.000000 0.038365
#
#
# Mechanical properties :
#
#
# Convention : Reuss Voigt Hill
#
# Bulk Modulus (GPa) = 9.21818 26.85906 18.03862
# Shear Modulus (GPa) = 22.77339 32.71593 27.74466
#
# Velocity S-wave (km/s) = 3.36904 4.03805 3.71862
# Velocity P-wave (km/s) = 4.44165 5.92688 5.23718
#
# Compressibility (1/GPa) = 0.10848124
#
# Stress axis : x y z
#
# Youngs Moduli (GPa) = 80.00185 112.68087 13.31331
#
# Poissons Ratio (x) = 0.24292 -0.07285
# Poissons Ratio (y) = 0.17247 -0.03569
# Poissons Ratio (z) = -0.43777 -0.30208
#
# Static dielectric constant tensor:
#      x y z
#    x 1.670950 0.000000 0.000000 
#    y 0.000000 1.650170 0.000000 
#    z 0.000000 0.000000 1.747370 
# 
# From -- ./inp_files/18358.got.cif
#   From: 2010.05.17/outbox.cif.g08.bks.cpg/sg46_10_cif.got.tgz:18358.got - 2010.06.03 19:58:25.
