data_PCOD9380050
_publ_section_title
;
Structure prediction by ZEFSAII (Michael W. Deem and Ramdas Pophale) SiO2 
 PCOD9380050
Probable space group: I M A 2
;
_chemical_formula_sum "Si O2"
_cell_formula_units_Z 56
_cell_length_a 8.921768
_cell_length_b 20.804148
_cell_length_c 15.465403
_cell_angle_alpha 90.000000
_cell_angle_beta 90.000000
_cell_angle_gamma 90.000000
_cell_volume 2870.530078
_symmetry_space_group_name_H-M "I M A 2"
_symmetry_group_IT_number 46
_symmetry_cell_setting 'orthorhombic'
loop_
_space_group_symop_operation_xyz
x,y,z
-x,-y,z
1/2-x,y,z
1/2+x,-y,z
1/2+x,1/2+y,1/2+z
1/2-x,1/2-y,1/2+z
-x,1/2+y,1/2+z
x,1/2-y,1/2+z
loop_
_atom_site_type_symbol
_atom_site_label
_atom_site_fract_x
_atom_site_fract_y
_atom_site_fract_z
Si Si1 0.573313 0.428631 0.844530
Si Si2 0.913439 0.125150 0.150286
Si Si3 0.080112 0.768873 0.587483
Si Si4 0.930891 0.703922 0.905350
Si Si5 0.927151 0.808419 0.755538
Si Si6 0.072945 0.931726 0.836648
Si Si7 0.580419 0.937074 0.016198
O O1 0.500000 0.500000 0.853477
O O2 0.750000 0.431752 0.868549
O O3 0.567581 0.404625 0.744624
O O4 0.490912 0.369295 0.893177
O O5 0.750000 0.099575 0.117209
O O6 0.902394 0.200735 0.136038
O O7 0.059305 0.110780 0.093794
O O8 0.250000 0.796370 0.581892
O O9 0.009472 0.767226 0.491495
O O10 0.969063 0.802105 0.654997
O O11 0.750000 0.703846 0.914427
O O12 0.967203 0.748639 0.820710
O O13 0.750000 0.817477 0.766274
O O14 0.014975 0.871439 0.784516
O O15 0.250000 0.937323 0.833495
O O16 0.000000 0.000000 0.811625
O O17 0.016256 0.918130 0.933864
O O18 0.750000 0.947481 0.989809
O O19 0.500000 0.000000 0.051597
#
# Coordination Sequence:
#
# PCOD9380050 Si02
#       7
#     8   8   8   8   8   8   8
#     4  11  23  41  64  92 128 172 220 272 331 393
#     4  10  21  37  58  88 122 160 206 257 316 383
#     4  11  23  40  64  93 125 164 211 263 320 382
#     4  11  24  42  65  95 130 172 218 269 325 386
#     4  11  23  41  65  94 127 163 209 262 318 380
#     4  11  22  38  60  86 121 162 206 254 313 377
#     4  11  21  33  52  80 117 157 199 245 302 367
#
# _framework density 19.508590999999999
#
# number of rings (size 3 to 8) (size 9 to 14) (size 15 to 20)
#    0.000    1.143    1.429    6.429    0.000    7.429 
#    0.000    0.714    0.000    0.000    0.000    0.000 
#    0.000    0.000    0.000    0.000    0.000    0.000 
#
# Total GULP energy -156054.260050 kJ/mol
# GULP energy per Si atom -5573.366430 kJ/mol
# Density = 1.946419 g / cm^3
# Si number density = 19.508591 Si / 1000 Ang^3
#
#
#
# Elastic Constant Matrix: (Units=GPa)
#
#
# Indices 1 2 3 4 5 6 
#
# 1 146.9046 53.4871 31.4625 0.0000 0.0000 0.0000
# 2 53.4871 103.3734 -3.7908 0.0000 -0.0001 0.0000
# 3 31.4625 -3.7908 69.9112 0.0000 -0.0001 0.0000
# 4 0.0000 0.0000 0.0000 26.9123 -0.0001 0.0000
# 5 0.0000 -0.0001 -0.0001 -0.0001 197.6643 0.0000
# 6 0.0000 0.0000 0.0000 0.0000 0.0000 34.3620
#
#
#
# Elastic Compliance Matrix: (Units=1/GPa)
#
#
# Indices 1 2 3 4 5 6 
#
# 1 0.009688 -0.005183 -0.004641 0.000000 0.000000 0.000000
# 2 -0.005183 0.012466 0.003008 0.000000 0.000000 0.000000
# 3 -0.004641 0.003008 0.016556 0.000000 0.000000 0.000000
# 4 0.000000 0.000000 0.000000 0.037158 0.000000 0.000000
# 5 0.000000 0.000000 0.000000 0.000000 0.005059 0.000000
# 6 0.000000 0.000000 0.000000 0.000000 0.000000 0.029102
#
#
# Mechanical properties :
#
#
# Convention : Reuss Voigt Hill
#
# Bulk Modulus (GPa) = 39.87501 53.61185 46.74343
# Shear Modulus (GPa) = 37.87329 67.72308 52.79818
#
# Velocity S-wave (km/s) = 4.41087 5.89829 5.20796
# Velocity P-wave (km/s) = 6.81360 8.59810 7.75733
#
# Compressibility (1/GPa) = 0.02507836
#
# Stress axis : x y z
#
# Youngs Moduli (GPa) = 103.21803 80.21962 60.40243
#
# Poissons Ratio (x) = 0.41578 0.28033
# Poissons Ratio (y) = 0.53498 -0.18172
# Poissons Ratio (z) = 0.47904 -0.24134
#
# Static dielectric constant tensor:
#      x y z
#    x 1.073990 0.000000 0.000000 
#    y 0.000000 2.085230 0.000000 
#    z 0.000000 0.000000 1.685350 
# 
# From -- ./inp_files/14214.got.cif
#   From: 2010.05.17/outbox.cif.g08.bks.cpg/sg46_8_cif.got.tgz:14214.got - 2010.06.03 19:58:25.
