data_PCOD9380847
_publ_section_title
;
Structure prediction by ZEFSAII (Michael W. Deem and Ramdas Pophale) SiO2 
 PCOD9380847
Probable space group: I M A 2
;
_chemical_formula_sum "Si O2"
_cell_formula_units_Z 32
_cell_length_a 10.654156
_cell_length_b 16.744426
_cell_length_c 7.494229
_cell_angle_alpha 90.000000
_cell_angle_beta 90.000000
_cell_angle_gamma 90.000000
_cell_volume 1336.953417
_symmetry_space_group_name_H-M "I M A 2"
_symmetry_group_IT_number 46
_symmetry_cell_setting 'orthorhombic'
loop_
_space_group_symop_operation_xyz
x,y,z
-x,-y,z
1/2-x,y,z
1/2+x,-y,z
1/2+x,1/2+y,1/2+z
1/2-x,1/2-y,1/2+z
-x,1/2+y,1/2+z
x,1/2-y,1/2+z
loop_
_atom_site_type_symbol
_atom_site_label
_atom_site_fract_x
_atom_site_fract_y
_atom_site_fract_z
Si Si1 0.534852 0.702719 0.724270
Si Si2 0.750000 0.902813 0.394094
Si Si3 0.250000 0.332066 0.239896
Si Si4 0.500000 0.000000 0.831365
Si Si5 0.250000 0.045103 0.029551
Si Si6 0.398143 0.843615 0.871632
O O1 0.622601 0.644728 0.840477
O O2 0.633083 0.775589 0.693846
O O3 0.421257 0.752782 0.808288
O O4 0.476597 0.656683 0.556708
O O5 0.750000 0.908453 0.606884
O O6 0.750000 0.969035 0.241253
O O7 0.250000 0.363625 0.444081
O O8 0.376577 0.011626 0.949233
O O9 0.537426 0.086421 0.748993
O O10 0.250000 0.856643 0.888755
#
# Coordination Sequence:
#
# PCOD9380847 Si02
#       6
#     8   4   4   4   4   8
#     4  11  21  38  62  98 125 163 224 268 326 394
#     4  11  21  38  70  98 124 159 223 280 317 389
#     4  11  21  38  70  98 124 159 223 280 317 389
#     4  12  24  40  66  92 130 174 222 260 332 400
#     4  12  24  46  68  94 134 178 214 272 332 392
#     4  12  24  40  64  93 134 174 214 275 335 387
#
# _framework density 23.935016999999998
#
# number of rings (size 3 to 8) (size 9 to 14) (size 15 to 20)
#    0.000    0.500    8.750    0.750    3.500    0.000 
#    0.000    1.250    5.500    0.000    0.000    0.000 
#    0.000    0.000    0.000    0.000    0.000    0.000 
#
# Total GULP energy -89137.037935 kJ/mol
# GULP energy per Si atom -5571.064871 kJ/mol
# Density = 2.388054 g / cm^3
# Si number density = 23.935017 Si / 1000 Ang^3
#
#
#
# Elastic Constant Matrix: (Units=GPa)
#
#
# Indices 1 2 3 4 5 6 
#
# 1 178.4556 33.7213 5.0333 0.0000 0.0000 0.0000
# 2 33.7213 64.0436 -12.0689 0.0000 0.0000 0.0000
# 3 5.0333 -12.0689 50.3215 0.0002 -0.0001 0.0000
# 4 0.0000 0.0000 0.0002 23.6098 0.0000 0.0000
# 5 0.0000 0.0000 -0.0001 0.0000 13.4390 0.0000
# 6 0.0000 0.0000 0.0000 0.0000 0.0000 47.9389
#
#
#
# Elastic Compliance Matrix: (Units=1/GPa)
#
#
# Indices 1 2 3 4 5 6 
#
# 1 0.006329 -0.003615 -0.001500 0.000000 0.000000 0.000000
# 2 -0.003615 0.018418 0.004779 0.000000 0.000000 0.000000
# 3 -0.001500 0.004779 0.021168 0.000000 0.000000 0.000000
# 4 0.000000 0.000000 0.000000 0.042355 0.000000 0.000000
# 5 0.000000 0.000000 0.000000 0.000000 0.074410 0.000000
# 6 0.000000 0.000000 0.000000 0.000000 0.000000 0.020860
#
#
# Mechanical properties :
#
#
# Convention : Reuss Voigt Hill
#
# Bulk Modulus (GPa) = 22.10263 38.46578 30.28420
# Shear Modulus (GPa) = 25.08842 34.73988 29.91415
#
# Velocity S-wave (km/s) = 3.24109 3.81389 3.53910
# Velocity P-wave (km/s) = 4.82293 5.95820 5.42037
#
# Compressibility (1/GPa) = 0.04524349
#
# Stress axis : x y z
#
# Youngs Moduli (GPa) = 158.00093 54.29331 47.24009
#
# Poissons Ratio (x) = 0.19628 0.07087
# Poissons Ratio (y) = 0.57120 -0.22576
# Poissons Ratio (z) = 0.23702 -0.25947
#
# Static dielectric constant tensor:
#      x y z
#    x 1.895230 0.000000 0.000000 
#    y 0.000000 2.038930 0.000000 
#    z 0.000000 0.000000 1.975380 
# 
# From -- ./inp_files/4316.got.cif
#   From: 2010.05.17/outbox.cif.g08.bks.cpg/sg46_3_cif.got.tgz:4316.got - 2010.06.03 19:58:25.
