data_PCOD9380610
_publ_section_title
;
Structure prediction by ZEFSAII (Michael W. Deem and Ramdas Pophale) SiO2 
 PCOD9380610
Probable space group: I M A 2
;
_chemical_formula_sum "Si O2"
_cell_formula_units_Z 32
_cell_length_a 11.357155
_cell_length_b 20.160027
_cell_length_c 4.915301
_cell_angle_alpha 90.000000
_cell_angle_beta 90.000000
_cell_angle_gamma 90.000000
_cell_volume 1125.410027
_symmetry_space_group_name_H-M "I M A 2"
_symmetry_group_IT_number 46
_symmetry_cell_setting 'orthorhombic'
loop_
_space_group_symop_operation_xyz
x,y,z
-x,-y,z
1/2-x,y,z
1/2+x,-y,z
1/2+x,1/2+y,1/2+z
1/2-x,1/2-y,1/2+z
-x,1/2+y,1/2+z
x,1/2-y,1/2+z
loop_
_atom_site_type_symbol
_atom_site_label
_atom_site_fract_x
_atom_site_fract_y
_atom_site_fract_z
Si Si1 0.620322 0.344487 0.250000
Si Si2 0.070382 0.206654 0.072529
Si Si3 0.875693 0.497381 0.415410
Si Si4 0.882459 0.610694 0.971646
O O1 0.750000 0.324099 0.150964
O O2 0.568985 0.300813 0.499232
O O3 0.632852 0.420203 0.344765
O O4 0.504476 0.351977 0.058624
O O5 0.112910 0.253322 0.313162
O O6 0.111103 0.132070 0.149697
O O7 0.750000 0.513573 0.554785
O O8 0.000000 0.500000 0.573625
O O9 0.887973 0.541231 0.138620
O O10 0.750000 0.632690 0.047598
#
# Coordination Sequence:
#
# PCOD9380610 Si02
#       4
#     8   8   8   8
#     4  10  22  44  76 114 154 204 263 328 399 472
#     4  12  26  48  71 107 150 208 260 318 380 464
#     4   8  16  36  68 106 148 192 248 318 390 460
#     4  10  22  44  76 114 154 204 263 328 399 472
#
# _framework density 28.434079000000001
#
# number of rings (size 3 to 8) (size 9 to 14) (size 15 to 20)
#    0.000    2.000    2.500    0.000    0.000    4.000 
#    0.000   11.250    0.000   42.000    0.000    0.000 
#    0.000    0.000    0.000    0.000    0.000    0.000 
#
# Total GULP energy -89078.195159 kJ/mol
# GULP energy per Si atom -5567.387197 kJ/mol
# Density = 2.836936 g / cm^3
# Si number density = 28.434079 Si / 1000 Ang^3
#
#
#
# Elastic Constant Matrix: (Units=GPa)
#
#
# Indices 1 2 3 4 5 6 
#
# 1 315.5933 28.5050 36.4872 -0.0002 0.0002 0.0002
# 2 28.5050 105.4544 41.7409 -0.0069 0.0017 0.0010
# 3 36.4872 41.7409 136.5599 -0.0094 0.0095 0.0068
# 4 -0.0002 -0.0069 -0.0094 41.1027 0.0024 0.0009
# 5 0.0002 0.0017 0.0095 0.0024 32.7698 -0.0009
# 6 0.0002 0.0010 0.0068 0.0009 -0.0009 43.9394
#
#
#
# Elastic Compliance Matrix: (Units=1/GPa)
#
#
# Indices 1 2 3 4 5 6 
#
# 1 0.003305 -0.000619 -0.000694 0.000000 0.000000 0.000000
# 2 -0.000619 0.010904 -0.003168 0.000001 0.000000 0.000000
# 3 -0.000694 -0.003168 0.008476 0.000001 -0.000002 -0.000001
# 4 0.000000 0.000001 0.000001 0.024329 -0.000002 0.000000
# 5 0.000000 0.000000 -0.000002 -0.000002 0.030516 0.000001
# 6 0.000000 0.000000 -0.000001 0.000000 0.000001 0.022759
#
#
# Mechanical properties :
#
#
# Convention : Reuss Voigt Hill
#
# Bulk Modulus (GPa) = 72.86118 85.67485 79.26802
# Shear Modulus (GPa) = 43.92755 53.62068 48.77411
#
# Velocity S-wave (km/s) = 3.93477 4.34728 4.14616
# Velocity P-wave (km/s) = 6.80614 7.44277 7.13156
#
# Compressibility (1/GPa) = 0.01372473
#
# Stress axis : x y z
#
# Youngs Moduli (GPa) = 302.59606 91.71135 117.97468
#
# Poissons Ratio (x) = 0.05674 0.08186
# Poissons Ratio (y) = 0.18720 0.37369
# Poissons Ratio (z) = 0.20997 0.29050
#
# Static dielectric constant tensor:
#      x y z
#    x 2.231500 0.000000 0.000000 
#    y 0.000000 2.289010 -0.000010 
#    z 0.000000 -0.000010 2.503270 
# 
# From -- ./inp_files/716.got.cif
#   From: 2010.05.17/outbox.cif.g08.bks.cpg/sg46_1_cif.got.tgz:716.got - 2010.06.03 19:58:25.
