data_PCOD9380734
_publ_section_title
;
Structure prediction by ZEFSAII (Michael W. Deem and Ramdas Pophale) SiO2 
 PCOD9380734
Probable space group: I M A 2
;
_chemical_formula_sum "Si O2"
_cell_formula_units_Z 28
_cell_length_a 24.382510
_cell_length_b 8.861376
_cell_length_c 5.484219
_cell_angle_alpha 90.000000
_cell_angle_beta 90.000000
_cell_angle_gamma 90.000000
_cell_volume 1184.934555
_symmetry_space_group_name_H-M "I M A 2"
_symmetry_group_IT_number 46
_symmetry_cell_setting 'orthorhombic'
loop_
_space_group_symop_operation_xyz
x,y,z
-x,-y,z
1/2-x,y,z
1/2+x,-y,z
1/2+x,1/2+y,1/2+z
1/2-x,1/2-y,1/2+z
-x,1/2+y,1/2+z
x,1/2-y,1/2+z
loop_
_atom_site_type_symbol
_atom_site_label
_atom_site_fract_x
_atom_site_fract_y
_atom_site_fract_z
Si Si1 0.162249 0.716035 0.771120
Si Si2 0.023799 0.166995 0.654604
Si Si3 0.250000 0.343954 0.237756
Si Si4 0.865882 0.513442 0.109061
O O1 0.192080 0.734220 0.517310
O O2 0.118541 0.853709 0.740855
O O3 0.140229 0.549955 0.831459
O O4 0.008551 0.241079 0.912051
O O5 0.089628 0.139973 0.646411
O O6 0.000000 0.000000 0.633998
O O7 0.250000 0.272477 0.507936
O O8 0.193783 0.436350 0.199458
#
# Coordination Sequence:
#
# PCOD9380734 Si02
#       4
#     8   8   4   8
#     4   8  20  35  66  92 130 166 220 271 338 400
#     4  12  29  46  76 102 144 184 237 287 354 412
#     4  12  28  40  64  92 136 178 224 276 340 414
#     4  10  24  43  69  98 138 172 229 276 353 399
#
# _framework density 23.629999999999999
#
# number of rings (size 3 to 8) (size 9 to 14) (size 15 to 20)
#    1.714    0.000    0.000    2.571   12.000    1.143 
#    0.000    0.000    0.000    0.000    0.000    0.000 
#    0.000    0.000    0.000    0.000    0.000    0.000 
#
# Total GULP energy -77957.521566 kJ/mol
# GULP energy per Si atom -5568.394398 kJ/mol
# Density = 2.357622 g / cm^3
# Si number density = 23.630000 Si / 1000 Ang^3
#
#
#
# Elastic Constant Matrix: (Units=GPa)
#
#
# Indices 1 2 3 4 5 6 
#
# 1 70.6696 12.8967 11.6849 0.0000 0.0000 0.0000
# 2 12.8967 84.2588 25.1653 0.0001 0.0000 0.0000
# 3 11.6849 25.1653 155.5584 0.0002 0.0000 0.0001
# 4 0.0000 0.0001 0.0002 68.6211 0.0000 0.0000
# 5 0.0000 0.0000 0.0000 0.0000 6.7896 0.0000
# 6 0.0000 0.0000 0.0001 0.0000 0.0000 -4.8715
#
#
#
# Elastic Compliance Matrix: (Units=1/GPa)
#
#
# Indices 1 2 3 4 5 6 
#
# 1 0.014645 -0.002010 -0.000775 0.000000 0.000000 0.000000
# 2 -0.002010 0.012747 -0.001911 0.000000 0.000000 0.000000
# 3 -0.000775 -0.001911 0.006796 0.000000 0.000000 0.000000
# 4 0.000000 0.000000 0.000000 0.014573 0.000000 0.000000
# 5 0.000000 0.000000 0.000000 0.000000 0.147284 0.000000
# 6 0.000000 0.000000 0.000000 0.000000 0.000000 -0.205277
#
#
# Mechanical properties :
#
#
# Convention : Reuss Voigt Hill
#
# Bulk Modulus (GPa) = 40.32996 45.55341 42.94169
# Shear Modulus (GPa) = 593.47912 31.49050 312.48481
#
# Velocity S-wave (km/s) = 15.86506 3.65451 11.51207
# Velocity P-wave (km/s) = 18.78043 6.09318 13.96122
#
# Compressibility (1/GPa) = 0.02479546
#
# Stress axis : x y z
#
# Youngs Moduli (GPa) = 68.28112 78.45198 147.14914
#
# Poissons Ratio (x) = 0.15770 0.11403
# Poissons Ratio (y) = 0.13726 0.28121
# Poissons Ratio (z) = 0.05291 0.14993
#
# Static dielectric constant tensor:
#      x y z
#    x 1.778030 0.000000 0.000000 
#    y 0.000000 1.933230 0.000000 
#    z 0.000000 0.000000 1.963770 
# 
# From -- ./inp_files/2652.got.cif
#   From: 2010.05.17/outbox.cif.g08.bks.cpg/sg46_2_cif.got.tgz:2652.got - 2010.06.03 19:58:25.
