data_PCOD9380587
_publ_section_title
;
Structure prediction by ZEFSAII (Michael W. Deem and Ramdas Pophale) SiO2 
 PCOD9380587
Probable space group: I M A 2
;
_chemical_formula_sum "Si O2"
_cell_formula_units_Z 48
_cell_length_a 15.816493
_cell_length_b 14.994488
_cell_length_c 8.449108
_cell_angle_alpha 90.000000
_cell_angle_beta 90.000000
_cell_angle_gamma 90.000000
_cell_volume 2003.792266
_symmetry_space_group_name_H-M "I M A 2"
_symmetry_group_IT_number 46
_symmetry_cell_setting 'orthorhombic'
loop_
_space_group_symop_operation_xyz
x,y,z
-x,-y,z
1/2-x,y,z
1/2+x,-y,z
1/2+x,1/2+y,1/2+z
1/2-x,1/2-y,1/2+z
-x,1/2+y,1/2+z
x,1/2-y,1/2+z
loop_
_atom_site_type_symbol
_atom_site_label
_atom_site_fract_x
_atom_site_fract_y
_atom_site_fract_z
Si Si1 0.647689 0.531875 0.694620
Si Si2 0.590489 0.215092 0.715753
Si Si3 0.346750 0.867993 0.397892
Si Si4 0.653250 0.632006 0.147695
Si Si5 0.409509 0.284910 0.829833
Si Si6 0.352312 0.531877 0.350967
O O1 0.750000 0.530743 0.697211
O O2 0.620256 0.461768 0.830337
O O3 0.616047 0.630459 0.725497
O O4 0.618970 0.500000 0.522793
O O5 0.601593 0.177932 0.538863
O O6 0.650984 0.298722 0.751909
O O7 0.499999 0.250002 0.772791
O O8 0.616041 0.130460 0.820091
O O9 0.250000 0.879848 0.453853
O O10 0.750000 0.620152 0.091734
O O11 0.650984 0.701278 0.293678
O O12 0.620257 0.538231 0.215250
O O13 0.601593 0.677931 0.006723
O O14 0.250000 0.530750 0.348373
#
# Coordination Sequence:
#
# PCOD9380587 Si02
#       6
#     8   8   8   8   8   8
#     4  10  22  43  72 102 134 180 238 293 344 413
#     4  12  25  42  65 100 141 179 222 285 358 420
#     4  11  23  42  70  99 134 183 236 287 342 417
#     4  11  23  42  70  99 134 183 236 287 342 417
#     4  12  25  42  65 100 141 179 222 285 358 420
#     4  10  22  43  72 102 134 180 238 293 344 413
#
# _framework density 23.95458
#
# number of rings (size 3 to 8) (size 9 to 14) (size 15 to 20)
#    0.000    1.000    0.000    7.000    0.000    6.667 
#    0.000    5.000    0.000    0.000    0.000    0.000 
#    0.000    0.000    0.000    0.000    0.000    0.000 
#
# Total GULP energy -134434.115794 kJ/mol
# GULP energy per Si atom -5601.421491 kJ/mol
# Density = 2.390006 g / cm^3
# Si number density = 23.954580 Si / 1000 Ang^3
#
#
#
# Elastic Constant Matrix: (Units=GPa)
#
#
# Indices 1 2 3 4 5 6 
#
# 1 61.0056 -0.0439 18.1258 0.0000 0.0000 0.0000
# 2 -0.0439 114.9731 -0.4023 0.0000 0.0000 0.0000
# 3 18.1258 -0.4023 89.5553 0.0000 0.0000 0.0000
# 4 0.0000 0.0000 0.0000 56.3943 0.0000 0.0000
# 5 0.0000 0.0000 0.0000 0.0000 29.7276 0.0000
# 6 0.0000 0.0000 0.0000 0.0000 0.0000 46.7314
#
#
#
# Elastic Compliance Matrix: (Units=1/GPa)
#
#
# Indices 1 2 3 4 5 6 
#
# 1 0.017441 -0.000006 -0.003530 0.000000 0.000000 0.000000
# 2 -0.000006 0.008698 0.000040 0.000000 0.000000 0.000000
# 3 -0.003530 0.000040 0.011881 0.000000 0.000000 0.000000
# 4 0.000000 0.000000 0.000000 0.017732 0.000000 0.000000
# 5 0.000000 0.000000 0.000000 0.000000 0.033639 0.000000
# 6 0.000000 0.000000 0.000000 0.000000 0.000000 0.021399
#
#
# Mechanical properties :
#
#
# Convention : Reuss Voigt Hill
#
# Bulk Modulus (GPa) = 32.22835 33.43258 32.83046
# Shear Modulus (GPa) = 39.02492 43.09429 41.05960
#
# Velocity S-wave (km/s) = 4.04062 4.24606 4.14461
# Velocity P-wave (km/s) = 5.93733 6.16650 6.05300
#
# Compressibility (1/GPa) = 0.03102858
#
# Stress axis : x y z
#
# Youngs Moduli (GPa) = 57.33692 114.97127 84.16848
#
# Poissons Ratio (x) = 0.00065 0.29712
# Poissons Ratio (y) = 0.00033 -0.00339
# Poissons Ratio (z) = 0.20240 -0.00463
#
# Static dielectric constant tensor:
#      x y z
#    x 1.959220 0.000000 0.000000 
#    y 0.000000 1.842870 0.000000 
#    z 0.000000 0.000000 1.968950 
# 
# From -- ./inp_files/6589.got.cif
#   From: 2010.05.17/outbox.cif.g08.bks.cpg/sg46_4_cif.got.tgz:6589.got - 2010.06.03 19:58:25.
