data_PCOD9380487
_publ_section_title
;
Structure prediction by ZEFSAII (Michael W. Deem and Ramdas Pophale) SiO2 
 PCOD9380487
Probable space group: I M A 2
;
_chemical_formula_sum "Si O2"
_cell_formula_units_Z 48
_cell_length_a 14.476455
_cell_length_b 16.199124
_cell_length_c 9.715175
_cell_angle_alpha 90.000000
_cell_angle_beta 90.000000
_cell_angle_gamma 90.000000
_cell_volume 2278.265756
_symmetry_space_group_name_H-M "I M A 2"
_symmetry_group_IT_number 46
_symmetry_cell_setting 'orthorhombic'
loop_
_space_group_symop_operation_xyz
x,y,z
-x,-y,z
1/2-x,y,z
1/2+x,-y,z
1/2+x,1/2+y,1/2+z
1/2-x,1/2-y,1/2+z
-x,1/2+y,1/2+z
x,1/2-y,1/2+z
loop_
_atom_site_type_symbol
_atom_site_label
_atom_site_fract_x
_atom_site_fract_y
_atom_site_fract_z
Si Si1 0.650430 0.167058 0.058120
Si Si2 0.965524 0.585113 0.991829
Si Si3 0.465524 0.085113 0.948763
Si Si4 0.361795 0.192151 0.720296
Si Si5 0.849570 0.167056 0.382470
Si Si6 0.640517 0.609685 0.720296
O O1 0.750000 0.122966 0.038898
O O2 0.560099 0.123111 0.004590
O O3 0.641109 0.184585 0.220295
O O4 0.655034 0.250002 0.970297
O O5 0.000000 0.500000 0.058997
O O6 0.909526 0.647175 0.090283
O O7 0.060099 0.623109 0.935998
O O8 0.903068 0.570673 0.856847
O O9 0.403071 0.070673 0.083747
O O10 0.500000 0.000000 0.881596
O O11 0.409524 0.147174 0.850310
O O12 0.250000 0.180972 0.720295
O O13 0.379711 0.290872 0.720297
O O14 0.750000 0.122964 0.401690
O O15 0.750000 0.600142 0.720294
#
# Coordination Sequence:
#
# PCOD9380487 Si02
#       6
#     8   8   8   8   8   8
#     4  10  22  40  64  93 126 169 216 261 313 380
#     4  12  25  42  63 100 132 170 210 267 336 386
#     4  12  25  42  63 100 132 170 210 267 336 386
#     4  11  25  46  69  95 129 175 226 269 318 386
#     4  10  22  40  64  93 126 169 216 261 313 380
#     4  11  23  42  71  97 127 171 224 273 320 384
#
# _framework density 21.068659
#
# number of rings (size 3 to 8) (size 9 to 14) (size 15 to 20)
#    0.000    1.000    1.667    5.000    2.333    5.333 
#    0.000    0.000    0.000    0.000    0.000    0.000 
#    0.000    0.000    0.000    0.000    0.000    0.000 
#
# Total GULP energy -134136.090507 kJ/mol
# GULP energy per Si atom -5589.003771 kJ/mol
# Density = 2.102071 g / cm^3
# Si number density = 21.068659 Si / 1000 Ang^3
#
#
#
# Elastic Constant Matrix: (Units=GPa)
#
#
# Indices 1 2 3 4 5 6 
#
# 1 166.3303 41.5254 48.6830 0.0000 0.0000 0.0000
# 2 41.5254 68.0246 13.7927 0.0000 0.0000 0.0000
# 3 48.6830 13.7927 104.0560 0.0000 0.0000 0.0000
# 4 0.0000 0.0000 0.0000 11.2002 0.0000 0.0000
# 5 0.0000 0.0000 0.0000 0.0000 41.3277 0.0000
# 6 0.0000 0.0000 0.0000 0.0000 0.0000 -9.0024
#
#
#
# Elastic Compliance Matrix: (Units=1/GPa)
#
#
# Indices 1 2 3 4 5 6 
#
# 1 0.008002 -0.004240 -0.003182 0.000000 0.000000 0.000000
# 2 -0.004240 0.017353 -0.000317 0.000000 0.000000 0.000000
# 3 -0.003182 -0.000317 0.011141 0.000000 0.000000 0.000000
# 4 0.000000 0.000000 0.000000 0.089284 0.000000 0.000000
# 5 0.000000 0.000000 0.000000 0.000000 0.024197 0.000000
# 6 0.000000 0.000000 0.000000 0.000000 0.000000 -0.111082
#
#
# Mechanical properties :
#
#
# Convention : Reuss Voigt Hill
#
# Bulk Modulus (GPa) = 47.57480 60.71258 54.14369
# Shear Modulus (GPa) = 81.46454 24.33243 52.89849
#
# Velocity S-wave (km/s) = 6.22496 3.40209 5.01619
# Velocity P-wave (km/s) = 8.61956 6.65668 7.70091
#
# Compressibility (1/GPa) = 0.02101953
#
# Stress axis : x y z
#
# Youngs Moduli (GPa) = 124.97149 57.62765 89.76050
#
# Poissons Ratio (x) = 0.24432 0.28559
# Poissons Ratio (y) = 0.52982 0.02842
# Poissons Ratio (z) = 0.39763 0.01825
#
# Static dielectric constant tensor:
#      x y z
#    x 1.768300 0.000000 0.000000 
#    y 0.000000 1.769450 0.000000 
#    z 0.000000 0.000000 1.740290 
# 
# From -- ./inp_files/5720.got.cif
#   From: 2010.05.17/outbox.cif.g08.bks.cpg/sg46_3_cif.got.tgz:5720.got - 2010.06.03 19:58:25.
