data_PCOD9380684
_publ_section_title
;
Structure prediction by ZEFSAII (Michael W. Deem and Ramdas Pophale) SiO2 
 PCOD9380684
Probable space group: I M A 2
;
_chemical_formula_sum "Si O2"
_cell_formula_units_Z 48
_cell_length_a 16.904242
_cell_length_b 14.421454
_cell_length_c 8.352089
_cell_angle_alpha 90.000000
_cell_angle_beta 90.000000
_cell_angle_gamma 90.000000
_cell_volume 2036.103563
_symmetry_space_group_name_H-M "I M A 2"
_symmetry_group_IT_number 46
_symmetry_cell_setting 'orthorhombic'
loop_
_space_group_symop_operation_xyz
x,y,z
-x,-y,z
1/2-x,y,z
1/2+x,-y,z
1/2+x,1/2+y,1/2+z
1/2-x,1/2-y,1/2+z
-x,1/2+y,1/2+z
x,1/2-y,1/2+z
loop_
_atom_site_type_symbol
_atom_site_label
_atom_site_fract_x
_atom_site_fract_y
_atom_site_fract_z
Si Si1 0.089916 0.528713 0.024630
Si Si2 0.587658 0.786446 0.014021
Si Si3 0.841379 0.561553 0.709833
Si Si4 0.159838 0.863581 0.098672
Si Si5 0.842178 0.879632 0.709718
Si Si6 0.416884 0.773366 0.399112
O O1 0.116506 0.478623 0.186271
O O2 0.000000 0.500000 0.990353
O O3 0.142232 0.483919 0.882531
O O4 0.095792 0.639035 0.017688
O O5 0.597211 0.858559 0.161606
O O6 0.619620 0.689442 0.079346
O O7 0.642449 0.832441 0.879547
O O8 0.502848 0.769574 0.933257
O O9 0.750000 0.594947 0.701970
O O10 0.852198 0.473626 0.591972
O O11 0.250000 0.850422 0.155527
O O12 0.099624 0.818395 0.226863
O O13 0.144734 0.807589 0.937592
O O14 0.750000 0.888823 0.681111
#
# Coordination Sequence:
#
# PCOD9380684 Si02
#       6
#     8   8   8   8   8   8
#     4  11  24  44  67  94 134 175 228 273 333 399
#     4  12  25  43  70 103 142 174 224 282 344 412
#     4  10  23  43  69  99 132 177 224 275 339 407
#     4  10  23  43  67  96 131 174 226 275 332 402
#     4  12  25  43  69 102 139 180 224 279 340 409
#     4  11  24  42  68  96 131 176 221 278 339 397
#
# _framework density 23.574438000000001
#
# number of rings (size 3 to 8) (size 9 to 14) (size 15 to 20)
#    0.000    1.000    1.667    4.500    4.667    3.333 
#    0.000    0.000    0.000    0.000    0.000    0.000 
#    0.000    0.000    0.000    0.000    0.000    0.000 
#
# Total GULP energy -134363.423075 kJ/mol
# GULP energy per Si atom -5598.475961 kJ/mol
# Density = 2.352078 g / cm^3
# Si number density = 23.574438 Si / 1000 Ang^3
#
#
#
# Elastic Constant Matrix: (Units=GPa)
#
#
# Indices 1 2 3 4 5 6 
#
# 1 116.7466 27.1205 6.0918 0.0000 0.0000 0.0000
# 2 27.1205 96.7734 -0.9897 0.0000 0.0000 0.0000
# 3 6.0918 -0.9897 38.0821 0.0000 0.0000 0.0000
# 4 0.0000 0.0000 0.0000 37.4455 0.0000 0.0000
# 5 0.0000 0.0000 0.0000 0.0000 32.8240 0.0000
# 6 0.0000 0.0000 0.0000 0.0000 0.0000 26.7062
#
#
#
# Elastic Compliance Matrix: (Units=1/GPa)
#
#
# Indices 1 2 3 4 5 6 
#
# 1 0.009252 -0.002609 -0.001548 0.000000 0.000000 0.000000
# 2 -0.002609 0.011072 0.000705 0.000000 0.000000 0.000000
# 3 -0.001548 0.000705 0.026525 0.000000 0.000000 0.000000
# 4 0.000000 0.000000 0.000000 0.026705 0.000000 0.000000
# 5 0.000000 0.000000 0.000000 0.000000 0.030466 0.000000
# 6 0.000000 0.000000 0.000000 0.000000 0.000000 0.037444
#
#
# Mechanical properties :
#
#
# Convention : Reuss Voigt Hill
#
# Bulk Modulus (GPa) = 25.03385 35.11636 30.07511
# Shear Modulus (GPa) = 30.92472 34.02045 32.47258
#
# Velocity S-wave (km/s) = 3.62579 3.80295 3.71543
# Velocity P-wave (km/s) = 5.30760 5.84906 5.58490
#
# Compressibility (1/GPa) = 0.03994592
#
# Stress axis : x y z
#
# Youngs Moduli (GPa) = 108.08065 90.32013 37.70031
#
# Poissons Ratio (x) = 0.23563 0.05835
# Poissons Ratio (y) = 0.28196 -0.02658
# Poissons Ratio (z) = 0.16729 -0.06368
#
# Static dielectric constant tensor:
#      x y z
#    x 1.834500 0.000000 0.000000 
#    y 0.000000 1.881890 0.000000 
#    z 0.000000 0.000000 1.956970 
# 
# From -- ./inp_files/6581.got.cif
#   From: 2010.05.17/outbox.cif.g08.bks.cpg/sg46_4_cif.got.tgz:6581.got - 2010.06.03 19:58:25.
