data_PCOD9380043
_publ_section_title
;
Structure prediction by ZEFSAII (Michael W. Deem and Ramdas Pophale) SiO2 
 PCOD9380043
Probable space group: I M A 2
;
_chemical_formula_sum "Si O2"
_cell_formula_units_Z 48
_cell_length_a 8.713274
_cell_length_b 29.529980
_cell_length_c 10.433068
_cell_angle_alpha 90.000000
_cell_angle_beta 90.000000
_cell_angle_gamma 90.000000
_cell_volume 2684.457682
_symmetry_space_group_name_H-M "I M A 2"
_symmetry_group_IT_number 46
_symmetry_cell_setting 'orthorhombic'
loop_
_space_group_symop_operation_xyz
x,y,z
-x,-y,z
1/2-x,y,z
1/2+x,-y,z
1/2+x,1/2+y,1/2+z
1/2-x,1/2-y,1/2+z
-x,1/2+y,1/2+z
x,1/2-y,1/2+z
loop_
_atom_site_type_symbol
_atom_site_label
_atom_site_fract_x
_atom_site_fract_y
_atom_site_fract_z
Si Si1 0.434074 0.386945 0.312290
Si Si2 0.433898 0.550410 0.089620
Si Si3 0.433926 0.886990 0.091366
Si Si4 0.932671 0.280776 0.586111
Si Si5 0.067312 0.280467 0.309729
Si Si6 0.066188 0.050371 0.313725
O O1 0.250000 0.392336 0.312329
O O2 0.508480 0.416852 0.201419
O O3 0.500941 0.399565 0.451508
O O4 0.469787 0.333721 0.291467
O O5 0.500000 0.500000 0.111939
O O6 0.250000 0.548752 0.084890
O O7 0.499442 0.565388 0.951453
O O8 0.250000 0.892638 0.093258
O O9 0.469572 0.833700 0.110998
O O10 0.510106 0.916789 0.201621
O O11 0.750000 0.277042 0.572802
O O12 0.009627 0.267708 0.451394
O O13 0.990389 0.249805 0.701217
O O14 0.250000 0.275341 0.303126
O O15 0.250000 0.048553 0.319764
O O16 0.000000 0.000000 0.290824
#
# Coordination Sequence:
#
# PCOD9380043 Si02
#       6
#     8   8   8   8   8   8
#     4  10  21  38  58  83 112 145 184 228 275 326
#     4  11  22  38  59  83 112 146 183 227 274 326
#     4  10  21  38  58  83 112 145 184 228 275 326
#     4  10  21  37  58  82 112 146 184 228 275 326
#     4  10  21  37  58  82 112 146 184 228 275 326
#     4  11  22  38  59  83 112 146 183 227 274 326
#
# _framework density 17.880706
#
# number of rings (size 3 to 8) (size 9 to 14) (size 15 to 20)
#    0.000    1.667    0.000    6.000    0.000    6.000 
#    0.000    3.333    0.000    0.000    0.000    0.000 
#    0.000    0.000    0.000    0.000    0.000    0.000 
#
# Total GULP energy -134128.255381 kJ/mol
# GULP energy per Si atom -5588.677308 kJ/mol
# Density = 1.784001 g / cm^3
# Si number density = 17.880706 Si / 1000 Ang^3
#
#
#
# Elastic Constant Matrix: (Units=GPa)
#
#
# Indices 1 2 3 4 5 6 
#
# 1 106.8492 44.4597 60.3210 0.0000 0.0000 0.0000
# 2 44.4597 56.5091 76.3977 0.0000 0.0000 0.0000
# 3 60.3210 76.3977 140.6647 0.0005 0.0000 0.0000
# 4 0.0000 0.0000 0.0005 42.7811 0.0000 0.0000
# 5 0.0000 0.0000 0.0000 0.0000 40.3747 0.0000
# 6 0.0000 0.0000 0.0000 0.0000 0.0000 30.4437
#
#
#
# Elastic Compliance Matrix: (Units=1/GPa)
#
#
# Indices 1 2 3 4 5 6 
#
# 1 0.013914 -0.010840 -0.000079 0.000000 0.000000 0.000000
# 2 -0.010840 0.075041 -0.036107 0.000000 0.000000 0.000000
# 3 -0.000079 -0.036107 0.026754 0.000000 0.000000 0.000000
# 4 0.000000 0.000000 0.000000 0.023375 0.000000 0.000000
# 5 0.000000 0.000000 0.000000 0.000000 0.024768 0.000000
# 6 0.000000 0.000000 0.000000 0.000000 0.000000 0.032847
#
#
# Mechanical properties :
#
#
# Convention : Reuss Voigt Hill
#
# Bulk Modulus (GPa) = 46.17896 74.04222 60.11059
# Shear Modulus (GPa) = 16.78015 30.90954 23.84485
#
# Velocity S-wave (km/s) = 3.06674 4.16222 3.65574
# Velocity P-wave (km/s) = 6.19855 8.03727 7.17704
#
# Compressibility (1/GPa) = 0.02165488
#
# Stress axis : x y z
#
# Youngs Moduli (GPa) = 71.86838 13.32614 37.37776
#
# Poissons Ratio (x) = 0.14445 0.00297
# Poissons Ratio (y) = 0.77905 1.34962
# Poissons Ratio (z) = 0.00571 0.48117
#
# Static dielectric constant tensor:
#      x y z
#    x 1.594110 0.000000 0.000000 
#    y 0.000000 1.593700 0.000000 
#    z 0.000000 0.000000 1.577040 
# 
# From -- ./inp_files/3946.got.cif
#   From: 2010.05.17/outbox.cif.g08.bks.cpg/sg46_2_cif.got.tgz:3946.got - 2010.06.03 19:58:25.
