data_PCOD9380987
_publ_section_title
;
Structure prediction by ZEFSAII (Michael W. Deem and Ramdas Pophale) SiO2 
 PCOD9380987
Probable space group: I M A 2
;
_chemical_formula_sum "Si O2"
_cell_formula_units_Z 56
_cell_length_a 19.145319
_cell_length_b 15.070994
_cell_length_c 8.633630
_cell_angle_alpha 90.000000
_cell_angle_beta 90.000000
_cell_angle_gamma 90.000000
_cell_volume 2491.138861
_symmetry_space_group_name_H-M "I M A 2"
_symmetry_group_IT_number 46
_symmetry_cell_setting 'orthorhombic'
loop_
_space_group_symop_operation_xyz
x,y,z
-x,-y,z
1/2-x,y,z
1/2+x,-y,z
1/2+x,1/2+y,1/2+z
1/2-x,1/2-y,1/2+z
-x,1/2+y,1/2+z
x,1/2-y,1/2+z
loop_
_atom_site_type_symbol
_atom_site_label
_atom_site_fract_x
_atom_site_fract_y
_atom_site_fract_z
Si Si1 0.389844 0.205668 0.491700
Si Si2 0.037293 0.807591 0.017395
Si Si3 0.078915 0.487942 0.057561
Si Si4 0.250000 0.782498 0.905211
Si Si5 0.750000 0.376952 0.731212
Si Si6 0.168965 0.358014 0.664212
Si Si7 0.884745 0.337927 0.211806
Si Si8 0.399268 0.968651 0.199936
O O1 0.463457 0.256882 0.513669
O O2 0.394640 0.111903 0.581228
O O3 0.333558 0.275859 0.549082
O O4 0.368771 0.177871 0.318870
O O5 0.092594 0.734956 0.084439
O O6 0.049918 0.896480 0.120610
O O7 0.055114 0.833431 0.842148
O O8 0.122094 0.565785 0.137079
O O9 0.000000 0.500000 0.114945
O O10 0.077198 0.507228 0.873041
O O11 0.250000 0.677003 0.890504
O O12 0.316787 0.814929 0.809990
O O13 0.250000 0.815143 0.079137
O O14 0.822625 0.426896 0.720135
O O15 0.250000 0.384351 0.692422
O O16 0.120502 0.440642 0.610114
#
# Coordination Sequence:
#
# PCOD9380987 Si02
#       8
#     8   8   8   4   4   8   8   8
#     4  11  26  45  72 103 135 185 237 293 363 412
#     4  12  24  43  72 102 146 180 235 298 357 426
#     4  11  26  46  70  99 140 182 238 294 357 432
#     4  12  24  40  66 101 147 190 238 283 357 423
#     4  12  24  44  64 103 145 192 240 281 359 433
#     4  11  25  49  73 101 139 185 238 295 352 437
#     4  12  24  42  66 102 144 187 230 292 351 426
#     4  11  25  43  72 101 139 189 234 295 358 427
#
# _framework density 22.479678
#
# number of rings (size 3 to 8) (size 9 to 14) (size 15 to 20)
#    0.000    0.571    5.000    2.143    6.000    1.143 
#    2.571    0.000    0.000    0.000    0.000    0.000 
#    0.000    0.000    0.000    0.000    0.000    0.000 
#
# Total GULP energy -156566.285553 kJ/mol
# GULP energy per Si atom -5591.653055 kJ/mol
# Density = 2.242851 g / cm^3
# Si number density = 22.479678 Si / 1000 Ang^3
#
#
#
# Elastic Constant Matrix: (Units=GPa)
#
#
# Indices 1 2 3 4 5 6 
#
# 1 105.0163 33.8971 15.8770 0.0000 0.0000 0.0000
# 2 33.8971 160.1050 27.6390 0.0000 0.0000 0.0000
# 3 15.8770 27.6390 28.2200 0.0000 0.0000 0.0000
# 4 0.0000 0.0000 0.0000 25.0763 0.0000 0.0000
# 5 0.0000 0.0000 0.0000 0.0000 24.1095 0.0000
# 6 0.0000 0.0000 0.0000 0.0000 0.0000 37.0129
#
#
#
# Elastic Compliance Matrix: (Units=1/GPa)
#
#
# Indices 1 2 3 4 5 6 
#
# 1 0.010689 -0.001474 -0.004570 0.000000 0.000000 0.000000
# 2 -0.001474 0.007720 -0.006732 0.000000 0.000000 0.000000
# 3 -0.004570 -0.006732 0.044600 0.000000 0.000000 0.000000
# 4 0.000000 0.000000 0.000000 0.039878 0.000000 0.000000
# 5 0.000000 0.000000 0.000000 0.000000 0.041477 0.000000
# 6 0.000000 0.000000 0.000000 0.000000 0.000000 0.027018
#
#
# Mechanical properties :
#
#
# Convention : Reuss Voigt Hill
#
# Bulk Modulus (GPa) = 26.69692 49.79637 38.24665
# Shear Modulus (GPa) = 23.87540 31.63497 27.75519
#
# Velocity S-wave (km/s) = 3.26251 3.75543 3.51761
# Velocity P-wave (km/s) = 5.10820 6.40345 5.79214
#
# Compressibility (1/GPa) = 0.03745750
#
# Stress axis : x y z
#
# Youngs Moduli (GPa) = 93.55347 129.53177 22.42138
#
# Poissons Ratio (x) = 0.19095 0.10247
# Poissons Ratio (y) = 0.13791 0.15094
# Poissons Ratio (z) = 0.42754 0.87198
#
# Static dielectric constant tensor:
#      x y z
#    x 1.855620 0.000000 0.000000 
#    y 0.000000 1.865870 0.000000 
#    z 0.000000 0.000000 1.803480 
# 
# From -- ./inp_files/7436.got.cif
#   From: 2010.05.17/outbox.cif.g08.bks.cpg/sg46_4_cif.got.tgz:7436.got - 2010.06.03 19:58:25.
