data_PCOD9380072
_publ_section_title
;
Structure prediction by ZEFSAII (Michael W. Deem and Ramdas Pophale) SiO2 
 PCOD9380072
Probable space group: I M A 2
;
_chemical_formula_sum "Si O2"
_cell_formula_units_Z 52
_cell_length_a 12.996930
_cell_length_b 17.139438
_cell_length_c 11.767659
_cell_angle_alpha 90.000000
_cell_angle_beta 90.000000
_cell_angle_gamma 90.000000
_cell_volume 2621.364612
_symmetry_space_group_name_H-M "I M A 2"
_symmetry_group_IT_number 46
_symmetry_cell_setting 'orthorhombic'
loop_
_space_group_symop_operation_xyz
x,y,z
-x,-y,z
1/2-x,y,z
1/2+x,-y,z
1/2+x,1/2+y,1/2+z
1/2-x,1/2-y,1/2+z
-x,1/2+y,1/2+z
x,1/2-y,1/2+z
loop_
_atom_site_type_symbol
_atom_site_label
_atom_site_fract_x
_atom_site_fract_y
_atom_site_fract_z
Si Si1 0.051612 0.749209 0.138410
Si Si2 0.500000 0.500000 0.126547
Si Si3 0.631899 0.842113 0.254763
Si Si4 0.011483 0.374752 0.955091
Si Si5 0.129832 0.968947 0.273200
Si Si6 0.125820 0.614106 0.288457
Si Si7 0.133790 0.899098 0.042871
O O1 0.089565 0.699337 0.246166
O O2 0.131032 0.811643 0.090357
O O3 0.947881 0.797551 0.171786
O O4 0.040515 0.686304 0.038881
O O5 0.423648 0.549891 0.204926
O O6 0.443207 0.439992 0.040808
O O7 0.750000 0.820804 0.231709
O O8 0.591900 0.825128 0.381716
O O9 0.627034 0.937054 0.266133
O O10 0.933539 0.421464 0.869714
O O11 0.250000 0.946637 0.285505
O O12 0.088962 0.944272 0.149674
O O13 0.250000 0.611418 0.284689
O O14 0.087901 0.598835 0.417261
O O15 0.250000 0.928610 0.030065
#
# Coordination Sequence:
#
# PCOD9380072 Si02
#       7
#     8   4   8   8   8   8   8
#     4  11  23  38  62  92 129 167 208 265 326 387
#     4  10  22  38  64  94 124 166 212 264 328 388
#     4  11  23  40  61  90 126 169 219 269 318 385
#     4  11  21  40  63  91 127 165 216 266 327 388
#     4  10  21  38  67  98 123 164 220 271 325 388
#     4  10  23  42  61  92 129 165 209 261 325 391
#     4  10  21  37  61  91 125 163 204 261 323 382
#
# _framework density 19.836997
#
# number of rings (size 3 to 8) (size 9 to 14) (size 15 to 20)
#    0.000    1.538    3.077    1.385    0.000    5.538 
#    0.000    2.308    0.000    1.846    0.000    0.000 
#    0.000    0.000    0.000    0.000    0.000    0.000 
#
# Total GULP energy -144749.306339 kJ/mol
# GULP energy per Si atom -5567.281013 kJ/mol
# Density = 1.979185 g / cm^3
# Si number density = 19.836997 Si / 1000 Ang^3
#
#
#
# Elastic Constant Matrix: (Units=GPa)
#
#
# Indices 1 2 3 4 5 6 
#
# 1 107.8850 26.9063 37.2197 0.0000 0.0000 0.0000
# 2 26.9063 60.5918 31.8911 0.0000 0.0000 0.0000
# 3 37.2197 31.8911 138.8845 0.0000 0.0000 0.0000
# 4 0.0000 0.0000 0.0000 12.3032 0.0000 0.0000
# 5 0.0000 0.0000 0.0000 0.0000 17.9550 0.0000
# 6 0.0000 0.0000 0.0000 0.0000 0.0000 19.5788
#
#
#
# Elastic Compliance Matrix: (Units=1/GPa)
#
#
# Indices 1 2 3 4 5 6 
#
# 1 0.010919 -0.003763 -0.002062 0.000000 0.000000 0.000000
# 2 -0.003763 0.020070 -0.003600 0.000000 0.000000 0.000000
# 3 -0.002062 -0.003600 0.008579 0.000000 0.000000 0.000000
# 4 0.000000 0.000000 0.000000 0.081280 0.000000 0.000000
# 5 0.000000 0.000000 0.000000 0.000000 0.055695 0.000000
# 6 0.000000 0.000000 0.000000 0.000000 0.000000 0.051076
#
#
# Mechanical properties :
#
#
# Convention : Reuss Voigt Hill
#
# Bulk Modulus (GPa) = 48.26816 55.48838 51.87827
# Shear Modulus (GPa) = 19.73357 24.05700 21.89529
#
# Velocity S-wave (km/s) = 3.15744 3.48621 3.32589
# Velocity P-wave (km/s) = 6.13823 6.65115 6.39983
#
# Compressibility (1/GPa) = 0.02071759
#
# Stress axis : x y z
#
# Youngs Moduli (GPa) = 91.58252 49.82613 116.55736
#
# Poissons Ratio (x) = 0.18752 0.24035
# Poissons Ratio (y) = 0.34466 0.41960
# Poissons Ratio (z) = 0.18885 0.17937
#
# Static dielectric constant tensor:
#      x y z
#    x 1.726390 0.000000 0.000000 
#    y 0.000000 1.748750 0.000000 
#    z 0.000000 0.000000 1.725870 
# 
# From -- ./inp_files/11241.got.cif
#   From: 2010.05.17/outbox.cif.g08.bks.cpg/sg46_6_cif.got.tgz:11241.got - 2010.06.03 19:58:25.
