data_PCOD9380479
_publ_section_title
;
Structure prediction by ZEFSAII (Michael W. Deem and Ramdas Pophale) SiO2 
 PCOD9380479
Probable space group: I M A 2
;
_chemical_formula_sum "Si O2"
_cell_formula_units_Z 48
_cell_length_a 29.912215
_cell_length_b 15.027774
_cell_length_c 4.846606
_cell_angle_alpha 90.000000
_cell_angle_beta 90.000000
_cell_angle_gamma 90.000000
_cell_volume 2178.617283
_symmetry_space_group_name_H-M "I M A 2"
_symmetry_group_IT_number 46
_symmetry_cell_setting 'orthorhombic'
loop_
_space_group_symop_operation_xyz
x,y,z
-x,-y,z
1/2-x,y,z
1/2+x,-y,z
1/2+x,1/2+y,1/2+z
1/2-x,1/2-y,1/2+z
-x,1/2+y,1/2+z
x,1/2-y,1/2+z
loop_
_atom_site_type_symbol
_atom_site_label
_atom_site_fract_x
_atom_site_fract_y
_atom_site_fract_z
Si Si1 0.893625 0.188319 0.613530
Si Si2 0.398365 0.045142 0.036784
Si Si3 0.550751 0.483171 0.031659
Si Si4 0.250000 0.436304 0.795863
Si Si5 0.823125 0.078547 0.289307
Si Si6 0.250000 0.692505 0.483746
Si Si7 0.668010 0.809416 0.212061
O O1 0.895257 0.276112 0.423051
O O2 0.933782 0.119329 0.557887
O O3 0.849068 0.137061 0.514218
O O4 0.376110 0.137583 0.123076
O O5 0.440286 0.018879 0.225766
O O6 0.360860 0.972075 0.112887
O O7 0.414311 0.036353 0.725115
O O8 0.500000 0.500000 0.112621
O O9 0.289574 0.504516 0.910180
O O10 0.210833 0.371484 0.665160
O O11 0.792733 0.138028 0.088061
O O12 0.250000 0.716655 0.163746
O O13 0.670095 0.779437 0.528809
#
# Coordination Sequence:
#
# PCOD9380479 Si02
#       7
#     8   8   8   4   8   4   8
#     4  11  22  39  62  91 122 159 203 254 308 365
#     4  10  22  40  63  89 119 163 205 247 314 384
#     4  11  23  43  67  91 122 161 205 256 317 389
#     4   9  20  38  60  89 124 168 214 250 301 364
#     4   9  20  38  58  84 122 163 203 245 294 362
#     4  11  22  34  52  83 116 154 196 242 285 330
#     4  11  22  40  62  91 126 165 211 266 314 363
#
# _framework density 22.032323999999999
#
# number of rings (size 3 to 8) (size 9 to 14) (size 15 to 20)
#    0.000    1.667    0.000    5.000    0.000    2.667 
#    0.000   20.000    0.000    0.000    0.000    0.000 
#    0.000    0.000    0.000    0.000    0.000    0.000 
#
# Total GULP energy -133765.111264 kJ/mol
# GULP energy per Si atom -5573.546303 kJ/mol
# Density = 2.198218 g / cm^3
# Si number density = 22.032324 Si / 1000 Ang^3
#
#
#
# Elastic Constant Matrix: (Units=GPa)
#
#
# Indices 1 2 3 4 5 6 
#
# 1 129.0193 36.1658 -1.3250 0.0000 0.0001 0.0000
# 2 36.1658 77.4226 -1.6014 0.0000 0.0000 0.0000
# 3 -1.3250 -1.6014 47.0610 -0.0003 -0.0002 0.0001
# 4 0.0000 0.0000 -0.0003 29.4425 0.0000 0.0000
# 5 0.0001 0.0000 -0.0002 0.0000 16.0851 0.0000
# 6 0.0000 0.0000 0.0001 0.0000 0.0000 34.0142
#
#
#
# Elastic Compliance Matrix: (Units=1/GPa)
#
#
# Indices 1 2 3 4 5 6 
#
# 1 0.008919 -0.004164 0.000109 0.000000 0.000000 0.000000
# 2 -0.004164 0.014869 0.000389 0.000000 0.000000 0.000000
# 3 0.000109 0.000389 0.021265 0.000000 0.000000 0.000000
# 4 0.000000 0.000000 0.000000 0.033964 0.000000 0.000000
# 5 0.000000 0.000000 0.000000 0.000000 0.062169 0.000000
# 6 0.000000 0.000000 0.000000 0.000000 0.000000 0.029399
#
#
# Mechanical properties :
#
#
# Convention : Reuss Voigt Hill
#
# Bulk Modulus (GPa) = 26.50974 35.55350 31.03162
# Shear Modulus (GPa) = 26.24772 30.59262 28.42017
#
# Velocity S-wave (km/s) = 3.45531 3.73035 3.59546
# Velocity P-wave (km/s) = 5.28935 5.89287 5.59925
#
# Compressibility (1/GPa) = 0.03772198
#
# Stress axis : x y z
#
# Youngs Moduli (GPa) = 112.11840 67.25272 47.02488
#
# Poissons Ratio (x) = 0.28004 -0.00515
# Poissons Ratio (y) = 0.46687 -0.01828
# Poissons Ratio (z) = -0.01227 -0.02614
#
# Static dielectric constant tensor:
#      x y z
#    x 1.766420 0.000000 0.000000 
#    y 0.000000 1.842370 0.000000 
#    z 0.000000 0.000000 1.799840 
# 
# From -- ./inp_files/2547.got.cif
#   From: 2010.05.17/outbox.cif.g08.bks.cpg/sg46_2_cif.got.tgz:2547.got - 2010.06.03 19:58:25.
