data_PCOD9380651
_publ_section_title
;
Structure prediction by ZEFSAII (Michael W. Deem and Ramdas Pophale) SiO2 
 PCOD9380651
Probable space group: I M A 2
;
_chemical_formula_sum "Si O2"
_cell_formula_units_Z 36
_cell_length_a 15.159482
_cell_length_b 19.907924
_cell_length_c 5.067234
_cell_angle_alpha 90.000000
_cell_angle_beta 90.000000
_cell_angle_gamma 90.000000
_cell_volume 1529.259883
_symmetry_space_group_name_H-M "I M A 2"
_symmetry_group_IT_number 46
_symmetry_cell_setting 'orthorhombic'
loop_
_space_group_symop_operation_xyz
x,y,z
-x,-y,z
1/2-x,y,z
1/2+x,-y,z
1/2+x,1/2+y,1/2+z
1/2-x,1/2-y,1/2+z
-x,1/2+y,1/2+z
x,1/2-y,1/2+z
loop_
_atom_site_type_symbol
_atom_site_label
_atom_site_fract_x
_atom_site_fract_y
_atom_site_fract_z
Si Si1 0.150035 0.578932 0.030130
Si Si2 0.000000 0.500000 0.758538
Si Si3 0.500432 0.870283 0.914822
Si Si4 0.652271 0.796401 0.634522
Si Si5 0.372470 0.706032 0.688667
O O1 0.250000 0.561238 0.111144
O O2 0.089723 0.613941 0.253702
O O3 0.157522 0.633693 0.794412
O O4 0.086004 0.519908 0.928011
O O5 0.976725 0.563556 0.577117
O O6 0.575078 0.847028 0.714455
O O7 0.474704 0.810780 0.118794
O O8 0.750000 0.827732 0.665985
O O9 0.647925 0.764393 0.345925
O O10 0.347033 0.743686 0.421923
#
# Coordination Sequence:
#
# PCOD9380651 Si02
#       5
#     8   4   8   8   8
#     4  11  26  47  71 103 141 185 239 296 354 428
#     4  10  26  46  68 100 136 184 244 292 362 408
#     4  11  23  43  74  99 138 190 238 293 355 418
#     4  10  23  41  68 106 141 178 228 286 352 423
#     4  11  22  41  66 105 142 183 225 282 352 420
#
# _framework density 23.540799
#
# number of rings (size 3 to 8) (size 9 to 14) (size 15 to 20)
#    0.000    1.333    2.222    2.000    6.222    5.333 
#    0.000    3.333    0.000    0.000    0.000    0.000 
#    0.000    0.000    0.000    0.000    0.000    0.000 
#
# Total GULP energy -100551.990183 kJ/mol
# GULP energy per Si atom -5586.221677 kJ/mol
# Density = 2.348722 g / cm^3
# Si number density = 23.540799 Si / 1000 Ang^3
#
#
#
# Elastic Constant Matrix: (Units=GPa)
#
#
# Indices 1 2 3 4 5 6 
#
# 1 207.1210 57.6762 48.1182 0.0000 0.0000 0.0000
# 2 57.6762 76.7439 23.3937 0.0000 0.0000 0.0000
# 3 48.1182 23.3937 114.8575 0.0000 0.0000 0.0000
# 4 0.0000 0.0000 0.0000 44.0495 0.0000 0.0000
# 5 0.0000 0.0000 0.0000 0.0000 16.1805 0.0000
# 6 0.0000 0.0000 0.0000 0.0000 0.0000 0.7083
#
#
#
# Elastic Compliance Matrix: (Units=1/GPa)
#
#
# Indices 1 2 3 4 5 6 
#
# 1 0.006447 -0.004288 -0.001827 0.000000 0.000000 0.000000
# 2 -0.004288 0.016745 -0.001614 0.000000 0.000000 0.000000
# 3 -0.001827 -0.001614 0.009801 0.000000 0.000000 0.000000
# 4 0.000000 0.000000 0.000000 0.022702 0.000000 0.000000
# 5 0.000000 0.000000 0.000000 0.000000 0.061803 0.000000
# 6 0.000000 0.000000 0.000000 0.000000 0.000000 1.411781
#
#
# Mechanical properties :
#
#
# Convention : Reuss Voigt Hill
#
# Bulk Modulus (GPa) = 57.03396 73.01095 65.02246
# Shear Modulus (GPa) = 3.22460 30.15662 16.69061
#
# Velocity S-wave (km/s) = 1.17165 3.58304 2.66561
# Velocity P-wave (km/s) = 5.10986 6.94259 6.09550
#
# Compressibility (1/GPa) = 0.01753341
#
# Stress axis : x y z
#
# Youngs Moduli (GPa) = 155.11878 59.71961 102.03259
#
# Poissons Ratio (x) = 0.25607 0.18646
# Poissons Ratio (y) = 0.66513 0.16470
# Poissons Ratio (z) = 0.28347 0.09640
#
# Static dielectric constant tensor:
#      x y z
#    x 1.971940 0.000000 0.000000 
#    y 0.000000 1.897830 0.000000 
#    z 0.000000 0.000000 1.942480 
# 
# From -- ./inp_files/1164.got.cif
#   From: 2010.05.17/outbox.cif.g08.bks.cpg/sg46_1_cif.got.tgz:1164.got - 2010.06.03 19:58:25.
