data_PCOD9380225
_publ_section_title
;
Structure prediction by ZEFSAII (Michael W. Deem and Ramdas Pophale) SiO2 
 PCOD9380225
Probable space group: I M A 2
;
_chemical_formula_sum "Si O2"
_cell_formula_units_Z 48
_cell_length_a 8.526755
_cell_length_b 23.431691
_cell_length_c 11.861406
_cell_angle_alpha 90.000000
_cell_angle_beta 90.000000
_cell_angle_gamma 90.000000
_cell_volume 2369.864894
_symmetry_space_group_name_H-M "I M A 2"
_symmetry_group_IT_number 46
_symmetry_cell_setting 'orthorhombic'
loop_
_space_group_symop_operation_xyz
x,y,z
-x,-y,z
1/2-x,y,z
1/2+x,-y,z
1/2+x,1/2+y,1/2+z
1/2-x,1/2-y,1/2+z
-x,1/2+y,1/2+z
x,1/2-y,1/2+z
loop_
_atom_site_type_symbol
_atom_site_label
_atom_site_fract_x
_atom_site_fract_y
_atom_site_fract_z
Si Si1 0.061698 0.762047 0.113060
Si Si2 0.434240 0.641496 0.782008
Si Si3 0.067124 0.437284 0.589819
Si Si4 0.565622 0.354743 0.422520
Si Si5 0.437002 0.063924 0.480795
Si Si6 0.564071 0.855226 0.675493
O O1 0.250000 0.753321 0.120179
O O2 0.012770 0.798685 0.224656
O O3 0.974070 0.702443 0.107446
O O4 0.031860 0.800110 0.001918
O O5 0.250000 0.647243 0.805617
O O6 0.466070 0.597459 0.680561
O O7 0.512938 0.611167 0.888448
O O8 0.250000 0.436360 0.621380
O O9 0.000000 0.500000 0.584430
O O10 0.038745 0.405459 0.472443
O O11 0.750000 0.367648 0.437410
O O12 0.526170 0.347815 0.292506
O O13 0.250000 0.060417 0.479251
O O14 0.486976 0.090236 0.601441
O O15 0.500000 0.000000 0.458951
O O16 0.750000 0.859318 0.695660
#
# Coordination Sequence:
#
# PCOD9380225 Si02
#       6
#     8   8   8   8   8   8
#     4   9  21  40  63  91 121 158 204 252 310 373
#     4  10  21  39  63  92 124 162 205 256 309 367
#     4  11  21  36  60  89 122 159 200 250 305 361
#     4  10  22  41  62  88 120 157 204 252 304 369
#     4  11  25  43  62  90 125 168 214 260 313 375
#     4  11  25  41  61  90 124 162 205 256 314 372
#
# _framework density 20.254318999999999
#
# number of rings (size 3 to 8) (size 9 to 14) (size 15 to 20)
#    0.000    1.667    0.000    5.000    2.333    7.333 
#    0.000    1.667    0.000    0.000    0.000    0.000 
#    0.000    0.000    0.000    0.000    0.000    0.000 
#
# Total GULP energy -134042.932833 kJ/mol
# GULP energy per Si atom -5585.122201 kJ/mol
# Density = 2.020822 g / cm^3
# Si number density = 20.254319 Si / 1000 Ang^3
#
#
#
# Elastic Constant Matrix: (Units=GPa)
#
#
# Indices 1 2 3 4 5 6 
#
# 1 21.8678 1.9569 4.9061 0.0001 0.0000 -0.0002
# 2 1.9569 61.1259 7.8622 0.0001 0.0000 -0.0004
# 3 4.9061 7.8622 80.9453 -0.0007 0.0001 0.0009
# 4 0.0001 0.0001 -0.0007 44.7654 0.0000 -0.0008
# 5 0.0000 0.0000 0.0001 0.0000 30.9918 0.0001
# 6 -0.0002 -0.0004 0.0009 -0.0008 0.0001 4.8380
#
#
#
# Elastic Compliance Matrix: (Units=1/GPa)
#
#
# Indices 1 2 3 4 5 6 
#
# 1 0.046438 -0.001139 -0.002704 0.000000 0.000000 0.000002
# 2 -0.001139 0.016595 -0.001543 0.000000 0.000000 0.000002
# 3 -0.002704 -0.001543 0.012668 0.000000 0.000000 -0.000002
# 4 0.000000 0.000000 0.000000 0.022339 0.000000 0.000004
# 5 0.000000 0.000000 0.000000 0.000000 0.032267 0.000000
# 6 0.000002 0.000002 -0.000002 0.000004 0.000000 0.206698
#
#
# Mechanical properties :
#
#
# Convention : Reuss Voigt Hill
#
# Bulk Modulus (GPa) = 15.40147 21.48772 18.44460
# Shear Modulus (GPa) = 13.53480 26.06662 19.80071
#
# Velocity S-wave (km/s) = 2.58784 3.59132 3.13006
# Velocity P-wave (km/s) = 4.06814 5.27530 4.71055
#
# Compressibility (1/GPa) = 0.06492885
#
# Stress axis : x y z
#
# Youngs Moduli (GPa) = 21.53416 60.26068 78.94050
#
# Poissons Ratio (x) = 0.06863 0.21345
# Poissons Ratio (y) = 0.02452 0.12179
# Poissons Ratio (z) = 0.05823 0.09297
#
# Static dielectric constant tensor:
#      x y z
#    x 1.687700 0.000000 0.000000 
#    y 0.000000 1.578050 0.000000 
#    z 0.000000 0.000000 1.737990 
# 
# From -- ./inp_files/9315.got.cif
#   From: 2010.05.17/outbox.cif.g08.bks.cpg/sg46_5_cif.got.tgz:9315.got - 2010.06.03 19:58:25.
