data_PCOD9380469
_publ_section_title
;
Structure prediction by ZEFSAII (Michael W. Deem and Ramdas Pophale) SiO2 
 PCOD9380469
Probable space group: I M A 2
;
_chemical_formula_sum "Si O2"
_cell_formula_units_Z 28
_cell_length_a 16.918141
_cell_length_b 14.078823
_cell_length_c 5.353500
_cell_angle_alpha 90.000000
_cell_angle_beta 90.000000
_cell_angle_gamma 90.000000
_cell_volume 1275.136849
_symmetry_space_group_name_H-M "I M A 2"
_symmetry_group_IT_number 46
_symmetry_cell_setting 'orthorhombic'
loop_
_space_group_symop_operation_xyz
x,y,z
-x,-y,z
1/2-x,y,z
1/2+x,-y,z
1/2+x,1/2+y,1/2+z
1/2-x,1/2-y,1/2+z
-x,1/2+y,1/2+z
x,1/2-y,1/2+z
loop_
_atom_site_type_symbol
_atom_site_label
_atom_site_fract_x
_atom_site_fract_y
_atom_site_fract_z
Si Si1 0.493689 0.205137 0.554430
Si Si2 0.834893 0.164988 0.516008
Si Si3 0.000000 0.500000 0.301964
Si Si4 0.163595 0.960811 0.017550
O O1 0.459580 0.234919 0.286571
O O2 0.587275 0.228416 0.525468
O O3 0.494945 0.094494 0.630556
O O4 0.750000 0.215301 0.497045
O O5 0.833375 0.103594 0.768051
O O6 0.840504 0.096292 0.276780
O O7 0.921775 0.508110 0.474127
O O8 0.250000 0.012158 0.022067
#
# Coordination Sequence:
#
# PCOD9380469 Si02
#       4
#     8   8   4   8
#     4  11  23  36  55  85 114 152 202 240 292 365
#     4   9  18  33  52  80 117 148 182 235 297 369
#     4  10  22  40  62  82 122 162 194 258 314 344
#     4   9  18  33  56  83 110 151 199 237 293 361
#
# _framework density 21.958424999999998
#
# number of rings (size 3 to 8) (size 9 to 14) (size 15 to 20)
#    0.000    2.286    0.000    3.429    0.000   11.429 
#    0.000    0.000    0.000    1.714    0.000    0.000 
#    0.000    0.000    0.000    0.000    0.000    0.000 
#
# Total GULP energy -78054.073045 kJ/mol
# GULP energy per Si atom -5575.290932 kJ/mol
# Density = 2.190845 g / cm^3
# Si number density = 21.958425 Si / 1000 Ang^3
#
#
#
# Elastic Constant Matrix: (Units=GPa)
#
#
# Indices 1 2 3 4 5 6 
#
# 1 110.3242 10.2245 19.9259 0.0000 0.0000 0.0000
# 2 10.2245 77.8986 41.3317 0.0000 0.0000 0.0000
# 3 19.9259 41.3317 185.5006 0.0000 0.0000 0.0000
# 4 0.0000 0.0000 0.0000 34.5751 0.0000 0.0000
# 5 0.0000 0.0000 0.0000 0.0000 20.7701 0.0000
# 6 0.0000 0.0000 0.0000 0.0000 0.0000 25.2098
#
#
#
# Elastic Compliance Matrix: (Units=1/GPa)
#
#
# Indices 1 2 3 4 5 6 
#
# 1 0.009285 -0.000782 -0.000823 0.000000 0.000000 0.000000
# 2 -0.000782 0.014624 -0.003174 0.000000 0.000000 0.000000
# 3 -0.000823 -0.003174 0.006187 0.000000 0.000000 0.000000
# 4 0.000000 0.000000 0.000000 0.028923 0.000000 0.000000
# 5 0.000000 0.000000 0.000000 0.000000 0.048146 0.000000
# 6 0.000000 0.000000 0.000000 0.000000 0.000000 0.039667
#
#
# Mechanical properties :
#
#
# Convention : Reuss Voigt Hill
#
# Bulk Modulus (GPa) = 48.69295 57.40976 53.05135
# Shear Modulus (GPa) = 30.63041 36.26043 33.44542
#
# Velocity S-wave (km/s) = 3.73892 4.06805 3.90696
# Velocity P-wave (km/s) = 6.39239 6.94744 6.67569
#
# Compressibility (1/GPa) = 0.02053686
#
# Stress axis : x y z
#
# Youngs Moduli (GPa) = 107.69665 68.38008 161.64121
#
# Poissons Ratio (x) = 0.05347 0.13306
# Poissons Ratio (y) = 0.08422 0.51312
# Poissons Ratio (z) = 0.08865 0.21707
#
# Static dielectric constant tensor:
#      x y z
#    x 1.899060 0.000000 0.000000 
#    y 0.000000 1.809930 0.000000 
#    z 0.000000 0.000000 1.858670 
# 
# From -- ./inp_files/1504.got.cif
#   From: 2010.05.17/outbox.cif.g08.bks.cpg/sg46_1_cif.got.tgz:1504.got - 2010.06.03 19:58:25.
