data_PCOD9380041
_publ_section_title
;
Structure prediction by ZEFSAII (Michael W. Deem and Ramdas Pophale) SiO2 
 PCOD9380041
Probable space group: I M A 2
;
_chemical_formula_sum "Si O2"
_cell_formula_units_Z 64
_cell_length_a 14.189572
_cell_length_b 24.054569
_cell_length_c 9.022383
_cell_angle_alpha 90.000000
_cell_angle_beta 90.000000
_cell_angle_gamma 90.000000
_cell_volume 3079.556205
_symmetry_space_group_name_H-M "I M A 2"
_symmetry_group_IT_number 46
_symmetry_cell_setting 'orthorhombic'
loop_
_space_group_symop_operation_xyz
x,y,z
-x,-y,z
1/2-x,y,z
1/2+x,-y,z
1/2+x,1/2+y,1/2+z
1/2-x,1/2-y,1/2+z
-x,1/2+y,1/2+z
x,1/2-y,1/2+z
loop_
_atom_site_type_symbol
_atom_site_label
_atom_site_fract_x
_atom_site_fract_y
_atom_site_fract_z
Si Si1 0.357261 0.297510 0.602410
Si Si2 0.964020 0.268802 0.125744
Si Si3 0.495249 0.386949 0.166810
Si Si4 0.637273 0.914997 0.931451
Si Si5 0.639614 0.067382 0.447159
Si Si6 0.642302 0.192259 0.339777
Si Si7 0.354653 0.361653 0.901635
Si Si8 0.858962 0.523510 0.718973
O O1 0.250000 0.278583 0.578252
O O2 0.433569 0.250760 0.570780
O O3 0.370764 0.353520 0.506019
O O4 0.366969 0.315304 0.775077
O O5 0.923246 0.216985 0.214454
O O6 0.967952 0.326188 0.220026
O O7 0.894542 0.281886 0.991989
O O8 0.429147 0.415255 0.288336
O O9 0.577644 0.424603 0.095496
O O10 0.431922 0.368631 0.026469
O O11 0.750000 0.922795 0.900646
O O12 0.605296 0.959643 0.056217
O O13 0.750000 0.054984 0.482349
O O14 0.636282 0.126393 0.363121
O O15 0.600874 0.022706 0.329517
O O16 0.750000 0.207637 0.310672
O O17 0.250000 0.355847 0.967508
O O18 0.357150 0.419167 0.809674
O O19 0.750000 0.505970 0.694671
#
# Coordination Sequence:
#
# PCOD9380041 Si02
#       8
#     8   8   8   8   8   8   8   8
#     4   9  18  33  52  78 114 158 197 223 260 331
#     4  11  21  35  53  79 115 154 190 231 280 330
#     4  11  21  32  52  86 118 146 185 235 288 335
#     4   9  18  33  55  85 119 150 183 228 285 342
#     4   9  19  36  59  85 110 146 197 241 278 332
#     4  10  21  37  58  81 107 144 194 244 288 330
#     4   9  18  33  55  82 112 147 185 222 271 340
#     4   8  16  35  61  82 107 145 184 229 281 335
#
# _framework density 20.782214
#
# number of rings (size 3 to 8) (size 9 to 14) (size 15 to 20)
#    0.000    2.500    0.000    4.500    0.000    2.000 
#    0.000    3.125    0.000   13.500    0.000   23.625 
#    0.000    0.000    0.000    0.000    0.000    0.000 
#
# Total GULP energy -178628.983212 kJ/mol
# GULP energy per Si atom -5582.155725 kJ/mol
# Density = 2.073491 g / cm^3
# Si number density = 20.782214 Si / 1000 Ang^3
#
#
#
# Elastic Constant Matrix: (Units=GPa)
#
#
# Indices 1 2 3 4 5 6 
#
# 1 116.7742 35.7231 48.3461 -0.0002 0.0001 0.0001
# 2 35.7231 43.8253 29.5194 -0.0003 0.0002 -0.0002
# 3 48.3461 29.5194 72.7916 -0.0021 -0.0008 0.0008
# 4 -0.0002 -0.0003 -0.0021 21.0065 -0.0003 0.0006
# 5 0.0001 0.0002 -0.0008 -0.0003 27.8669 0.0000
# 6 0.0001 -0.0002 0.0008 0.0006 0.0000 19.6466
#
#
#
# Elastic Compliance Matrix: (Units=1/GPa)
#
#
# Indices 1 2 3 4 5 6 
#
# 1 0.013070 -0.006613 -0.005999 -0.000001 0.000000 0.000000
# 2 -0.006613 0.034739 -0.009696 -0.000001 -0.000001 0.000001
# 3 -0.005999 -0.009696 0.021654 0.000002 0.000001 -0.000001
# 4 -0.000001 -0.000001 0.000002 0.047604 0.000000 -0.000001
# 5 0.000000 -0.000001 0.000001 0.000000 0.035885 0.000000
# 6 0.000000 0.000001 -0.000001 -0.000001 0.000000 0.050900
#
#
# Mechanical properties :
#
#
# Convention : Reuss Voigt Hill
#
# Bulk Modulus (GPa) = 40.24485 51.17428 45.70957
# Shear Modulus (GPa) = 19.47416 21.69082 20.58249
#
# Velocity S-wave (km/s) = 3.06446 3.23417 3.15046
# Velocity P-wave (km/s) = 5.65052 6.21482 5.93937
#
# Compressibility (1/GPa) = 0.02484790
#
# Stress axis : x y z
#
# Youngs Moduli (GPa) = 76.50934 28.78604 46.18053
#
# Poissons Ratio (x) = 0.19037 0.27704
# Poissons Ratio (y) = 0.50597 0.44775
# Poissons Ratio (z) = 0.45899 0.27910
#
# Static dielectric constant tensor:
#      x y z
#    x 1.785340 0.000000 0.000000 
#    y 0.000000 1.770590 0.000000 
#    z 0.000000 0.000000 1.736330 
# 
# From -- ./inp_files/6068.got.cif
#   From: 2010.05.17/outbox.cif.g08.bks.cpg/sg46_4_cif.got.tgz:6068.got - 2010.06.03 19:58:25.
