data_PCOD9380991
_publ_section_title
;
Structure prediction by ZEFSAII (Michael W. Deem and Ramdas Pophale) SiO2 
 PCOD9380991
Probable space group: I M A 2
;
_chemical_formula_sum "Si O2"
_cell_formula_units_Z 48
_cell_length_a 14.695091
_cell_length_b 5.521098
_cell_length_c 25.227311
_cell_angle_alpha 90.000000
_cell_angle_beta 90.000000
_cell_angle_gamma 90.000000
_cell_volume 2046.768370
_symmetry_space_group_name_H-M "I M A 2"
_symmetry_group_IT_number 46
_symmetry_cell_setting 'orthorhombic'
loop_
_space_group_symop_operation_xyz
x,y,z
-x,-y,z
1/2-x,y,z
1/2+x,-y,z
1/2+x,1/2+y,1/2+z
1/2-x,1/2-y,1/2+z
-x,1/2+y,1/2+z
x,1/2-y,1/2+z
loop_
_atom_site_type_symbol
_atom_site_label
_atom_site_fract_x
_atom_site_fract_y
_atom_site_fract_z
Si Si1 0.057609 0.253217 0.990020
Si Si2 0.750000 0.256839 0.353692
Si Si3 0.852068 0.351372 0.688936
Si Si4 0.606952 0.556289 0.791215
Si Si5 0.646908 0.792021 0.100404
Si Si6 0.000000 0.500000 0.167550
Si Si7 0.602336 0.584978 0.381703
O O1 0.102578 0.264346 0.931816
O O2 0.000000 0.500000 0.997902
O O3 0.126533 0.219583 0.038501
O O4 0.000000 0.000000 0.989554
O O5 0.830217 0.156743 0.313712
O O6 0.670319 0.368427 0.392336
O O7 0.750000 0.256515 0.695794
O O8 0.867352 0.574439 0.729496
O O9 0.861433 0.445449 0.628687
O O10 0.934681 0.172974 0.701171
O O11 0.500000 0.500000 0.798366
O O12 0.633853 0.781554 0.828198
O O13 0.750000 0.709620 0.111462
O O14 0.570024 0.639338 0.129777
O O15 0.500000 0.500000 0.373473
#
# Coordination Sequence:
#
# PCOD9380991 Si02
#       7
#     8   4   8   8   8   4   8
#     4  11  25  49  80 111 155 204 258 325 396 469
#     4  12  26  44  74 108 146 202 260 320 388 474
#     4  11  26  46  71 107 150 195 255 315 391 478
#     4  12  24  48  73 107 154 202 254 322 393 475
#     4  11  25  46  72 109 146 198 254 316 389 475
#     4  12  22  46  72 104 144 192 248 316 388 458
#     4  11  26  48  75 107 151 203 258 320 392 476
#
# _framework density 23.451605000000001
#
# number of rings (size 3 to 8) (size 9 to 14) (size 15 to 20)
#    0.000    0.667    3.333    4.000    3.500    2.667 
#    4.500    0.000    0.000    0.000    0.000    0.000 
#    0.000    0.000    0.000    0.000    0.000    0.000 
#
# Total GULP energy -133700.463383 kJ/mol
# GULP energy per Si atom -5570.852641 kJ/mol
# Density = 2.339823 g / cm^3
# Si number density = 23.451605 Si / 1000 Ang^3
#
#
#
# Elastic Constant Matrix: (Units=GPa)
#
#
# Indices 1 2 3 4 5 6 
#
# 1 196.9195 41.6646 23.6346 0.0000 0.0000 0.0000
# 2 41.6646 66.0319 31.7155 0.0000 0.0000 0.0000
# 3 23.6346 31.7155 102.1187 0.0000 0.0000 0.0000
# 4 0.0000 0.0000 0.0000 26.8780 0.0000 0.0000
# 5 0.0000 0.0000 0.0000 0.0000 11.4118 0.0000
# 6 0.0000 0.0000 0.0000 0.0000 0.0000 -4.3347
#
#
#
# Elastic Compliance Matrix: (Units=1/GPa)
#
#
# Indices 1 2 3 4 5 6 
#
# 1 0.005866 -0.003584 -0.000245 0.000000 0.000000 0.000000
# 2 -0.003584 0.019989 -0.005379 0.000000 0.000000 0.000000
# 3 -0.000245 -0.005379 0.011520 0.000000 0.000000 0.000000
# 4 0.000000 0.000000 0.000000 0.037205 0.000000 0.000000
# 5 0.000000 0.000000 0.000000 0.000000 0.087629 0.000000
# 6 0.000000 0.000000 0.000000 0.000000 0.000000 -0.230695
#
#
# Mechanical properties :
#
#
# Convention : Reuss Voigt Hill
#
# Bulk Modulus (GPa) = 52.74147 62.12218 57.43182
# Shear Modulus (GPa) = -114.27900 24.66137 -44.80882
#
# Velocity S-wave (km/s) = -6.98824 3.24633 -4.37589
# Velocity P-wave (km/s) = 6.52500 6.37170 0.99425
#
# Compressibility (1/GPa) = 0.01896041
#
# Stress axis : x y z
#
# Youngs Moduli (GPa) = 170.47901 50.02794 86.80862
#
# Poissons Ratio (x) = 0.17929 0.02123
# Poissons Ratio (y) = 0.61095 0.46691
# Poissons Ratio (z) = 0.04170 0.26908
#
# Static dielectric constant tensor:
#      x y z
#    x 1.847460 0.000000 0.000000 
#    y 0.000000 2.024470 0.000000 
#    z 0.000000 0.000000 1.908450 
# 
# From -- ./inp_files/24590.got.cif
#   From: 2010.05.17/outbox.cif.g08.bks.cpg/sg46_13_cif.got.tgz:24590.got - 2010.06.03 19:58:25.
