data_PCOD9380607
_publ_section_title
;
Structure prediction by ZEFSAII (Michael W. Deem and Ramdas Pophale) SiO2 
 PCOD9380607
Probable space group: I M A 2
;
_chemical_formula_sum "Si O2"
_cell_formula_units_Z 32
_cell_length_a 11.022690
_cell_length_b 22.342256
_cell_length_c 4.741846
_cell_angle_alpha 90.000000
_cell_angle_beta 90.000000
_cell_angle_gamma 90.000000
_cell_volume 1167.782769
_symmetry_space_group_name_H-M "I M A 2"
_symmetry_group_IT_number 46
_symmetry_cell_setting 'orthorhombic'
loop_
_space_group_symop_operation_xyz
x,y,z
-x,-y,z
1/2-x,y,z
1/2+x,-y,z
1/2+x,1/2+y,1/2+z
1/2-x,1/2-y,1/2+z
-x,1/2+y,1/2+z
x,1/2-y,1/2+z
loop_
_atom_site_type_symbol
_atom_site_label
_atom_site_fract_x
_atom_site_fract_y
_atom_site_fract_z
Si Si1 0.615382 0.102434 0.307840
Si Si2 0.621140 0.989033 0.706946
Si Si3 0.386120 0.136403 0.903220
Si Si4 0.574176 0.289212 0.211133
O O1 0.750000 0.108393 0.171729
O O2 0.610263 0.265983 0.515526
O O3 0.617050 0.150133 0.565754
O O4 0.498073 0.119186 0.115208
O O5 0.750000 0.000963 0.847335
O O6 0.611342 0.036124 0.451490
O O7 0.500000 0.000000 0.882162
O O8 0.619406 0.917677 0.673746
O O9 0.250000 0.140258 0.024384
O O10 0.430893 0.303426 0.251326
#
# Coordination Sequence:
#
# PCOD9380607 Si02
#       4
#     8   8   8   8
#     4  11  26  50  81 116 159 208 266 335 405 480
#     4  10  22  44  74 108 148 196 250 318 396 470
#     4  11  26  50  81 116 159 208 266 335 405 480
#     4  12  26  51  78 115 154 212 266 324 388 470
#
# _framework density 27.402353999999999
#
# number of rings (size 3 to 8) (size 9 to 14) (size 15 to 20)
#    0.000    1.000    5.000    0.000    0.000    7.000 
#    4.500    5.000    0.000    0.000    0.000    0.000 
#    0.000    0.000    0.000    0.000    0.000    0.000 
#
# Total GULP energy -89224.093319 kJ/mol
# GULP energy per Si atom -5576.505832 kJ/mol
# Density = 2.733999 g / cm^3
# Si number density = 27.402354 Si / 1000 Ang^3
#
#
#
# Elastic Constant Matrix: (Units=GPa)
#
#
# Indices 1 2 3 4 5 6 
#
# 1 290.4678 49.4365 55.7652 -0.0018 0.0003 -0.0001
# 2 49.4365 124.4920 55.0533 -0.0004 0.0045 0.0058
# 3 55.7652 55.0533 112.0921 0.0146 0.0031 0.0067
# 4 -0.0018 -0.0004 0.0146 52.9218 0.0051 0.0100
# 5 0.0003 0.0045 0.0031 0.0051 24.7127 -0.0056
# 6 -0.0001 0.0058 0.0067 0.0100 -0.0056 1.9888
#
#
#
# Elastic Compliance Matrix: (Units=1/GPa)
#
#
# Indices 1 2 3 4 5 6 
#
# 1 0.003880 -0.000878 -0.001499 0.000001 0.000000 0.000008
# 2 -0.000878 0.010460 -0.004701 0.000001 -0.000001 -0.000015
# 3 -0.001499 -0.004701 0.011976 -0.000003 -0.000001 -0.000027
# 4 0.000001 0.000001 -0.000003 0.018896 -0.000004 -0.000095
# 5 0.000000 -0.000001 -0.000001 -0.000004 0.040465 0.000115
# 6 0.000008 -0.000015 -0.000027 -0.000095 0.000115 0.502822
#
#
# Mechanical properties :
#
#
# Convention : Reuss Voigt Hill
#
# Bulk Modulus (GPa) = 82.23343 94.17354 88.20349
# Shear Modulus (GPa) = 8.24121 40.37778 24.30949
#
# Velocity S-wave (km/s) = 1.73609 3.84280 2.98171
# Velocity P-wave (km/s) = 5.83896 7.35738 6.64171
#
# Compressibility (1/GPa) = 0.01216050
#
# Stress axis : x y z
#
# Youngs Moduli (GPa) = 257.73676 95.60272 83.50221
#
# Poissons Ratio (x) = 0.08392 0.12518
# Poissons Ratio (y) = 0.22624 0.39251
# Poissons Ratio (z) = 0.38638 0.44939
#
# Static dielectric constant tensor:
#      x y z
#    x 2.229750 0.000010 0.000010 
#    y 0.000010 2.168160 -0.000040 
#    z 0.000010 -0.000040 2.126990 
# 
# From -- ./inp_files/885.got.cif
#   From: 2010.05.17/outbox.cif.g08.bks.cpg/sg46_1_cif.got.tgz:885.got - 2010.06.03 19:58:25.
