data_PCOD9380898
_publ_section_title
;
Structure prediction by ZEFSAII (Michael W. Deem and Ramdas Pophale) SiO2 
 PCOD9380898
Probable space group: I M A 2
;
_chemical_formula_sum "Si O2"
_cell_formula_units_Z 52
_cell_length_a 14.566180
_cell_length_b 9.330372
_cell_length_c 17.088437
_cell_angle_alpha 90.000000
_cell_angle_beta 90.000000
_cell_angle_gamma 90.000000
_cell_volume 2322.453211
_symmetry_space_group_name_H-M "I M A 2"
_symmetry_group_IT_number 46
_symmetry_cell_setting 'orthorhombic'
loop_
_space_group_symop_operation_xyz
x,y,z
-x,-y,z
1/2-x,y,z
1/2+x,-y,z
1/2+x,1/2+y,1/2+z
1/2-x,1/2-y,1/2+z
-x,1/2+y,1/2+z
x,1/2-y,1/2+z
loop_
_atom_site_type_symbol
_atom_site_label
_atom_site_fract_x
_atom_site_fract_y
_atom_site_fract_z
Si Si1 0.388783 0.521955 0.068920
Si Si2 0.250000 0.793565 0.056360
Si Si3 0.647421 0.854993 0.411576
Si Si4 0.642033 0.113557 0.287722
Si Si5 0.148301 0.297786 0.193487
Si Si6 0.103392 0.494043 0.614430
Si Si7 0.990854 0.668614 0.335555
O O1 0.500000 0.500000 0.070082
O O2 0.333484 0.671012 0.061708
O O3 0.356320 0.446699 0.148295
O O4 0.357484 0.433206 0.993757
O O5 0.328657 0.920834 0.059600
O O6 0.750000 0.795914 0.401155
O O7 0.567450 0.739538 0.404731
O O8 0.630614 0.977193 0.345055
O O9 0.750000 0.147020 0.283087
O O10 0.610042 0.071151 0.200580
O O11 0.584982 0.245643 0.322111
O O12 0.250000 0.274972 0.226907
O O13 0.071276 0.298985 0.259249
O O14 0.131004 0.169047 0.132886
O O15 0.000000 0.500000 0.586295
O O16 0.000000 0.500000 0.344343
#
# Coordination Sequence:
#
# PCOD9380898 Si02
#       7
#     8   4   8   8   8   8   8
#     4  12  26  46  74 103 145 194 243 308 375 450
#     4  12  26  44  68 112 142 184 254 304 360 454
#     4  11  23  49  75  97 137 193 244 291 373 451
#     4  11  22  40  70  99 135 187 243 300 360 440
#     4  12  23  42  65 104 145 188 227 301 381 432
#     4  12  22  40  69 102 143 185 239 302 374 441
#     4  12  26  40  68 105 143 182 245 306 370 436
#
# _framework density 22.390117
#
# number of rings (size 3 to 8) (size 9 to 14) (size 15 to 20)
#    0.000    0.308    6.154    3.231    2.154    1.231 
#    0.000    3.846    0.000    0.000    0.000    0.000 
#    0.000    0.000    0.000    0.000    0.000    0.000 
#
# Total GULP energy -145000.565633 kJ/mol
# GULP energy per Si atom -5576.944832 kJ/mol
# Density = 2.233916 g / cm^3
# Si number density = 22.390117 Si / 1000 Ang^3
#
#
#
# Elastic Constant Matrix: (Units=GPa)
#
#
# Indices 1 2 3 4 5 6 
#
# 1 198.1791 59.9916 -4.7140 0.0000 0.0000 0.0000
# 2 59.9916 94.0015 -14.1202 0.0000 0.0000 0.0000
# 3 -4.7140 -14.1202 18.8425 0.0000 0.0000 0.0000
# 4 0.0000 0.0000 0.0000 11.1063 0.0000 0.0000
# 5 0.0000 0.0000 0.0000 0.0000 15.0949 0.0000
# 6 0.0000 0.0000 0.0000 0.0000 0.0000 21.5921
#
#
#
# Elastic Compliance Matrix: (Units=1/GPa)
#
#
# Indices 1 2 3 4 5 6 
#
# 1 0.006298 -0.004262 -0.001619 0.000000 0.000000 0.000000
# 2 -0.004262 0.014872 0.010079 0.000000 0.000000 0.000000
# 3 -0.001619 0.010079 0.060219 0.000000 0.000000 0.000000
# 4 0.000000 0.000000 0.000000 0.090039 0.000000 0.000000
# 5 0.000000 0.000000 0.000000 0.000000 0.066248 0.000000
# 6 0.000000 0.000000 0.000000 0.000000 0.000000 0.046313
#
#
# Mechanical properties :
#
#
# Convention : Reuss Voigt Hill
#
# Bulk Modulus (GPa) = 11.13772 43.70422 27.42097
# Shear Modulus (GPa) = 16.36544 27.54970 21.95757
#
# Velocity S-wave (km/s) = 2.70649 3.51157 3.13498
# Velocity P-wave (km/s) = 3.84083 6.00027 5.03762
#
# Compressibility (1/GPa) = 0.08978498
#
# Stress axis : x y z
#
# Youngs Moduli (GPa) = 158.78802 67.23925 16.60594
#
# Poissons Ratio (x) = 0.28659 0.02688
# Poissons Ratio (y) = 0.67680 -0.16737
# Poissons Ratio (z) = 0.25701 -0.67768
#
# Static dielectric constant tensor:
#      x y z
#    x 1.846190 0.000000 0.000000 
#    y 0.000000 1.810000 0.000000 
#    z 0.000000 0.000000 1.878670 
# 
# From -- ./inp_files/21945.got.cif
#   From: 2010.05.17/outbox.cif.g08.bks.cpg/sg46_11_cif.got.tgz:21945.got - 2010.06.03 19:58:25.
