data_PCOD9380731
_publ_section_title
;
Structure prediction by ZEFSAII (Michael W. Deem and Ramdas Pophale) SiO2 
 PCOD9380731
Probable space group: I M A 2
;
_chemical_formula_sum "Si O2"
_cell_formula_units_Z 40
_cell_length_a 15.475875
_cell_length_b 8.676173
_cell_length_c 12.026148
_cell_angle_alpha 90.000000
_cell_angle_beta 90.000000
_cell_angle_gamma 90.000000
_cell_volume 1614.767354
_symmetry_space_group_name_H-M "I M A 2"
_symmetry_group_IT_number 46
_symmetry_cell_setting 'orthorhombic'
loop_
_space_group_symop_operation_xyz
x,y,z
-x,-y,z
1/2-x,y,z
1/2+x,-y,z
1/2+x,1/2+y,1/2+z
1/2-x,1/2-y,1/2+z
-x,1/2+y,1/2+z
x,1/2-y,1/2+z
loop_
_atom_site_type_symbol
_atom_site_label
_atom_site_fract_x
_atom_site_fract_y
_atom_site_fract_z
Si Si1 0.395660 0.000933 0.143190
Si Si2 0.595694 0.435721 0.395168
Si Si3 0.586312 0.076185 0.453533
Si Si4 0.750000 0.768643 0.211322
Si Si5 0.250000 0.141381 0.452971
Si Si6 0.346083 0.655754 0.173402
O O1 0.365071 0.836269 0.190208
O O2 0.500000 0.000000 0.150047
O O3 0.339296 0.133805 0.197811
O O4 0.373427 0.006708 0.011094
O O5 0.500000 0.500000 0.374343
O O6 0.593359 0.252136 0.416148
O O7 0.649969 0.446323 0.283275
O O8 0.584766 0.093706 0.586992
O O9 0.500000 0.000000 0.408807
O O10 0.666502 0.965884 0.432584
O O11 0.750000 0.738274 0.347545
O O12 0.750000 0.684053 0.086735
O O13 0.250000 0.650741 0.124207
#
# Coordination Sequence:
#
# PCOD9380731 Si02
#       6
#     8   8   8   4   4   8
#     4  10  24  46  70 104 146 201 254 319 388 462
#     4  10  24  42  73 109 142 192 255 309 393 465
#     4  11  26  49  71 104 155 196 254 314 394 464
#     4  12  28  49  74 108 160 194 276 318 395 461
#     4  12  30  49  76 116 150 220 256 328 391 459
#     4  11  22  41  74 105 145 194 251 317 393 462
#
# _framework density 24.771370999999998
#
# number of rings (size 3 to 8) (size 9 to 14) (size 15 to 20)
#    0.000    1.200    2.000    1.800   11.200    4.800 
#    0.000    0.000    0.000    0.000    0.000    0.000 
#    0.000    0.000    0.000    0.000    0.000    0.000 
#
# Total GULP energy -111720.887177 kJ/mol
# GULP energy per Si atom -5586.044359 kJ/mol
# Density = 2.471499 g / cm^3
# Si number density = 24.771371 Si / 1000 Ang^3
#
#
#
# Elastic Constant Matrix: (Units=GPa)
#
#
# Indices 1 2 3 4 5 6 
#
# 1 102.5573 27.7978 4.0026 0.0000 0.0000 0.0000
# 2 27.7978 70.4774 21.6984 0.0000 0.0000 0.0000
# 3 4.0026 21.6984 139.6412 0.0000 0.0000 0.0000
# 4 0.0000 0.0000 0.0000 135.2032 0.0000 0.0000
# 5 0.0000 0.0000 0.0000 0.0000 35.0847 0.0000
# 6 0.0000 0.0000 0.0000 0.0000 0.0000 32.4430
#
#
#
# Elastic Compliance Matrix: (Units=1/GPa)
#
#
# Indices 1 2 3 4 5 6 
#
# 1 0.010936 -0.004429 0.000375 0.000000 0.000000 0.000000
# 2 -0.004429 0.016695 -0.002467 0.000000 0.000000 0.000000
# 3 0.000375 -0.002467 0.007534 0.000000 0.000000 0.000000
# 4 0.000000 0.000000 0.000000 0.007396 0.000000 0.000000
# 5 0.000000 0.000000 0.000000 0.000000 0.028502 0.000000
# 6 0.000000 0.000000 0.000000 0.000000 0.000000 0.030823
#
#
# Mechanical properties :
#
#
# Convention : Reuss Voigt Hill
#
# Bulk Modulus (GPa) = 45.20240 46.63038 45.91639
# Shear Modulus (GPa) = 40.88137 57.82464 49.35301
#
# Velocity S-wave (km/s) = 4.06685 4.83674 4.46841
# Velocity P-wave (km/s) = 6.35137 7.07511 6.72298
#
# Compressibility (1/GPa) = 0.02212272
#
# Stress axis : x y z
#
# Youngs Moduli (GPa) = 91.43714 59.89661 132.73418
#
# Poissons Ratio (x) = 0.26528 -0.04974
# Poissons Ratio (y) = 0.40497 0.32750
# Poissons Ratio (z) = -0.03426 0.14778
#
# Static dielectric constant tensor:
#      x y z
#    x 1.866600 0.000000 0.000000 
#    y 0.000000 1.956870 0.000000 
#    z 0.000000 0.000000 2.063860 
# 
# From -- ./inp_files/11623.got.cif
#   From: 2010.05.17/outbox.cif.g08.bks.cpg/sg46_6_cif.got.tgz:11623.got - 2010.06.03 19:58:25.
