data_PCOD9380445
_publ_section_title
;
Structure prediction by ZEFSAII (Michael W. Deem and Ramdas Pophale) SiO2 
 PCOD9380445
Probable space group: I M A 2
;
_chemical_formula_sum "Si O2"
_cell_formula_units_Z 48
_cell_length_a 15.947223
_cell_length_b 15.054710
_cell_length_c 8.083470
_cell_angle_alpha 90.000000
_cell_angle_beta 90.000000
_cell_angle_gamma 90.000000
_cell_volume 1940.686086
_symmetry_space_group_name_H-M "I M A 2"
_symmetry_group_IT_number 46
_symmetry_cell_setting 'orthorhombic'
loop_
_space_group_symop_operation_xyz
x,y,z
-x,-y,z
1/2-x,y,z
1/2+x,-y,z
1/2+x,1/2+y,1/2+z
1/2-x,1/2-y,1/2+z
-x,1/2+y,1/2+z
x,1/2-y,1/2+z
loop_
_atom_site_type_symbol
_atom_site_label
_atom_site_fract_x
_atom_site_fract_y
_atom_site_fract_z
Si Si1 0.903293 0.977679 0.587150
Si Si2 0.986769 0.218367 0.346193
Si Si3 0.394265 0.670736 0.141826
Si Si4 0.346717 0.039845 0.941994
Si Si5 0.842089 0.139842 0.140665
Si Si6 0.846713 0.643390 0.781933
O O1 0.859788 0.074783 0.607322
O O2 0.897925 0.941725 0.775287
O O3 0.862947 0.921998 0.438622
O O4 0.000000 0.000000 0.548362
O O5 0.082795 0.218061 0.299295
O O6 0.934312 0.308059 0.319233
O O7 0.977258 0.189724 0.533533
O O8 0.927018 0.145684 0.251092
O O9 0.337271 0.754921 0.096258
O O10 0.250000 0.058227 0.898466
O O11 0.350815 0.937870 0.006636
O O12 0.366104 0.095460 0.107430
O O13 0.750000 0.120081 0.220981
O O14 0.750000 0.671895 0.782378
#
# Coordination Sequence:
#
# PCOD9380445 Si02
#       6
#     8   8   8   8   8   8
#     4  12  24  39  71 101 131 178 227 293 354 415
#     4  10  22  42  64  94 137 175 231 281 344 422
#     4  10  22  39  61  94 134 171 220 278 344 418
#     4  10  23  41  63  97 133 175 225 275 340 415
#     4   9  21  37  62  95 134 176 214 270 343 424
#     4  11  25  46  70  98 138 186 239 292 342 412
#
# _framework density 24.733519999999999
#
# number of rings (size 3 to 8) (size 9 to 14) (size 15 to 20)
#    1.000    0.667    1.667    2.500    2.333    2.000 
#    0.000    0.833    0.000    0.000    0.000    0.000 
#    0.000    0.000    0.000    0.000    0.000    0.000 
#
# Total GULP energy -133758.249930 kJ/mol
# GULP energy per Si atom -5573.260414 kJ/mol
# Density = 2.467723 g / cm^3
# Si number density = 24.733520 Si / 1000 Ang^3
#
#
#
# Elastic Constant Matrix: (Units=GPa)
#
#
# Indices 1 2 3 4 5 6 
#
# 1 125.9770 4.5501 26.7964 0.0000 0.0000 0.0000
# 2 4.5501 49.7427 0.8456 0.0000 0.0000 0.0000
# 3 26.7964 0.8456 89.3295 0.0000 0.0000 0.0000
# 4 0.0000 0.0000 0.0000 18.9091 0.0000 0.0000
# 5 0.0000 0.0000 0.0000 0.0000 33.8771 0.0000
# 6 0.0000 0.0000 0.0000 0.0000 0.0000 23.8731
#
#
#
# Elastic Compliance Matrix: (Units=1/GPa)
#
#
# Indices 1 2 3 4 5 6 
#
# 1 0.008506 -0.000735 -0.002545 0.000000 0.000000 0.000000
# 2 -0.000735 0.020170 0.000029 0.000000 0.000000 0.000000
# 3 -0.002545 0.000029 0.011958 0.000000 0.000000 0.000000
# 4 0.000000 0.000000 0.000000 0.052885 0.000000 0.000000
# 5 0.000000 0.000000 0.000000 0.000000 0.029518 0.000000
# 6 0.000000 0.000000 0.000000 0.000000 0.000000 0.041888
#
#
# Mechanical properties :
#
#
# Convention : Reuss Voigt Hill
#
# Bulk Modulus (GPa) = 29.29651 36.60371 32.95011
# Shear Modulus (GPa) = 27.35194 30.85565 29.10379
#
# Velocity S-wave (km/s) = 3.32906 3.53586 3.43402
# Velocity P-wave (km/s) = 5.16212 5.61259 5.39206
#
# Compressibility (1/GPa) = 0.03413376
#
# Stress axis : x y z
#
# Youngs Moduli (GPa) = 117.56761 49.57816 83.62932
#
# Poissons Ratio (x) = 0.03643 0.21280
# Poissons Ratio (y) = 0.08639 -0.00247
# Poissons Ratio (z) = 0.29916 -0.00146
#
# Static dielectric constant tensor:
#      x y z
#    x 1.940500 0.000000 0.000000 
#    y 0.000000 2.061940 0.000000 
#    z 0.000000 0.000000 2.033300 
# 
# From -- ./inp_files/6709.got.cif
#   From: 2010.05.17/outbox.cif.g08.bks.cpg/sg46_4_cif.got.tgz:6709.got - 2010.06.03 19:58:25.
