data_PCOD9380924
_publ_section_title
;
Structure prediction by ZEFSAII (Michael W. Deem and Ramdas Pophale) SiO2 
 PCOD9380924
Probable space group: I M A 2
;
_chemical_formula_sum "Si O2"
_cell_formula_units_Z 48
_cell_length_a 13.351666
_cell_length_b 12.568644
_cell_length_c 13.759921
_cell_angle_alpha 90.000000
_cell_angle_beta 90.000000
_cell_angle_gamma 90.000000
_cell_volume 2309.084497
_symmetry_space_group_name_H-M "I M A 2"
_symmetry_group_IT_number 46
_symmetry_cell_setting 'orthorhombic'
loop_
_space_group_symop_operation_xyz
x,y,z
-x,-y,z
1/2-x,y,z
1/2+x,-y,z
1/2+x,1/2+y,1/2+z
1/2-x,1/2-y,1/2+z
-x,1/2+y,1/2+z
x,1/2-y,1/2+z
loop_
_atom_site_type_symbol
_atom_site_label
_atom_site_fract_x
_atom_site_fract_y
_atom_site_fract_z
Si Si1 0.858079 0.570765 0.237840
Si Si2 0.641921 0.929235 0.306626
Si Si3 0.431029 0.647445 0.318735
Si Si4 0.068971 0.647445 0.725731
Si Si5 0.116191 0.983104 0.522233
Si Si6 0.632261 0.225416 0.022233
O O1 0.750000 0.618999 0.263610
O O2 0.872460 0.459327 0.294077
O O3 0.958805 0.632956 0.269382
O O4 0.854147 0.539168 0.123589
O O5 0.750000 0.881001 0.280856
O O6 0.541195 0.867044 0.275083
O O7 0.627540 0.040673 0.250388
O O8 0.645852 0.960832 0.420877
O O9 0.379872 0.750000 0.272232
O O10 0.426685 0.676791 0.430947
O O11 0.073314 0.676791 0.613519
O O12 0.134177 0.855438 0.522233
O O13 0.000000 0.000000 0.522233
O O14 0.750000 0.193066 0.022233
#
# Coordination Sequence:
#
# PCOD9380924 Si02
#       6
#     8   8   8   8   8   8
#     4  11  23  39  64  94 130 173 215 261 323 385
#     4  11  23  39  64  94 130 173 215 261 323 385
#     4  11  23  41  62  93 133 166 211 272 320 378
#     4  11  23  41  62  93 133 166 211 272 320 378
#     4  12  20  40  65  99 131 164 213 275 320 375
#     4  12  24  39  68  98 126 170 219 265 323 386
#
# _framework density 20.787458999999998
#
# number of rings (size 3 to 8) (size 9 to 14) (size 15 to 20)
#    0.000    0.667    6.667    2.500    0.000    4.667 
#    0.000    2.500    0.000    0.000    0.000    0.000 
#    0.000    0.000    0.000    0.000    0.000    0.000 
#
# Total GULP energy -133799.602239 kJ/mol
# GULP energy per Si atom -5574.983427 kJ/mol
# Density = 2.074015 g / cm^3
# Si number density = 20.787459 Si / 1000 Ang^3
#
#
#
# Elastic Constant Matrix: (Units=GPa)
#
#
# Indices 1 2 3 4 5 6 
#
# 1 153.6507 5.5532 23.1788 0.0000 0.0000 0.0000
# 2 5.5532 92.6236 26.6143 0.0000 0.0000 0.0000
# 3 23.1788 26.6143 180.9024 0.0000 0.0000 0.0000
# 4 0.0000 0.0000 0.0000 26.0285 0.0000 0.0000
# 5 0.0000 0.0000 0.0000 0.0000 225.7045 0.0000
# 6 0.0000 0.0000 0.0000 0.0000 0.0000 13.4748
#
#
#
# Elastic Compliance Matrix: (Units=1/GPa)
#
#
# Indices 1 2 3 4 5 6 
#
# 1 0.006639 -0.000160 -0.000827 0.000000 0.000000 0.000000
# 2 -0.000160 0.011277 -0.001638 0.000000 0.000000 0.000000
# 3 -0.000827 -0.001638 0.005875 0.000000 0.000000 0.000000
# 4 0.000000 0.000000 0.000000 0.038419 0.000000 0.000000
# 5 0.000000 0.000000 0.000000 0.000000 0.004431 0.000000
# 6 0.000000 0.000000 0.000000 0.000000 0.000000 0.074213
#
#
# Mechanical properties :
#
#
# Convention : Reuss Voigt Hill
#
# Bulk Modulus (GPa) = 53.94128 59.76326 56.85227
# Shear Modulus (GPa) = 32.83330 77.83026 55.33178
#
# Velocity S-wave (km/s) = 3.97857 6.12554 5.16485
# Velocity P-wave (km/s) = 6.86372 8.87929 7.93576
#
# Compressibility (1/GPa) = 0.01853868
#
# Stress axis : x y z
#
# Youngs Moduli (GPa) = 150.62905 88.67763 170.21679
#
# Poissons Ratio (x) = 0.01422 0.14077
# Poissons Ratio (y) = 0.02416 0.27890
# Poissons Ratio (z) = 0.12457 0.14530
#
# Static dielectric constant tensor:
#      x y z
#    x 1.775160 0.000000 0.000000 
#    y 0.000000 1.719400 0.000000 
#    z 0.000000 0.000000 1.923570 
# 
# From -- ./inp_files/11087.got.cif
#   From: 2010.05.17/outbox.cif.g08.bks.cpg/sg46_6_cif.got.tgz:11087.got - 2010.06.03 19:58:25.
