data_PCOD9380918
_publ_section_title
;
Structure prediction by ZEFSAII (Michael W. Deem and Ramdas Pophale) SiO2 
 PCOD9380918
Probable space group: I M A 2
;
_chemical_formula_sum "Si O2"
_cell_formula_units_Z 64
_cell_length_a 17.333799
_cell_length_b 8.917706
_cell_length_c 23.682101
_cell_angle_alpha 90.000000
_cell_angle_beta 90.000000
_cell_angle_gamma 90.000000
_cell_volume 3660.725257
_symmetry_space_group_name_H-M "I M A 2"
_symmetry_group_IT_number 46
_symmetry_cell_setting 'orthorhombic'
loop_
_space_group_symop_operation_xyz
x,y,z
-x,-y,z
1/2-x,y,z
1/2+x,-y,z
1/2+x,1/2+y,1/2+z
1/2-x,1/2-y,1/2+z
-x,1/2+y,1/2+z
x,1/2-y,1/2+z
loop_
_atom_site_type_symbol
_atom_site_label
_atom_site_fract_x
_atom_site_fract_y
_atom_site_fract_z
Si Si1 0.839011 0.173981 0.051200
Si Si2 0.162718 0.797699 0.918387
Si Si3 0.428861 0.888231 0.332232
Si Si4 0.339471 0.154669 0.911618
Si Si5 0.429921 0.388697 0.520263
Si Si6 0.660171 0.667758 0.797040
Si Si7 0.513728 0.822057 0.224232
Si Si8 0.481839 0.825707 0.605734
O O1 0.750000 0.181741 0.068275
O O2 0.895799 0.275584 0.087785
O O3 0.868836 0.001636 0.049606
O O4 0.845270 0.222464 0.985502
O O5 0.250000 0.750621 0.902609
O O6 0.098956 0.709639 0.883889
O O7 0.156260 0.974751 0.905848
O O8 0.458566 0.794383 0.278329
O O9 0.500000 0.000000 0.345969
O O10 0.359271 0.996243 0.313130
O O11 0.250000 0.192685 0.924609
O O12 0.359317 0.235672 0.853157
O O13 0.392977 0.188275 0.965355
O O14 0.500000 0.500000 0.502634
O O15 0.463367 0.271388 0.564541
O O16 0.750000 0.689821 0.783669
O O17 0.600498 0.702722 0.746909
O O18 0.495712 0.726177 0.169741
O O19 0.500000 0.000000 0.211320
O O20 0.500000 0.000000 0.598859
#
# Coordination Sequence:
#
# PCOD9380918 Si02
#       8
#     8   8   8   8   8   8   8   8
#     4   9  19  37  58  79 108 145 182 216 257 318
#     4   9  17  31  52  78 107 137 168 206 255 309
#     4   9  19  32  50  76 105 135 172 211 252 306
#     4   9  18  32  51  79 109 134 168 212 256 309
#     4   9  18  33  55  78 104 142 181 212 255 315
#     4   9  18  33  53  77 105 134 167 211 261 310
#     4   9  20  38  53  70 100 139 183 218 252 312
#     4  11  23  38  55  79 109 138 177 230 278 315
#
# _framework density 17.482875
#
# number of rings (size 3 to 8) (size 9 to 14) (size 15 to 20)
#    0.000    3.000    0.000    2.625    0.000    8.500 
#    0.000   10.625    0.000    0.000    0.000    0.000 
#    0.000    0.000    0.000    0.000    0.000    0.000 
#
# Total GULP energy -178379.178321 kJ/mol
# GULP energy per Si atom -5574.349323 kJ/mol
# Density = 1.744308 g / cm^3
# Si number density = 17.482875 Si / 1000 Ang^3
#
#
#
# Elastic Constant Matrix: (Units=GPa)
#
#
# Indices 1 2 3 4 5 6 
#
# 1 122.3209 54.9506 83.9488 0.0000 0.0000 0.0000
# 2 54.9506 48.0920 52.9695 0.0000 0.0000 0.0000
# 3 83.9488 52.9695 92.2590 0.0000 0.0000 0.0000
# 4 0.0000 0.0000 0.0000 17.6692 0.0000 0.0000
# 5 0.0000 0.0000 0.0000 0.0000 17.2313 0.0000
# 6 0.0000 0.0000 0.0000 0.0000 0.0000 16.4065
#
#
#
# Elastic Compliance Matrix: (Units=1/GPa)
#
#
# Indices 1 2 3 4 5 6 
#
# 1 0.023065 -0.008809 -0.015930 0.000000 0.000000 0.000000
# 2 -0.008809 0.059925 -0.026390 0.000000 0.000000 0.000000
# 3 -0.015930 -0.026390 0.040486 0.000000 0.000000 0.000000
# 4 0.000000 0.000000 0.000000 0.056596 0.000000 0.000000
# 5 0.000000 0.000000 0.000000 0.000000 0.058034 0.000000
# 6 0.000000 0.000000 0.000000 0.000000 0.000000 0.060952
#
#
# Mechanical properties :
#
#
# Convention : Reuss Voigt Hill
#
# Bulk Modulus (GPa) = 47.12925 71.82331 59.47628
# Shear Modulus (GPa) = 12.24325 14.98158 13.61242
#
# Velocity S-wave (km/s) = 2.64919 2.93051 2.79339
# Velocity P-wave (km/s) = 6.03104 7.25409 6.67066
#
# Compressibility (1/GPa) = 0.02121825
#
# Stress axis : x y z
#
# Youngs Moduli (GPa) = 43.35501 16.68747 24.70013
#
# Poissons Ratio (x) = 0.14700 0.39348
# Poissons Ratio (y) = 0.38192 0.65183
# Poissons Ratio (z) = 0.69065 0.44038
#
# Static dielectric constant tensor:
#      x y z
#    x 1.621110 0.000000 0.000000 
#    y 0.000000 1.590510 0.000000 
#    z 0.000000 0.000000 1.578640 
# 
# From -- ./inp_files/23811.got.cif
#   From: 2010.05.17/outbox.cif.g08.bks.cpg/sg46_12_cif.got.tgz:23811.got - 2010.06.03 19:58:25.
