data_PCOD9380809
_publ_section_title
;
Structure prediction by ZEFSAII (Michael W. Deem and Ramdas Pophale) SiO2 
 PCOD9380809
Probable space group: I M A 2
;
_chemical_formula_sum "Si O2"
_cell_formula_units_Z 32
_cell_length_a 18.133439
_cell_length_b 9.308340
_cell_length_c 8.233649
_cell_angle_alpha 90.000000
_cell_angle_beta 90.000000
_cell_angle_gamma 90.000000
_cell_volume 1389.775857
_symmetry_space_group_name_H-M "I M A 2"
_symmetry_group_IT_number 46
_symmetry_cell_setting 'orthorhombic'
loop_
_space_group_symop_operation_xyz
x,y,z
-x,-y,z
1/2-x,y,z
1/2+x,-y,z
1/2+x,1/2+y,1/2+z
1/2-x,1/2-y,1/2+z
-x,1/2+y,1/2+z
x,1/2-y,1/2+z
loop_
_atom_site_type_symbol
_atom_site_label
_atom_site_fract_x
_atom_site_fract_y
_atom_site_fract_z
Si Si1 0.586158 0.024385 0.410520
Si Si2 0.586070 0.034083 0.769783
Si Si3 0.164196 0.932404 0.087549
Si Si4 0.335201 0.279238 0.413760
O O1 0.594902 0.095041 0.588927
O O2 0.625430 0.097629 0.257620
O O3 0.620400 0.865709 0.427535
O O4 0.500000 0.000000 0.376701
O O5 0.630217 0.883373 0.777577
O O6 0.500000 0.000000 0.796946
O O7 0.620179 0.114655 0.925460
O O8 0.250000 0.888453 0.083172
O O9 0.161675 0.107582 0.064424
O O10 0.250000 0.247501 0.383295
#
# Coordination Sequence:
#
# PCOD9380809 Si02
#       4
#     8   8   8   8
#     4  11  20  30  47  73 109 135 163 205 255 302
#     4   9  19  33  48  72 106 132 166 205 255 304
#     4   9  19  31  49  73  98 130 165 206 251 293
#     4   9  19  34  52  76 104 131 165 210 253 294
#
# _framework density 23.025293999999999
#
# number of rings (size 3 to 8) (size 9 to 14) (size 15 to 20)
#    1.500    1.000    0.000    3.000    0.000    6.000 
#    0.000    0.000    0.000    0.000    0.000    7.000 
#    0.000    0.000    0.000    0.000    0.000    0.000 
#
# Total GULP energy -89258.139145 kJ/mol
# GULP energy per Si atom -5578.633697 kJ/mol
# Density = 2.297289 g / cm^3
# Si number density = 23.025294 Si / 1000 Ang^3
#
#
#
# Elastic Constant Matrix: (Units=GPa)
#
#
# Indices 1 2 3 4 5 6 
#
# 1 190.9552 31.5050 106.2202 0.0000 0.0000 0.0000
# 2 31.5050 79.9137 22.0851 0.0000 0.0000 0.0000
# 3 106.2202 22.0851 249.9044 0.0000 0.0000 0.0000
# 4 0.0000 0.0000 0.0000 30.5935 0.0000 0.0000
# 5 0.0000 0.0000 0.0000 0.0000 116.7224 0.0000
# 6 0.0000 0.0000 0.0000 0.0000 0.0000 -9.5865
#
#
#
# Elastic Compliance Matrix: (Units=1/GPa)
#
#
# Indices 1 2 3 4 5 6 
#
# 1 0.007167 -0.002033 -0.002867 0.000000 0.000000 0.000000
# 2 -0.002033 0.013404 -0.000320 0.000000 0.000000 0.000000
# 3 -0.002867 -0.000320 0.005248 0.000000 0.000000 0.000000
# 4 0.000000 0.000000 0.000000 0.032687 0.000000 0.000000
# 5 0.000000 0.000000 0.000000 0.000000 0.008567 0.000000
# 6 0.000000 0.000000 0.000000 0.000000 0.000000 -0.104314
#
#
# Mechanical properties :
#
#
# Convention : Reuss Voigt Hill
#
# Bulk Modulus (GPa) = 65.02581 93.37708 79.20145
# Shear Modulus (GPa) = -230.68349 51.61009 -89.53670
#
# Velocity S-wave (km/s) = -10.02020 4.73953 -6.24265
# Velocity P-wave (km/s) = 10.27474 8.40197 4.18194
#
# Compressibility (1/GPa) = 0.01537851
#
# Stress axis : x y z
#
# Youngs Moduli (GPa) = 139.53219 74.60679 190.54039
#
# Poissons Ratio (x) = 0.15169 0.54619
# Poissons Ratio (y) = 0.28370 0.06103
# Poissons Ratio (z) = 0.39997 0.02390
#
# Static dielectric constant tensor:
#      x y z
#    x 1.743950 0.000000 0.000000 
#    y 0.000000 1.861420 0.000000 
#    z 0.000000 0.000000 1.936580 
# 
# From -- ./inp_files/5221.got.cif
#   From: 2010.05.17/outbox.cif.g08.bks.cpg/sg46_3_cif.got.tgz:5221.got - 2010.06.03 19:58:25.
