data_PCOD9380034
_publ_section_title
;
Structure prediction by ZEFSAII (Michael W. Deem and Ramdas Pophale) SiO2 
 PCOD9380034
Probable space group: I M A 2
;
_chemical_formula_sum "Si O2"
_cell_formula_units_Z 64
_cell_length_a 8.697768
_cell_length_b 28.584506
_cell_length_c 11.566274
_cell_angle_alpha 90.000000
_cell_angle_beta 90.000000
_cell_angle_gamma 90.000000
_cell_volume 2875.623253
_symmetry_space_group_name_H-M "I M A 2"
_symmetry_group_IT_number 46
_symmetry_cell_setting 'orthorhombic'
loop_
_space_group_symop_operation_xyz
x,y,z
-x,-y,z
1/2-x,y,z
1/2+x,-y,z
1/2+x,1/2+y,1/2+z
1/2-x,1/2-y,1/2+z
-x,1/2+y,1/2+z
x,1/2-y,1/2+z
loop_
_atom_site_type_symbol
_atom_site_label
_atom_site_fract_x
_atom_site_fract_y
_atom_site_fract_z
Si Si1 0.436406 0.447115 0.247440
Si Si2 0.568834 0.414612 0.745235
Si Si3 0.922488 0.180142 0.978831
Si Si4 0.419524 0.288085 0.265028
Si Si5 0.078562 0.711692 0.052183
Si Si6 0.436282 0.552836 0.003128
Si Si7 0.925575 0.192020 0.292116
Si Si8 0.072048 0.414406 0.504947
O O1 0.500000 0.500000 0.249335
O O2 0.250000 0.445726 0.241732
O O3 0.485085 0.427176 0.374479
O O4 0.501169 0.425990 0.125652
O O5 0.750000 0.424910 0.743347
O O6 0.514265 0.428591 0.875049
O O7 0.548356 0.358461 0.740303
O O8 0.500035 0.434144 0.624691
O O9 0.750000 0.162969 0.002433
O O10 0.951619 0.189408 0.844338
O O11 0.937872 0.232262 0.030604
O O12 0.044322 0.141292 0.011914
O O13 0.250000 0.297862 0.309458
O O14 0.446154 0.304612 0.136045
O O15 0.454771 0.232689 0.264674
O O16 0.250000 0.703905 0.099651
O O17 0.070988 0.687132 0.929810
O O18 0.500000 0.500000 0.004158
O O19 0.250000 0.554518 0.007785
O O20 0.750000 0.207258 0.263265
O O21 0.250000 0.426748 0.506873
#
# Coordination Sequence:
#
# PCOD9380034 Si02
#       8
#     8   8   8   8   8   8   8   8
#     4  10  22  41  64  90 120 154 192 235 287 346
#     4  10  22  39  60  87 118 155 198 239 286 351
#     4  10  21  37  56  76 105 149 194 235 282 340
#     4  11  21  32  50  77 108 142 185 238 292 343
#     4   9  18  33  52  73 100 140 189 236 283 337
#     4  10  21  39  64  92 120 154 196 239 288 346
#     4   9  19  36  54  74 104 144 191 237 281 337
#     4  11  24  39  58  89 124 154 190 241 296 346
#
# _framework density 22.256042999999998
#
# number of rings (size 3 to 8) (size 9 to 14) (size 15 to 20)
#    0.000    2.000    0.000    4.875    0.000   10.500 
#    0.000    3.750    0.000    0.000    0.000    0.000 
#    0.000    0.000    0.000    0.000    0.000    0.000 
#
# Total GULP energy -178401.678240 kJ/mol
# GULP energy per Si atom -5575.052445 kJ/mol
# Density = 2.220539 g / cm^3
# Si number density = 22.256043 Si / 1000 Ang^3
#
#
#
# Elastic Constant Matrix: (Units=GPa)
#
#
# Indices 1 2 3 4 5 6 
#
# 1 42.4846 12.1860 51.5107 0.0000 0.0000 0.0000
# 2 12.1860 17.5758 16.3022 0.0000 0.0000 0.0001
# 3 51.5107 16.3022 204.8688 0.0008 -0.0001 -0.0001
# 4 0.0000 0.0000 0.0008 -37.3672 0.0000 0.0000
# 5 0.0000 0.0000 -0.0001 0.0000 34.2221 -0.0001
# 6 0.0000 0.0001 -0.0001 0.0000 -0.0001 -0.0359
#
#
#
# Elastic Compliance Matrix: (Units=1/GPa)
#
#
# Indices 1 2 3 4 5 6 
#
# 1 0.039192 -0.019470 -0.008305 0.000000 0.000000 -0.000090
# 2 -0.019470 0.071103 -0.000762 0.000000 0.000000 0.000276
# 3 -0.008305 -0.000762 0.007030 0.000000 0.000000 -0.000016
# 4 0.000000 0.000000 0.000000 -0.026761 0.000000 0.000036
# 5 0.000000 0.000000 0.000000 0.000000 0.029221 -0.000041
# 6 -0.000090 0.000276 -0.000016 0.000036 -0.000041-27.846315
#
#
# Mechanical properties :
#
#
# Convention : Reuss Voigt Hill
#
# Bulk Modulus (GPa) = 16.59752 47.21411 31.90582
# Shear Modulus (GPa) = -0.18084 11.69248 5.75582
#
# Velocity S-wave (km/s) = -0.28536 2.29456 1.60991
# Velocity P-wave (km/s) = 2.71388 5.31791 4.22169
#
# Compressibility (1/GPa) = 0.06024995
#
# Stress axis : x y z
#
# Youngs Moduli (GPa) = 25.51549 14.06403 142.24873
#
# Poissons Ratio (x) = 0.27383 1.18135
# Poissons Ratio (y) = 0.49680 0.10846
# Poissons Ratio (z) = 0.21190 0.01072
#
# Static dielectric constant tensor:
#      x y z
#    x 1.780340 0.000000 0.000000 
#    y 0.000000 1.825590 0.000000 
#    z 0.000000 0.000000 1.927010 
# 
# From -- ./inp_files/9796.got.cif
#   From: 2010.05.17/outbox.cif.g08.bks.cpg/sg46_5_cif.got.tgz:9796.got - 2010.06.03 19:58:25.
