data_PCOD9380692
_publ_section_title
;
Structure prediction by ZEFSAII (Michael W. Deem and Ramdas Pophale) SiO2 
 PCOD9380692
Probable space group: I M A 2
;
_chemical_formula_sum "Si O2"
_cell_formula_units_Z 60
_cell_length_a 10.091793
_cell_length_b 18.392466
_cell_length_c 16.340500
_cell_angle_alpha 90.000000
_cell_angle_beta 90.000000
_cell_angle_gamma 90.000000
_cell_volume 3033.008567
_symmetry_space_group_name_H-M "I M A 2"
_symmetry_group_IT_number 46
_symmetry_cell_setting 'orthorhombic'
loop_
_space_group_symop_operation_xyz
x,y,z
-x,-y,z
1/2-x,y,z
1/2+x,-y,z
1/2+x,1/2+y,1/2+z
1/2-x,1/2-y,1/2+z
-x,1/2+y,1/2+z
x,1/2-y,1/2+z
loop_
_atom_site_type_symbol
_atom_site_label
_atom_site_fract_x
_atom_site_fract_y
_atom_site_fract_z
Si Si1 0.099147 0.649239 0.662730
Si Si2 0.908386 0.294613 0.375603
Si Si3 0.096177 0.931761 0.989432
Si Si4 0.531305 0.850438 0.450555
Si Si5 0.250000 0.172235 0.594701
Si Si6 0.404997 0.429487 0.784710
Si Si7 0.392118 0.561318 0.078808
Si Si8 0.521146 0.308133 0.185856
O O1 0.250000 0.638622 0.695582
O O2 0.086735 0.602956 0.579996
O O3 0.982289 0.624997 0.723572
O O4 0.079067 0.734502 0.645830
O O5 0.750000 0.283748 0.377336
O O6 0.937940 0.367956 0.425787
O O7 0.977210 0.225811 0.417728
O O8 0.954002 0.301800 0.282224
O O9 0.250000 0.952914 0.976565
O O10 0.000000 0.000000 0.982003
O O11 0.635057 0.838218 0.523237
O O12 0.590356 0.894758 0.374717
O O13 0.416686 0.898477 0.492906
O O14 0.132036 0.184403 0.662751
O O15 0.500000 0.500000 0.783287
O O16 0.250000 0.442788 0.762010
O O17 0.500000 0.500000 0.090374
O O18 0.250000 0.524395 0.080899
O O19 0.405493 0.622106 0.148270
#
# Coordination Sequence:
#
# PCOD9380692 Si02
#       8
#     8   8   8   8   4   8   8   8
#     4  11  23  43  71 100 139 178 233 289 349 424
#     4  11  23  43  72 101 133 177 235 290 350 419
#     4  10  23  44  65  98 134 177 226 280 339 408
#     4  11  23  43  68  96 138 174 231 288 347 415
#     4  10  24  42  64  98 140 176 226 286 346 416
#     4  12  26  42  66 101 143 185 227 278 347 419
#     4  11  25  41  67  97 132 181 230 284 351 415
#     4  11  24  43  70  98 138 176 235 287 352 417
#
# _framework density 19.782337999999999
#
# number of rings (size 3 to 8) (size 9 to 14) (size 15 to 20)
#    0.000    1.067    2.000    4.400    4.667    6.400 
#    4.800    0.000    0.000    0.000    0.000    0.000 
#    0.000    0.000    0.000    0.000    0.000    0.000 
#
# Total GULP energy -167208.650709 kJ/mol
# GULP energy per Si atom -5573.621690 kJ/mol
# Density = 1.973731 g / cm^3
# Si number density = 19.782338 Si / 1000 Ang^3
#
#
#
# Elastic Constant Matrix: (Units=GPa)
#
#
# Indices 1 2 3 4 5 6 
#
# 1 153.0428 46.8707 18.7366 0.0000 0.0000 0.0000
# 2 46.8707 108.8706 23.3867 0.0000 0.0000 0.0000
# 3 18.7366 23.3867 23.2710 0.0000 0.0000 0.0000
# 4 0.0000 0.0000 0.0000 10.5902 0.0000 0.0000
# 5 0.0000 0.0000 0.0000 0.0000 18.6846 0.0000
# 6 0.0000 0.0000 0.0000 0.0000 0.0000 5.6776
#
#
#
# Elastic Compliance Matrix: (Units=1/GPa)
#
#
# Indices 1 2 3 4 5 6 
#
# 1 0.007767 -0.002551 -0.003690 0.000000 0.000000 0.000000
# 2 -0.002551 0.012552 -0.010560 0.000000 0.000000 0.000000
# 3 -0.003690 -0.010560 0.056556 0.000000 0.000000 0.000000
# 4 0.000000 0.000000 0.000000 0.094427 0.000000 -0.000001
# 5 0.000000 0.000000 0.000000 0.000000 0.053520 0.000000
# 6 0.000000 0.000000 0.000000 -0.000001 0.000000 0.176130
#
#
# Mechanical properties :
#
#
# Convention : Reuss Voigt Hill
#
# Bulk Modulus (GPa) = 23.10954 51.46358 37.28656
# Shear Modulus (GPa) = 11.13640 20.06985 15.60312
#
# Velocity S-wave (km/s) = 2.37522 3.18863 2.81150
# Velocity P-wave (km/s) = 4.38515 6.29507 5.42482
#
# Compressibility (1/GPa) = 0.04327217
#
# Stress axis : x y z
#
# Youngs Moduli (GPa) = 128.74634 79.66805 17.68169
#
# Poissons Ratio (x) = 0.20326 0.06524
# Poissons Ratio (y) = 0.32847 0.18672
# Poissons Ratio (z) = 0.47504 0.84132
#
# Static dielectric constant tensor:
#      x y z
#    x 1.713050 0.000000 0.000000 
#    y 0.000000 1.697680 0.000000 
#    z 0.000000 0.000000 1.671650 
# 
# From -- ./inp_files/18370.got.cif
#   From: 2010.05.17/outbox.cif.g08.bks.cpg/sg46_10_cif.got.tgz:18370.got - 2010.06.03 19:58:25.
