data_PCOD9380049
_publ_section_title
;
Structure prediction by ZEFSAII (Michael W. Deem and Ramdas Pophale) SiO2 
 PCOD9380049
Probable space group: I M A 2
;
_chemical_formula_sum "Si O2"
_cell_formula_units_Z 40
_cell_length_a 17.416147
_cell_length_b 19.369316
_cell_length_c 5.243437
_cell_angle_alpha 90.000000
_cell_angle_beta 90.000000
_cell_angle_gamma 90.000000
_cell_volume 1768.815033
_symmetry_space_group_name_H-M "I M A 2"
_symmetry_group_IT_number 46
_symmetry_cell_setting 'orthorhombic'
loop_
_space_group_symop_operation_xyz
x,y,z
-x,-y,z
1/2-x,y,z
1/2+x,-y,z
1/2+x,1/2+y,1/2+z
1/2-x,1/2-y,1/2+z
-x,1/2+y,1/2+z
x,1/2-y,1/2+z
loop_
_atom_site_type_symbol
_atom_site_label
_atom_site_fract_x
_atom_site_fract_y
_atom_site_fract_z
Si Si1 0.876291 0.924639 0.995840
Si Si2 0.337079 0.276565 0.667498
Si Si3 0.250000 0.542685 0.519093
Si Si4 0.083248 0.794942 0.505785
Si Si5 0.529093 0.575624 0.999951
Si Si6 0.750000 0.361412 0.019437
O O1 0.834181 0.855564 0.089876
O O2 0.904628 0.911273 0.708936
O O3 0.823281 0.991879 0.008558
O O4 0.942780 0.929919 0.208030
O O5 0.250000 0.249038 0.704865
O O6 0.376289 0.264192 0.937654
O O7 0.250000 0.587078 0.777156
O O8 0.250000 0.593337 0.277389
O O9 0.066601 0.745871 0.745658
O O10 0.173073 0.815966 0.510776
O O11 0.034589 0.865323 0.521519
O O12 0.500000 0.500000 0.075322
#
# Coordination Sequence:
#
# PCOD9380049 Si02
#       6
#     8   8   4   8   8   4
#     4  12  24  42  67  96 136 179 232 277 333 412
#     4  10  21  37  58  87 126 166 210 265 320 376
#     4  12  24  43  70 105 138 186 236 284 344 415
#     4  12  26  48  75 106 139 181 234 294 358 423
#     4  12  27  45  68 100 140 184 226 282 346 411
#     4  12  26  47  74 103 138 176 230 298 358 415
#
# _framework density 22.61401
#
# number of rings (size 3 to 8) (size 9 to 14) (size 15 to 20)
#    0.000    0.400    1.000    8.400    0.000    4.800 
#    0.000    0.000    0.000    0.000    0.000    0.000 
#    0.000    0.000    0.000    0.000    0.000    0.000 
#
# Total GULP energy -111999.115999 kJ/mol
# GULP energy per Si atom -5599.955800 kJ/mol
# Density = 2.256254 g / cm^3
# Si number density = 22.614010 Si / 1000 Ang^3
#
#
#
# Elastic Constant Matrix: (Units=GPa)
#
#
# Indices 1 2 3 4 5 6 
#
# 1 72.3004 28.4722 2.8291 0.0000 0.0000 0.0000
# 2 28.4722 111.8776 41.4804 0.0000 0.0000 0.0000
# 3 2.8291 41.4804 133.7288 0.0000 0.0000 0.0000
# 4 0.0000 0.0000 0.0000 42.2857 0.0000 0.0000
# 5 0.0000 0.0000 0.0000 0.0000 -155.7137 0.0000
# 6 0.0000 0.0000 0.0000 0.0000 0.0000 -1.0371
#
#
#
# Elastic Compliance Matrix: (Units=1/GPa)
#
#
# Indices 1 2 3 4 5 6 
#
# 1 0.015492 -0.004318 0.001012 0.000000 0.000000 0.000000
# 2 -0.004318 0.011303 -0.003415 0.000000 0.000000 0.000000
# 3 0.001012 -0.003415 0.008516 0.000000 0.000000 0.000000
# 4 0.000000 0.000000 0.000000 0.023649 0.000000 0.000000
# 5 0.000000 0.000000 0.000000 0.000000 -0.006422 0.000000
# 6 0.000000 0.000000 0.000000 0.000000 0.000000 -0.964260
#
#
# Mechanical properties :
#
#
# Convention : Reuss Voigt Hill
#
# Bulk Modulus (GPa) = 45.72673 51.49670 48.61171
# Shear Modulus (GPa) = -5.61173 -6.55134 -6.08154
#
# Velocity S-wave (km/s) = -1.57700 -1.70391 -1.64168
# Velocity P-wave (km/s) = 4.11686 4.35320 4.23668
#
# Compressibility (1/GPa) = 0.02186905
#
# Stress axis : x y z
#
# Youngs Moduli (GPa) = 64.54979 88.47035 117.43141
#
# Poissons Ratio (x) = 0.38198 -0.11878
# Poissons Ratio (y) = 0.27870 0.40100
# Poissons Ratio (z) = -0.06529 0.30210
#
# Static dielectric constant tensor:
#      x y z
#    x 2.613210 0.000000 0.000000 
#    y 0.000000 1.819220 0.000000 
#    z 0.000000 0.000000 1.832560 
# 
# From -- ./inp_files/1606.got.cif
#   From: 2010.05.17/outbox.cif.g08.bks.cpg/sg46_1_cif.got.tgz:1606.got - 2010.06.03 19:58:25.
