data_PCOD9380388
_publ_section_title
;
Structure prediction by ZEFSAII (Michael W. Deem and Ramdas Pophale) SiO2 
 PCOD9380388
Probable space group: I M A 2
;
_chemical_formula_sum "Si O2"
_cell_formula_units_Z 64
_cell_length_a 8.712738
_cell_length_b 28.995229
_cell_length_c 13.258091
_cell_angle_alpha 90.000000
_cell_angle_beta 90.000000
_cell_angle_gamma 90.000000
_cell_volume 3349.362806
_symmetry_space_group_name_H-M "I M A 2"
_symmetry_group_IT_number 46
_symmetry_cell_setting 'orthorhombic'
loop_
_space_group_symop_operation_xyz
x,y,z
-x,-y,z
1/2-x,y,z
1/2+x,-y,z
1/2+x,1/2+y,1/2+z
1/2-x,1/2-y,1/2+z
-x,1/2+y,1/2+z
x,1/2-y,1/2+z
loop_
_atom_site_type_symbol
_atom_site_label
_atom_site_fract_x
_atom_site_fract_y
_atom_site_fract_z
Si Si1 0.566201 0.051848 0.924760
Si Si2 0.568957 0.113583 0.537409
Si Si3 0.920226 0.801081 0.636367
Si Si4 0.926599 0.251128 0.812641
Si Si5 0.078957 0.287703 0.496441
Si Si6 0.431963 0.385524 0.601706
Si Si7 0.566935 0.551575 0.212760
Si Si8 0.064233 0.640973 0.814387
O O1 0.750000 0.050693 0.919534
O O2 0.501118 0.071607 0.818205
O O3 0.500000 0.000000 0.932385
O O4 0.511289 0.080105 0.022467
O O5 0.750000 0.103354 0.538284
O O6 0.535790 0.163549 0.585237
O O7 0.484391 0.078816 0.613009
O O8 0.516922 0.117429 0.420472
O O9 0.750000 0.822496 0.641575
O O10 0.911279 0.754870 0.571690
O O11 0.977385 0.782354 0.741949
O O12 0.750000 0.252039 0.779915
O O13 0.982131 0.304528 0.814828
O O14 0.948023 0.227560 0.920267
O O15 0.250000 0.292277 0.448303
O O16 0.046457 0.334447 0.555442
O O17 0.250000 0.395181 0.605594
O O18 0.498985 0.383568 0.714834
O O19 0.500000 0.500000 0.205561
O O20 0.750000 0.550268 0.220925
O O21 0.250000 0.640228 0.811350
#
# Coordination Sequence:
#
# PCOD9380388 Si02
#       8
#     8   8   8   8   8   8   8   8
#     4  11  23  43  69  96 125 158 195 246 304 363
#     4  11  23  41  62  90 123 161 206 253 303 362
#     4  11  22  37  56  83 118 160 204 251 299 356
#     4  11  22  36  55  80 115 159 204 254 304 353
#     4  10  22  37  55  81 117 159 204 248 297 354
#     4  11  23  40  62  90 122 161 206 253 303 363
#     4  11  23  43  69  97 125 157 195 245 304 364
#     4  10  22  39  59  85 121 163 206 254 304 358
#
# _framework density 19.108111999999998
#
# number of rings (size 3 to 8) (size 9 to 14) (size 15 to 20)
#    0.000    1.250    2.500    4.500    1.750    3.000 
#    0.000    0.625    0.000    3.000    0.000    0.000 
#    0.000    0.000    0.000    0.000    0.000    0.000 
#
# Total GULP energy -178652.439784 kJ/mol
# GULP energy per Si atom -5582.888743 kJ/mol
# Density = 1.906462 g / cm^3
# Si number density = 19.108112 Si / 1000 Ang^3
#
#
#
# Elastic Constant Matrix: (Units=GPa)
#
#
# Indices 1 2 3 4 5 6 
#
# 1 86.6202 27.3695 55.8926 -0.0001 0.0000 0.0000
# 2 27.3695 65.0633 49.1541 -0.0003 0.0000 0.0000
# 3 55.8926 49.1541 157.0873 -0.0005 0.0000 -0.0001
# 4 -0.0001 -0.0003 -0.0005 31.6217 0.0000 0.0000
# 5 0.0000 0.0000 0.0000 0.0000 30.9049 0.0000
# 6 0.0000 0.0000 -0.0001 0.0000 0.0000 25.7233
#
#
#
# Elastic Compliance Matrix: (Units=1/GPa)
#
#
# Indices 1 2 3 4 5 6 
#
# 1 0.015440 -0.003070 -0.004533 0.000000 0.000000 0.000000
# 2 -0.003070 0.020738 -0.005397 0.000000 0.000000 0.000000
# 3 -0.004533 -0.005397 0.009667 0.000000 0.000000 0.000000
# 4 0.000000 0.000000 0.000000 0.031624 0.000000 0.000000
# 5 0.000000 0.000000 0.000000 0.000000 0.032357 0.000000
# 6 0.000000 0.000000 0.000000 0.000000 0.000000 0.038875
#
#
# Mechanical properties :
#
#
# Convention : Reuss Voigt Hill
#
# Bulk Modulus (GPa) = 50.38921 63.73368 57.06145
# Shear Modulus (GPa) = 27.57602 29.40694 28.49148
#
# Velocity S-wave (km/s) = 3.80301 3.92724 3.86562
# Velocity P-wave (km/s) = 6.76104 7.34785 7.06055
#
# Compressibility (1/GPa) = 0.01984552
#
# Stress axis : x y z
#
# Youngs Moduli (GPa) = 64.76841 48.21970 103.44080
#
# Poissons Ratio (x) = 0.14806 0.46887
# Poissons Ratio (y) = 0.19887 0.55825
# Poissons Ratio (z) = 0.29358 0.26023
#
# Static dielectric constant tensor:
#      x y z
#    x 1.673240 0.000000 0.000000 
#    y 0.000000 1.642300 0.000000 
#    z 0.000000 0.000000 1.653570 
# 
# From -- ./inp_files/9733.got.cif
#   From: 2010.05.17/outbox.cif.g08.bks.cpg/sg46_5_cif.got.tgz:9733.got - 2010.06.03 19:58:25.
