data_PCOD9380508
_publ_section_title
;
Structure prediction by ZEFSAII (Michael W. Deem and Ramdas Pophale) SiO2 
 PCOD9380508
Probable space group: I M A 2
;
_chemical_formula_sum "Si O2"
_cell_formula_units_Z 48
_cell_length_a 19.539670
_cell_length_b 8.657886
_cell_length_c 11.677644
_cell_angle_alpha 90.000000
_cell_angle_beta 90.000000
_cell_angle_gamma 90.000000
_cell_volume 1975.533139
_symmetry_space_group_name_H-M "I M A 2"
_symmetry_group_IT_number 46
_symmetry_cell_setting 'orthorhombic'
loop_
_space_group_symop_operation_xyz
x,y,z
-x,-y,z
1/2-x,y,z
1/2+x,-y,z
1/2+x,1/2+y,1/2+z
1/2-x,1/2-y,1/2+z
-x,1/2+y,1/2+z
x,1/2-y,1/2+z
loop_
_atom_site_type_symbol
_atom_site_label
_atom_site_fract_x
_atom_site_fract_y
_atom_site_fract_z
Si Si1 0.500000 0.000000 0.044730
Si Si2 0.495850 0.257872 0.233481
Si Si3 0.148571 0.568141 0.473118
Si Si4 0.750000 0.639590 0.868848
Si Si5 0.621640 0.013261 0.733480
Si Si6 0.250000 0.360407 0.598113
Si Si7 0.500000 0.500000 0.922233
Si Si8 0.648571 0.068147 0.493841
O O1 0.489570 0.148403 0.124069
O O2 0.567800 0.033492 0.975099
O O3 0.433023 0.375079 0.233478
O O4 0.570983 0.336518 0.233483
O O5 0.489568 0.148403 0.342894
O O6 0.167508 0.513288 0.346390
O O7 0.184808 0.471483 0.572549
O O8 0.161670 0.749997 0.483479
O O9 0.750000 0.811347 0.233481
O O10 0.750000 0.749998 0.983481
O O11 0.815192 0.528513 0.894411
O O12 0.667509 0.013295 0.620570
O O13 0.432200 0.533498 0.991863
#
# Coordination Sequence:
#
# PCOD9380508 Si02
#       8
#     4   8   8   4   8   4   4   8
#     4  11  24  41  74 114 154 203 255 318 386 452
#     4  10  22  40  68 114 162 195 253 323 385 448
#     4  12  28  49  76 112 156 205 259 314 392 460
#     4  12  35  58  82 110 154 204 263 328 398 468
#     4  11  24  41  74 112 154 201 257 319 383 462
#     4  12  35  58  82 110 154 204 263 328 398 468
#     4  11  24  41  74 114 154 203 255 318 386 452
#     4  12  28  49  76 112 156 205 259 314 392 460
#
# _framework density 24.297239000000001
#
# number of rings (size 3 to 8) (size 9 to 14) (size 15 to 20)
#    0.000    0.667    3.333    2.500   14.000    0.000 
#    0.000    0.000    0.000    0.000    0.000    0.000 
#    0.000    0.000    0.000    0.000    0.000    0.000 
#
# Total GULP energy -134406.014222 kJ/mol
# GULP energy per Si atom -5600.250593 kJ/mol
# Density = 2.424194 g / cm^3
# Si number density = 24.297239 Si / 1000 Ang^3
#
#
#
# Elastic Constant Matrix: (Units=GPa)
#
#
# Indices 1 2 3 4 5 6 
#
# 1 99.6489 21.1840 27.3052 0.0000 0.0000 0.0000
# 2 21.1840 114.9903 46.4878 0.0000 0.0000 0.0000
# 3 27.3052 46.4878 192.3423 0.0000 0.0000 0.0000
# 4 0.0000 0.0000 0.0000 -215.2240 0.0000 0.0000
# 5 0.0000 0.0000 0.0000 0.0000 38.3803 0.0000
# 6 0.0000 0.0000 0.0000 0.0000 0.0000 7.2104
#
#
#
# Elastic Compliance Matrix: (Units=1/GPa)
#
#
# Indices 1 2 3 4 5 6 
#
# 1 0.010670 -0.001500 -0.001152 0.000000 0.000000 0.000000
# 2 -0.001500 0.009849 -0.002168 0.000000 0.000000 0.000000
# 3 -0.001152 -0.002168 0.005887 0.000000 0.000000 0.000000
# 4 0.000000 0.000000 0.000000 -0.004646 0.000000 0.000000
# 5 0.000000 0.000000 0.000000 0.000000 0.026055 0.000000
# 6 0.000000 0.000000 0.000000 0.000000 0.000000 0.138689
#
#
# Mechanical properties :
#
#
# Convention : Reuss Voigt Hill
#
# Bulk Modulus (GPa) = 59.64386 66.32616 62.98501
# Shear Modulus (GPa) = 24.78550 -13.12635 5.82958
#
# Velocity S-wave (km/s) = 3.19736 -2.32683 1.55064
# Velocity P-wave (km/s) = 6.18318 4.48756 5.40231
#
# Compressibility (1/GPa) = 0.01676618
#
# Stress axis : x y z
#
# Youngs Moduli (GPa) = 93.72250 101.53356 169.88018
#
# Poissons Ratio (x) = 0.15228 0.19574
# Poissons Ratio (y) = 0.14057 0.36822
# Poissons Ratio (z) = 0.10799 0.22007
#
# Static dielectric constant tensor:
#      x y z
#    x 2.043800 0.000000 0.000000 
#    y 0.000000 1.950660 0.000000 
#    z 0.000000 0.000000 1.974110 
# 
# From -- ./inp_files/12764.got.cif
#   From: 2010.05.17/outbox.cif.g08.bks.cpg/sg46_7_cif.got.tgz:12764.got - 2010.06.03 19:58:25.
