data_PCOD9380620
_publ_section_title
;
Structure prediction by ZEFSAII (Michael W. Deem and Ramdas Pophale) SiO2 
 PCOD9380620
Probable space group: I M A 2
;
_chemical_formula_sum "Si O2"
_cell_formula_units_Z 40
_cell_length_a 21.782014
_cell_length_b 4.657041
_cell_length_c 14.198266
_cell_angle_alpha 90.000000
_cell_angle_beta 90.000000
_cell_angle_gamma 90.000000
_cell_volume 1440.268302
_symmetry_space_group_name_H-M "I M A 2"
_symmetry_group_IT_number 46
_symmetry_cell_setting 'orthorhombic'
loop_
_space_group_symop_operation_xyz
x,y,z
-x,-y,z
1/2-x,y,z
1/2+x,-y,z
1/2+x,1/2+y,1/2+z
1/2-x,1/2-y,1/2+z
-x,1/2+y,1/2+z
x,1/2-y,1/2+z
loop_
_atom_site_type_symbol
_atom_site_label
_atom_site_fract_x
_atom_site_fract_y
_atom_site_fract_z
Si Si1 0.423541 0.891196 0.767640
Si Si2 0.937861 0.193546 0.054763
Si Si3 0.320795 0.300259 0.510375
Si Si4 0.000000 0.500000 0.902153
Si Si5 0.655513 0.894112 0.303044
Si Si6 0.250000 0.181367 0.645489
O O1 0.437334 0.816092 0.660024
O O2 0.474467 0.746852 0.833310
O O3 0.360701 0.727647 0.798069
O O4 0.407571 0.220515 0.785898
O O5 0.944795 0.455107 0.979988
O O6 0.000000 0.000000 0.042496
O O7 0.878301 0.999185 0.032318
O O8 0.250000 0.418193 0.541335
O O9 0.319843 0.202372 0.403809
O O10 0.308036 0.036162 0.580793
O O11 0.697891 0.809632 0.217915
#
# Coordination Sequence:
#
# PCOD9380620 Si02
#       6
#     8   8   8   4   8   4
#     4  12  28  47  79 111 160 209 275 334 417 489
#     4  12  26  49  79 112 159 212 276 342 418 502
#     4  10  22  48  77 115 158 211 269 338 417 498
#     4  12  28  46  78 114 160 218 270 348 408 500
#     4  12  25  49  74 115 158 211 262 338 407 498
#     4  10  22  46  78 114 156 208 270 328 418 498
#
# _framework density 27.772604999999999
#
# number of rings (size 3 to 8) (size 9 to 14) (size 15 to 20)
#    0.600    0.000    6.000    1.200    2.800    2.400 
#    1.800    0.000    0.000    0.000    0.000    0.000 
#    0.000    0.000    0.000    0.000    0.000    0.000 
#
# Total GULP energy -111448.002474 kJ/mol
# GULP energy per Si atom -5572.400124 kJ/mol
# Density = 2.770939 g / cm^3
# Si number density = 27.772605 Si / 1000 Ang^3
#
#
#
# Elastic Constant Matrix: (Units=GPa)
#
#
# Indices 1 2 3 4 5 6 
#
# 1 176.3554 36.5878 45.3543 0.0000 0.0000 0.0000
# 2 36.5878 108.5860 9.1803 0.0000 0.0000 0.0000
# 3 45.3543 9.1803 202.3016 0.0000 0.0000 0.0000
# 4 0.0000 0.0000 0.0000 4.6903 0.0000 0.0000
# 5 0.0000 0.0000 0.0000 0.0000 36.2642 0.0000
# 6 0.0000 0.0000 0.0000 0.0000 0.0000 96.3685
#
#
#
# Elastic Compliance Matrix: (Units=1/GPa)
#
#
# Indices 1 2 3 4 5 6 
#
# 1 0.006445 -0.002057 -0.001352 0.000000 0.000000 0.000000
# 2 -0.002057 0.009901 0.000012 0.000000 0.000000 0.000000
# 3 -0.001352 0.000012 0.005246 0.000000 0.000000 0.000000
# 4 0.000000 0.000000 0.000000 0.213205 0.000000 0.000000
# 5 0.000000 0.000000 0.000000 0.000000 0.027575 0.000000
# 6 0.000000 0.000000 0.000000 0.000000 0.000000 0.010377
#
#
# Mechanical properties :
#
#
# Convention : Reuss Voigt Hill
#
# Bulk Modulus (GPa) = 67.57649 74.38751 70.98200
# Shear Modulus (GPa) = 17.57622 53.87264 35.72443
#
# Velocity S-wave (km/s) = 2.51840 4.40907 3.59042
# Velocity P-wave (km/s) = 5.73074 7.26378 6.54232
#
# Compressibility (1/GPa) = 0.01479805
#
# Stress axis : x y z
#
# Youngs Moduli (GPa) = 155.16486 100.99504 190.63708
#
# Poissons Ratio (x) = 0.20778 0.25765
# Poissons Ratio (y) = 0.31922 -0.00227
# Poissons Ratio (z) = 0.20971 -0.00120
#
# Static dielectric constant tensor:
#      x y z
#    x 1.909820 0.000000 0.000000 
#    y 0.000000 2.122740 0.000000 
#    z 0.000000 0.000000 2.106360 
# 
# From -- ./inp_files/17268.got.cif
#   From: 2010.05.17/outbox.cif.g08.bks.cpg/sg46_9_cif.got.tgz:17268.got - 2010.06.03 19:58:25.
