data_PCOD9380811
_publ_section_title
;
Structure prediction by ZEFSAII (Michael W. Deem and Ramdas Pophale) SiO2 
 PCOD9380811
Probable space group: I M A 2
;
_chemical_formula_sum "Si O2"
_cell_formula_units_Z 48
_cell_length_a 22.080458
_cell_length_b 14.446616
_cell_length_c 7.747264
_cell_angle_alpha 90.000000
_cell_angle_beta 90.000000
_cell_angle_gamma 90.000000
_cell_volume 2471.283457
_symmetry_space_group_name_H-M "I M A 2"
_symmetry_group_IT_number 46
_symmetry_cell_setting 'orthorhombic'
loop_
_space_group_symop_operation_xyz
x,y,z
-x,-y,z
1/2-x,y,z
1/2+x,-y,z
1/2+x,1/2+y,1/2+z
1/2-x,1/2-y,1/2+z
-x,1/2+y,1/2+z
x,1/2-y,1/2+z
loop_
_atom_site_type_symbol
_atom_site_label
_atom_site_fract_x
_atom_site_fract_y
_atom_site_fract_z
Si Si1 0.379600 0.352467 0.117770
Si Si2 0.431894 0.964675 0.452722
Si Si3 0.621194 0.000578 0.110626
Si Si4 0.547926 0.087101 0.816093
Si Si5 0.940044 0.670930 0.479537
Si Si6 0.250000 0.203426 0.716354
Si Si7 0.750000 0.901135 0.087944
O O1 0.398117 0.355432 0.317315
O O2 0.309968 0.325423 0.113961
O O3 0.394730 0.447987 0.027800
O O4 0.420207 0.270913 0.040040
O O5 0.435887 0.895748 0.616875
O O6 0.500000 0.000000 0.416461
O O7 0.398363 0.939235 0.276338
O O8 0.577640 0.908658 0.116087
O O9 0.689411 0.962280 0.109064
O O10 0.602707 0.055398 0.937489
O O11 0.508365 0.164312 0.912337
O O12 0.500000 0.000000 0.810721
O O13 0.250000 0.150058 0.900052
O O14 0.250000 0.315084 0.721515
#
# Coordination Sequence:
#
# PCOD9380811 Si02
#       7
#     8   8   8   8   8   4   4
#     4  12  21  33  54  80 114 162 192 227 280 342
#     4  11  20  36  58  74 103 153 194 238 295 334
#     4  11  21  35  53  76 106 153 193 234 280 330
#     4   9  18  38  54  74 106 146 189 246 287 333
#     4  11  20  35  51  81 116 144 199 241 280 338
#     4  12  22  36  48  74 130 165 186 227 272 339
#     4  12  24  36  48  80 116 157 204 233 262 351
#
# _framework density 19.423105
#
# number of rings (size 3 to 8) (size 9 to 14) (size 15 to 20)
#    0.000    1.000    8.333    2.500    2.333    0.000 
#    0.000    0.000    0.000    0.000    0.000    0.000 
#    0.000    6.667    0.000    0.000    0.000    0.000 
#
# Total GULP energy -134018.033038 kJ/mol
# GULP energy per Si atom -5584.084710 kJ/mol
# Density = 1.937890 g / cm^3
# Si number density = 19.423105 Si / 1000 Ang^3
#
#
#
# Elastic Constant Matrix: (Units=GPa)
#
#
# Indices 1 2 3 4 5 6 
#
# 1 139.9110 28.3222 47.4667 0.0000 0.0000 0.0000
# 2 28.3222 17.6494 10.7625 0.0000 0.0000 0.0000
# 3 47.4667 10.7625 101.4964 0.0000 0.0000 0.0000
# 4 0.0000 0.0000 0.0000 18.1384 0.0000 0.0000
# 5 0.0000 0.0000 0.0000 0.0000 15.0885 0.0000
# 6 0.0000 0.0000 0.0000 0.0000 0.0000 29.7486
#
#
#
# Elastic Compliance Matrix: (Units=1/GPa)
#
#
# Indices 1 2 3 4 5 6 
#
# 1 0.011784 -0.016625 -0.003748 0.000000 0.000000 0.000000
# 2 -0.016625 0.084029 -0.001135 0.000000 0.000000 0.000000
# 3 -0.003748 -0.001135 0.011726 0.000000 0.000000 0.000000
# 4 0.000000 0.000000 0.000000 0.055132 0.000000 0.000000
# 5 0.000000 0.000000 0.000000 0.000000 0.066276 0.000000
# 6 0.000000 0.000000 0.000000 0.000000 0.000000 0.033615
#
#
# Mechanical properties :
#
#
# Convention : Reuss Voigt Hill
#
# Bulk Modulus (GPa) = 15.49845 48.01774 31.75809
# Shear Modulus (GPa) = 15.28645 24.09545 19.69095
#
# Velocity S-wave (km/s) = 2.80844 3.52597 3.18746
# Velocity P-wave (km/s) = 4.30269 6.43057 5.47108
#
# Compressibility (1/GPa) = 0.06452258
#
# Stress axis : x y z
#
# Youngs Moduli (GPa) = 84.85752 11.90060 85.28093
#
# Poissons Ratio (x) = 0.19785 0.31966
# Poissons Ratio (y) = 1.41075 0.09683
# Poissons Ratio (z) = 0.31808 0.01351
#
# Static dielectric constant tensor:
#      x y z
#    x 1.684840 0.000000 0.000000 
#    y 0.000000 1.698160 0.000000 
#    z 0.000000 0.000000 1.785880 
# 
# From -- ./inp_files/6648.got.cif
#   From: 2010.05.17/outbox.cif.g08.bks.cpg/sg46_4_cif.got.tgz:6648.got - 2010.06.03 19:58:25.
