data_PCOD9380265
_publ_section_title
;
Structure prediction by ZEFSAII (Michael W. Deem and Ramdas Pophale) SiO2 
 PCOD9380265
Probable space group: I M A 2
;
_chemical_formula_sum "Si O2"
_cell_formula_units_Z 64
_cell_length_a 18.820809
_cell_length_b 12.356827
_cell_length_c 14.537764
_cell_angle_alpha 90.000000
_cell_angle_beta 90.000000
_cell_angle_gamma 90.000000
_cell_volume 3380.982075
_symmetry_space_group_name_H-M "I M A 2"
_symmetry_group_IT_number 46
_symmetry_cell_setting 'orthorhombic'
loop_
_space_group_symop_operation_xyz
x,y,z
-x,-y,z
1/2-x,y,z
1/2+x,-y,z
1/2+x,1/2+y,1/2+z
1/2-x,1/2-y,1/2+z
-x,1/2+y,1/2+z
x,1/2-y,1/2+z
loop_
_atom_site_type_symbol
_atom_site_label
_atom_site_fract_x
_atom_site_fract_y
_atom_site_fract_z
Si Si1 0.404187 0.341223 0.983870
Si Si2 0.665069 0.855492 0.876034
Si Si3 0.077247 0.526446 0.832577
Si Si4 0.564179 0.279354 0.962127
Si Si5 0.666290 0.165738 0.630164
Si Si6 0.835047 0.921939 0.672840
Si Si7 0.333054 0.590568 0.671080
Si Si8 0.081002 0.536916 0.487476
O O1 0.358210 0.253627 0.927888
O O2 0.411085 0.445540 0.917729
O O3 0.483342 0.293689 0.996531
O O4 0.371914 0.374119 0.082016
O O5 0.750000 0.869808 0.882267
O O6 0.645160 0.862216 0.767830
O O7 0.624068 0.951711 0.927201
O O8 0.072701 0.645832 0.874116
O O9 0.138996 0.525216 0.758469
O O10 0.000000 0.500000 0.790476
O O11 0.617868 0.321458 0.040181
O O12 0.579443 0.155029 0.941771
O O13 0.750000 0.161081 0.604816
O O14 0.656627 0.279351 0.683748
O O15 0.649277 0.051367 0.678464
O O16 0.750000 0.911130 0.661616
O O17 0.250000 0.572205 0.654110
O O18 0.378978 0.553946 0.583949
O O19 0.000000 0.500000 0.501069
#
# Coordination Sequence:
#
# PCOD9380265 Si02
#       8
#     8   8   8   8   8   8   8   8
#     4  11  22  43  64  92 129 169 209 259 314 376
#     4  11  25  43  65  96 128 166 211 256 312 380
#     4  10  22  39  62  92 129 167 210 261 310 374
#     4  10  21  40  63  93 124 160 215 261 312 368
#     4   9  19  38  61  90 124 161 206 259 315 366
#     4  10  22  41  64  92 126 166 210 260 313 373
#     4  10  22  38  62  94 125 166 210 258 319 373
#     4  11  22  43  63  91 127 166 208 261 314 373
#
# _framework density 18.929411000000002
#
# number of rings (size 3 to 8) (size 9 to 14) (size 15 to 20)
#    0.000    1.750    2.500    1.125    1.750    3.000 
#   11.250    1.250    0.000    0.000    0.000    0.000 
#    0.000    0.000    0.000    0.000    0.000    0.000 
#
# Total GULP energy -178624.427939 kJ/mol
# GULP energy per Si atom -5582.013373 kJ/mol
# Density = 1.888633 g / cm^3
# Si number density = 18.929411 Si / 1000 Ang^3
#
#
#
# Elastic Constant Matrix: (Units=GPa)
#
#
# Indices 1 2 3 4 5 6 
#
# 1 93.8079 39.8033 50.0850 0.0000 0.0000 0.0000
# 2 39.8033 85.8721 43.9366 0.0000 0.0000 0.0000
# 3 50.0850 43.9366 85.5978 0.0000 0.0000 0.0000
# 4 0.0000 0.0000 0.0000 15.8036 0.0000 0.0000
# 5 0.0000 0.0000 0.0000 0.0000 26.7818 0.0000
# 6 0.0000 0.0000 0.0000 0.0000 0.0000 22.7782
#
#
#
# Elastic Compliance Matrix: (Units=1/GPa)
#
#
# Indices 1 2 3 4 5 6 
#
# 1 0.016296 -0.003628 -0.007673 0.000000 0.000000 0.000000
# 2 -0.003628 0.016600 -0.006398 0.000000 0.000000 0.000000
# 3 -0.007673 -0.006398 0.019456 0.000000 0.000000 0.000000
# 4 0.000000 0.000000 0.000000 0.063277 0.000000 0.000000
# 5 0.000000 0.000000 0.000000 0.000000 0.037339 0.000000
# 6 0.000000 0.000000 0.000000 0.000000 0.000000 0.043902
#
#
# Mechanical properties :
#
#
# Convention : Reuss Voigt Hill
#
# Bulk Modulus (GPa) = 58.98000 59.21417 59.09709
# Shear Modulus (GPa) = 21.01550 21.83624 21.42587
#
# Velocity S-wave (km/s) = 3.33559 3.40010 3.36800
# Velocity P-wave (km/s) = 6.78678 6.83840 6.81264
#
# Compressibility (1/GPa) = 0.01695490
#
# Stress axis : x y z
#
# Youngs Moduli (GPa) = 61.36453 60.23981 51.39687
#
# Poissons Ratio (x) = 0.21852 0.39438
# Poissons Ratio (y) = 0.22260 0.32885
# Poissons Ratio (z) = 0.47086 0.38543
#
# Static dielectric constant tensor:
#      x y z
#    x 1.637240 0.000000 0.000000 
#    y 0.000000 1.665900 0.000000 
#    z 0.000000 0.000000 1.618850 
# 
# From -- ./inp_files/16778.got.cif
#   From: 2010.05.17/outbox.cif.g08.bks.cpg/sg46_9_cif.got.tgz:16778.got - 2010.06.03 19:58:25.
