data_PCOD9380222
_publ_section_title
;
Structure prediction by ZEFSAII (Michael W. Deem and Ramdas Pophale) SiO2 
 PCOD9380222
Probable space group: I M A 2
;
_chemical_formula_sum "Si O2"
_cell_formula_units_Z 60
_cell_length_a 9.451970
_cell_length_b 12.049378
_cell_length_c 26.414688
_cell_angle_alpha 90.000000
_cell_angle_beta 90.000000
_cell_angle_gamma 90.000000
_cell_volume 3008.378309
_symmetry_space_group_name_H-M "I M A 2"
_symmetry_group_IT_number 46
_symmetry_cell_setting 'orthorhombic'
loop_
_space_group_symop_operation_xyz
x,y,z
-x,-y,z
1/2-x,y,z
1/2+x,-y,z
1/2+x,1/2+y,1/2+z
1/2-x,1/2-y,1/2+z
-x,1/2+y,1/2+z
x,1/2-y,1/2+z
loop_
_atom_site_type_symbol
_atom_site_label
_atom_site_fract_x
_atom_site_fract_y
_atom_site_fract_z
Si Si1 0.417691 0.807797 0.307710
Si Si2 0.579697 0.620242 0.132115
Si Si3 0.096572 0.912332 0.413172
Si Si4 0.000000 0.500000 0.637248
Si Si5 0.592687 0.816378 0.211765
Si Si6 0.081585 0.105518 0.855297
Si Si7 0.587783 0.163943 0.952969
Si Si8 0.086678 0.699518 0.567351
O O1 0.250000 0.779786 0.307345
O O2 0.438096 0.891583 0.354315
O O3 0.473616 0.842258 0.253185
O O4 0.517439 0.706840 0.324135
O O5 0.500000 0.500000 0.135334
O O6 0.750000 0.605300 0.124663
O O7 0.563596 0.700302 0.181977
O O8 0.509649 0.700338 0.089072
O O9 0.250000 0.962760 0.414189
O O10 0.095282 0.793848 0.439128
O O11 0.000000 0.000000 0.439894
O O12 0.908839 0.581751 0.672427
O O13 0.921169 0.409143 0.602797
O O14 0.750000 0.808730 0.234677
O O15 0.250000 0.098309 0.853197
O O16 0.024062 0.117655 0.912912
O O17 0.000000 0.000000 0.833786
O O18 0.750000 0.120105 0.945416
O O19 0.545548 0.158361 0.011268
O O20 0.250000 0.738098 0.564743
#
# Coordination Sequence:
#
# PCOD9380222 Si02
#       8
#     8   8   8   4   8   8   8   8
#     4  10  22  39  58  84 115 151 196 245 297 357
#     4  10  22  40  61  86 118 154 199 251 303 364
#     4   9  19  35  54  79 113 149 190 238 287 346
#     4  10  22  38  60  94 124 160 208 256 308 366
#     4  10  22  39  59  86 120 157 201 252 306 368
#     4  11  22  38  60  86 118 156 195 243 296 355
#     4   9  20  38  57  85 119 155 199 244 294 352
#     4  10  21  39  63  88 121 162 202 252 307 360
#
# _framework density 19.944299999999998
#
# number of rings (size 3 to 8) (size 9 to 14) (size 15 to 20)
#    0.000    2.133    0.000    3.200    1.867    8.000 
#    0.000    2.667    0.000    0.000    0.000    0.000 
#    0.000    0.000    0.000    0.000    0.000    0.000 
#
# Total GULP energy -167180.092550 kJ/mol
# GULP energy per Si atom -5572.669752 kJ/mol
# Density = 1.989891 g / cm^3
# Si number density = 19.944300 Si / 1000 Ang^3
#
#
#
# Elastic Constant Matrix: (Units=GPa)
#
#
# Indices 1 2 3 4 5 6 
#
# 1 75.0993 51.2085 15.3207 0.0000 0.0000 0.0000
# 2 51.2085 94.9781 10.6653 0.0000 0.0000 0.0000
# 3 15.3207 10.6653 74.2255 0.0000 0.0000 0.0000
# 4 0.0000 0.0000 0.0000 -64.9371 0.0000 0.0000
# 5 0.0000 0.0000 0.0000 0.0000 -214.8464 0.0000
# 6 0.0000 0.0000 0.0000 0.0000 0.0000 24.2932
#
#
#
# Elastic Compliance Matrix: (Units=1/GPa)
#
#
# Indices 1 2 3 4 5 6 
#
# 1 0.021628 -0.011343 -0.002834 0.000000 0.000000 0.000000
# 2 -0.011343 0.016650 -0.000051 0.000000 0.000000 0.000000
# 3 -0.002834 -0.000051 0.014065 0.000000 0.000000 0.000000
# 4 0.000000 0.000000 0.000000 -0.015400 0.000000 0.000000
# 5 0.000000 0.000000 0.000000 0.000000 -0.004654 0.000000
# 6 0.000000 0.000000 0.000000 0.000000 0.000000 0.041164
#
#
# Mechanical properties :
#
#
# Convention : Reuss Voigt Hill
#
# Bulk Modulus (GPa) = 41.86481 44.29910 43.08195
# Shear Modulus (GPa) = 45.50731 -39.95750 2.77491
#
# Velocity S-wave (km/s) = 4.78192 -4.48085 1.18083
# Velocity P-wave (km/s) = 7.17812 2.12393 4.84842
#
# Compressibility (1/GPa) = 0.02388641
#
# Stress axis : x y z
#
# Youngs Moduli (GPa) = 46.23540 60.05946 71.09920
#
# Poissons Ratio (x) = 0.68125 0.20153
# Poissons Ratio (y) = 0.52445 0.00364
# Poissons Ratio (z) = 0.13105 0.00307
#
# Static dielectric constant tensor:
#      x y z
#    x 1.753620 0.000000 0.000000 
#    y 0.000000 1.712770 0.000000 
#    z 0.000000 0.000000 1.726050 
# 
# From -- ./inp_files/24274.got.cif
#   From: 2010.05.17/outbox.cif.g08.bks.cpg/sg46_13_cif.got.tgz:24274.got - 2010.06.03 19:58:25.
