data_PCOD9380741
_publ_section_title
;
Structure prediction by ZEFSAII (Michael W. Deem and Ramdas Pophale) SiO2 
 PCOD9380741
Probable space group: I M A 2
;
_chemical_formula_sum "Si O2"
_cell_formula_units_Z 48
_cell_length_a 25.454162
_cell_length_b 10.530806
_cell_length_c 7.971261
_cell_angle_alpha 90.000000
_cell_angle_beta 90.000000
_cell_angle_gamma 90.000000
_cell_volume 2136.719165
_symmetry_space_group_name_H-M "I M A 2"
_symmetry_group_IT_number 46
_symmetry_cell_setting 'orthorhombic'
loop_
_space_group_symop_operation_xyz
x,y,z
-x,-y,z
1/2-x,y,z
1/2+x,-y,z
1/2+x,1/2+y,1/2+z
1/2-x,1/2-y,1/2+z
-x,1/2+y,1/2+z
x,1/2-y,1/2+z
loop_
_atom_site_type_symbol
_atom_site_label
_atom_site_fract_x
_atom_site_fract_y
_atom_site_fract_z
Si Si1 0.456142 0.199218 0.492480
Si Si2 0.585541 0.514039 0.529787
Si Si3 0.750000 0.225587 0.680586
Si Si4 0.250000 0.961158 0.363067
Si Si5 0.864745 0.521059 0.902265
Si Si6 0.966492 0.296204 0.707906
Si Si7 0.634661 0.135343 0.735563
O O1 0.438712 0.347446 0.497400
O O2 0.401878 0.126814 0.482817
O O3 0.495389 0.182960 0.647845
O O4 0.495606 0.149424 0.349154
O O5 0.615395 0.511619 0.710172
O O6 0.544709 0.398921 0.563443
O O7 0.621078 0.472042 0.372339
O O8 0.750000 0.150810 0.504038
O O9 0.750000 0.378840 0.691395
O O10 0.694005 0.184196 0.760018
O O11 0.302516 0.040969 0.388050
O O12 0.870232 0.409741 0.041764
O O13 0.910294 0.241325 0.758598
#
# Coordination Sequence:
#
# PCOD9380741 Si02
#       7
#     8   8   4   4   8   8   8
#     4  12  25  43  69 100 145 188 239 289 350 443
#     4  12  26  44  72 102 146 191 238 297 368 425
#     4  10  24  44  71 103 138 176 239 311 361 422
#     4  10  24  46  73 103 144 186 243 307 365 432
#     4  11  26  46  70 104 141 193 243 296 361 437
#     4  12  24  41  70 103 138 185 235 295 359 429
#     4  11  26  44  71 105 140 181 241 302 368 424
#
# _framework density 22.464345999999999
#
# number of rings (size 3 to 8) (size 9 to 14) (size 15 to 20)
#    0.000    0.667    3.333    3.500    7.000    3.333 
#    0.000    1.667    0.000    0.000    0.000    0.000 
#    0.000    0.000    0.000    0.000    0.000    0.000 
#
# Total GULP energy -133858.169189 kJ/mol
# GULP energy per Si atom -5577.423716 kJ/mol
# Density = 2.241322 g / cm^3
# Si number density = 22.464346 Si / 1000 Ang^3
#
#
#
# Elastic Constant Matrix: (Units=GPa)
#
#
# Indices 1 2 3 4 5 6 
#
# 1 226.1645 83.5085 49.1652 0.0000 0.0000 0.0000
# 2 83.5085 73.6052 19.8417 0.0000 0.0000 0.0000
# 3 49.1652 19.8417 90.7906 0.0000 0.0000 0.0000
# 4 0.0000 0.0000 0.0000 20.0006 0.0000 0.0000
# 5 0.0000 0.0000 0.0000 0.0000 19.7034 0.0000
# 6 0.0000 0.0000 0.0000 0.0000 0.0000 33.8352
#
#
#
# Elastic Compliance Matrix: (Units=1/GPa)
#
#
# Indices 1 2 3 4 5 6 
#
# 1 0.008123 -0.008533 -0.002534 0.000000 0.000000 0.000000
# 2 -0.008533 0.023400 -0.000493 0.000000 0.000000 0.000000
# 3 -0.002534 -0.000493 0.012494 0.000000 0.000000 0.000000
# 4 0.000000 0.000000 0.000000 0.049999 0.000000 0.000000
# 5 0.000000 0.000000 0.000000 0.000000 0.050753 0.000000
# 6 0.000000 0.000000 0.000000 0.000000 0.000000 0.029555
#
#
# Mechanical properties :
#
#
# Convention : Reuss Voigt Hill
#
# Bulk Modulus (GPa) = 47.85322 77.28790 62.57056
# Shear Modulus (GPa) = 24.46067 30.57748 27.51908
#
# Velocity S-wave (km/s) = 3.30338 3.69339 3.50381
# Velocity P-wave (km/s) = 5.99148 7.25724 6.65452
#
# Compressibility (1/GPa) = 0.02089724
#
# Stress axis : x y z
#
# Youngs Moduli (GPa) = 123.10540 42.73508 80.03606
#
# Poissons Ratio (x) = 0.36466 0.20281
# Poissons Ratio (y) = 1.05045 0.03947
# Poissons Ratio (z) = 0.31195 0.02107
#
# Static dielectric constant tensor:
#      x y z
#    x 1.821470 0.000000 0.000000 
#    y 0.000000 1.873120 0.000000 
#    z 0.000000 0.000000 2.007930 
# 
# From -- ./inp_files/7851.got.cif
#   From: 2010.05.17/outbox.cif.g08.bks.cpg/sg46_4_cif.got.tgz:7851.got - 2010.06.03 19:58:25.
