data_PCOD9380334
_publ_section_title
;
Structure prediction by ZEFSAII (Michael W. Deem and Ramdas Pophale) SiO2 
 PCOD9380334
Probable space group: I M A 2
;
_chemical_formula_sum "Si O2"
_cell_formula_units_Z 56
_cell_length_a 13.432208
_cell_length_b 21.774450
_cell_length_c 7.360850
_cell_angle_alpha 90.000000
_cell_angle_beta 90.000000
_cell_angle_gamma 90.000000
_cell_volume 2152.893616
_symmetry_space_group_name_H-M "I M A 2"
_symmetry_group_IT_number 46
_symmetry_cell_setting 'orthorhombic'
loop_
_space_group_symop_operation_xyz
x,y,z
-x,-y,z
1/2-x,y,z
1/2+x,-y,z
1/2+x,1/2+y,1/2+z
1/2-x,1/2-y,1/2+z
-x,1/2+y,1/2+z
x,1/2-y,1/2+z
loop_
_atom_site_type_symbol
_atom_site_label
_atom_site_fract_x
_atom_site_fract_y
_atom_site_fract_z
Si Si1 0.361694 0.397725 0.352940
Si Si2 0.027428 0.939809 0.403449
Si Si3 0.638463 0.338607 0.507619
Si Si4 0.866137 0.020045 0.034740
Si Si5 0.019371 0.210050 0.728178
Si Si6 0.865810 0.840447 0.254070
Si Si7 0.137383 0.671267 0.946599
O O1 0.250000 0.409519 0.288107
O O2 0.405500 0.463470 0.414726
O O3 0.411395 0.350372 0.214586
O O4 0.360642 0.359955 0.542687
O O5 0.110913 0.898474 0.496289
O O6 0.938565 0.893048 0.341412
O O7 0.082140 0.969959 0.228542
O O8 0.000000 0.000000 0.516072
O O9 0.750000 0.318434 0.458887
O O10 0.631515 0.410857 0.461788
O O11 0.553902 0.308472 0.390402
O O12 0.556827 0.208194 0.560357
O O13 0.750000 0.004191 0.069334
O O14 0.084223 0.271975 0.757475
O O15 0.872936 0.328038 0.725804
O O16 0.750000 0.839286 0.320313
O O17 0.250000 0.686415 0.993127
#
# Coordination Sequence:
#
# PCOD9380334 Si02
#       7
#     8   8   8   8   8   8   8
#     4  10  21  41  72 107 147 196 252 308 362 438
#     4  11  21  41  76 107 142 195 244 306 373 438
#     4   9  20  42  77 112 148 192 244 312 384 444
#     4   9  18  38  73 112 141 182 248 312 375 435
#     4  12  25  44  74 104 153 203 249 295 370 447
#     4  11  26  45  71 111 154 200 252 303 364 447
#     4  10  24  48  76 112 151 189 244 311 373 445
#
# _framework density 26.011503000000001
#
# number of rings (size 3 to 8) (size 9 to 14) (size 15 to 20)
#    0.000    1.714    1.429    3.857    2.000    0.571 
#    2.571    3.571    0.000    2.571    0.000    0.000 
#    0.000    0.000    0.000    0.000    0.000    0.000 
#
# Total GULP energy -156591.778932 kJ/mol
# GULP energy per Si atom -5592.563533 kJ/mol
# Density = 2.595230 g / cm^3
# Si number density = 26.011503 Si / 1000 Ang^3
#
#
#
# Elastic Constant Matrix: (Units=GPa)
#
#
# Indices 1 2 3 4 5 6 
#
# 1 177.7264 93.8926 46.0703 0.0004 -0.0002 -0.0052
# 2 93.8926 222.1779 25.1017 0.0003 0.0000 -0.0047
# 3 46.0703 25.1017 61.7949 -0.0036 0.0006 0.0157
# 4 0.0004 0.0003 -0.0036 16.5284 -0.0001 -0.0020
# 5 -0.0002 0.0000 0.0006 -0.0001 30.8286 0.0028
# 6 -0.0052 -0.0047 0.0157 -0.0020 0.0028 -161.5891
#
#
#
# Elastic Compliance Matrix: (Units=1/GPa)
#
#
# Indices 1 2 3 4 5 6 
#
# 1 0.008568 -0.003038 -0.005153 -0.000001 0.000000 -0.000001
# 2 -0.003038 0.005795 -0.000089 0.000000 0.000000 0.000000
# 3 -0.005153 -0.000089 0.020061 0.000004 0.000000 0.000002
# 4 -0.000001 0.000000 0.000004 0.060502 0.000000 -0.000001
# 5 0.000000 0.000000 0.000000 0.000000 0.032437 0.000001
# 6 -0.000001 0.000000 0.000002 -0.000001 0.000001 -0.006189
#
#
# Mechanical properties :
#
#
# Convention : Reuss Voigt Hill
#
# Bulk Modulus (GPa) = 55.98369 87.98096 71.98233
# Shear Modulus (GPa) = 34.79742 -3.07078 15.86332
#
# Velocity S-wave (km/s) = 3.66152 -1.08771 2.47221
# Velocity P-wave (km/s) = 6.28053 5.68505 5.99019
#
# Compressibility (1/GPa) = 0.01786234
#
# Stress axis : x y z
#
# Youngs Moduli (GPa) = 116.71761 172.56290 49.84920
#
# Poissons Ratio (x) = 0.52433 0.25689
# Poissons Ratio (y) = 0.35465 0.00442
# Poissons Ratio (z) = 0.60147 0.01530
#
# Static dielectric constant tensor:
#      x y z
#    x 2.174790 0.000000 0.000000 
#    y 0.000000 2.288190 -0.000010 
#    z 0.000000 -0.000010 2.130580 
# 
# From -- ./inp_files/16142.got.cif
#   From: 2010.05.17/outbox.cif.g08.bks.cpg/sg46_9_cif.got.tgz:16142.got - 2010.06.03 19:58:25.
