data_PCOD9380128
_publ_section_title
;
Structure prediction by ZEFSAII (Michael W. Deem and Ramdas Pophale) SiO2 
 PCOD9380128
Probable space group: I M A 2
;
_chemical_formula_sum "Si O2"
_cell_formula_units_Z 48
_cell_length_a 8.673137
_cell_length_b 9.268256
_cell_length_c 31.298803
_cell_angle_alpha 90.000000
_cell_angle_beta 90.000000
_cell_angle_gamma 90.000000
_cell_volume 2515.949711
_symmetry_space_group_name_H-M "I M A 2"
_symmetry_group_IT_number 46
_symmetry_cell_setting 'orthorhombic'
loop_
_space_group_symop_operation_xyz
x,y,z
-x,-y,z
1/2-x,y,z
1/2+x,-y,z
1/2+x,1/2+y,1/2+z
1/2-x,1/2-y,1/2+z
-x,1/2+y,1/2+z
x,1/2-y,1/2+z
loop_
_atom_site_type_symbol
_atom_site_label
_atom_site_fract_x
_atom_site_fract_y
_atom_site_fract_z
Si Si1 0.065267 0.338669 0.106440
Si Si2 0.434442 0.160834 0.862216
Si Si3 0.065490 0.660587 0.782874
Si Si4 0.935332 0.159515 0.699000
Si Si5 0.435275 0.338663 0.947762
Si Si6 0.065422 0.660889 0.527622
O O1 0.250000 0.342112 0.104906
O O2 0.000000 0.500000 0.098634
O O3 0.008260 0.296156 0.153760
O O4 0.999011 0.232744 0.070778
O O5 0.250000 0.154179 0.858993
O O6 0.500306 0.242034 0.820997
O O7 0.474191 0.251191 0.904699
O O8 0.500000 0.000000 0.865093
O O9 0.250000 0.656280 0.786171
O O10 0.025265 0.733549 0.737517
O O11 0.000000 0.500000 0.785877
O O12 0.750000 0.151460 0.694658
O O13 0.000000 0.000000 0.708902
O O14 0.500000 0.500000 0.945154
O O15 0.250000 0.342553 0.952207
O O16 0.507293 0.256968 0.988112
O O17 0.250000 0.657904 0.528550
O O18 0.000000 0.500000 0.522962
#
# Coordination Sequence:
#
# PCOD9380128 Si02
#       6
#     8   8   8   8   8   8
#     4  11  22  39  63  90 121 159 201 248 299 356
#     4  11  24  41  64  91 123 159 200 247 298 355
#     4  11  24  40  61  88 122 160 202 249 300 356
#     4  10  21  38  60  88 119 156 201 250 301 357
#     4  11  24  42  64  92 123 159 200 246 297 353
#     4  12  25  42  63  89 122 159 200 248 299 357
#
# _framework density 19.078281
#
# number of rings (size 3 to 8) (size 9 to 14) (size 15 to 20)
#    0.000    1.000    0.000    8.000    0.000   10.000 
#    0.000    1.667    0.000    0.000    0.000    0.000 
#    0.000    0.000    0.000    0.000    0.000    0.000 
#
# Total GULP energy -134330.597348 kJ/mol
# GULP energy per Si atom -5597.108223 kJ/mol
# Density = 1.903486 g / cm^3
# Si number density = 19.078281 Si / 1000 Ang^3
#
#
#
# Elastic Constant Matrix: (Units=GPa)
#
#
# Indices 1 2 3 4 5 6 
#
# 1 123.6847 80.4837 84.4216 0.0000 0.0000 0.0000
# 2 80.4837 190.2938 129.4652 0.0000 0.0000 0.0000
# 3 84.4216 129.4652 158.0369 0.0000 0.0000 0.0000
# 4 0.0000 0.0000 0.0000 38.0563 0.0000 0.0000
# 5 0.0000 0.0000 0.0000 0.0000 30.4956 0.0000
# 6 0.0000 0.0000 0.0000 0.0000 0.0000 39.4874
#
#
#
# Elastic Compliance Matrix: (Units=1/GPa)
#
#
# Indices 1 2 3 4 5 6 
#
# 1 0.012976 -0.001745 -0.005503 0.000000 0.000000 0.000000
# 2 -0.001745 0.012106 -0.008986 0.000000 0.000000 0.000000
# 3 -0.005503 -0.008986 0.016628 0.000000 0.000000 0.000000
# 4 0.000000 0.000000 0.000000 0.026277 0.000000 0.000000
# 5 0.000000 0.000000 0.000000 0.000000 0.032792 0.000000
# 6 0.000000 0.000000 0.000000 0.000000 0.000000 0.025325
#
#
# Mechanical properties :
#
#
# Convention : Reuss Voigt Hill
#
# Bulk Modulus (GPa) = 108.16612 117.86181 113.01397
# Shear Modulus (GPa) = 30.93099 33.45084 32.19092
#
# Velocity S-wave (km/s) = 4.03086 4.19184 4.11214
# Velocity P-wave (km/s) = 8.85905 9.23801 9.05052
#
# Compressibility (1/GPa) = 0.00924504
#
# Stress axis : x y z
#
# Youngs Moduli (GPa) = 77.06513 82.60276 60.13931
#
# Poissons Ratio (x) = 0.14410 0.33092
# Poissons Ratio (y) = 0.13444 0.54038
# Poissons Ratio (z) = 0.42405 0.74223
#
# Static dielectric constant tensor:
#      x y z
#    x 1.638560 0.000000 0.000000 
#    y 0.000000 1.621500 0.000000 
#    z 0.000000 0.000000 1.641660 
# 
# From -- ./inp_files/24988.got.cif
#   From: 2010.05.17/outbox.cif.g08.bks.cpg/sg46_13_cif.got.tgz:24988.got - 2010.06.03 19:58:25.
