data_PCOD9380455
_publ_section_title
;
Structure prediction by ZEFSAII (Michael W. Deem and Ramdas Pophale) SiO2 
 PCOD9380455
Probable space group: I M A 2
;
_chemical_formula_sum "Si O2"
_cell_formula_units_Z 56
_cell_length_a 14.499163
_cell_length_b 14.401499
_cell_length_c 11.913639
_cell_angle_alpha 90.000000
_cell_angle_beta 90.000000
_cell_angle_gamma 90.000000
_cell_volume 2487.683164
_symmetry_space_group_name_H-M "I M A 2"
_symmetry_group_IT_number 46
_symmetry_cell_setting 'orthorhombic'
loop_
_space_group_symop_operation_xyz
x,y,z
-x,-y,z
1/2-x,y,z
1/2+x,-y,z
1/2+x,1/2+y,1/2+z
1/2-x,1/2-y,1/2+z
-x,1/2+y,1/2+z
x,1/2-y,1/2+z
loop_
_atom_site_type_symbol
_atom_site_label
_atom_site_fract_x
_atom_site_fract_y
_atom_site_fract_z
Si Si1 0.045207 0.869181 0.483300
Si Si2 0.609624 0.493175 0.423943
Si Si3 0.145315 0.812096 0.065101
Si Si4 0.854823 0.877949 0.124570
Si Si5 0.362968 0.556370 0.762634
Si Si6 0.647930 0.014405 0.662462
Si Si7 0.355896 0.319116 0.044604
O O1 0.089700 0.769427 0.507410
O O2 0.093515 0.924088 0.382649
O O3 0.937224 0.849624 0.460552
O O4 0.071437 0.927021 0.595672
O O5 0.500000 0.500000 0.431562
O O6 0.644052 0.400576 0.483927
O O7 0.645233 0.578263 0.499341
O O8 0.636385 0.486778 0.295184
O O9 0.250000 0.780618 0.083180
O O10 0.110803 0.857009 0.181808
O O11 0.750000 0.866012 0.164250
O O12 0.890062 0.773457 0.109234
O O13 0.894142 0.959703 0.203705
O O14 0.250000 0.554908 0.768155
O O15 0.750000 0.051974 0.632218
O O16 0.646991 0.907597 0.625176
O O17 0.250000 0.304311 0.002606
#
# Coordination Sequence:
#
# PCOD9380455 Si02
#       7
#     8   8   8   8   8   8   8
#     4  12  23  41  67 101 139 176 226 279 348 420
#     4  11  21  38  65  97 132 174 222 273 328 396
#     4  10  22  39  65 100 138 179 225 276 337 408
#     4   9  19  42  69  94 130 174 226 279 333 402
#     4   9  20  40  67 101 138 179 226 281 343 408
#     4  11  24  43  66  96 133 173 219 281 344 404
#     4  10  23  45  67  95 135 179 230 283 341 410
#
# _framework density 22.510905000000001
#
# number of rings (size 3 to 8) (size 9 to 14) (size 15 to 20)
#    0.000    1.714    0.000    5.571    2.000    0.000 
#    5.143    7.143    0.000    0.000    0.000    4.000 
#    0.000    0.000    0.000    0.000    0.000    0.000 
#
# Total GULP energy -156441.998323 kJ/mol
# GULP energy per Si atom -5587.214226 kJ/mol
# Density = 2.245967 g / cm^3
# Si number density = 22.510905 Si / 1000 Ang^3
#
#
#
# Elastic Constant Matrix: (Units=GPa)
#
#
# Indices 1 2 3 4 5 6 
#
# 1 112.2616 23.5059 8.3133 0.0000 0.0000 0.0000
# 2 23.5059 92.9280 -6.7211 0.0000 0.0000 0.0000
# 3 8.3133 -6.7211 57.4314 0.0000 0.0000 0.0000
# 4 0.0000 0.0000 0.0000 8.2106 0.0000 0.0000
# 5 0.0000 0.0000 0.0000 0.0000 14.5387 0.0000
# 6 0.0000 0.0000 0.0000 0.0000 0.0000 32.0779
#
#
#
# Elastic Compliance Matrix: (Units=1/GPa)
#
#
# Indices 1 2 3 4 5 6 
#
# 1 0.009564 -0.002541 -0.001682 0.000000 0.000000 0.000000
# 2 -0.002541 0.011528 0.001717 0.000000 0.000000 0.000000
# 3 -0.001682 0.001717 0.017856 0.000000 0.000000 0.000000
# 4 0.000000 0.000000 0.000000 0.121794 0.000000 0.000000
# 5 0.000000 0.000000 0.000000 0.000000 0.068782 0.000000
# 6 0.000000 0.000000 0.000000 0.000000 0.000000 0.031174
#
#
# Mechanical properties :
#
#
# Convention : Reuss Voigt Hill
#
# Bulk Modulus (GPa) = 29.46633 34.75746 32.11189
# Shear Modulus (GPa) = 18.04908 26.80030 22.42469
#
# Velocity S-wave (km/s) = 2.83467 3.45417 3.15964
# Velocity P-wave (km/s) = 4.88180 5.60198 5.25425
#
# Compressibility (1/GPa) = 0.03393704
#
# Stress axis : x y z
#
# Youngs Moduli (GPa) = 104.55509 86.74594 56.00217
#
# Poissons Ratio (x) = 0.22041 0.09419
# Poissons Ratio (y) = 0.26567 -0.09615
# Poissons Ratio (z) = 0.17584 -0.14893
#
# Static dielectric constant tensor:
#      x y z
#    x 1.887320 0.000000 0.000000 
#    y 0.000000 1.819930 0.000000 
#    z 0.000000 0.000000 1.804860 
# 
# From -- ./inp_files/11145.got.cif
#   From: 2010.05.17/outbox.cif.g08.bks.cpg/sg46_6_cif.got.tgz:11145.got - 2010.06.03 19:58:25.
