data_PCOD9380870
_publ_section_title
;
Structure prediction by ZEFSAII (Michael W. Deem and Ramdas Pophale) SiO2 
 PCOD9380870
Probable space group: I M A 2
;
_chemical_formula_sum "Si O2"
_cell_formula_units_Z 64
_cell_length_a 7.823767
_cell_length_b 28.768936
_cell_length_c 13.014654
_cell_angle_alpha 90.000000
_cell_angle_beta 90.000000
_cell_angle_gamma 90.000000
_cell_volume 2929.357221
_symmetry_space_group_name_H-M "I M A 2"
_symmetry_group_IT_number 46
_symmetry_cell_setting 'orthorhombic'
loop_
_space_group_symop_operation_xyz
x,y,z
-x,-y,z
1/2-x,y,z
1/2+x,-y,z
1/2+x,1/2+y,1/2+z
1/2-x,1/2-y,1/2+z
-x,1/2+y,1/2+z
x,1/2-y,1/2+z
loop_
_atom_site_type_symbol
_atom_site_label
_atom_site_fract_x
_atom_site_fract_y
_atom_site_fract_z
Si Si1 0.953951 0.084007 0.526680
Si Si2 0.959885 0.709895 0.545143
Si Si3 0.452987 0.309952 0.986494
Si Si4 0.455257 0.950792 0.085846
Si Si5 0.055535 0.564438 0.807540
Si Si6 0.046338 0.333967 0.761743
Si Si7 0.049002 0.552029 0.245828
Si Si8 0.947827 0.623914 0.421506
O O1 0.750000 0.076002 0.522793
O O2 0.024712 0.061088 0.420959
O O3 0.026319 0.064144 0.633129
O O4 0.977804 0.139853 0.520509
O O5 0.750000 0.710529 0.540304
O O6 0.020356 0.762805 0.536401
O O7 0.005827 0.689307 0.655941
O O8 0.020030 0.674012 0.456510
O O9 0.250000 0.312747 0.005869
O O10 0.476840 0.303881 0.864051
O O11 0.250000 0.944887 0.088566
O O12 0.527590 0.952804 0.202032
O O13 0.500000 0.000000 0.035476
O O14 0.532142 0.908677 0.021879
O O15 0.250000 0.546320 0.811616
O O16 0.055972 0.619387 0.784654
O O17 0.250000 0.345344 0.755644
O O18 0.250000 0.550916 0.232210
O O19 0.000000 0.500000 0.279492
O O20 0.015328 0.592814 0.327828
O O21 0.750000 0.631387 0.398425
#
# Coordination Sequence:
#
# PCOD9380870 Si02
#       8
#     8   8   8   8   8   8   8   8
#     4   9  20  39  59  81 114 150 186 234 288 342
#     4   9  18  32  53  82 113 148 190 237 287 337
#     4   9  18  32  54  84 113 148 192 237 283 337
#     4  11  22  35  54  81 111 142 178 225 278 336
#     4   9  18  34  55  78 105 139 177 220 275 331
#     4   9  16  30  51  74 106 143 179 223 275 327
#     4  11  24  42  62  84 115 154 198 246 297 352
#     4  11  22  38  59  82 112 150 193 238 288 342
#
# _framework density 21.847797
#
# number of rings (size 3 to 8) (size 9 to 14) (size 15 to 20)
#    0.000    2.250    1.250    1.500    0.000    3.000 
#    0.000    4.375    0.000    3.000    0.000    0.000 
#    0.000    0.000    0.000    0.000    0.000    0.000 
#
# Total GULP energy -178476.504152 kJ/mol
# GULP energy per Si atom -5577.390755 kJ/mol
# Density = 2.179807 g / cm^3
# Si number density = 21.847797 Si / 1000 Ang^3
#
#
#
# Elastic Constant Matrix: (Units=GPa)
#
#
# Indices 1 2 3 4 5 6 
#
# 1 30.4846 -7.1760 7.9375 -0.0001 -0.0001 0.0000
# 2 -7.1760 51.1181 9.1617 -0.0005 -0.0003 0.0000
# 3 7.9375 9.1617 106.9304 -0.0008 -0.0006 0.0001
# 4 -0.0001 -0.0005 -0.0008 137.0337 -0.0027 -0.0002
# 5 -0.0001 -0.0003 -0.0006 -0.0027 -105.5857 0.0000
# 6 0.0000 0.0000 0.0001 -0.0002 0.0000 16.1819
#
#
#
# Elastic Compliance Matrix: (Units=1/GPa)
#
#
# Indices 1 2 3 4 5 6 
#
# 1 0.034881 0.005444 -0.003056 0.000000 0.000000 0.000000
# 2 0.005444 0.020717 -0.002179 0.000000 0.000000 0.000000
# 3 -0.003056 -0.002179 0.009765 0.000000 0.000000 0.000000
# 4 0.000000 0.000000 0.000000 0.007297 0.000000 0.000000
# 5 0.000000 0.000000 0.000000 0.000000 -0.009471 0.000000
# 6 0.000000 0.000000 0.000000 0.000000 0.000000 0.061797
#
#
# Mechanical properties :
#
#
# Convention : Reuss Voigt Hill
#
# Bulk Modulus (GPa) = 15.20168 23.15327 19.17747
# Shear Modulus (GPa) = 34.13067 21.43332 27.78199
#
# Velocity S-wave (km/s) = 3.95676 3.13554 3.56984
# Velocity P-wave (km/s) = 5.27709 4.87127 5.07824
#
# Compressibility (1/GPa) = 0.06578221
#
# Stress axis : x y z
#
# Youngs Moduli (GPa) = 28.66921 48.26865 102.40231
#
# Poissons Ratio (x) = -0.26279 0.31291
# Poissons Ratio (y) = -0.15608 0.22315
# Poissons Ratio (z) = 0.08760 0.10519
#
# Static dielectric constant tensor:
#      x y z
#    x 1.804870 0.000000 0.000000 
#    y 0.000000 1.391190 0.000000 
#    z 0.000000 0.000000 1.839700 
# 
# From -- ./inp_files/9673.got.cif
#   From: 2010.05.17/outbox.cif.g08.bks.cpg/sg46_5_cif.got.tgz:9673.got - 2010.06.03 19:58:25.
