data_PCOD9380215
_publ_section_title
;
Structure prediction by ZEFSAII (Michael W. Deem and Ramdas Pophale) SiO2 
 PCOD9380215
Probable space group: I M A 2
;
_chemical_formula_sum "Si O2"
_cell_formula_units_Z 64
_cell_length_a 8.603257
_cell_length_b 15.835072
_cell_length_c 24.295705
_cell_angle_alpha 90.000000
_cell_angle_beta 90.000000
_cell_angle_gamma 90.000000
_cell_volume 3309.881493
_symmetry_space_group_name_H-M "I M A 2"
_symmetry_group_IT_number 46
_symmetry_cell_setting 'orthorhombic'
loop_
_space_group_symop_operation_xyz
x,y,z
-x,-y,z
1/2-x,y,z
1/2+x,-y,z
1/2+x,1/2+y,1/2+z
1/2-x,1/2-y,1/2+z
-x,1/2+y,1/2+z
x,1/2-y,1/2+z
loop_
_atom_site_type_symbol
_atom_site_label
_atom_site_fract_x
_atom_site_fract_y
_atom_site_fract_z
Si Si1 0.063679 0.089686 0.611420
Si Si2 0.562569 0.410125 0.378744
Si Si3 0.063086 0.649160 0.994865
Si Si4 0.563293 0.751471 0.184676
Si Si5 0.063153 0.590834 0.616138
Si Si6 0.938640 0.346996 0.496955
Si Si7 0.935219 0.909338 0.378037
Si Si8 0.563099 0.246979 0.307993
O O1 0.250000 0.086862 0.608628
O O2 0.017315 0.167775 0.650414
O O3 0.997063 0.106721 0.550548
O O4 0.000000 0.000000 0.631694
O O5 0.500000 0.500000 0.359609
O O6 0.750000 0.412619 0.379335
O O7 0.507011 0.391524 0.441144
O O8 0.515439 0.331475 0.340917
O O9 0.250000 0.643712 0.992550
O O10 0.017892 0.748278 0.996307
O O11 0.993740 0.608209 0.940099
O O12 0.750000 0.755185 0.186005
O O13 0.498714 0.833462 0.153533
O O14 0.497857 0.749046 0.246095
O O15 0.250000 0.590758 0.617255
O O16 0.009445 0.609660 0.553368
O O17 0.000000 0.500000 0.633764
O O18 0.750000 0.349230 0.496580
O O19 0.750000 0.910353 0.377109
O O20 0.997922 0.834226 0.339839
O O21 0.000000 0.000000 0.359895
O O22 0.750000 0.242537 0.308552
#
# Coordination Sequence:
#
# PCOD9380215 Si02
#       8
#     8   8   8   8   8   8   8   8
#     4  11  24  41  63  93 127 164 209 257 313 372
#     4  10  21  39  62  92 126 161 201 246 302 362
#     4  11  20  38  65  93 128 165 206 252 310 374
#     4  11  25  44  64  90 123 160 211 265 310 367
#     4  11  22  39  64  94 126 165 205 250 309 369
#     4   9  18  35  61  91 125 162 199 244 302 363
#     4  12  25  42  65  95 128 164 206 254 311 372
#     4  11  24  44  67  90 122 164 210 259 311 367
#
# _framework density 19.336040000000001
#
# number of rings (size 3 to 8) (size 9 to 14) (size 15 to 20)
#    0.000    1.250    2.500    3.750    0.000    3.500 
#    0.000    5.625    0.000    0.000    0.000    0.000 
#    0.000    0.000    0.000    0.000    0.000    0.000 
#
# Total GULP energy -178979.367491 kJ/mol
# GULP energy per Si atom -5593.105234 kJ/mol
# Density = 1.929203 g / cm^3
# Si number density = 19.336040 Si / 1000 Ang^3
#
#
#
# Elastic Constant Matrix: (Units=GPa)
#
#
# Indices 1 2 3 4 5 6 
#
# 1 73.5845 56.3562 46.6428 0.0000 0.0000 0.0000
# 2 56.3562 202.1794 87.5143 0.0000 0.0000 0.0000
# 3 46.6428 87.5143 153.9939 0.0000 0.0000 0.0000
# 4 0.0000 0.0000 0.0000 -5.8625 0.0000 0.0000
# 5 0.0000 0.0000 0.0000 0.0000 -53.8422 0.0000
# 6 0.0000 0.0000 0.0000 0.0000 0.0000 30.8460
#
#
#
# Elastic Compliance Matrix: (Units=1/GPa)
#
#
# Indices 1 2 3 4 5 6 
#
# 1 0.018652 -0.003652 -0.003574 0.000000 0.000000 0.000000
# 2 -0.003652 0.007275 -0.003028 0.000000 0.000000 0.000000
# 3 -0.003574 -0.003028 0.009297 0.000000 0.000000 0.000000
# 4 0.000000 0.000000 0.000000 -0.170575 0.000000 0.000000
# 5 0.000000 0.000000 0.000000 0.000000 -0.018573 0.000000
# 6 0.000000 0.000000 0.000000 0.000000 0.000000 0.032419
#
#
# Mechanical properties :
#
#
# Convention : Reuss Voigt Hill
#
# Bulk Modulus (GPa) = 67.95432 90.08714 79.02073
# Shear Modulus (GPa) = -52.03452 10.17790 -20.92831
#
# Velocity S-wave (km/s) = -5.19317 2.29676 -3.29347
# Velocity P-wave (km/s) = 0.85941 7.32973 5.14715
#
# Compressibility (1/GPa) = 0.01471577
#
# Stress axis : x y z
#
# Youngs Moduli (GPa) = 53.61238 137.46011 107.55994
#
# Poissons Ratio (x) = 0.50203 0.38442
# Poissons Ratio (y) = 0.19580 0.32570
# Poissons Ratio (z) = 0.19161 0.41624
#
# Static dielectric constant tensor:
#      x y z
#    x 1.651620 0.000000 0.000000 
#    y 0.000000 1.664630 0.000000 
#    z 0.000000 0.000000 1.648480 
# 
# From -- ./inp_files/23155.got.cif
#   From: 2010.05.17/outbox.cif.g08.bks.cpg/sg46_12_cif.got.tgz:23155.got - 2010.06.03 19:58:25.
