data_PCOD9380609
_publ_section_title
;
Structure prediction by ZEFSAII (Michael W. Deem and Ramdas Pophale) SiO2 
 PCOD9380609
Probable space group: I M A 2
;
_chemical_formula_sum "Si O2"
_cell_formula_units_Z 32
_cell_length_a 13.370393
_cell_length_b 11.838450
_cell_length_c 7.997899
_cell_angle_alpha 90.000000
_cell_angle_beta 90.000000
_cell_angle_gamma 90.000000
_cell_volume 1265.945276
_symmetry_space_group_name_H-M "I M A 2"
_symmetry_group_IT_number 46
_symmetry_cell_setting 'orthorhombic'
loop_
_space_group_symop_operation_xyz
x,y,z
-x,-y,z
1/2-x,y,z
1/2+x,-y,z
1/2+x,1/2+y,1/2+z
1/2-x,1/2-y,1/2+z
-x,1/2+y,1/2+z
x,1/2-y,1/2+z
loop_
_atom_site_type_symbol
_atom_site_label
_atom_site_fract_x
_atom_site_fract_y
_atom_site_fract_z
Si Si1 0.370623 0.662296 0.994690
Si Si2 0.871163 0.565835 0.829774
Si Si3 0.631592 0.773802 0.027477
Si Si4 0.478778 0.874370 0.840777
O O1 0.250000 0.669783 0.000685
O O2 0.603935 0.642330 0.993039
O O3 0.400142 0.564345 0.861025
O O4 0.417424 0.784187 0.952762
O O5 0.750000 0.562787 0.819655
O O6 0.905108 0.635522 0.665930
O O7 0.750000 0.776052 0.036741
O O8 0.415556 0.625013 0.171609
O O9 0.591097 0.824126 0.851052
O O10 0.500000 0.000000 0.897708
#
# Coordination Sequence:
#
# PCOD9380609 Si02
#       4
#     8   8   8   8
#     4  11  27  52  78 112 162 214 269 334 402 483
#     4   9  21  42  75 111 152 202 255 320 395 469
#     4  10  22  44  75 113 154 199 255 328 403 472
#     4  12  29  47  75 119 151 209 268 330 401 482
#
# _framework density 25.277555
#
# number of rings (size 3 to 8) (size 9 to 14) (size 15 to 20)
#    0.000    1.500    0.000    2.250   10.500    2.000 
#    0.000    0.000    0.000    0.000    0.000    0.000 
#    0.000    0.000    0.000    0.000    0.000    0.000 
#
# Total GULP energy -89289.850066 kJ/mol
# GULP energy per Si atom -5580.615629 kJ/mol
# Density = 2.522002 g / cm^3
# Si number density = 25.277555 Si / 1000 Ang^3
#
#
#
# Elastic Constant Matrix: (Units=GPa)
#
#
# Indices 1 2 3 4 5 6 
#
# 1 113.7602 69.1682 32.3115 0.0000 0.0000 0.0000
# 2 69.1682 235.7595 77.9298 0.0000 0.0000 0.0000
# 3 32.3115 77.9298 107.1617 0.0000 0.0000 0.0000
# 4 0.0000 0.0000 0.0000 33.0403 0.0000 0.0000
# 5 0.0000 0.0000 0.0000 0.0000 43.1353 0.0000
# 6 0.0000 0.0000 0.0000 0.0000 0.0000 50.9707
#
#
#
# Elastic Compliance Matrix: (Units=1/GPa)
#
#
# Indices 1 2 3 4 5 6 
#
# 1 0.010826 -0.002761 -0.001257 0.000000 0.000000 0.000000
# 2 -0.002761 0.006288 -0.003740 0.000000 0.000000 0.000000
# 3 -0.001257 -0.003740 0.012431 0.000000 0.000000 0.000000
# 4 0.000000 0.000000 0.000000 0.030266 0.000000 0.000000
# 5 0.000000 0.000000 0.000000 0.000000 0.023183 0.000000
# 6 0.000000 0.000000 0.000000 0.000000 0.000000 0.019619
#
#
# Mechanical properties :
#
#
# Convention : Reuss Voigt Hill
#
# Bulk Modulus (GPa) = 71.27988 90.61118 80.94553
# Shear Modulus (GPa) = 40.71528 43.91405 42.31466
#
# Velocity S-wave (km/s) = 4.01774 4.17258 4.09589
# Velocity P-wave (km/s) = 7.05571 7.69014 7.37975
#
# Compressibility (1/GPa) = 0.01402920
#
# Stress axis : x y z
#
# Youngs Moduli (GPa) = 92.37073 159.03510 80.44712
#
# Poissons Ratio (x) = 0.43907 0.10108
# Poissons Ratio (y) = 0.25502 0.30089
# Poissons Ratio (z) = 0.11607 0.59483
#
# Static dielectric constant tensor:
#      x y z
#    x 2.027540 0.000000 0.000000 
#    y 0.000000 2.044020 0.000000 
#    z 0.000000 0.000000 2.079050 
# 
# From -- ./inp_files/9979.got.cif
#   From: 2010.05.17/outbox.cif.g08.bks.cpg/sg46_5_cif.got.tgz:9979.got - 2010.06.03 19:58:25.
