data_PCOD9380834
_publ_section_title
;
Structure prediction by ZEFSAII (Michael W. Deem and Ramdas Pophale) SiO2 
 PCOD9380834
Probable space group: I M A 2
;
_chemical_formula_sum "Si O2"
_cell_formula_units_Z 56
_cell_length_a 8.396068
_cell_length_b 21.076400
_cell_length_c 15.786561
_cell_angle_alpha 90.000000
_cell_angle_beta 90.000000
_cell_angle_gamma 90.000000
_cell_volume 2793.572274
_symmetry_space_group_name_H-M "I M A 2"
_symmetry_group_IT_number 46
_symmetry_cell_setting 'orthorhombic'
loop_
_space_group_symop_operation_xyz
x,y,z
-x,-y,z
1/2-x,y,z
1/2+x,-y,z
1/2+x,1/2+y,1/2+z
1/2-x,1/2-y,1/2+z
-x,1/2+y,1/2+z
x,1/2-y,1/2+z
loop_
_atom_site_type_symbol
_atom_site_label
_atom_site_fract_x
_atom_site_fract_y
_atom_site_fract_z
Si Si1 0.567620 0.125304 0.061990
Si Si2 0.932733 0.429100 0.236659
Si Si3 0.060622 0.250827 0.998050
Si Si4 0.932989 0.801619 0.670715
Si Si5 0.558849 0.572397 0.739793
Si Si6 0.560180 0.295636 0.813879
Si Si7 0.928849 0.934712 0.909827
O O1 0.750000 0.106777 0.042714
O O2 0.517859 0.093974 0.150033
O O3 0.547781 0.200085 0.049680
O O4 0.440023 0.107228 0.991085
O O5 0.750000 0.426114 0.210529
O O6 0.000000 0.500000 0.224513
O O7 0.033059 0.373041 0.197739
O O8 0.951964 0.414756 0.336575
O O9 0.250000 0.234708 0.993567
O O10 0.003119 0.266478 0.903100
O O11 0.043978 0.304819 0.069107
O O12 0.750000 0.782954 0.684181
O O13 0.022211 0.752118 0.734551
O O14 0.500000 0.500000 0.760961
O O15 0.750000 0.570336 0.733061
O O16 0.511346 0.633324 0.798367
O O17 0.750000 0.301724 0.818638
O O18 0.750000 0.940365 0.875974
O O19 0.000000 0.000000 0.941630
#
# Coordination Sequence:
#
# PCOD9380834 Si02
#       7
#     8   8   8   8   8   8   8
#     4  12  23  38  60  91 127 164 212 267 328 392
#     4  11  22  38  60  88 124 164 210 261 322 388
#     4  11  24  42  66  94 127 169 218 271 328 391
#     4  11  23  42  67  94 128 168 215 268 326 389
#     4  12  25  44  67  95 132 177 226 279 341 407
#     4  12  25  43  68  99 135 175 222 277 336 400
#     4  11  21  35  54  81 119 159 203 249 308 377
#
# _framework density 20.046018
#
# number of rings (size 3 to 8) (size 9 to 14) (size 15 to 20)
#    0.000    0.571    1.429    9.429    0.000    1.714 
#    0.000    0.714    0.000    3.429    0.000    0.000 
#    0.000    0.000    0.000    0.000    0.000    0.000 
#
# Total GULP energy -156000.070349 kJ/mol
# GULP energy per Si atom -5571.431084 kJ/mol
# Density = 2.000039 g / cm^3
# Si number density = 20.046018 Si / 1000 Ang^3
#
#
#
# Elastic Constant Matrix: (Units=GPa)
#
#
# Indices 1 2 3 4 5 6 
#
# 1 98.3880 5.8802 21.5798 0.0000 0.0000 0.0000
# 2 5.8802 86.0992 23.4177 0.0000 0.0000 0.0000
# 3 21.5798 23.4177 95.5084 0.0000 0.0000 0.0000
# 4 0.0000 0.0000 0.0000 12.2602 0.0000 0.0000
# 5 0.0000 0.0000 0.0000 0.0000 15.6571 0.0000
# 6 0.0000 0.0000 0.0000 0.0000 0.0000 35.4055
#
#
#
# Elastic Compliance Matrix: (Units=1/GPa)
#
#
# Indices 1 2 3 4 5 6 
#
# 1 0.010694 -0.000078 -0.002397 0.000000 0.000000 0.000000
# 2 -0.000078 0.012445 -0.003034 0.000000 0.000000 0.000000
# 3 -0.002397 -0.003034 0.011756 0.000000 0.000000 0.000000
# 4 0.000000 0.000000 0.000000 0.081565 0.000000 0.000000
# 5 0.000000 0.000000 0.000000 0.000000 0.063869 0.000000
# 6 0.000000 0.000000 0.000000 0.000000 0.000000 0.028244
#
#
# Mechanical properties :
#
#
# Convention : Reuss Voigt Hill
#
# Bulk Modulus (GPa) = 41.88195 42.41678 42.14937
# Shear Modulus (GPa) = 21.97322 27.93911 24.95617
#
# Velocity S-wave (km/s) = 3.31439 3.73734 3.53220
# Velocity P-wave (km/s) = 5.96533 6.31105 6.14062
#
# Compressibility (1/GPa) = 0.02387664
#
# Stress axis : x y z
#
# Youngs Moduli (GPa) = 93.50779 80.35372 85.06494
#
# Poissons Ratio (x) = 0.00630 0.20391
# Poissons Ratio (y) = 0.00733 0.25806
# Poissons Ratio (z) = 0.22415 0.24377
#
# Static dielectric constant tensor:
#      x y z
#    x 1.689860 0.000000 0.000000 
#    y 0.000000 1.770680 0.000000 
#    z 0.000000 0.000000 1.669350 
# 
# From -- ./inp_files/14153.got.cif
#   From: 2010.05.17/outbox.cif.g08.bks.cpg/sg46_8_cif.got.tgz:14153.got - 2010.06.03 19:58:25.
