data_PCOD9380873
_publ_section_title
;
Structure prediction by ZEFSAII (Michael W. Deem and Ramdas Pophale) SiO2 
 PCOD9380873
Probable space group: I M A 2
;
_chemical_formula_sum "Si O2"
_cell_formula_units_Z 40
_cell_length_a 13.134119
_cell_length_b 17.517661
_cell_length_c 8.854924
_cell_angle_alpha 90.000000
_cell_angle_beta 90.000000
_cell_angle_gamma 90.000000
_cell_volume 2037.332450
_symmetry_space_group_name_H-M "I M A 2"
_symmetry_group_IT_number 46
_symmetry_cell_setting 'orthorhombic'
loop_
_space_group_symop_operation_xyz
x,y,z
-x,-y,z
1/2-x,y,z
1/2+x,-y,z
1/2+x,1/2+y,1/2+z
1/2-x,1/2-y,1/2+z
-x,1/2+y,1/2+z
x,1/2-y,1/2+z
loop_
_atom_site_type_symbol
_atom_site_label
_atom_site_fract_x
_atom_site_fract_y
_atom_site_fract_z
Si Si1 0.869265 0.303018 0.588530
Si Si2 0.530119 0.414082 0.830604
Si Si3 0.132591 0.362912 0.060302
Si Si4 0.962738 0.173772 0.772133
Si Si5 0.863845 0.041244 0.637831
O O1 0.750000 0.315610 0.552039
O O2 0.913259 0.366351 0.703205
O O3 0.883785 0.222730 0.672775
O O4 0.941487 0.302431 0.442094
O O5 0.500000 0.500000 0.780406
O O6 0.433572 0.369605 0.905673
O O7 0.603708 0.427238 0.974041
O O8 0.250000 0.339956 0.038610
O O9 0.131488 0.450451 0.121075
O O10 0.070913 0.316036 0.187992
O O11 0.934942 0.084590 0.755317
O O12 0.750000 0.062321 0.676747
#
# Coordination Sequence:
#
# PCOD9380873 Si02
#       5
#     8   8   8   8   8
#     4  12  24  38  57  82 112 145 180 229 283 327
#     4   9  19  35  57  84 112 141 180 224 270 329
#     4   9  19  37  60  82 111 149 185 221 267 322
#     4  11  22  36  54  82 113 146 186 228 271 326
#     4   9  16  32  58  84 110 145 183 224 273 324
#
# _framework density 19.633517000000001
#
# number of rings (size 3 to 8) (size 9 to 14) (size 15 to 20)
#    0.000    2.000    0.000    6.600    0.000    2.400 
#    0.000    5.000    0.000    0.000    0.000    0.000 
#    0.000    0.000    0.000    0.000    0.000    0.000 
#
# Total GULP energy -111504.922977 kJ/mol
# GULP energy per Si atom -5575.246149 kJ/mol
# Density = 1.958883 g / cm^3
# Si number density = 19.633517 Si / 1000 Ang^3
#
#
#
# Elastic Constant Matrix: (Units=GPa)
#
#
# Indices 1 2 3 4 5 6 
#
# 1 134.6488 4.3980 28.9053 0.0000 0.0000 0.0000
# 2 4.3980 51.9212 18.7148 0.0000 0.0000 0.0000
# 3 28.9053 18.7148 80.1920 0.0000 0.0000 0.0000
# 4 0.0000 0.0000 0.0000 23.9385 0.0000 0.0000
# 5 0.0000 0.0000 0.0000 0.0000 15.2569 0.0000
# 6 0.0000 0.0000 0.0000 0.0000 0.0000 29.6172
#
#
#
# Elastic Compliance Matrix: (Units=1/GPa)
#
#
# Indices 1 2 3 4 5 6 
#
# 1 0.008057 0.000398 -0.002997 0.000000 0.000000 0.000000
# 2 0.000398 0.021049 -0.005056 0.000000 0.000000 0.000000
# 3 -0.002997 -0.005056 0.014730 0.000000 0.000000 0.000000
# 4 0.000000 0.000000 0.000000 0.041774 0.000000 0.000000
# 5 0.000000 0.000000 0.000000 0.000000 0.065544 0.000000
# 6 0.000000 0.000000 0.000000 0.000000 0.000000 0.033764
#
#
# Mechanical properties :
#
#
# Convention : Reuss Voigt Hill
#
# Bulk Modulus (GPa) = 35.05549 41.19979 38.12764
# Shear Modulus (GPa) = 23.83948 28.07879 25.95913
#
# Velocity S-wave (km/s) = 3.48835 3.78583 3.64013
# Velocity P-wave (km/s) = 5.84110 6.33561 6.09338
#
# Compressibility (1/GPa) = 0.02852620
#
# Stress axis : x y z
#
# Youngs Moduli (GPa) = 124.11389 47.50931 67.88772
#
# Poissons Ratio (x) = -0.01890 0.20346
# Poissons Ratio (y) = -0.04937 0.34321
# Poissons Ratio (z) = 0.37197 0.24019
#
# Static dielectric constant tensor:
#      x y z
#    x 1.727870 0.000000 0.000000 
#    y 0.000000 1.760190 0.000000 
#    z 0.000000 0.000000 1.658790 
# 
# From -- ./inp_files/5563.got.cif
#   From: 2010.05.17/outbox.cif.g08.bks.cpg/sg46_3_cif.got.tgz:5563.got - 2010.06.03 19:58:25.
