data_PCOD9380473
_publ_section_title
;
Structure prediction by ZEFSAII (Michael W. Deem and Ramdas Pophale) SiO2 
 PCOD9380473
Probable space group: I M A 2
;
_chemical_formula_sum "Si O2"
_cell_formula_units_Z 56
_cell_length_a 9.046114
_cell_length_b 20.289981
_cell_length_c 15.780618
_cell_angle_alpha 90.000000
_cell_angle_beta 90.000000
_cell_angle_gamma 90.000000
_cell_volume 2896.461124
_symmetry_space_group_name_H-M "I M A 2"
_symmetry_group_IT_number 46
_symmetry_cell_setting 'orthorhombic'
loop_
_space_group_symop_operation_xyz
x,y,z
-x,-y,z
1/2-x,y,z
1/2+x,-y,z
1/2+x,1/2+y,1/2+z
1/2-x,1/2-y,1/2+z
-x,1/2+y,1/2+z
x,1/2-y,1/2+z
loop_
_atom_site_type_symbol
_atom_site_label
_atom_site_fract_x
_atom_site_fract_y
_atom_site_fract_z
Si Si1 0.088334 0.176363 0.810800
Si Si2 0.076809 0.325268 0.821914
Si Si3 0.575591 0.563098 0.557183
Si Si4 0.581571 0.814872 0.606950
Si Si5 0.427346 0.072965 0.473854
Si Si6 0.576267 0.315715 0.642286
Si Si7 0.921533 0.060552 0.875052
O O1 0.250000 0.149333 0.838257
O O2 0.073947 0.248821 0.851582
O O3 0.091584 0.178247 0.708710
O O4 0.953806 0.129656 0.832489
O O5 0.250000 0.336619 0.796040
O O6 0.037925 0.380213 0.892010
O O7 0.969532 0.321755 0.741098
O O8 0.500000 0.500000 0.601023
O O9 0.750000 0.555380 0.555255
O O10 0.524270 0.629158 0.600382
O O11 0.506402 0.565565 0.463827
O O12 0.750000 0.798379 0.577403
O O13 0.536488 0.880630 0.555647
O O14 0.470894 0.753545 0.599904
O O15 0.250000 0.063596 0.474113
O O16 0.500000 0.000000 0.472959
O O17 0.750000 0.327367 0.631183
O O18 0.750000 0.047543 0.886775
O O19 0.000000 0.000000 0.827006
#
# Coordination Sequence:
#
# PCOD9380473 Si02
#       7
#     8   8   8   8   8   8   8
#     4   9  18  35  58  84 113 151 197 245 293 345
#     4   9  20  39  60  84 115 155 200 241 291 351
#     4  11  22  38  58  82 115 151 189 234 286 345
#     4   9  20  39  61  86 116 155 200 242 292 352
#     4  10  22  40  62  89 120 158 202 247 300 356
#     4  11  22  37  59  89 119 152 195 243 295 348
#     4  11  22  36  54  82 116 150 190 234 287 346
#
# _framework density 19.333936999999999
#
# number of rings (size 3 to 8) (size 9 to 14) (size 15 to 20)
#    0.000    2.000    0.000    5.571    2.000    4.571 
#    0.000    2.857    0.000    0.000    0.000    0.000 
#    0.000    0.000    0.000    0.000    0.000    0.000 
#
# Total GULP energy -156025.372467 kJ/mol
# GULP energy per Si atom -5572.334731 kJ/mol
# Density = 1.928993 g / cm^3
# Si number density = 19.333937 Si / 1000 Ang^3
#
#
#
# Elastic Constant Matrix: (Units=GPa)
#
#
# Indices 1 2 3 4 5 6 
#
# 1 130.8270 52.6348 17.1942 0.0000 0.0000 0.0000
# 2 52.6348 139.4591 44.3185 0.0000 0.0000 0.0000
# 3 17.1942 44.3185 36.7421 0.0000 0.0000 0.0000
# 4 0.0000 0.0000 0.0000 43.4269 0.0000 0.0000
# 5 0.0000 0.0000 0.0000 0.0000 22.6267 0.0000
# 6 0.0000 0.0000 0.0000 0.0000 0.0000 37.5899
#
#
#
# Elastic Compliance Matrix: (Units=1/GPa)
#
#
# Indices 1 2 3 4 5 6 
#
# 1 0.009013 -0.003343 -0.000186 0.000000 0.000000 0.000000
# 2 -0.003343 0.012867 -0.013956 0.000000 0.000000 0.000000
# 3 -0.000186 -0.013956 0.044138 0.000000 0.000000 0.000000
# 4 0.000000 0.000000 0.000000 0.023027 0.000000 0.000000
# 5 0.000000 0.000000 0.000000 0.000000 0.044196 0.000000
# 6 0.000000 0.000000 0.000000 0.000000 0.000000 0.026603
#
#
# Mechanical properties :
#
#
# Convention : Reuss Voigt Hill
#
# Bulk Modulus (GPa) = 32.20774 59.48037 45.84405
# Shear Modulus (GPa) = 24.37083 33.58740 28.97912
#
# Velocity S-wave (km/s) = 3.55423 4.17252 3.87573
# Velocity P-wave (km/s) = 5.79122 7.35152 6.61752
#
# Compressibility (1/GPa) = 0.03104844
#
# Stress axis : x y z
#
# Youngs Moduli (GPa) = 110.95185 77.71631 22.65619
#
# Poissons Ratio (x) = 0.25977 0.00421
# Poissons Ratio (y) = 0.37086 0.31620
# Poissons Ratio (z) = 0.02063 1.08464
#
# Static dielectric constant tensor:
#      x y z
#    x 1.673320 0.000000 0.000000 
#    y 0.000000 1.780770 0.000000 
#    z 0.000000 0.000000 1.726370 
# 
# From -- ./inp_files/14225.got.cif
#   From: 2010.05.17/outbox.cif.g08.bks.cpg/sg46_8_cif.got.tgz:14225.got - 2010.06.03 19:58:25.
