data_PCOD9380051
_publ_section_title
;
Structure prediction by ZEFSAII (Michael W. Deem and Ramdas Pophale) SiO2 
 PCOD9380051
Probable space group: I M A 2
;
_chemical_formula_sum "Si O2"
_cell_formula_units_Z 48
_cell_length_a 16.817182
_cell_length_b 5.085960
_cell_length_c 28.035916
_cell_angle_alpha 90.000000
_cell_angle_beta 90.000000
_cell_angle_gamma 90.000000
_cell_volume 2397.954369
_symmetry_space_group_name_H-M "I M A 2"
_symmetry_group_IT_number 46
_symmetry_cell_setting 'orthorhombic'
loop_
_space_group_symop_operation_xyz
x,y,z
-x,-y,z
1/2-x,y,z
1/2+x,-y,z
1/2+x,1/2+y,1/2+z
1/2-x,1/2-y,1/2+z
-x,1/2+y,1/2+z
x,1/2-y,1/2+z
loop_
_atom_site_type_symbol
_atom_site_label
_atom_site_fract_x
_atom_site_fract_y
_atom_site_fract_z
Si Si1 0.843000 0.392432 0.698200
Si Si2 0.909928 0.601021 0.148440
Si Si3 0.557212 0.251833 0.288344
Si Si4 0.844463 0.188790 0.489789
Si Si5 0.845510 0.818962 0.049892
Si Si6 0.056645 0.752286 0.895490
O O1 0.750000 0.455062 0.700488
O O2 0.890226 0.656547 0.683684
O O3 0.877248 0.283016 0.747855
O O4 0.857508 0.156093 0.660583
O O5 0.889529 0.719605 0.096846
O O6 0.000000 0.500000 0.152195
O O7 0.500000 0.500000 0.279443
O O8 0.591647 0.272696 0.341989
O O9 0.500000 0.000000 0.287161
O O10 0.750000 0.224533 0.486210
O O11 0.872160 0.400463 0.529330
O O12 0.882490 0.236481 0.438665
O O13 0.859925 0.897138 0.508963
O O14 0.750000 0.826887 0.059904
O O15 0.000000 0.500000 0.896844
O O16 0.000000 0.000000 0.902399
#
# Coordination Sequence:
#
# PCOD9380051 Si02
#       6
#     8   8   8   8   8   8
#     4  12  24  40  63  90 120 157 198 246 297 353
#     4  12  25  41  62  89 120 158 200 246 296 353
#     4  10  21  39  61  85 117 154 193 240 294 348
#     4  10  21  37  59  84 116 153 190 237 290 341
#     4  10  21  38  58  84 117 154 193 238 289 342
#     4  10  21  37  59  86 116 152 191 237 289 343
#
# _framework density 20.017060000000001
#
# number of rings (size 3 to 8) (size 9 to 14) (size 15 to 20)
#    0.000    1.333    0.000    6.500    0.000    4.000 
#    0.000    0.000    0.000   10.000    0.000    0.000 
#    0.000    0.000    0.000    0.000    0.000    0.000 
#
# Total GULP energy -134221.990151 kJ/mol
# GULP energy per Si atom -5592.582923 kJ/mol
# Density = 1.997150 g / cm^3
# Si number density = 20.017060 Si / 1000 Ang^3
#
#
#
# Elastic Constant Matrix: (Units=GPa)
#
#
# Indices 1 2 3 4 5 6 
#
# 1 45.4318 14.4871 35.7580 0.0000 0.0000 0.0000
# 2 14.4871 103.0995 -4.7036 0.0000 0.0000 0.0000
# 3 35.7580 -4.7036 91.8517 0.0000 0.0000 0.0000
# 4 0.0000 0.0000 0.0000 26.0759 0.0000 0.0000
# 5 0.0000 0.0000 0.0000 0.0000 -106.7984 0.0000
# 6 0.0000 0.0000 0.0000 0.0000 0.0000 18.7432
#
#
#
# Elastic Compliance Matrix: (Units=1/GPa)
#
#
# Indices 1 2 3 4 5 6 
#
# 1 0.034575 -0.005485 -0.013741 0.000000 0.000000 0.000000
# 2 -0.005485 0.010592 0.002678 0.000000 0.000000 0.000000
# 3 -0.013741 0.002678 0.016374 0.000000 0.000000 0.000000
# 4 0.000000 0.000000 0.000000 0.038350 0.000000 0.000000
# 5 0.000000 0.000000 0.000000 0.000000 -0.009363 0.000000
# 6 0.000000 0.000000 0.000000 0.000000 0.000000 0.053353
#
#
# Mechanical properties :
#
#
# Convention : Reuss Voigt Hill
#
# Bulk Modulus (GPa) = 35.15652 36.82956 35.99304
# Shear Modulus (GPa) = 26.81558 0.59358 13.70458
#
# Velocity S-wave (km/s) = 3.66407 0.54514 2.61941
# Velocity P-wave (km/s) = 5.95836 4.33996 5.21235
#
# Compressibility (1/GPa) = 0.02844423
#
# Stress axis : x y z
#
# Youngs Moduli (GPa) = 28.92228 94.40821 61.07353
#
# Poissons Ratio (x) = 0.51785 0.83922
# Poissons Ratio (y) = 0.15865 -0.16355
# Poissons Ratio (z) = 0.39743 -0.25281
#
# Static dielectric constant tensor:
#      x y z
#    x 1.694390 0.000000 0.000000 
#    y 0.000000 1.695300 0.000000 
#    z 0.000000 0.000000 1.724740 
# 
# From -- ./inp_files/24583.got.cif
#   From: 2010.05.17/outbox.cif.g08.bks.cpg/sg46_13_cif.got.tgz:24583.got - 2010.06.03 19:58:25.
