data_PCOD9380725
_publ_section_title
;
Structure prediction by ZEFSAII (Michael W. Deem and Ramdas Pophale) SiO2 
 PCOD9380725
Probable space group: I M A 2
;
_chemical_formula_sum "Si O2"
_cell_formula_units_Z 48
_cell_length_a 22.352046
_cell_length_b 8.765342
_cell_length_c 11.765156
_cell_angle_alpha 90.000000
_cell_angle_beta 90.000000
_cell_angle_gamma 90.000000
_cell_volume 2305.068513
_symmetry_space_group_name_H-M "I M A 2"
_symmetry_group_IT_number 46
_symmetry_cell_setting 'orthorhombic'
loop_
_space_group_symop_operation_xyz
x,y,z
-x,-y,z
1/2-x,y,z
1/2+x,-y,z
1/2+x,1/2+y,1/2+z
1/2-x,1/2-y,1/2+z
-x,1/2+y,1/2+z
x,1/2-y,1/2+z
loop_
_atom_site_type_symbol
_atom_site_label
_atom_site_fract_x
_atom_site_fract_y
_atom_site_fract_z
Si Si1 0.317413 0.088053 0.287410
Si Si2 0.020765 0.827308 0.248216
Si Si3 0.358681 0.849667 0.106575
Si Si4 0.181529 0.982923 0.541318
Si Si5 0.441555 0.578802 0.409649
Si Si6 0.094164 0.150720 0.710911
O O1 0.250000 0.149928 0.290604
O O2 0.364680 0.222700 0.271708
O O3 0.323451 0.970874 0.182644
O O4 0.328103 0.000763 0.406246
O O5 0.080902 0.818081 0.176529
O O6 0.036110 0.743154 0.366510
O O7 0.967887 0.735950 0.184696
O O8 0.000000 0.000000 0.265332
O O9 0.325645 0.691940 0.080667
O O10 0.384313 0.916942 0.989595
O O11 0.250000 0.033071 0.565904
O O12 0.132480 0.082383 0.608020
O O13 0.500000 0.500000 0.464798
O O14 0.424059 0.482057 0.298386
#
# Coordination Sequence:
#
# PCOD9380725 Si02
#       6
#     8   8   8   8   8   8
#     4  11  26  45  68 100 135 181 235 277 335 403
#     4  11  22  42  67 102 134 175 219 278 342 404
#     4  12  23  44  69 100 136 176 226 279 334 409
#     4  11  26  46  69  97 135 183 228 280 333 399
#     4  10  24  42  65 101 137 172 220 274 346 411
#     4  11  24  44  69  98 138 175 222 283 338 407
#
# _framework density 20.823677
#
# number of rings (size 3 to 8) (size 9 to 14) (size 15 to 20)
#    0.000    1.000    3.333    2.500    2.333    1.333 
#    0.000    1.667    0.000    0.000    0.000    0.000 
#    0.000    0.000    0.000    0.000    0.000    0.000 
#
# Total GULP energy -134207.657046 kJ/mol
# GULP energy per Si atom -5591.985710 kJ/mol
# Density = 2.077628 g / cm^3
# Si number density = 20.823677 Si / 1000 Ang^3
#
#
#
# Elastic Constant Matrix: (Units=GPa)
#
#
# Indices 1 2 3 4 5 6 
#
# 1 87.7863 4.8984 11.2418 0.0000 0.0000 0.0000
# 2 4.8984 84.9933 23.8224 0.0000 0.0000 0.0000
# 3 11.2418 23.8224 60.4389 0.0000 0.0000 0.0000
# 4 0.0000 0.0000 0.0000 23.5365 0.0000 0.0000
# 5 0.0000 0.0000 0.0000 0.0000 17.7826 0.0000
# 6 0.0000 0.0000 0.0000 0.0000 0.0000 31.9721
#
#
#
# Elastic Compliance Matrix: (Units=1/GPa)
#
#
# Indices 1 2 3 4 5 6 
#
# 1 0.011670 -0.000072 -0.002142 0.000000 0.000000 0.000000
# 2 -0.000072 0.013227 -0.005200 0.000000 0.000000 0.000000
# 3 -0.002142 -0.005200 0.018994 0.000000 0.000000 0.000000
# 4 0.000000 0.000000 0.000000 0.042487 0.000000 0.000000
# 5 0.000000 0.000000 0.000000 0.000000 0.056235 0.000000
# 6 0.000000 0.000000 0.000000 0.000000 0.000000 0.031277
#
#
# Mechanical properties :
#
#
# Convention : Reuss Voigt Hill
#
# Bulk Modulus (GPa) = 34.40950 34.79374 34.60162
# Shear Modulus (GPa) = 25.20085 27.54198 26.37141
#
# Velocity S-wave (km/s) = 3.48257 3.64074 3.56253
# Velocity P-wave (km/s) = 5.72111 5.86671 5.79437
#
# Compressibility (1/GPa) = 0.02906174
#
# Stress axis : x y z
#
# Youngs Moduli (GPa) = 85.69238 75.60097 52.64882
#
# Poissons Ratio (x) = 0.00545 0.11278
# Poissons Ratio (y) = 0.00618 0.27379
# Poissons Ratio (z) = 0.18357 0.39314
#
# Static dielectric constant tensor:
#      x y z
#    x 1.718750 0.000000 0.000000 
#    y 0.000000 1.740430 0.000000 
#    z 0.000000 0.000000 1.757480 
# 
# From -- ./inp_files/12698.got.cif
#   From: 2010.05.17/outbox.cif.g08.bks.cpg/sg46_7_cif.got.tgz:12698.got - 2010.06.03 19:58:25.
