data_PCOD9380270
_publ_section_title
;
Structure prediction by ZEFSAII (Michael W. Deem and Ramdas Pophale) SiO2 
 PCOD9380270
Probable space group: I M A 2
;
_chemical_formula_sum "Si O2"
_cell_formula_units_Z 40
_cell_length_a 17.874061
_cell_length_b 7.509909
_cell_length_c 11.736237
_cell_angle_alpha 90.000000
_cell_angle_beta 90.000000
_cell_angle_gamma 90.000000
_cell_volume 1575.385273
_symmetry_space_group_name_H-M "I M A 2"
_symmetry_group_IT_number 46
_symmetry_cell_setting 'orthorhombic'
loop_
_space_group_symop_operation_xyz
x,y,z
-x,-y,z
1/2-x,y,z
1/2+x,-y,z
1/2+x,1/2+y,1/2+z
1/2-x,1/2-y,1/2+z
-x,1/2+y,1/2+z
x,1/2-y,1/2+z
loop_
_atom_site_type_symbol
_atom_site_label
_atom_site_fract_x
_atom_site_fract_y
_atom_site_fract_z
Si Si1 0.834322 0.468579 0.401730
Si Si2 0.172711 0.370707 0.640858
Si Si3 0.539337 0.763547 0.393823
Si Si4 0.334284 0.949916 0.382458
Si Si5 0.016134 0.293650 0.143463
O O1 0.750000 0.522642 0.359414
O O2 0.831633 0.495056 0.536894
O O3 0.902378 0.600134 0.369613
O O4 0.844636 0.261272 0.379632
O O5 0.250000 0.268472 0.631475
O O6 0.171430 0.482106 0.754294
O O7 0.103639 0.243586 0.638365
O O8 0.494401 0.727890 0.513497
O O9 0.497003 0.786387 0.270765
O O10 0.593769 0.933421 0.421759
O O11 0.250000 0.984348 0.433729
O O12 0.000000 0.500000 0.149558
#
# Coordination Sequence:
#
# PCOD9380270 Si02
#       5
#     8   8   8   8   8
#     4   9  17  31  56  91 129 167 207 255 319 391
#     4   8  16  33  60  95 134 170 216 275 328 391
#     4  10  21  40  64  90 129 162 218 270 328 384
#     4   9  17  31  56  91 129 167 207 255 319 391
#     4  10  22  43  67  95 126 172 224 267 331 404
#
# _framework density 25.390616000000001
#
# number of rings (size 3 to 8) (size 9 to 14) (size 15 to 20)
#    0.000    2.800    0.000    0.600    0.000    3.200 
#    3.600    3.000    0.000    0.000    0.000    0.000 
#    0.000    0.000    0.000    0.000    0.000    9.600 
#
# Total GULP energy -111558.932403 kJ/mol
# GULP energy per Si atom -5577.946620 kJ/mol
# Density = 2.533283 g / cm^3
# Si number density = 25.390616 Si / 1000 Ang^3
#
#
#
# Elastic Constant Matrix: (Units=GPa)
#
#
# Indices 1 2 3 4 5 6 
#
# 1 103.0334 35.9735 19.6021 0.0000 0.0000 0.0000
# 2 35.9735 153.8466 15.4033 0.0000 0.0000 0.0000
# 3 19.6021 15.4033 139.9226 0.0000 0.0000 0.0000
# 4 0.0000 0.0000 0.0000 13.5994 0.0000 0.0000
# 5 0.0000 0.0000 0.0000 0.0000 19.2450 0.0000
# 6 0.0000 0.0000 0.0000 0.0000 0.0000 76.6638
#
#
#
# Elastic Compliance Matrix: (Units=1/GPa)
#
#
# Indices 1 2 3 4 5 6 
#
# 1 0.010779 -0.002396 -0.001246 0.000000 0.000000 0.000000
# 2 -0.002396 0.007105 -0.000447 0.000000 0.000000 0.000000
# 3 -0.001246 -0.000447 0.007371 0.000000 0.000000 0.000000
# 4 0.000000 0.000000 0.000000 0.073533 0.000000 0.000000
# 5 0.000000 0.000000 0.000000 0.000000 0.051962 0.000000
# 6 0.000000 0.000000 0.000000 0.000000 0.000000 0.013044
#
#
# Mechanical properties :
#
#
# Convention : Reuss Voigt Hill
#
# Bulk Modulus (GPa) = 58.55661 59.86227 59.20944
# Shear Modulus (GPa) = 28.14326 43.62321 35.88324
#
# Velocity S-wave (km/s) = 3.33289 4.14947 3.76340
# Velocity P-wave (km/s) = 6.15819 6.82534 6.50033
#
# Compressibility (1/GPa) = 0.01707749
#
# Stress axis : x y z
#
# Youngs Moduli (GPa) = 92.77176 140.74869 135.67475
#
# Poissons Ratio (x) = 0.33719 0.16910
# Poissons Ratio (y) = 0.22225 0.06058
# Poissons Ratio (z) = 0.11563 0.06285
#
# Static dielectric constant tensor:
#      x y z
#    x 2.107210 0.000000 0.000000 
#    y 0.000000 1.696910 0.000000 
#    z 0.000000 0.000000 2.130450 
# 
# From -- ./inp_files/11614.got.cif
#   From: 2010.05.17/outbox.cif.g08.bks.cpg/sg46_6_cif.got.tgz:11614.got - 2010.06.03 19:58:25.
