data_PCOD9380109
_publ_section_title
;
Structure prediction by ZEFSAII (Michael W. Deem and Ramdas Pophale) SiO2 
 PCOD9380109
Probable space group: I M A 2
;
_chemical_formula_sum "Si O2"
_cell_formula_units_Z 64
_cell_length_a 16.691157
_cell_length_b 9.399257
_cell_length_c 21.530254
_cell_angle_alpha 90.000000
_cell_angle_beta 90.000000
_cell_angle_gamma 90.000000
_cell_volume 3377.762580
_symmetry_space_group_name_H-M "I M A 2"
_symmetry_group_IT_number 46
_symmetry_cell_setting 'orthorhombic'
loop_
_space_group_symop_operation_xyz
x,y,z
-x,-y,z
1/2-x,y,z
1/2+x,-y,z
1/2+x,1/2+y,1/2+z
1/2-x,1/2-y,1/2+z
-x,1/2+y,1/2+z
x,1/2-y,1/2+z
loop_
_atom_site_type_symbol
_atom_site_label
_atom_site_fract_x
_atom_site_fract_y
_atom_site_fract_z
Si Si1 0.653019 0.409442 0.288660
Si Si2 0.347575 0.580779 0.644899
Si Si3 0.415866 0.418588 0.895855
Si Si4 0.154348 0.580563 0.782514
Si Si5 0.411042 0.433750 0.032299
Si Si6 0.845270 0.874945 0.033342
Si Si7 0.916809 0.921100 0.904496
Si Si8 0.845839 0.095361 0.649707
O O1 0.750000 0.415486 0.291852
O O2 0.627789 0.243388 0.295986
O O3 0.618100 0.506540 0.342699
O O4 0.627224 0.452545 0.218562
O O5 0.250000 0.581213 0.644684
O O6 0.374321 0.534429 0.713877
O O7 0.370220 0.482685 0.587591
O O8 0.374781 0.743632 0.638010
O O9 0.500000 0.500000 0.893215
O O10 0.368420 0.474039 0.836695
O O11 0.426776 0.248531 0.894923
O O12 0.377383 0.460726 0.962594
O O13 0.250000 0.588292 0.778865
O O14 0.500000 0.500000 0.032308
O O15 0.400321 0.264737 0.038923
O O16 0.368479 0.501232 0.091381
O O17 0.750000 0.840093 0.039994
O O18 0.860203 0.937708 0.964759
O O19 0.000000 0.000000 0.918382
O O20 0.750000 0.101498 0.653626
#
# Coordination Sequence:
#
# PCOD9380109 Si02
#       8
#     8   8   8   8   8   8   8   8
#     4   9  19  36  57  83 113 146 186 230 279 339
#     4   8  17  34  56  82 107 136 178 226 272 322
#     4  10  22  38  53  75 108 144 184 225 273 333
#     4   9  18  35  58  81 107 140 181 227 272 324
#     4  10  22  37  53  78 113 147 182 232 285 336
#     4  10  21  38  59  83 113 148 190 235 278 333
#     4  11  23  37  56  81 113 148 185 234 288 340
#     4   9  18  35  58  81 109 145 186 229 275 335
#
# _framework density 18.947452999999999
#
# number of rings (size 3 to 8) (size 9 to 14) (size 15 to 20)
#    0.000    2.500    0.000    3.000    0.000    8.500 
#    0.000    8.125    0.000    0.000    0.000    0.000 
#    0.000    0.000    0.000    0.000    0.000    0.000 
#
# Total GULP energy -178340.708544 kJ/mol
# GULP energy per Si atom -5573.147142 kJ/mol
# Density = 1.890433 g / cm^3
# Si number density = 18.947453 Si / 1000 Ang^3
#
#
#
# Elastic Constant Matrix: (Units=GPa)
#
#
# Indices 1 2 3 4 5 6 
#
# 1 25.2659 21.5641 22.3831 0.0000 0.0000 0.0000
# 2 21.5641 91.2635 95.5798 0.0000 0.0000 0.0000
# 3 22.3831 95.5798 179.4860 0.0000 0.0000 0.0000
# 4 0.0000 0.0000 0.0000 32.1505 0.0000 0.0000
# 5 0.0000 0.0000 0.0000 0.0000 274.4857 0.0000
# 6 0.0000 0.0000 0.0000 0.0000 0.0000 25.4258
#
#
#
# Elastic Compliance Matrix: (Units=1/GPa)
#
#
# Indices 1 2 3 4 5 6 
#
# 1 0.049578 -0.011846 0.000125 0.000000 0.000000 0.000000
# 2 -0.011846 0.027604 -0.013222 0.000000 0.000000 0.000000
# 3 0.000125 -0.013222 0.012597 0.000000 0.000000 0.000000
# 4 0.000000 0.000000 0.000000 0.031104 0.000000 0.000000
# 5 0.000000 0.000000 0.000000 0.000000 0.003643 0.000000
# 6 0.000000 0.000000 0.000000 0.000000 0.000000 0.039330
#
#
# Mechanical properties :
#
#
# Convention : Reuss Voigt Hill
#
# Bulk Modulus (GPa) = 25.06671 63.89660 44.48165
# Shear Modulus (GPa) = 22.02254 76.84497 49.43375
#
# Velocity S-wave (km/s) = 3.41294 6.37534 5.11337
# Velocity P-wave (km/s) = 5.36556 9.38027 7.64129
#
# Compressibility (1/GPa) = 0.03989355
#
# Stress axis : x y z
#
# Youngs Moduli (GPa) = 20.17013 36.22648 79.38369
#
# Poissons Ratio (x) = 0.42914 -0.00996
# Poissons Ratio (y) = 0.23893 1.04965
# Poissons Ratio (z) = -0.00253 0.47900
#
# Static dielectric constant tensor:
#      x y z
#    x 1.665700 0.000000 0.000000 
#    y 0.000000 1.644010 0.000000 
#    z 0.000000 0.000000 1.673700 
# 
# From -- ./inp_files/22221.got.cif
#   From: 2010.05.17/outbox.cif.g08.bks.cpg/sg46_12_cif.got.tgz:22221.got - 2010.06.03 19:58:25.
