data_PCOD9380226
_publ_section_title
;
Structure prediction by ZEFSAII (Michael W. Deem and Ramdas Pophale) SiO2 
 PCOD9380226
Probable space group: I M A 2
;
_chemical_formula_sum "Si O2"
_cell_formula_units_Z 40
_cell_length_a 16.289048
_cell_length_b 18.775104
_cell_length_c 5.323428
_cell_angle_alpha 90.000000
_cell_angle_beta 90.000000
_cell_angle_gamma 90.000000
_cell_volume 1628.056374
_symmetry_space_group_name_H-M "I M A 2"
_symmetry_group_IT_number 46
_symmetry_cell_setting 'orthorhombic'
loop_
_space_group_symop_operation_xyz
x,y,z
-x,-y,z
1/2-x,y,z
1/2+x,-y,z
1/2+x,1/2+y,1/2+z
1/2-x,1/2-y,1/2+z
-x,1/2+y,1/2+z
x,1/2-y,1/2+z
loop_
_atom_site_type_symbol
_atom_site_label
_atom_site_fract_x
_atom_site_fract_y
_atom_site_fract_z
Si Si1 0.654233 0.560518 0.222770
Si Si2 0.524884 0.582263 0.591811
Si Si3 0.428895 0.911996 0.586951
Si Si4 0.155148 0.779393 0.706423
Si Si5 0.848079 0.714278 0.981197
O O1 0.750000 0.541600 0.235845
O O2 0.619681 0.580157 0.501219
O O3 0.601927 0.494013 0.110454
O O4 0.645613 0.631726 0.056586
O O5 0.500000 0.500000 0.615076
O O6 0.481579 0.605735 0.333837
O O7 0.481600 0.609974 0.843221
O O8 0.351896 0.860045 0.613075
O O9 0.250000 0.758538 0.739672
O O10 0.117557 0.733864 0.479942
O O11 0.750000 0.729485 0.964564
O O12 0.882772 0.760988 0.213069
#
# Coordination Sequence:
#
# PCOD9380226 Si02
#       5
#     8   8   8   8   8
#     4  10  22  42  70  98 124 169 229 272 315 387
#     4  10  22  40  61  90 131 166 202 266 331 376
#     4  11  22  41  64  91 128 169 212 258 323 393
#     4  10  21  39  63  93 130 168 211 268 323 375
#     4   9  19  36  57  86 125 160 198 260 322 365
#
# _framework density 24.569174
#
# number of rings (size 3 to 8) (size 9 to 14) (size 15 to 20)
#    0.000    2.000    0.000    3.600    0.000    4.800 
#    0.000   26.000    0.000    0.000    0.000    0.000 
#    0.000    0.000    0.000    0.000    0.000    0.000 
#
# Total GULP energy -111663.444713 kJ/mol
# GULP energy per Si atom -5583.172236 kJ/mol
# Density = 2.451325 g / cm^3
# Si number density = 24.569174 Si / 1000 Ang^3
#
#
#
# Elastic Constant Matrix: (Units=GPa)
#
#
# Indices 1 2 3 4 5 6 
#
# 1 95.2016 8.2829 53.4203 0.0000 0.0000 0.0000
# 2 8.2829 62.6836 15.5997 0.0000 0.0000 0.0000
# 3 53.4203 15.5997 189.6796 0.0000 0.0000 0.0000
# 4 0.0000 0.0000 0.0000 26.5874 0.0000 0.0000
# 5 0.0000 0.0000 0.0000 0.0000 19.5261 0.0000
# 6 0.0000 0.0000 0.0000 0.0000 0.0000 25.0900
#
#
#
# Elastic Compliance Matrix: (Units=1/GPa)
#
#
# Indices 1 2 3 4 5 6 
#
# 1 0.012514 -0.000793 -0.003459 0.000000 0.000000 0.000000
# 2 -0.000793 0.016337 -0.001120 0.000000 0.000000 0.000000
# 3 -0.003459 -0.001120 0.006338 0.000000 0.000000 0.000000
# 4 0.000000 0.000000 0.000000 0.037612 0.000000 0.000000
# 5 0.000000 0.000000 0.000000 0.000000 0.051214 0.000000
# 6 0.000000 0.000000 0.000000 0.000000 0.000000 0.039857
#
#
# Mechanical properties :
#
#
# Convention : Reuss Voigt Hill
#
# Bulk Modulus (GPa) = 40.90864 55.79673 48.35269
# Shear Modulus (GPa) = 27.35772 32.25815 29.80794
#
# Velocity S-wave (km/s) = 3.34053 3.62740 3.48692
# Velocity P-wave (km/s) = 5.61831 6.34850 5.99453
#
# Compressibility (1/GPa) = 0.02444471
#
# Stress axis : x y z
#
# Youngs Moduli (GPa) = 79.91022 61.21195 157.76822
#
# Poissons Ratio (x) = 0.04852 0.54575
# Poissons Ratio (y) = 0.06335 0.17675
# Poissons Ratio (z) = 0.27642 0.06858
#
# Static dielectric constant tensor:
#      x y z
#    x 1.995860 0.000000 0.000000 
#    y 0.000000 1.982420 0.000000 
#    z 0.000000 0.000000 2.025070 
# 
# From -- ./inp_files/1587.got.cif
#   From: 2010.05.17/outbox.cif.g08.bks.cpg/sg46_1_cif.got.tgz:1587.got - 2010.06.03 19:58:25.
