data_PCOD9380496
_publ_section_title
;
Structure prediction by ZEFSAII (Michael W. Deem and Ramdas Pophale) SiO2 
 PCOD9380496
Probable space group: I M A 2
;
_chemical_formula_sum "Si O2"
_cell_formula_units_Z 32
_cell_length_a 10.210323
_cell_length_b 27.676333
_cell_length_c 5.285835
_cell_angle_alpha 90.000000
_cell_angle_beta 90.000000
_cell_angle_gamma 90.000000
_cell_volume 1493.693980
_symmetry_space_group_name_H-M "I M A 2"
_symmetry_group_IT_number 46
_symmetry_cell_setting 'orthorhombic'
loop_
_space_group_symop_operation_xyz
x,y,z
-x,-y,z
1/2-x,y,z
1/2+x,-y,z
1/2+x,1/2+y,1/2+z
1/2-x,1/2-y,1/2+z
-x,1/2+y,1/2+z
x,1/2-y,1/2+z
loop_
_atom_site_type_symbol
_atom_site_label
_atom_site_fract_x
_atom_site_fract_y
_atom_site_fract_z
Si Si1 0.398105 0.717846 0.682650
Si Si2 0.526617 0.056194 0.233444
Si Si3 0.390387 0.894458 0.723818
Si Si4 0.601905 0.645004 0.901197
O O1 0.250000 0.696903 0.699279
O O2 0.409978 0.744774 0.415887
O O3 0.511064 0.678822 0.728375
O O4 0.593590 0.077258 0.983671
O O5 0.500000 0.000000 0.208196
O O6 0.606012 0.068047 0.489047
O O7 0.401846 0.091223 0.280120
O O8 0.250000 0.868545 0.719198
O O9 0.514841 0.861062 0.656504
O O10 0.750000 0.661573 0.937317
#
# Coordination Sequence:
#
# PCOD9380496 Si02
#       4
#     8   8   8   8
#     4  10  23  43  68  96 125 164 216 266 316 384
#     4  10  23  42  62  97 129 173 217 266 316 376
#     4  10  22  40  65  90 121 169 221 264 307 370
#     4  10  25  43  65  97 137 170 209 266 330 388
#
# _framework density 21.423400000000001
#
# number of rings (size 3 to 8) (size 9 to 14) (size 15 to 20)
#    1.500    0.500    0.000    2.250    3.500    4.000 
#    0.000    0.000    0.000    0.000    0.000    0.000 
#    0.000    0.000    0.000    0.000    0.000    0.000 
#
# Total GULP energy -89195.746586 kJ/mol
# GULP energy per Si atom -5574.734162 kJ/mol
# Density = 2.137464 g / cm^3
# Si number density = 21.423400 Si / 1000 Ang^3
#
#
#
# Elastic Constant Matrix: (Units=GPa)
#
#
# Indices 1 2 3 4 5 6 
#
# 1 181.5194 53.7576 24.3440 -0.0049 -0.0001 -0.0186
# 2 53.7576 88.4602 30.2643 0.0056 -0.0004 -0.0083
# 3 24.3440 30.2643 153.2008 -0.0057 -0.0011 -0.1149
# 4 -0.0049 0.0056 -0.0057 34.8087 -0.0158 0.1322
# 5 -0.0001 -0.0004 -0.0011 -0.0158 20.2116 0.0830
# 6 -0.0186 -0.0083 -0.1149 0.1322 0.0830 -33.3111
#
#
#
# Elastic Compliance Matrix: (Units=1/GPa)
#
#
# Indices 1 2 3 4 5 6 
#
# 1 0.006729 -0.003994 -0.000280 0.000002 0.000000 -0.000002
# 2 -0.003994 0.014494 -0.002229 -0.000003 0.000000 0.000006
# 3 -0.000280 -0.002229 0.007012 0.000002 0.000000 -0.000023
# 4 0.000002 -0.000003 0.000002 0.028728 0.000022 0.000114
# 5 0.000000 0.000000 0.000000 0.000022 0.049476 0.000123
# 6 -0.000002 0.000006 -0.000023 0.000114 0.000123 -0.030019
#
#
# Mechanical properties :
#
#
# Convention : Reuss Voigt Hill
#
# Bulk Modulus (GPa) = 65.65866 71.10135 68.38001
# Shear Modulus (GPa) = 52.90884 25.32947 39.11916
#
# Velocity S-wave (km/s) = 4.97497 3.44223 4.27781
# Velocity P-wave (km/s) = 7.98218 7.00423 7.50914
#
# Compressibility (1/GPa) = 0.01523028
#
# Stress axis : x y z
#
# Youngs Moduli (GPa) = 148.60270 68.99476 142.60900
#
# Poissons Ratio (x) = 0.27553 0.03999
# Poissons Ratio (y) = 0.59345 0.31782
# Poissons Ratio (z) = 0.04167 0.15376
#
# Static dielectric constant tensor:
#      x y z
#    x 1.775200 0.000000 0.000000 
#    y 0.000000 1.786560 0.000000 
#    z 0.000000 0.000000 1.788520 
# 
# From -- ./inp_files/404.got.cif
#   From: 2010.05.17/outbox.cif.g08.bks.cpg/sg46_1_cif.got.tgz:404.got - 2010.06.03 19:58:25.
