data_PCOD9380824
_publ_section_title
;
Structure prediction by ZEFSAII (Michael W. Deem and Ramdas Pophale) SiO2 
 PCOD9380824
Probable space group: I M A 2
;
_chemical_formula_sum "Si O2"
_cell_formula_units_Z 48
_cell_length_a 31.294912
_cell_length_b 8.869876
_cell_length_c 8.593027
_cell_angle_alpha 90.000000
_cell_angle_beta 90.000000
_cell_angle_gamma 90.000000
_cell_volume 2385.269525
_symmetry_space_group_name_H-M "I M A 2"
_symmetry_group_IT_number 46
_symmetry_cell_setting 'orthorhombic'
loop_
_space_group_symop_operation_xyz
x,y,z
-x,-y,z
1/2-x,y,z
1/2+x,-y,z
1/2+x,1/2+y,1/2+z
1/2-x,1/2-y,1/2+z
-x,1/2+y,1/2+z
x,1/2-y,1/2+z
loop_
_atom_site_type_symbol
_atom_site_label
_atom_site_fract_x
_atom_site_fract_y
_atom_site_fract_z
Si Si1 0.916067 0.719552 0.286740
Si Si2 0.703014 0.975234 0.464228
Si Si3 0.951328 0.541729 0.013700
Si Si4 0.176547 0.309456 0.651229
Si Si5 0.131482 0.530484 0.446484
Si Si6 0.873062 0.164530 0.605393
O O1 0.948128 0.654242 0.160443
O O2 0.932242 0.868336 0.368650
O O3 0.870465 0.752689 0.205735
O O4 0.906626 0.587511 0.412188
O O5 0.750000 0.045930 0.472382
O O6 0.699787 0.838406 0.588274
O O7 0.696396 0.897171 0.296374
O O8 0.664661 0.089330 0.502939
O O9 0.918273 0.408563 0.055592
O O10 0.000000 0.500000 0.986769
O O11 0.169634 0.424973 0.508159
O O12 0.124471 0.657854 0.575573
O O13 0.136909 0.616484 0.282631
#
# Coordination Sequence:
#
# PCOD9380824 Si02
#       6
#     8   8   8   8   8   8
#     4  11  20  43  68  93 128 174 218 271 322 391
#     4  12  23  39  66 100 134 173 227 275 327 395
#     4  11  24  41  66  95 129 171 218 269 332 396
#     4  12  19  42  68  93 128 179 222 270 327 388
#     4  11  22  39  72  89 128 180 215 269 336 390
#     4  11  23  42  62  98 132 172 219 274 337 386
#
# _framework density 20.123512999999999
#
# number of rings (size 3 to 8) (size 9 to 14) (size 15 to 20)
#    0.000    0.667    8.333    1.500    0.000    2.667 
#    0.000    5.833    0.000    0.000    0.000    0.000 
#    0.000    0.000    0.000    0.000    0.000    0.000 
#
# Total GULP energy -134085.972008 kJ/mol
# GULP energy per Si atom -5586.915500 kJ/mol
# Density = 2.007771 g / cm^3
# Si number density = 20.123513 Si / 1000 Ang^3
#
#
#
# Elastic Constant Matrix: (Units=GPa)
#
#
# Indices 1 2 3 4 5 6 
#
# 1 100.6835 20.4229 22.4475 0.0000 0.0000 0.0000
# 2 20.4229 60.2084 5.2122 0.0000 0.0000 0.0000
# 3 22.4475 5.2122 52.2209 0.0000 0.0000 0.0000
# 4 0.0000 0.0000 0.0000 43.6613 0.0000 0.0000
# 5 0.0000 0.0000 0.0000 0.0000 6.2353 0.0000
# 6 0.0000 0.0000 0.0000 0.0000 0.0000 6.3595
#
#
#
# Elastic Compliance Matrix: (Units=1/GPa)
#
#
# Indices 1 2 3 4 5 6 
#
# 1 0.011697 -0.003563 -0.004672 0.000000 0.000000 0.000000
# 2 -0.003563 0.017839 -0.000249 0.000000 0.000000 0.000000
# 3 -0.004672 -0.000249 0.021183 0.000000 0.000000 0.000000
# 4 0.000000 0.000000 0.000000 0.022904 0.000000 0.000000
# 5 0.000000 0.000000 0.000000 0.000000 0.160378 0.000000
# 6 0.000000 0.000000 0.000000 0.000000 0.000000 0.157246
#
#
# Mechanical properties :
#
#
# Convention : Reuss Voigt Hill
#
# Bulk Modulus (GPa) = 29.62969 34.36423 31.99696
# Shear Modulus (GPa) = 11.91996 22.25322 17.08659
#
# Velocity S-wave (km/s) = 2.43644 3.32901 2.91707
# Velocity P-wave (km/s) = 4.76140 5.64714 5.22308
#
# Compressibility (1/GPa) = 0.03374993
#
# Stress axis : x y z
#
# Youngs Moduli (GPa) = 85.49554 56.05659 47.20852
#
# Poissons Ratio (x) = 0.19973 0.22057
# Poissons Ratio (y) = 0.30462 0.01175
# Poissons Ratio (z) = 0.39945 0.01395
#
# Static dielectric constant tensor:
#      x y z
#    x 1.718430 0.000000 0.000000 
#    y 0.000000 1.711610 0.000000 
#    z 0.000000 0.000000 1.752850 
# 
# From -- ./inp_files/8379.got.cif
#   From: 2010.05.17/outbox.cif.g08.bks.cpg/sg46_5_cif.got.tgz:8379.got - 2010.06.03 19:58:25.
