data_PCOD9380063
_publ_section_title
;
Structure prediction by ZEFSAII (Michael W. Deem and Ramdas Pophale) SiO2 
 PCOD9380063
Probable space group: I M A 2
;
_chemical_formula_sum "Si O2"
_cell_formula_units_Z 64
_cell_length_a 8.677172
_cell_length_b 15.848674
_cell_length_c 24.412459
_cell_angle_alpha 90.000000
_cell_angle_beta 90.000000
_cell_angle_gamma 90.000000
_cell_volume 3357.242137
_symmetry_space_group_name_H-M "I M A 2"
_symmetry_group_IT_number 46
_symmetry_cell_setting 'orthorhombic'
loop_
_space_group_symop_operation_xyz
x,y,z
-x,-y,z
1/2-x,y,z
1/2+x,-y,z
1/2+x,1/2+y,1/2+z
1/2-x,1/2-y,1/2+z
-x,1/2+y,1/2+z
x,1/2-y,1/2+z
loop_
_atom_site_type_symbol
_atom_site_label
_atom_site_fract_x
_atom_site_fract_y
_atom_site_fract_z
Si Si1 0.065657 0.648455 0.643620
Si Si2 0.937688 0.750674 0.456672
Si Si3 0.934750 0.348534 0.142379
Si Si4 0.936472 0.747669 0.330425
Si Si5 0.934163 0.589974 0.028289
Si Si6 0.434710 0.410418 0.759215
Si Si7 0.565178 0.090753 0.762767
Si Si8 0.065030 0.410317 0.527954
O O1 0.250000 0.637899 0.643474
O O2 0.030444 0.748611 0.643746
O O3 0.997086 0.607984 0.698348
O O4 0.995573 0.608492 0.588976
O O5 0.750000 0.751479 0.457138
O O6 0.986488 0.751220 0.393629
O O7 0.989166 0.833241 0.489922
O O8 0.985727 0.666515 0.488904
O O9 0.750000 0.357882 0.136917
O O10 0.982816 0.389184 0.200010
O O11 0.013919 0.390153 0.090178
O O12 0.750000 0.742660 0.328992
O O13 0.981966 0.832276 0.297770
O O14 0.003563 0.666093 0.300334
O O15 0.750000 0.587210 0.026327
O O16 0.000000 0.500000 0.010958
O O17 0.500000 0.500000 0.778445
O O18 0.250000 0.414025 0.757865
O O19 0.750000 0.089798 0.764533
O O20 0.500000 0.000000 0.779276
O O21 0.250000 0.412868 0.528822
O O22 0.000000 0.500000 0.509235
#
# Coordination Sequence:
#
# PCOD9380063 Si02
#       8
#     8   8   8   8   8   8   8   8
#     4  11  21  37  61  89 122 153 191 241 293 352
#     4   9  21  41  62  84 116 155 198 244 292 345
#     4  10  21  37  60  89 121 154 191 239 293 351
#     4  10  22  42  64  86 115 156 202 248 294 345
#     4  11  22  38  61  89 121 156 195 240 291 350
#     4  11  23  38  61  89 120 157 197 240 294 352
#     4  11  23  40  61  90 122 156 195 241 295 351
#     4  11  22  39  61  88 119 155 195 239 292 350
#
# _framework density 19.063265999999999
#
# number of rings (size 3 to 8) (size 9 to 14) (size 15 to 20)
#    0.000    1.500    2.500    2.625    0.000    4.000 
#    0.000    3.750    0.000    0.000    0.000    0.000 
#    0.000    0.000    0.000    0.000    0.000    0.000 
#
# Total GULP energy -178908.108534 kJ/mol
# GULP energy per Si atom -5590.878392 kJ/mol
# Density = 1.901988 g / cm^3
# Si number density = 19.063266 Si / 1000 Ang^3
#
#
#
# Elastic Constant Matrix: (Units=GPa)
#
#
# Indices 1 2 3 4 5 6 
#
# 1 35.7263 48.6616 29.3394 0.0000 0.0000 0.0000
# 2 48.6616 201.5219 93.3875 0.0000 0.0000 0.0000
# 3 29.3394 93.3875 155.8251 0.0000 0.0000 0.0000
# 4 0.0000 0.0000 0.0000 -4.7171 0.0000 0.0000
# 5 0.0000 0.0000 0.0000 0.0000 -3.2319 0.0000
# 6 0.0000 0.0000 0.0000 0.0000 0.0000 32.7362
#
#
#
# Elastic Compliance Matrix: (Units=1/GPa)
#
#
# Indices 1 2 3 4 5 6 
#
# 1 0.042433 -0.009060 -0.002560 0.000000 0.000000 0.000000
# 2 -0.009060 0.008805 -0.003571 0.000000 0.000000 0.000000
# 3 -0.002560 -0.003571 0.009039 0.000000 0.000000 0.000000
# 4 0.000000 0.000000 0.000000 -0.211995 0.000000 0.000000
# 5 0.000000 0.000000 0.000000 0.000000 -0.309417 0.000000
# 6 0.000000 0.000000 0.000000 0.000000 0.000000 0.030547
#
#
# Mechanical properties :
#
#
# Convention : Reuss Voigt Hill
#
# Bulk Modulus (GPa) = 33.44930 81.76115 57.60523
# Shear Modulus (GPa) = -12.81261 19.73643 3.46191
#
# Velocity S-wave (km/s) = -2.59532 3.22112 1.34906
# Velocity P-wave (km/s) = 2.93320 7.53768 5.71928
#
# Compressibility (1/GPa) = 0.02989599
#
# Stress axis : x y z
#
# Youngs Moduli (GPa) = 23.56643 113.57418 110.62592
#
# Poissons Ratio (x) = 1.02901 0.28316
# Poissons Ratio (y) = 0.21352 0.39504
# Poissons Ratio (z) = 0.06032 0.40556
#
# Static dielectric constant tensor:
#      x y z
#    x 1.640350 0.000000 0.000000 
#    y 0.000000 1.656220 0.000000 
#    z 0.000000 0.000000 1.631750 
# 
# From -- ./inp_files/23142.got.cif
#   From: 2010.05.17/outbox.cif.g08.bks.cpg/sg46_12_cif.got.tgz:23142.got - 2010.06.03 19:58:25.
