data_PCOD9380844
_publ_section_title
;
Structure prediction by ZEFSAII (Michael W. Deem and Ramdas Pophale) SiO2 
 PCOD9380844
Probable space group: I M A 2
;
_chemical_formula_sum "Si O2"
_cell_formula_units_Z 48
_cell_length_a 15.281436
_cell_length_b 16.141062
_cell_length_c 9.580485
_cell_angle_alpha 90.000000
_cell_angle_beta 90.000000
_cell_angle_gamma 90.000000
_cell_volume 2363.109074
_symmetry_space_group_name_H-M "I M A 2"
_symmetry_group_IT_number 46
_symmetry_cell_setting 'orthorhombic'
loop_
_space_group_symop_operation_xyz
x,y,z
-x,-y,z
1/2-x,y,z
1/2+x,-y,z
1/2+x,1/2+y,1/2+z
1/2-x,1/2-y,1/2+z
-x,1/2+y,1/2+z
x,1/2-y,1/2+z
loop_
_atom_site_type_symbol
_atom_site_label
_atom_site_fract_x
_atom_site_fract_y
_atom_site_fract_z
Si Si1 0.454689 0.236290 0.215240
Si Si2 0.074532 0.811027 0.471442
Si Si3 0.598143 0.038318 0.641087
Si Si4 0.151793 0.856572 0.914509
Si Si5 0.974096 0.584313 0.552681
Si Si6 0.347583 0.106266 0.802515
O O1 0.504588 0.199505 0.348325
O O2 0.422890 0.155762 0.132870
O O3 0.384864 0.304202 0.261526
O O4 0.522719 0.282751 0.111834
O O5 0.106157 0.903764 0.504903
O O6 0.146878 0.743444 0.426203
O O7 0.628004 0.100486 0.766812
O O8 0.500000 0.000000 0.646985
O O9 0.652400 0.955201 0.670089
O O10 0.250000 0.883581 0.953430
O O11 0.069317 0.881377 0.009316
O O12 0.916021 0.568340 0.414758
O O13 0.000000 0.500000 0.629042
O O14 0.250000 0.111025 0.859970
#
# Coordination Sequence:
#
# PCOD9380844 Si02
#       6
#     8   8   8   8   8   8
#     4  11  22  43  66  92 130 170 221 269 334 388
#     4  11  21  41  65  93 129 170 215 277 332 394
#     4  12  20  39  66  93 131 170 218 270 327 392
#     4  11  21  36  63  94 125 166 215 268 324 387
#     4  11  22  42  64  94 132 170 222 271 326 395
#     4  12  23  40  68  98 131 179 226 268 326 404
#
# _framework density 20.312225000000002
#
# number of rings (size 3 to 8) (size 9 to 14) (size 15 to 20)
#    0.000    0.667   10.000    0.500    0.000    2.667 
#    0.000    0.000    0.000    0.000    0.000    0.000 
#    0.000    0.000    0.000    0.000    0.000    0.000 
#
# Total GULP energy -133668.547054 kJ/mol
# GULP energy per Si atom -5569.522794 kJ/mol
# Density = 2.026599 g / cm^3
# Si number density = 20.312225 Si / 1000 Ang^3
#
#
#
# Elastic Constant Matrix: (Units=GPa)
#
#
# Indices 1 2 3 4 5 6 
#
# 1 95.7401 5.1499 6.9495 0.0000 0.0000 0.0000
# 2 5.1499 103.7039 23.1992 0.0000 0.0000 0.0000
# 3 6.9495 23.1992 51.0638 0.0000 0.0000 0.0000
# 4 0.0000 0.0000 0.0000 43.9982 0.0000 0.0000
# 5 0.0000 0.0000 0.0000 0.0000 3.2583 0.0000
# 6 0.0000 0.0000 0.0000 0.0000 0.0000 1.2161
#
#
#
# Elastic Compliance Matrix: (Units=1/GPa)
#
#
# Indices 1 2 3 4 5 6 
#
# 1 0.010554 -0.000226 -0.001334 0.000000 0.000000 0.000000
# 2 -0.000226 0.010739 -0.004848 0.000000 0.000000 0.000000
# 3 -0.001334 -0.004848 0.021967 0.000000 0.000000 0.000000
# 4 0.000000 0.000000 0.000000 0.022728 0.000000 0.000000
# 5 0.000000 0.000000 0.000000 0.000000 0.306908 0.000000
# 6 0.000000 0.000000 0.000000 0.000000 0.000000 0.822311
#
#
# Mechanical properties :
#
#
# Convention : Reuss Voigt Hill
#
# Bulk Modulus (GPa) = 32.84626 35.67832 34.26229
# Shear Modulus (GPa) = 4.10452 24.04179 14.07315
#
# Velocity S-wave (km/s) = 1.42306 3.44410 2.63504
# Velocity P-wave (km/s) = 4.34809 5.78090 5.11492
#
# Compressibility (1/GPa) = 0.03044487
#
# Stress axis : x y z
#
# Youngs Moduli (GPa) = 94.75171 93.12218 45.52199
#
# Poissons Ratio (x) = 0.02102 0.06072
# Poissons Ratio (y) = 0.02139 0.22069
# Poissons Ratio (z) = 0.12638 0.45146
#
# Static dielectric constant tensor:
#      x y z
#    x 1.718200 0.000000 0.000000 
#    y 0.000000 1.826510 0.000000 
#    z 0.000000 0.000000 1.764560 
# 
# From -- ./inp_files/5711.got.cif
#   From: 2010.05.17/outbox.cif.g08.bks.cpg/sg46_3_cif.got.tgz:5711.got - 2010.06.03 19:58:25.
