data_PCOD9380273
_publ_section_title
;
Structure prediction by ZEFSAII (Michael W. Deem and Ramdas Pophale) SiO2 
 PCOD9380273
Probable space group: I M A 2
;
_chemical_formula_sum "Si O2"
_cell_formula_units_Z 48
_cell_length_a 8.622036
_cell_length_b 23.221005
_cell_length_c 11.891937
_cell_angle_alpha 90.000000
_cell_angle_beta 90.000000
_cell_angle_gamma 90.000000
_cell_volume 2380.912547
_symmetry_space_group_name_H-M "I M A 2"
_symmetry_group_IT_number 46
_symmetry_cell_setting 'orthorhombic'
loop_
_space_group_symop_operation_xyz
x,y,z
-x,-y,z
1/2-x,y,z
1/2+x,-y,z
1/2+x,1/2+y,1/2+z
1/2-x,1/2-y,1/2+z
-x,1/2+y,1/2+z
x,1/2-y,1/2+z
loop_
_atom_site_type_symbol
_atom_site_label
_atom_site_fract_x
_atom_site_fract_y
_atom_site_fract_z
Si Si1 0.928931 0.663754 0.450530
Si Si2 0.935485 0.858006 0.204346
Si Si3 0.933645 0.262835 0.251197
Si Si4 0.564963 0.435213 0.889298
Si Si5 0.574803 0.559682 0.286274
Si Si6 0.061956 0.358609 0.090104
O O1 0.750000 0.685692 0.453989
O O2 0.986178 0.653723 0.576016
O O3 0.925206 0.601849 0.391211
O O4 0.026289 0.702753 0.365455
O O5 0.750000 0.866293 0.206071
O O6 0.982233 0.798198 0.262467
O O7 0.015286 0.911274 0.266964
O O8 0.750000 0.255721 0.239183
O O9 0.998469 0.298760 0.142818
O O10 0.500000 0.500000 0.909691
O O11 0.750000 0.436554 0.900677
O O12 0.495622 0.386893 0.974580
O O13 0.500000 0.500000 0.312453
O O14 0.750000 0.547842 0.250943
O O15 0.504524 0.594875 0.182796
O O16 0.250000 0.354446 0.089630
#
# Coordination Sequence:
#
# PCOD9380273 Si02
#       6
#     8   8   8   8   8   8
#     4   9  21  41  61  85 118 160 208 253 308 379
#     4  11  24  43  66  89 122 169 215 261 318 384
#     4  11  23  39  63  95 129 161 206 266 325 383
#     4  12  26  44  65  94 131 172 219 267 322 387
#     4   9  18  33  56  86 117 151 196 246 300 359
#     4  10  21  40  64  91 125 167 213 261 314 376
#
# _framework density 20.160336999999998
#
# number of rings (size 3 to 8) (size 9 to 14) (size 15 to 20)
#    0.000    1.667    0.000    5.500    2.333    6.667 
#    0.000    1.667    0.000    0.000    0.000    0.000 
#    0.000    0.000    0.000    0.000    0.000    0.000 
#
# Total GULP energy -133966.264849 kJ/mol
# GULP energy per Si atom -5581.927702 kJ/mol
# Density = 2.011445 g / cm^3
# Si number density = 20.160337 Si / 1000 Ang^3
#
#
#
# Elastic Constant Matrix: (Units=GPa)
#
#
# Indices 1 2 3 4 5 6 
#
# 1 56.0174 10.1148 12.0775 0.0000 0.0000 0.0000
# 2 10.1148 56.5414 17.7284 0.0000 0.0000 0.0000
# 3 12.0775 17.7284 84.7012 0.0001 0.0000 0.0000
# 4 0.0000 0.0000 0.0001 2.0885 0.0000 0.0000
# 5 0.0000 0.0000 0.0000 0.0000 28.2169 0.0000
# 6 0.0000 0.0000 0.0000 0.0000 0.0000 30.9598
#
#
#
# Elastic Compliance Matrix: (Units=1/GPa)
#
#
# Indices 1 2 3 4 5 6 
#
# 1 0.018795 -0.002699 -0.002115 0.000000 0.000000 0.000000
# 2 -0.002699 0.019316 -0.003658 0.000000 0.000000 0.000000
# 3 -0.002115 -0.003658 0.012873 -0.000001 0.000000 0.000000
# 4 0.000000 0.000000 -0.000001 0.478823 0.000000 0.000000
# 5 0.000000 0.000000 0.000000 0.000000 0.035440 0.000000
# 6 0.000000 0.000000 0.000000 0.000000 0.000000 0.032300
#
#
# Mechanical properties :
#
#
# Convention : Reuss Voigt Hill
#
# Bulk Modulus (GPa) = 29.37720 30.78903 30.08312
# Shear Modulus (GPa) = 7.98928 22.74232 15.36580
#
# Velocity S-wave (km/s) = 1.99286 3.36232 2.76376
# Velocity P-wave (km/s) = 4.46080 5.51170 5.01386
#
# Compressibility (1/GPa) = 0.03404000
#
# Stress axis : x y z
#
# Youngs Moduli (GPa) = 53.20576 51.77056 77.67934
#
# Poissons Ratio (x) = 0.13973 0.16429
# Poissons Ratio (y) = 0.14361 0.28416
# Poissons Ratio (z) = 0.11253 0.18938
#
# Static dielectric constant tensor:
#      x y z
#    x 1.700170 0.000000 0.000000 
#    y 0.000000 1.729030 0.000000 
#    z 0.000000 0.000000 1.752840 
# 
# From -- ./inp_files/9314.got.cif
#   From: 2010.05.17/outbox.cif.g08.bks.cpg/sg46_5_cif.got.tgz:9314.got - 2010.06.03 19:58:25.
