data_PCOD9380427
_publ_section_title
;
Structure prediction by ZEFSAII (Michael W. Deem and Ramdas Pophale) SiO2 
 PCOD9380427
Probable space group: I M A 2
;
_chemical_formula_sum "Si O2"
_cell_formula_units_Z 52
_cell_length_a 20.791618
_cell_length_b 6.687630
_cell_length_c 18.105422
_cell_angle_alpha 90.000000
_cell_angle_beta 90.000000
_cell_angle_gamma 90.000000
_cell_volume 2517.498245
_symmetry_space_group_name_H-M "I M A 2"
_symmetry_group_IT_number 46
_symmetry_cell_setting 'orthorhombic'
loop_
_space_group_symop_operation_xyz
x,y,z
-x,-y,z
1/2-x,y,z
1/2+x,-y,z
1/2+x,1/2+y,1/2+z
1/2-x,1/2-y,1/2+z
-x,1/2+y,1/2+z
x,1/2-y,1/2+z
loop_
_atom_site_type_symbol
_atom_site_label
_atom_site_fract_x
_atom_site_fract_y
_atom_site_fract_z
Si Si1 0.924136 0.949373 0.481110
Si Si2 0.401150 0.213860 0.642342
Si Si3 0.323023 0.564107 0.670941
Si Si4 0.082617 0.651852 0.253294
Si Si5 0.500000 0.000000 0.211697
Si Si6 0.172314 0.812681 0.000485
Si Si7 0.426212 0.061141 0.908698
O O1 0.905263 0.840621 0.557334
O O2 0.921893 0.799598 0.412247
O O3 0.871366 0.123720 0.475730
O O4 0.000000 0.000000 0.489334
O O5 0.336230 0.325148 0.667271
O O6 0.447953 0.400253 0.658607
O O7 0.419248 0.017707 0.689531
O O8 0.250000 0.596732 0.688963
O O9 0.362187 0.693929 0.729855
O O10 0.334857 0.652643 0.588546
O O11 0.085917 0.536964 0.329656
O O12 0.023574 0.808093 0.256805
O O13 0.250000 0.802445 0.985122
O O14 0.132248 0.986729 0.960231
O O15 0.500000 0.000000 0.932326
#
# Coordination Sequence:
#
# PCOD9380427 Si02
#       7
#     8   8   8   8   4   8   8
#     4  12  24  40  71 103 136 182 238 297 357 431
#     4  11  22  38  67 101 130 173 229 291 350 416
#     4  10  23  43  68  97 134 183 235 286 348 432
#     4  11  24  43  66  98 137 180 228 291 352 423
#     4  10  22  38  66  94 138 168 224 282 350 416
#     4  11  25  46  69 100 141 186 235 295 358 429
#     4  12  26  44  67 102 142 184 236 297 360 428
#
# _framework density 20.655425999999999
#
# number of rings (size 3 to 8) (size 9 to 14) (size 15 to 20)
#    0.000    0.923    4.615    2.308    3.231    6.154 
#    1.385    0.000    0.000    0.000    0.000    0.000 
#    0.000    0.000    0.000    0.000    0.000    0.000 
#
# Total GULP energy -144975.046641 kJ/mol
# GULP energy per Si atom -5575.963332 kJ/mol
# Density = 2.060841 g / cm^3
# Si number density = 20.655426 Si / 1000 Ang^3
#
#
#
# Elastic Constant Matrix: (Units=GPa)
#
#
# Indices 1 2 3 4 5 6 
#
# 1 124.4463 35.0174 31.5013 0.0000 0.0000 0.0000
# 2 35.0174 119.5468 25.4833 0.0000 0.0000 0.0000
# 3 31.5013 25.4833 46.8071 0.0000 0.0000 0.0000
# 4 0.0000 0.0000 0.0000 35.0504 0.0000 0.0000
# 5 0.0000 0.0000 0.0000 0.0000 18.7231 0.0000
# 6 0.0000 0.0000 0.0000 0.0000 0.0000 31.0095
#
#
#
# Elastic Compliance Matrix: (Units=1/GPa)
#
#
# Indices 1 2 3 4 5 6 
#
# 1 0.009978 -0.001687 -0.005796 0.000000 0.000000 0.000000
# 2 -0.001687 0.009748 -0.004172 0.000000 0.000000 0.000000
# 3 -0.005796 -0.004172 0.027537 0.000000 0.000000 0.000000
# 4 0.000000 0.000000 0.000000 0.028530 0.000000 0.000000
# 5 0.000000 0.000000 0.000000 0.000000 0.053410 0.000000
# 6 0.000000 0.000000 0.000000 0.000000 0.000000 0.032248
#
#
# Mechanical properties :
#
#
# Convention : Reuss Voigt Hill
#
# Bulk Modulus (GPa) = 41.75066 52.75605 47.25336
# Shear Modulus (GPa) = 25.94090 30.20983 28.07536
#
# Velocity S-wave (km/s) = 3.54770 3.82849 3.69077
# Velocity P-wave (km/s) = 6.08591 6.71860 6.41007
#
# Compressibility (1/GPa) = 0.02395172
#
# Stress axis : x y z
#
# Youngs Moduli (GPa) = 100.22490 102.58089 36.31518
#
# Poissons Ratio (x) = 0.17305 0.21050
# Poissons Ratio (y) = 0.16908 0.15151
# Poissons Ratio (z) = 0.58095 0.42797
#
# Static dielectric constant tensor:
#      x y z
#    x 1.918830 0.000000 0.000000 
#    y 0.000000 1.815780 0.000000 
#    z 0.000000 0.000000 1.716510 
# 
# From -- ./inp_files/22422.got.cif
#   From: 2010.05.17/outbox.cif.g08.bks.cpg/sg46_12_cif.got.tgz:22422.got - 2010.06.03 19:58:25.
