data_PCOD9380246
_publ_section_title
;
Structure prediction by ZEFSAII (Michael W. Deem and Ramdas Pophale) SiO2 
 PCOD9380246
Probable space group: I M A 2
;
_chemical_formula_sum "Si O2"
_cell_formula_units_Z 64
_cell_length_a 16.086397
_cell_length_b 14.858597
_cell_length_c 12.331184
_cell_angle_alpha 90.000000
_cell_angle_beta 90.000000
_cell_angle_gamma 90.000000
_cell_volume 2947.415509
_symmetry_space_group_name_H-M "I M A 2"
_symmetry_group_IT_number 46
_symmetry_cell_setting 'orthorhombic'
loop_
_space_group_symop_operation_xyz
x,y,z
-x,-y,z
1/2-x,y,z
1/2+x,-y,z
1/2+x,1/2+y,1/2+z
1/2-x,1/2-y,1/2+z
-x,1/2+y,1/2+z
x,1/2-y,1/2+z
loop_
_atom_site_type_symbol
_atom_site_label
_atom_site_fract_x
_atom_site_fract_y
_atom_site_fract_z
Si Si1 0.650125 0.587510 0.365120
Si Si2 0.346190 0.127677 0.114778
Si Si3 0.347379 0.061372 0.506255
Si Si4 0.656652 0.112639 0.842440
Si Si5 0.346966 0.694738 0.879187
Si Si6 0.604404 0.116137 0.606656
Si Si7 0.424500 0.193019 0.661773
Si Si8 0.401964 0.511941 0.777202
O O1 0.750000 0.585178 0.341143
O O2 0.639464 0.624275 0.486123
O O3 0.618038 0.484279 0.365749
O O4 0.606571 0.644397 0.271093
O O5 0.250000 0.153202 0.134738
O O6 0.406917 0.201139 0.167711
O O7 0.361732 0.031007 0.170459
O O8 0.250000 0.042448 0.522663
O O9 0.370425 0.155750 0.559839
O O10 0.401297 0.988190 0.572283
O O11 0.367955 0.045186 0.380549
O O12 0.750000 0.110614 0.890299
O O13 0.613849 0.205835 0.875803
O O14 0.659577 0.119653 0.712978
O O15 0.250000 0.703224 0.849899
O O16 0.382974 0.616295 0.803122
O O17 0.355857 0.661123 0.001613
O O18 0.518000 0.163630 0.635391
O O19 0.500000 0.500000 0.772070
#
# Coordination Sequence:
#
# PCOD9380246 Si02
#       8
#     8   8   8   8   8   8   8   8
#     4  10  23  45  67  95 129 167 223 271 322 396
#     4  11  26  46  68  94 133 183 223 266 329 400
#     4  11  21  40  69  95 126 172 224 278 331 394
#     4  10  21  39  67  94 126 169 216 270 329 397
#     4  10  22  41  68  98 129 175 225 270 331 404
#     4  11  22  38  61  95 132 166 213 280 335 382
#     4  12  25  40  65  99 132 173 222 276 329 388
#     4  11  24  43  66  96 135 169 217 275 337 389
#
# _framework density 21.713939
#
# number of rings (size 3 to 8) (size 9 to 14) (size 15 to 20)
#    0.000    1.250    1.250    6.000    3.500    2.000 
#    2.250    2.500    0.000    0.000    0.000    0.000 
#    0.000    0.000    0.000    0.000    0.000    0.000 
#
# Total GULP energy -178834.979520 kJ/mol
# GULP energy per Si atom -5588.593110 kJ/mol
# Density = 2.166452 g / cm^3
# Si number density = 21.713939 Si / 1000 Ang^3
#
#
#
# Elastic Constant Matrix: (Units=GPa)
#
#
# Indices 1 2 3 4 5 6 
#
# 1 97.1823 9.8003 3.1238 0.0000 0.0000 0.0000
# 2 9.8003 104.2300 11.9520 0.0000 0.0000 0.0000
# 3 3.1238 11.9520 46.6101 0.0000 0.0000 0.0000
# 4 0.0000 0.0000 0.0000 14.9318 0.0000 0.0000
# 5 0.0000 0.0000 0.0000 0.0000 8.0820 0.0000
# 6 0.0000 0.0000 0.0000 0.0000 0.0000 6.0045
#
#
#
# Elastic Compliance Matrix: (Units=1/GPa)
#
#
# Indices 1 2 3 4 5 6 
#
# 1 0.010398 -0.000925 -0.000460 0.000000 0.000000 0.000000
# 2 -0.000925 0.009967 -0.002494 0.000000 0.000000 0.000000
# 3 -0.000460 -0.002494 0.022125 0.000000 0.000000 0.000000
# 4 0.000000 0.000000 0.000000 0.066971 0.000000 0.000000
# 5 0.000000 0.000000 0.000000 0.000000 0.123732 0.000000
# 6 0.000000 0.000000 0.000000 0.000000 0.000000 0.166543
#
#
# Mechanical properties :
#
#
# Convention : Reuss Voigt Hill
#
# Bulk Modulus (GPa) = 28.79107 33.08607 30.93857
# Shear Modulus (GPa) = 11.93118 20.68007 16.30562
#
# Velocity S-wave (km/s) = 2.34662 3.08942 2.74328
# Velocity P-wave (km/s) = 4.54205 5.29116 4.93085
#
# Compressibility (1/GPa) = 0.03473299
#
# Stress axis : x y z
#
# Youngs Moduli (GPa) = 96.17238 100.33007 45.19803
#
# Poissons Ratio (x) = 0.09280 0.02078
# Poissons Ratio (y) = 0.08896 0.11272
# Poissons Ratio (z) = 0.04421 0.25020
#
# Static dielectric constant tensor:
#      x y z
#    x 1.809560 0.000000 0.000000 
#    y 0.000000 1.832190 0.000000 
#    z 0.000000 0.000000 1.755640 
# 
# From -- ./inp_files/11982.got.cif
#   From: 2010.05.17/outbox.cif.g08.bks.cpg/sg46_6_cif.got.tgz:11982.got - 2010.06.03 19:58:25.
