data_PCOD9380705
_publ_section_title
;
Structure prediction by ZEFSAII (Michael W. Deem and Ramdas Pophale) SiO2 
 PCOD9380705
Probable space group: I M A 2
;
_chemical_formula_sum "Si O2"
_cell_formula_units_Z 48
_cell_length_a 15.151145
_cell_length_b 14.938173
_cell_length_c 9.912516
_cell_angle_alpha 90.000000
_cell_angle_beta 90.000000
_cell_angle_gamma 90.000000
_cell_volume 2243.503961
_symmetry_space_group_name_H-M "I M A 2"
_symmetry_group_IT_number 46
_symmetry_cell_setting 'orthorhombic'
loop_
_space_group_symop_operation_xyz
x,y,z
-x,-y,z
1/2-x,y,z
1/2+x,-y,z
1/2+x,1/2+y,1/2+z
1/2-x,1/2-y,1/2+z
-x,1/2+y,1/2+z
x,1/2-y,1/2+z
loop_
_atom_site_type_symbol
_atom_site_label
_atom_site_fract_x
_atom_site_fract_y
_atom_site_fract_z
Si Si1 0.250000 0.582394 0.238860
Si Si2 0.891271 0.219456 0.856131
Si Si3 0.848730 0.740305 0.981856
Si Si4 0.750000 0.371051 0.929623
Si Si5 0.051787 0.578369 0.554501
Si Si6 0.549873 0.688509 0.734301
Si Si7 0.250000 0.096651 0.918590
Si Si8 0.250000 0.970260 0.150724
O O1 0.331619 0.642379 0.290441
O O2 0.250000 0.487649 0.318687
O O3 0.250000 0.583413 0.076476
O O4 0.832146 0.301902 0.909979
O O5 0.960047 0.256928 0.750887
O O6 0.946411 0.169817 0.970963
O O7 0.750000 0.702906 0.997979
O O8 0.905000 0.681793 0.879587
O O9 0.832864 0.836694 0.907128
O O10 0.888646 0.762544 0.126268
O O11 0.750000 0.443166 0.807534
O O12 0.154839 0.565873 0.594788
O O13 0.000000 0.500000 0.475093
O O14 0.983283 0.594556 0.676306
O O15 0.250000 0.066408 0.077046
#
# Coordination Sequence:
#
# PCOD9380705 Si02
#       8
#     4   8   8   4   8   8   4   4
#     4  11  23  39  68 100 140 186 222 283 363 415
#     4  11  23  38  68 103 141 177 229 288 351 424
#     4  10  25  44  69  98 133 185 239 285 345 413
#     4  11  24  40  64 104 145 182 225 293 365 414
#     4  12  25  43  71 106 140 183 237 291 352 428
#     4  12  22  42  70 100 135 178 238 293 341 420
#     4  10  23  45  69  94 133 193 237 269 343 439
#     4  12  22  44  67 102 144 185 230 291 359 416
#
# _framework density 21.395104
#
# number of rings (size 3 to 8) (size 9 to 14) (size 15 to 20)
#    0.500    0.333    5.000    3.000    2.333    0.000 
#    1.500    3.333    0.000    2.000    0.000    0.000 
#    0.000    0.000    0.000    0.000    0.000    0.000 
#
# Total GULP energy -133830.404473 kJ/mol
# GULP energy per Si atom -5576.266853 kJ/mol
# Density = 2.134641 g / cm^3
# Si number density = 21.395104 Si / 1000 Ang^3
#
#
#
# Elastic Constant Matrix: (Units=GPa)
#
#
# Indices 1 2 3 4 5 6 
#
# 1 70.1034 10.1235 17.3391 0.0000 0.0000 0.0000
# 2 10.1235 47.9866 27.0821 0.0000 0.0000 0.0000
# 3 17.3391 27.0821 105.9493 0.0000 0.0000 0.0000
# 4 0.0000 0.0000 0.0000 23.4175 0.0000 0.0000
# 5 0.0000 0.0000 0.0000 0.0000 30.7432 0.0000
# 6 0.0000 0.0000 0.0000 0.0000 0.0000 25.7186
#
#
#
# Elastic Compliance Matrix: (Units=1/GPa)
#
#
# Indices 1 2 3 4 5 6 
#
# 1 0.015043 -0.002085 -0.001929 0.000000 0.000000 0.000000
# 2 -0.002085 0.024641 -0.005957 0.000000 0.000000 0.000000
# 3 -0.001929 -0.005957 0.011277 0.000000 0.000000 0.000000
# 4 0.000000 0.000000 0.000000 0.042703 0.000000 0.000000
# 5 0.000000 0.000000 0.000000 0.000000 0.032528 0.000000
# 6 0.000000 0.000000 0.000000 0.000000 0.000000 0.038882
#
#
# Mechanical properties :
#
#
# Convention : Reuss Voigt Hill
#
# Bulk Modulus (GPa) = 32.23883 37.01430 34.62657
# Shear Modulus (GPa) = 25.59431 27.27549 26.43490
#
# Velocity S-wave (km/s) = 3.46247 3.57437 3.51886
# Velocity P-wave (km/s) = 5.57548 5.86283 5.72096
#
# Compressibility (1/GPa) = 0.03101849
#
# Stress axis : x y z
#
# Youngs Moduli (GPa) = 66.47701 40.58252 88.67642
#
# Poissons Ratio (x) = 0.08461 0.17105
# Poissons Ratio (y) = 0.13860 0.52828
# Poissons Ratio (z) = 0.12823 0.24177
#
# Static dielectric constant tensor:
#      x y z
#    x 1.836540 0.000000 0.000000 
#    y 0.000000 1.798700 0.000000 
#    z 0.000000 0.000000 1.788140 
# 
# From -- ./inp_files/5758.got.cif
#   From: 2010.05.17/outbox.cif.g08.bks.cpg/sg46_3_cif.got.tgz:5758.got - 2010.06.03 19:58:25.
