data_PCOD9380581
_publ_section_title
;
Structure prediction by ZEFSAII (Michael W. Deem and Ramdas Pophale) SiO2 
 PCOD9380581
Probable space group: I M A 2
;
_chemical_formula_sum "Si O2"
_cell_formula_units_Z 48
_cell_length_a 25.725929
_cell_length_b 10.048329
_cell_length_c 8.891471
_cell_angle_alpha 90.000000
_cell_angle_beta 90.000000
_cell_angle_gamma 90.000000
_cell_volume 2298.468357
_symmetry_space_group_name_H-M "I M A 2"
_symmetry_group_IT_number 46
_symmetry_cell_setting 'orthorhombic'
loop_
_space_group_symop_operation_xyz
x,y,z
-x,-y,z
1/2-x,y,z
1/2+x,-y,z
1/2+x,1/2+y,1/2+z
1/2-x,1/2-y,1/2+z
-x,1/2+y,1/2+z
x,1/2-y,1/2+z
loop_
_atom_site_type_symbol
_atom_site_label
_atom_site_fract_x
_atom_site_fract_y
_atom_site_fract_z
Si Si1 0.638240 0.953191 0.723960
Si Si2 0.750000 0.193346 0.453547
Si Si3 0.250000 0.947943 0.777945
Si Si4 0.488035 0.242999 0.049935
Si Si5 0.936214 0.326148 0.305365
Si Si6 0.586642 0.669198 0.792134
Si Si7 0.361007 0.579248 0.887908
O O1 0.698180 0.964966 0.769980
O O2 0.603152 0.053534 0.818390
O O3 0.634159 0.019363 0.557321
O O4 0.615386 0.807346 0.752930
O O5 0.750000 0.146775 0.627898
O O6 0.750000 0.350359 0.420946
O O7 0.802940 0.136941 0.380308
O O8 0.530827 0.322036 0.149784
O O9 0.457035 0.153513 0.166346
O O10 0.520286 0.162028 0.930354
O O11 0.445708 0.323139 0.949421
O O12 0.902538 0.192305 0.338867
O O13 0.626776 0.549319 0.788893
#
# Coordination Sequence:
#
# PCOD9380581 Si02
#       7
#     8   4   4   8   8   8   8
#     4  11  23  43  66  97 130 165 209 269 320 370
#     4  10  22  43  70  96 124 160 210 265 320 374
#     4  10  22  43  70  96 124 160 210 265 320 374
#     4  10  24  40  62  98 124 178 214 260 306 382
#     4  11  22  39  70  92 128 169 220 259 316 366
#     4  11  24  43  64  90 138 169 212 255 322 374
#     4  11  23  43  66  97 130 165 209 269 320 370
#
# _framework density 20.883472999999999
#
# number of rings (size 3 to 8) (size 9 to 14) (size 15 to 20)
#    0.000    1.333    5.000    0.000    0.000   10.000 
#    3.000    0.000    0.000    0.000    0.000    0.000 
#    0.000    0.000    0.000    0.000    0.000    0.000 
#
# Total GULP energy -133992.764369 kJ/mol
# GULP energy per Si atom -5583.031849 kJ/mol
# Density = 2.083594 g / cm^3
# Si number density = 20.883473 Si / 1000 Ang^3
#
#
#
# Elastic Constant Matrix: (Units=GPa)
#
#
# Indices 1 2 3 4 5 6 
#
# 1 137.2957 44.7930 29.0612 0.0000 0.0000 0.0000
# 2 44.7930 118.4322 4.8944 0.0000 0.0000 0.0000
# 3 29.0612 4.8944 44.1757 0.0000 0.0000 0.0000
# 4 0.0000 0.0000 0.0000 12.5855 0.0000 0.0000
# 5 0.0000 0.0000 0.0000 0.0000 24.2334 0.0000
# 6 0.0000 0.0000 0.0000 0.0000 0.0000 -6.8803
#
#
#
# Elastic Compliance Matrix: (Units=1/GPa)
#
#
# Indices 1 2 3 4 5 6 
#
# 1 0.009660 -0.003407 -0.005978 0.000000 0.000000 0.000000
# 2 -0.003407 0.009684 0.001168 0.000000 0.000000 0.000000
# 3 -0.005978 0.001168 0.026440 0.000000 0.000000 0.000000
# 4 0.000000 0.000000 0.000000 0.079457 0.000000 0.000000
# 5 0.000000 0.000000 0.000000 0.000000 0.041265 0.000000
# 6 0.000000 0.000000 0.000000 0.000000 0.000000 -0.145343
#
#
# Mechanical properties :
#
#
# Convention : Reuss Voigt Hill
#
# Bulk Modulus (GPa) = 34.06947 50.82229 42.44588
# Shear Modulus (GPa) = 105.53302 20.73140 63.13221
#
# Velocity S-wave (km/s) = 7.11646 3.15416 5.50421
# Velocity P-wave (km/s) = 9.15832 6.13628 7.79515
#
# Compressibility (1/GPa) = 0.02935179
#
# Stress axis : x y z
#
# Youngs Moduli (GPa) = 103.51709 103.26510 37.82168
#
# Poissons Ratio (x) = 0.35179 0.22608
# Poissons Ratio (y) = 0.35264 -0.04418
# Poissons Ratio (z) = 0.61878 -0.12063
#
# Static dielectric constant tensor:
#      x y z
#    x 1.753070 0.000000 0.000000 
#    y 0.000000 1.727480 0.000000 
#    z 0.000000 0.000000 1.854240 
# 
# From -- ./inp_files/8426.got.cif
#   From: 2010.05.17/outbox.cif.g08.bks.cpg/sg46_5_cif.got.tgz:8426.got - 2010.06.03 19:58:25.
