data_PCOD9380503
_publ_section_title
;
Structure prediction by ZEFSAII (Michael W. Deem and Ramdas Pophale) SiO2 
 PCOD9380503
Probable space group: I M A 2
;
_chemical_formula_sum "Si O2"
_cell_formula_units_Z 56
_cell_length_a 16.756823
_cell_length_b 14.632862
_cell_length_c 10.502088
_cell_angle_alpha 90.000000
_cell_angle_beta 90.000000
_cell_angle_gamma 90.000000
_cell_volume 2575.114903
_symmetry_space_group_name_H-M "I M A 2"
_symmetry_group_IT_number 46
_symmetry_cell_setting 'orthorhombic'
loop_
_space_group_symop_operation_xyz
x,y,z
-x,-y,z
1/2-x,y,z
1/2+x,-y,z
1/2+x,1/2+y,1/2+z
1/2-x,1/2-y,1/2+z
-x,1/2+y,1/2+z
x,1/2-y,1/2+z
loop_
_atom_site_type_symbol
_atom_site_label
_atom_site_fract_x
_atom_site_fract_y
_atom_site_fract_z
Si Si1 0.842460 0.876308 0.378040
Si Si2 0.562063 0.237861 0.666693
Si Si3 0.162218 0.509871 0.314479
Si Si4 0.661836 0.678193 0.459566
Si Si5 0.042122 0.406916 0.660096
Si Si6 0.055390 0.429786 0.106569
Si Si7 0.843612 0.303983 0.421427
O O1 0.750000 0.896390 0.358715
O O2 0.855500 0.766671 0.374257
O O3 0.896459 0.925533 0.274139
O O4 0.871498 0.899666 0.519461
O O5 0.522784 0.333886 0.705130
O O6 0.494992 0.158484 0.651180
O O7 0.606143 0.254873 0.531662
O O8 0.623156 0.215224 0.779965
O O9 0.250000 0.533946 0.258081
O O10 0.168542 0.410244 0.373236
O O11 0.091256 0.495788 0.215502
O O12 0.147194 0.585347 0.423294
O O13 0.750000 0.694253 0.520973
O O14 0.592688 0.650345 0.556225
O O15 0.000000 0.500000 0.615413
O O16 0.000000 0.500000 0.028545
O O17 0.750000 0.281585 0.433364
#
# Coordination Sequence:
#
# PCOD9380503 Si02
#       7
#     8   8   8   8   8   8   8
#     4  11  24  43  66  98 142 183 221 282 358 426
#     4  12  25  44  71 104 139 181 233 291 352 409
#     4  10  22  41  68  97 129 178 235 284 338 408
#     4  10  22  40  66  97 132 174 223 281 344 412
#     4  12  25  43  67  98 138 176 227 277 349 411
#     4  12  23  41  67 101 135 169 234 285 345 399
#     4  11  25  47  70 100 138 187 238 286 347 415
#
# _framework density 21.746601999999999
#
# number of rings (size 3 to 8) (size 9 to 14) (size 15 to 20)
#    0.000    0.857    2.857    4.286    2.000    0.571 
#    0.000    3.571    0.000    0.000    0.000    0.000 
#    0.000    0.000    0.000    0.000    0.000    0.000 
#
# Total GULP energy -156361.681720 kJ/mol
# GULP energy per Si atom -5584.345776 kJ/mol
# Density = 2.169711 g / cm^3
# Si number density = 21.746602 Si / 1000 Ang^3
#
#
#
# Elastic Constant Matrix: (Units=GPa)
#
#
# Indices 1 2 3 4 5 6 
#
# 1 109.3798 25.9430 37.7581 0.0000 0.0000 0.0000
# 2 25.9430 62.4659 -8.8413 0.0000 0.0000 0.0000
# 3 37.7581 -8.8413 60.4031 0.0000 0.0000 0.0000
# 4 0.0000 0.0000 0.0000 29.4914 0.0000 0.0000
# 5 0.0000 0.0000 0.0000 0.0000 8.2113 0.0000
# 6 0.0000 0.0000 0.0000 0.0000 0.0000 87.6006
#
#
#
# Elastic Compliance Matrix: (Units=1/GPa)
#
#
# Indices 1 2 3 4 5 6 
#
# 1 0.014370 -0.007393 -0.010065 0.000000 0.000000 0.000000
# 2 -0.007393 0.020151 0.007571 0.000000 0.000000 0.000000
# 3 -0.010065 0.007571 0.023955 0.000000 0.000000 0.000000
# 4 0.000000 0.000000 0.000000 0.033908 0.000000 0.000000
# 5 0.000000 0.000000 0.000000 0.000000 0.121783 0.000000
# 6 0.000000 0.000000 0.000000 0.000000 0.000000 0.011415
#
#
# Mechanical properties :
#
#
# Convention : Reuss Voigt Hill
#
# Bulk Modulus (GPa) = 25.83842 37.99649 31.91746
# Shear Modulus (GPa) = 19.36050 36.88660 28.12355
#
# Velocity S-wave (km/s) = 2.98699 4.12296 3.60006
# Velocity P-wave (km/s) = 4.87888 6.33841 5.65592
#
# Compressibility (1/GPa) = 0.03870206
#
# Stress axis : x y z
#
# Youngs Moduli (GPa) = 69.58758 49.62625 41.74443
#
# Poissons Ratio (x) = 0.36688 0.42016
# Poissons Ratio (y) = 0.51445 -0.31604
# Poissons Ratio (z) = 0.70040 -0.37571
#
# Static dielectric constant tensor:
#      x y z
#    x 1.916000 0.000000 0.000000 
#    y 0.000000 1.805940 0.000000 
#    z 0.000000 0.000000 1.803990 
# 
# From -- ./inp_files/11141.got.cif
#   From: 2010.05.17/outbox.cif.g08.bks.cpg/sg46_6_cif.got.tgz:11141.got - 2010.06.03 19:58:25.
