data_PCOD9380703
_publ_section_title
;
Structure prediction by ZEFSAII (Michael W. Deem and Ramdas Pophale) SiO2 
 PCOD9380703
Probable space group: I M A 2
;
_chemical_formula_sum "Si O2"
_cell_formula_units_Z 48
_cell_length_a 26.021742
_cell_length_b 4.770404
_cell_length_c 16.834152
_cell_angle_alpha 90.000000
_cell_angle_beta 90.000000
_cell_angle_gamma 90.000000
_cell_volume 2089.694364
_symmetry_space_group_name_H-M "I M A 2"
_symmetry_group_IT_number 46
_symmetry_cell_setting 'orthorhombic'
loop_
_space_group_symop_operation_xyz
x,y,z
-x,-y,z
1/2-x,y,z
1/2+x,-y,z
1/2+x,1/2+y,1/2+z
1/2-x,1/2-y,1/2+z
-x,1/2+y,1/2+z
x,1/2-y,1/2+z
loop_
_atom_site_type_symbol
_atom_site_label
_atom_site_fract_x
_atom_site_fract_y
_atom_site_fract_z
Si Si1 0.189759 0.520786 0.235870
Si Si2 0.941838 0.934245 0.629915
Si Si3 0.536846 0.237740 0.795632
Si Si4 0.363076 0.332065 0.002275
Si Si5 0.135959 0.692432 0.393719
Si Si6 0.355975 0.028874 0.152432
O O1 0.250000 0.536614 0.222977
O O2 0.173989 0.613102 0.323176
O O3 0.168472 0.210111 0.222679
O O4 0.160809 0.716870 0.171247
O O5 0.907818 0.995596 0.551707
O O6 0.916215 0.624568 0.646898
O O7 0.059176 0.910778 0.715711
O O8 0.000000 0.000000 0.605866
O O9 0.500000 0.500000 0.777887
O O10 0.584431 0.311216 0.851703
O O11 0.500000 0.000000 0.832791
O O12 0.333588 0.161659 0.071369
O O13 0.338789 0.575026 0.950092
O O14 0.379553 0.084352 0.942937
#
# Coordination Sequence:
#
# PCOD9380703 Si02
#       6
#     8   8   8   8   8   8
#     4  12  25  45  72  96 126 179 236 291 344 402
#     4   9  22  40  68  99 134 179 222 265 324 407
#     4  11  24  38  64  98 132 181 227 270 323 398
#     4  10  24  39  67  94 138 177 208 274 347 398
#     4  12  23  43  64  95 141 171 220 283 340 403
#     4  10  23  45  68  98 132 175 228 279 335 400
#
# _framework density 22.969866
#
# number of rings (size 3 to 8) (size 9 to 14) (size 15 to 20)
#    1.000    0.333    1.667    3.500    4.667    4.667 
#    0.000    5.000    0.000    0.000    0.000    0.000 
#    0.000    0.000    0.000    0.000    0.000    0.000 
#
# Total GULP energy -133824.982652 kJ/mol
# GULP energy per Si atom -5576.040944 kJ/mol
# Density = 2.291759 g / cm^3
# Si number density = 22.969866 Si / 1000 Ang^3
#
#
#
# Elastic Constant Matrix: (Units=GPa)
#
#
# Indices 1 2 3 4 5 6 
#
# 1 86.5130 5.9716 -3.1775 0.0000 0.0000 0.0000
# 2 5.9716 83.6625 14.9951 0.0000 0.0000 0.0000
# 3 -3.1775 14.9951 85.4431 0.0000 0.0000 0.0000
# 4 0.0000 0.0000 0.0000 36.2433 0.0000 0.0000
# 5 0.0000 0.0000 0.0000 0.0000 7.5473 0.0000
# 6 0.0000 0.0000 0.0000 0.0000 0.0000 3.3421
#
#
#
# Elastic Compliance Matrix: (Units=1/GPa)
#
#
# Indices 1 2 3 4 5 6 
#
# 1 0.011646 -0.000938 0.000598 0.000000 0.000000 0.000000
# 2 -0.000938 0.012417 -0.002214 0.000000 0.000000 0.000000
# 3 0.000598 -0.002214 0.012114 0.000000 0.000000 0.000000
# 4 0.000000 0.000000 0.000000 0.027591 0.000000 0.000000
# 5 0.000000 0.000000 0.000000 0.000000 0.132497 0.000000
# 6 0.000000 0.000000 0.000000 0.000000 0.000000 0.299211
#
#
# Mechanical properties :
#
#
# Convention : Reuss Voigt Hill
#
# Bulk Modulus (GPa) = 32.18790 32.35521 32.27155
# Shear Modulus (GPa) = 9.78587 25.28185 17.53386
#
# Velocity S-wave (km/s) = 2.06629 3.32121 2.76586
# Velocity P-wave (km/s) = 4.44255 5.36878 4.92747
#
# Compressibility (1/GPa) = 0.03106758
#
# Stress axis : x y z
#
# Youngs Moduli (GPa) = 85.86871 80.53748 82.54588
#
# Poissons Ratio (x) = 0.07557 -0.04934
# Poissons Ratio (y) = 0.08058 0.18275
# Poissons Ratio (z) = -0.05133 0.17831
#
# Static dielectric constant tensor:
#      x y z
#    x 1.905860 0.000000 0.000000 
#    y 0.000000 1.954470 0.000000 
#    z 0.000000 0.000000 1.892280 
# 
# From -- ./inp_files/22511.got.cif
#   From: 2010.05.17/outbox.cif.g08.bks.cpg/sg46_12_cif.got.tgz:22511.got - 2010.06.03 19:58:25.
