data_PCOD9380383
_publ_section_title
;
Structure prediction by ZEFSAII (Michael W. Deem and Ramdas Pophale) SiO2 
 PCOD9380383
Probable space group: I M A 2
;
_chemical_formula_sum "Si O2"
_cell_formula_units_Z 60
_cell_length_a 9.593164
_cell_length_b 15.396231
_cell_length_c 21.099564
_cell_angle_alpha 90.000000
_cell_angle_beta 90.000000
_cell_angle_gamma 90.000000
_cell_volume 3116.375409
_symmetry_space_group_name_H-M "I M A 2"
_symmetry_group_IT_number 46
_symmetry_cell_setting 'orthorhombic'
loop_
_space_group_symop_operation_xyz
x,y,z
-x,-y,z
1/2-x,y,z
1/2+x,-y,z
1/2+x,1/2+y,1/2+z
1/2-x,1/2-y,1/2+z
-x,1/2+y,1/2+z
x,1/2-y,1/2+z
loop_
_atom_site_type_symbol
_atom_site_label
_atom_site_fract_x
_atom_site_fract_y
_atom_site_fract_z
Si Si1 0.913548 0.720567 0.484450
Si Si2 0.910069 0.416878 0.555199
Si Si3 0.588033 0.751670 0.731778
Si Si4 0.750000 0.031181 0.840354
Si Si5 0.090189 0.582279 0.708189
Si Si6 0.588684 0.917842 0.651910
Si Si7 0.035852 0.130094 0.850618
Si Si8 0.588309 0.582922 0.998998
O O1 0.750000 0.719438 0.504561
O O2 0.930596 0.667931 0.419757
O O3 0.954909 0.821325 0.476348
O O4 0.010697 0.669866 0.533963
O O5 0.750000 0.421034 0.531316
O O6 0.906323 0.420527 0.631268
O O7 0.000000 0.500000 0.532086
O O8 0.750000 0.728283 0.718676
O O9 0.489243 0.669433 0.726898
O O10 0.544761 0.826947 0.682030
O O11 0.575648 0.797360 0.799374
O O12 0.625247 0.104261 0.844770
O O13 0.869087 0.953628 0.838777
O O14 0.250000 0.579254 0.730351
O O15 0.000000 0.500000 0.730001
O O16 0.750000 0.932262 0.669881
O O17 0.578946 0.913623 0.575918
O O18 0.500000 0.000000 0.674907
O O19 0.500000 0.500000 0.977449
O O20 0.750000 0.569901 0.982303
#
# Coordination Sequence:
#
# PCOD9380383 Si02
#       8
#     8   8   8   4   8   8   8   8
#     4  11  22  37  59  85 118 155 198 241 291 349
#     4  10  22  36  57  87 119 153 194 238 293 351
#     4  11  22  37  59  86 119 153 194 240 290 347
#     4  10  24  42  60  80 126 158 196 234 286 338
#     4  10  22  41  61  85 115 153 196 245 295 345
#     4   9  19  32  53  82 113 149 187 229 286 341
#     4  11  24  40  60  88 119 158 195 237 286 347
#     4   9  19  37  56  79 110 148 189 237 286 336
#
# _framework density 19.253136999999999
#
# number of rings (size 3 to 8) (size 9 to 14) (size 15 to 20)
#    0.000    1.867    1.333    1.600    5.600    3.733 
#    0.000    3.333    0.000    1.600    0.000    0.000 
#    0.000    0.000    0.000    0.000    0.000    0.000 
#
# Total GULP energy -167036.917861 kJ/mol
# GULP energy per Si atom -5567.897262 kJ/mol
# Density = 1.920932 g / cm^3
# Si number density = 19.253137 Si / 1000 Ang^3
#
#
#
# Elastic Constant Matrix: (Units=GPa)
#
#
# Indices 1 2 3 4 5 6 
#
# 1 144.7516 76.5064 5.1868 0.0000 0.0000 0.0000
# 2 76.5064 135.4424 3.6962 0.0000 0.0000 0.0000
# 3 5.1868 3.6962 6.9509 0.0000 0.0000 0.0000
# 4 0.0000 0.0000 0.0000 -5.9908 0.0000 0.0000
# 5 0.0000 0.0000 0.0000 0.0000 0.4839 0.0000
# 6 0.0000 0.0000 0.0000 0.0000 0.0000 42.0835
#
#
#
# Elastic Compliance Matrix: (Units=1/GPa)
#
#
# Indices 1 2 3 4 5 6 
#
# 1 0.009987 -0.005518 -0.004518 0.000000 0.000000 0.000000
# 2 -0.005518 0.010541 -0.001488 0.000000 0.000000 0.000000
# 3 -0.004518 -0.001488 0.148029 0.000000 0.000000 0.000000
# 4 0.000000 0.000000 0.000000 -0.166922 0.000000 0.000000
# 5 0.000000 0.000000 0.000000 0.000000 2.066591 0.000000
# 6 0.000000 0.000000 0.000000 0.000000 0.000000 0.023762
#
#
# Mechanical properties :
#
#
# Convention : Reuss Voigt Hill
#
# Bulk Modulus (GPa) = 6.87239 50.88040 28.87640
# Shear Modulus (GPa) = 2.31103 20.76569 11.53836
#
# Velocity S-wave (km/s) = 1.09679 3.28771 2.45071
# Velocity P-wave (km/s) = 2.27622 6.39504 4.79988
#
# Compressibility (1/GPa) = 0.14550970
#
# Stress axis : x y z
#
# Youngs Moduli (GPa) = 100.13415 94.87134 6.75542
#
# Poissons Ratio (x) = 0.52348 0.03052
# Poissons Ratio (y) = 0.55252 0.01005
# Poissons Ratio (z) = 0.45239 0.14114
#
# Static dielectric constant tensor:
#      x y z
#    x 1.672050 0.000000 0.000000 
#    y 0.000000 1.642590 0.000000 
#    z 0.000000 0.000000 1.719460 
# 
# From -- ./inp_files/23091.got.cif
#   From: 2010.05.17/outbox.cif.g08.bks.cpg/sg46_12_cif.got.tgz:23091.got - 2010.06.03 19:58:25.
