data_PCOD9380591
_publ_section_title
;
Structure prediction by ZEFSAII (Michael W. Deem and Ramdas Pophale) SiO2 
 PCOD9380591
Probable space group: I M A 2
;
_chemical_formula_sum "Si O2"
_cell_formula_units_Z 48
_cell_length_a 7.918350
_cell_length_b 17.453580
_cell_length_c 15.069022
_cell_angle_alpha 90.000000
_cell_angle_beta 90.000000
_cell_angle_gamma 90.000000
_cell_volume 2082.592414
_symmetry_space_group_name_H-M "I M A 2"
_symmetry_group_IT_number 46
_symmetry_cell_setting 'orthorhombic'
loop_
_space_group_symop_operation_xyz
x,y,z
-x,-y,z
1/2-x,y,z
1/2+x,-y,z
1/2+x,1/2+y,1/2+z
1/2-x,1/2-y,1/2+z
-x,1/2+y,1/2+z
x,1/2-y,1/2+z
loop_
_atom_site_type_symbol
_atom_site_label
_atom_site_fract_x
_atom_site_fract_y
_atom_site_fract_z
Si Si1 0.434550 0.630782 0.246260
Si Si2 0.500000 0.500000 0.481371
Si Si3 0.444696 0.254994 0.885208
Si Si4 0.049232 0.102675 0.135980
Si Si5 0.250000 0.059364 0.832387
Si Si6 0.556732 0.417862 0.832123
Si Si7 0.948596 0.724267 0.086442
O O1 0.250000 0.592922 0.262991
O O2 0.455129 0.701129 0.317051
O O3 0.597177 0.579583 0.262747
O O4 0.449299 0.665736 0.147558
O O5 0.453717 0.566007 0.552375
O O6 0.611431 0.545500 0.412014
O O7 0.250000 0.224909 0.882970
O O8 0.448958 0.343711 0.857472
O O9 0.506424 0.258061 0.986378
O O10 0.250000 0.081268 0.131555
O O11 0.044779 0.194024 0.134352
O O12 0.963382 0.077291 0.226353
O O13 0.500000 0.500000 0.869676
O O14 0.750000 0.402887 0.856460
O O15 0.750000 0.701015 0.081189
#
# Coordination Sequence:
#
# PCOD9380591 Si02
#       7
#     8   4   8   8   4   8   8
#     4  12  25  45  74 108 149 199 253 314 379 449
#     4  12  26  44  70 102 150 202 246 300 382 464
#     4  11  22  42  71 104 146 188 241 317 375 445
#     4  11  22  39  65 103 143 188 236 296 376 451
#     4  12  28  50  70 104 150 198 254 316 370 454
#     4  12  25  40  63  95 143 193 237 293 375 452
#     4  10  22  43  74 105 143 188 243 314 380 433
#
# _framework density 23.048196000000001
#
# number of rings (size 3 to 8) (size 9 to 14) (size 15 to 20)
#    0.000    0.667    5.000    3.000    4.667    1.333 
#    0.000    0.000    1.833    0.000    0.000    0.000 
#    0.000    0.000    0.000    0.000    0.000    0.000 
#
# Total GULP energy -133628.122811 kJ/mol
# GULP energy per Si atom -5567.838450 kJ/mol
# Density = 2.299574 g / cm^3
# Si number density = 23.048196 Si / 1000 Ang^3
#
#
#
# Elastic Constant Matrix: (Units=GPa)
#
#
# Indices 1 2 3 4 5 6 
#
# 1 122.6844 24.6634 11.6284 0.0000 0.0000 0.0000
# 2 24.6634 44.2599 -12.0423 0.0000 0.0000 0.0000
# 3 11.6284 -12.0423 62.2678 0.0000 0.0000 0.0000
# 4 0.0000 0.0000 0.0000 -56.9270 0.0000 0.0000
# 5 0.0000 0.0000 0.0000 0.0000 25.1885 0.0000
# 6 0.0000 0.0000 0.0000 0.0000 0.0000 30.4932
#
#
#
# Elastic Compliance Matrix: (Units=1/GPa)
#
#
# Indices 1 2 3 4 5 6 
#
# 1 0.009686 -0.006217 -0.003011 0.000000 0.000000 0.000000
# 2 -0.006217 0.027839 0.006545 0.000000 0.000000 0.000000
# 3 -0.003011 0.006545 0.017888 0.000000 0.000000 0.000000
# 4 0.000000 0.000000 0.000000 -0.017566 0.000000 0.000000
# 5 0.000000 0.000000 0.000000 0.000000 0.039701 0.000000
# 6 0.000000 0.000000 0.000000 0.000000 0.000000 0.032794
#
#
# Mechanical properties :
#
#
# Convention : Reuss Voigt Hill
#
# Bulk Modulus (GPa) = 19.98141 30.85679 25.41910
# Shear Modulus (GPa) = 37.76732 13.41512 25.59122
#
# Velocity S-wave (km/s) = 4.05238 2.41518 3.33578
# Velocity P-wave (km/s) = 5.53028 4.60375 5.08815
#
# Compressibility (1/GPa) = 0.05004651
#
# Stress axis : x y z
#
# Youngs Moduli (GPa) = 103.23998 35.92107 55.90418
#
# Poissons Ratio (x) = 0.22331 0.16834
# Poissons Ratio (y) = 0.64182 -0.36589
# Poissons Ratio (z) = 0.31087 -0.23510
#
# Static dielectric constant tensor:
#      x y z
#    x 1.891310 0.000000 0.000000 
#    y 0.000000 2.401910 0.000000 
#    z 0.000000 0.000000 1.836640 
# 
# From -- ./inp_files/13954.got.cif
#   From: 2010.05.17/outbox.cif.g08.bks.cpg/sg46_7_cif.got.tgz:13954.got - 2010.06.03 19:58:25.
