data_PCOD9380815
_publ_section_title
;
Structure prediction by ZEFSAII (Michael W. Deem and Ramdas Pophale) SiO2 
 PCOD9380815
Probable space group: I M A 2
;
_chemical_formula_sum "Si O2"
_cell_formula_units_Z 48
_cell_length_a 15.350765
_cell_length_b 8.802961
_cell_length_c 17.188704
_cell_angle_alpha 90.000000
_cell_angle_beta 90.000000
_cell_angle_gamma 90.000000
_cell_volume 2322.747139
_symmetry_space_group_name_H-M "I M A 2"
_symmetry_group_IT_number 46
_symmetry_cell_setting 'orthorhombic'
loop_
_space_group_symop_operation_xyz
x,y,z
-x,-y,z
1/2-x,y,z
1/2+x,-y,z
1/2+x,1/2+y,1/2+z
1/2-x,1/2-y,1/2+z
-x,1/2+y,1/2+z
x,1/2-y,1/2+z
loop_
_atom_site_type_symbol
_atom_site_label
_atom_site_fract_x
_atom_site_fract_y
_atom_site_fract_z
Si Si1 0.250000 0.583840 0.326160
Si Si2 0.068033 0.105821 0.397311
Si Si3 0.250000 0.364879 0.587850
Si Si4 0.750000 0.942654 0.656993
Si Si5 0.411064 0.565172 0.062173
Si Si6 0.936551 0.119431 0.883654
Si Si7 0.089552 0.929000 0.058048
Si Si8 0.750000 0.741849 0.407821
O O1 0.250000 0.526051 0.238593
O O2 0.343968 0.663167 0.344370
O O3 0.250000 0.428732 0.375813
O O4 0.162807 0.172549 0.377441
O O5 0.003847 0.248960 0.408324
O O6 0.089407 0.005952 0.474796
O O7 0.000000 0.000000 0.348318
O O8 0.250000 0.239267 0.654960
O O9 0.332259 0.475132 0.592506
O O10 0.250000 0.277536 0.502902
O O11 0.832782 0.996188 0.609083
O O12 0.500000 0.500000 0.096906
O O13 0.406156 0.747282 0.066401
O O14 0.907874 0.044219 0.965048
O O15 0.000000 0.000000 0.839269
O O16 0.000000 0.000000 0.087790
#
# Coordination Sequence:
#
# PCOD9380815 Si02
#       8
#     4   8   4   4   8   8   8   4
#     4  12  26  41  65  94 135 191 224 272 356 435
#     4  11  21  36  66 103 130 160 219 293 347 393
#     4  12  21  36  65  93 123 175 224 283 334 407
#     4  12  27  42  61  94 139 184 227 271 356 428
#     4  11  21  39  64  99 133 167 216 289 346 398
#     4  11  20  37  66  99 129 165 227 282 345 407
#     4  11  20  35  66 100 126 156 217 287 341 391
#     4  12  20  39  65  89 127 168 221 280 344 402
#
# _framework density 20.665185000000001
#
# number of rings (size 3 to 8) (size 9 to 14) (size 15 to 20)
#    0.000    0.667    8.333    2.500    0.000    1.333 
#    0.000    0.000    7.333    0.000    0.000    0.000 
#    0.000    0.000    0.000    0.000    0.000    0.000 
#
# Total GULP energy -133702.718702 kJ/mol
# GULP energy per Si atom -5570.946613 kJ/mol
# Density = 2.061815 g / cm^3
# Si number density = 20.665185 Si / 1000 Ang^3
#
#
#
# Elastic Constant Matrix: (Units=GPa)
#
#
# Indices 1 2 3 4 5 6 
#
# 1 219.7763 66.3495 19.0954 0.0000 0.0000 0.0000
# 2 66.3495 128.1305 5.7057 0.0000 0.0000 0.0000
# 3 19.0954 5.7057 23.8241 0.0000 0.0000 0.0000
# 4 0.0000 0.0000 0.0000 6.1482 0.0000 0.0000
# 5 0.0000 0.0000 0.0000 0.0000 5.3929 0.0000
# 6 0.0000 0.0000 0.0000 0.0000 0.0000 52.6441
#
#
#
# Elastic Compliance Matrix: (Units=1/GPa)
#
#
# Indices 1 2 3 4 5 6 
#
# 1 0.005735 -0.002795 -0.003927 0.000000 0.000000 0.000000
# 2 -0.002795 0.009251 0.000025 0.000000 0.000000 0.000000
# 3 -0.003927 0.000025 0.045116 0.000000 0.000000 0.000000
# 4 0.000000 0.000000 0.000000 0.162650 0.000000 0.000000
# 5 0.000000 0.000000 0.000000 0.000000 0.185429 0.000000
# 6 0.000000 0.000000 0.000000 0.000000 0.000000 0.018995
#
#
# Mechanical properties :
#
#
# Convention : Reuss Voigt Hill
#
# Bulk Modulus (GPa) = 21.41016 61.55912 41.48464
# Shear Modulus (GPa) = 10.96153 31.54239 21.25196
#
# Velocity S-wave (km/s) = 2.30561 3.91110 3.21034
# Velocity P-wave (km/s) = 4.17981 7.08866 5.81893
#
# Compressibility (1/GPa) = 0.04670680
#
# Stress axis : x y z
#
# Youngs Moduli (GPa) = 174.36546 108.09967 22.16498
#
# Poissons Ratio (x) = 0.30213 0.08705
# Poissons Ratio (y) = 0.48733 -0.00055
# Poissons Ratio (z) = 0.68480 -0.00267
#
# Static dielectric constant tensor:
#      x y z
#    x 1.752440 0.000000 0.000000 
#    y 0.000000 1.802240 0.000000 
#    z 0.000000 0.000000 1.742900 
# 
# From -- ./inp_files/21928.got.cif
#   From: 2010.05.17/outbox.cif.g08.bks.cpg/sg46_11_cif.got.tgz:21928.got - 2010.06.03 19:58:25.
