data_PCOD9380972
_publ_section_title
;
Structure prediction by ZEFSAII (Michael W. Deem and Ramdas Pophale) SiO2 
 PCOD9380972
Probable space group: I M A 2
;
_chemical_formula_sum "Si O2"
_cell_formula_units_Z 40
_cell_length_a 8.584039
_cell_length_b 29.041958
_cell_length_c 7.975754
_cell_angle_alpha 90.000000
_cell_angle_beta 90.000000
_cell_angle_gamma 90.000000
_cell_volume 1988.333939
_symmetry_space_group_name_H-M "I M A 2"
_symmetry_group_IT_number 46
_symmetry_cell_setting 'orthorhombic'
loop_
_space_group_symop_operation_xyz
x,y,z
-x,-y,z
1/2-x,y,z
1/2+x,-y,z
1/2+x,1/2+y,1/2+z
1/2-x,1/2-y,1/2+z
-x,1/2+y,1/2+z
x,1/2-y,1/2+z
loop_
_atom_site_type_symbol
_atom_site_label
_atom_site_fract_x
_atom_site_fract_y
_atom_site_fract_z
Si Si1 0.934652 0.703077 0.388630
Si Si2 0.065367 0.700941 0.757875
Si Si3 0.435769 0.607928 0.260670
Si Si4 0.563054 0.551624 0.577194
Si Si5 0.063403 0.390128 0.908896
O O1 0.750000 0.708007 0.366045
O O2 0.975531 0.694636 0.582837
O O3 0.018757 0.749717 0.331990
O O4 0.995947 0.659084 0.287977
O O5 0.250000 0.698737 0.728915
O O6 0.012512 0.659817 0.878660
O O7 0.250000 0.609787 0.257777
O O8 0.492297 0.577616 0.417060
O O9 0.500337 0.590135 0.083371
O O10 0.500000 0.500000 0.585076
O O11 0.750000 0.551666 0.561811
O O12 0.522539 0.578861 0.747851
O O13 0.250000 0.385563 0.916504
#
# Coordination Sequence:
#
# PCOD9380972 Si02
#       5
#     8   8   8   8   8
#     4  12  24  41  63  92 133 179 225 274 336 401
#     4  12  24  40  63  95 133 175 226 278 335 397
#     4  12  25  43  69 100 137 177 225 281 338 401
#     4  11  25  46  73 101 135 177 227 282 344 406
#     4  11  24  44  69  98 136 180 225 276 339 404
#
# _framework density 20.117346999999999
#
# number of rings (size 3 to 8) (size 9 to 14) (size 15 to 20)
#    0.000    0.400    2.000    7.800    0.000    3.200 
#    0.000    2.000    0.000    0.000    0.000    0.000 
#    0.000    0.000    0.000    0.000    0.000    0.000 
#
# Total GULP energy -112027.086122 kJ/mol
# GULP energy per Si atom -5601.354306 kJ/mol
# Density = 2.007156 g / cm^3
# Si number density = 20.117347 Si / 1000 Ang^3
#
#
#
# Elastic Constant Matrix: (Units=GPa)
#
#
# Indices 1 2 3 4 5 6 
#
# 1 83.6309 28.6060 18.2697 -0.0003 -0.0005 -0.0002
# 2 28.6060 113.7224 37.8669 -0.0002 0.0005 0.0000
# 3 18.2697 37.8669 134.7448 -0.0030 0.0074 -0.0004
# 4 -0.0003 -0.0002 -0.0030 16.0595 0.0005 0.0004
# 5 -0.0005 0.0005 0.0074 0.0005 59.4134 0.0005
# 6 -0.0002 0.0000 -0.0004 0.0004 0.0005 29.1493
#
#
#
# Elastic Compliance Matrix: (Units=1/GPa)
#
#
# Indices 1 2 3 4 5 6 
#
# 1 0.013191 -0.003004 -0.000944 0.000000 0.000000 0.000000
# 2 -0.003004 0.010385 -0.002511 0.000000 0.000000 0.000000
# 3 -0.000944 -0.002511 0.008255 0.000002 -0.000001 0.000000
# 4 0.000000 0.000000 0.000002 0.062268 -0.000001 -0.000001
# 5 0.000000 0.000000 -0.000001 -0.000001 0.016831 0.000000
# 6 0.000000 0.000000 0.000000 -0.000001 0.000000 0.034306
#
#
# Mechanical properties :
#
#
# Convention : Reuss Voigt Hill
#
# Bulk Modulus (GPa) = 52.87453 55.73151 54.30302
# Shear Modulus (GPa) = 30.40256 37.41482 33.90869
#
# Velocity S-wave (km/s) = 3.89171 4.31725 4.10999
# Velocity P-wave (km/s) = 6.82158 7.25361 7.04091
#
# Compressibility (1/GPa) = 0.01891270
#
# Stress axis : x y z
#
# Youngs Moduli (GPa) = 75.80921 96.29220 121.13564
#
# Poissons Ratio (x) = 0.28923 0.11441
# Poissons Ratio (y) = 0.22770 0.30420
# Poissons Ratio (z) = 0.07160 0.24181
#
# Static dielectric constant tensor:
#      x y z
#    x 1.666040 0.000000 0.000000 
#    y 0.000000 1.689900 0.000000 
#    z 0.000000 0.000000 1.732590 
# 
# From -- ./inp_files/3535.got.cif
#   From: 2010.05.17/outbox.cif.g08.bks.cpg/sg46_2_cif.got.tgz:3535.got - 2010.06.03 19:58:25.
