data_PCOD9380983
_publ_section_title
;
Structure prediction by ZEFSAII (Michael W. Deem and Ramdas Pophale) SiO2 
 PCOD9380983
Probable space group: I M A 2
;
_chemical_formula_sum "Si O2"
_cell_formula_units_Z 32
_cell_length_a 21.289222
_cell_length_b 4.892793
_cell_length_c 12.896102
_cell_angle_alpha 90.000000
_cell_angle_beta 90.000000
_cell_angle_gamma 90.000000
_cell_volume 1343.306427
_symmetry_space_group_name_H-M "I M A 2"
_symmetry_group_IT_number 46
_symmetry_cell_setting 'orthorhombic'
loop_
_space_group_symop_operation_xyz
x,y,z
-x,-y,z
1/2-x,y,z
1/2+x,-y,z
1/2+x,1/2+y,1/2+z
1/2-x,1/2-y,1/2+z
-x,1/2+y,1/2+z
x,1/2-y,1/2+z
loop_
_atom_site_type_symbol
_atom_site_label
_atom_site_fract_x
_atom_site_fract_y
_atom_site_fract_z
Si Si1 0.681267 0.305428 0.989770
Si Si2 0.440527 0.304734 0.989770
Si Si3 0.618310 0.499834 0.311201
Si Si4 0.118309 0.500162 0.668339
O O1 0.750000 0.432996 0.989772
O O2 0.623349 0.515103 0.989770
O O3 0.640120 0.749999 0.739771
O O4 0.670956 0.120497 0.091599
O O5 0.434314 0.118881 0.888075
O O6 0.670957 0.120506 0.887938
O O7 0.565685 0.881110 0.091467
O O8 0.596103 0.250001 0.239769
O O9 0.000000 0.000000 0.489767
#
# Coordination Sequence:
#
# PCOD9380983 Si02
#       4
#     8   8   8   8
#     4  11  26  48  73 108 153 200 251 313 370 443
#     4  11  26  51  78 112 154 195 249 313 371 442
#     4  11  24  50  74 111 147 199 247 308 373 447
#     4  11  24  50  74 111 147 199 247 308 373 447
#
# _framework density 23.821816999999999
#
# number of rings (size 3 to 8) (size 9 to 14) (size 15 to 20)
#    0.000    1.000    5.000    0.000    0.000   10.000 
#    9.000    0.000    0.000    0.000    0.000    0.000 
#    0.000    0.000    0.000    0.000    0.000    0.000 
#
# Total GULP energy -89630.168450 kJ/mol
# GULP energy per Si atom -5601.885528 kJ/mol
# Density = 2.376760 g / cm^3
# Si number density = 23.821817 Si / 1000 Ang^3
#
#
#
# Elastic Constant Matrix: (Units=GPa)
#
#
# Indices 1 2 3 4 5 6 
#
# 1 181.1566 65.9711 43.1556 0.0000 0.0000 0.0000
# 2 65.9711 171.5763 87.8130 0.0000 0.0000 0.0000
# 3 43.1556 87.8130 177.9442 0.0000 0.0000 0.0000
# 4 0.0000 0.0000 0.0000 91.1031 0.0000 0.0000
# 5 0.0000 0.0000 0.0000 0.0000 -12.5544 0.0000
# 6 0.0000 0.0000 0.0000 0.0000 0.0000 28.9164
#
#
#
# Elastic Compliance Matrix: (Units=1/GPa)
#
#
# Indices 1 2 3 4 5 6 
#
# 1 0.006446 -0.002246 -0.000455 0.000000 0.000000 0.000000
# 2 -0.002246 0.008580 -0.003690 0.000000 0.000000 0.000000
# 3 -0.000455 -0.003690 0.007551 0.000000 0.000000 0.000000
# 4 0.000000 0.000000 0.000000 0.010977 0.000000 0.000000
# 5 0.000000 0.000000 0.000000 0.000000 -0.079654 0.000000
# 6 0.000000 0.000000 0.000000 0.000000 0.000000 0.034582
#
#
# Mechanical properties :
#
#
# Convention : Reuss Voigt Hill
#
# Bulk Modulus (GPa) = 102.07694 102.72850 102.40272
# Shear Modulus (GPa) = 1104.03344 43.74218 573.88781
#
# Velocity S-wave (km/s) = 21.55135 4.28977 15.53807
# Velocity P-wave (km/s) = 25.73372 8.23125 19.10468
#
# Compressibility (1/GPa) = 0.00979653
#
# Stress axis : x y z
#
# Youngs Moduli (GPa) = 155.12754 116.54930 132.43522
#
# Poissons Ratio (x) = 0.26173 0.06028
# Poissons Ratio (y) = 0.34836 0.48862
# Poissons Ratio (z) = 0.07061 0.43001
#
# Static dielectric constant tensor:
#      x y z
#    x 1.886380 0.000000 0.000000 
#    y 0.000000 1.942670 0.000000 
#    z 0.000000 0.000000 1.932880 
# 
# From -- ./inp_files/16301.got.cif
#   From: 2010.05.17/outbox.cif.g08.bks.cpg/sg46_9_cif.got.tgz:16301.got - 2010.06.03 19:58:25.
