data_PCOD9380880
_publ_section_title
;
Structure prediction by ZEFSAII (Michael W. Deem and Ramdas Pophale) SiO2 
 PCOD9380880
Probable space group: I M A 2
;
_chemical_formula_sum "Si O2"
_cell_formula_units_Z 64
_cell_length_a 18.371061
_cell_length_b 8.538418
_cell_length_c 19.621195
_cell_angle_alpha 90.000000
_cell_angle_beta 90.000000
_cell_angle_gamma 90.000000
_cell_volume 3077.776683
_symmetry_space_group_name_H-M "I M A 2"
_symmetry_group_IT_number 46
_symmetry_cell_setting 'orthorhombic'
loop_
_space_group_symop_operation_xyz
x,y,z
-x,-y,z
1/2-x,y,z
1/2+x,-y,z
1/2+x,1/2+y,1/2+z
1/2-x,1/2-y,1/2+z
-x,1/2+y,1/2+z
x,1/2-y,1/2+z
loop_
_atom_site_type_symbol
_atom_site_label
_atom_site_fract_x
_atom_site_fract_y
_atom_site_fract_z
Si Si1 0.164944 0.616583 0.889100
Si Si2 0.596128 0.629794 0.323311
Si Si3 0.335902 0.261684 0.946035
Si Si4 0.933811 0.284065 0.281421
Si Si5 0.334709 0.192897 0.209100
Si Si6 0.924628 0.413560 0.649077
Si Si7 0.838219 0.604569 0.085354
Si Si8 0.662823 0.241327 0.537105
O O1 0.250000 0.636060 0.869355
O O2 0.156343 0.437393 0.914617
O O3 0.111507 0.664489 0.828595
O O4 0.150854 0.724348 0.956058
O O5 0.617359 0.642132 0.402030
O O6 0.600500 0.455302 0.293742
O O7 0.516223 0.697825 0.308299
O O8 0.651785 0.741780 0.283752
O O9 0.250000 0.220976 0.944248
O O10 0.360423 0.280804 0.024036
O O11 0.935270 0.228242 0.203141
O O12 0.250000 0.167105 0.197432
O O13 0.362197 0.326656 0.156899
O O14 0.376589 0.037098 0.191015
O O15 0.882747 0.363768 0.580812
O O16 0.000000 0.500000 0.633991
O O17 0.750000 0.602350 0.084008
O O18 0.859200 0.428081 0.068286
O O19 0.750000 0.264126 0.547059
#
# Coordination Sequence:
#
# PCOD9380880 Si02
#       8
#     8   8   8   8   8   8   8   8
#     4   9  20  39  65  92 121 155 201 252 308 374
#     4  11  23  40  57  83 120 160 203 253 300 366
#     4   9  18  36  63  91 117 152 197 247 300 364
#     4  11  25  41  57  84 123 165 202 251 313 367
#     4  11  22  38  62  89 115 156 206 253 300 361
#     4  12  24  41  60  87 128 168 207 259 312 373
#     4   8  17  36  62  91 120 151 196 251 307 363
#     4   9  19  40  65  92 123 160 205 259 311 374
#
# _framework density 20.794229999999999
#
# number of rings (size 3 to 8) (size 9 to 14) (size 15 to 20)
#    0.000    2.000    1.250    3.750    0.000    4.000 
#    4.500    2.500    0.000    0.000    0.000    0.000 
#    0.000    0.000    0.000    0.000    0.000    0.000 
#
# Total GULP energy -178764.363159 kJ/mol
# GULP energy per Si atom -5586.386349 kJ/mol
# Density = 2.074690 g / cm^3
# Si number density = 20.794230 Si / 1000 Ang^3
#
#
#
# Elastic Constant Matrix: (Units=GPa)
#
#
# Indices 1 2 3 4 5 6 
#
# 1 44.5896 17.9308 11.7989 0.0000 0.0000 0.0000
# 2 17.9308 41.0199 5.7509 0.0000 0.0000 0.0000
# 3 11.7989 5.7509 75.8589 0.0000 0.0000 0.0000
# 4 0.0000 0.0000 0.0000 36.6232 0.0000 0.0000
# 5 0.0000 0.0000 0.0000 0.0000 1.6062 0.0000
# 6 0.0000 0.0000 0.0000 0.0000 0.0000 17.4800
#
#
#
# Elastic Compliance Matrix: (Units=1/GPa)
#
#
# Indices 1 2 3 4 5 6 
#
# 1 0.028088 -0.011791 -0.003475 0.000000 0.000000 0.000000
# 2 -0.011791 0.029590 -0.000409 0.000000 0.000000 0.000000
# 3 -0.003475 -0.000409 0.013754 0.000000 0.000000 0.000000
# 4 0.000000 0.000000 0.000000 0.027305 0.000000 0.000000
# 5 0.000000 0.000000 0.000000 0.000000 0.622604 0.000000
# 6 0.000000 0.000000 0.000000 0.000000 0.000000 0.057208
#
#
# Mechanical properties :
#
#
# Convention : Reuss Voigt Hill
#
# Bulk Modulus (GPa) = 24.94905 25.82551 25.38728
# Shear Modulus (GPa) = 6.07342 19.54104 12.80723
#
# Velocity S-wave (km/s) = 1.71087 3.06883 2.48443
# Velocity P-wave (km/s) = 3.99085 5.00035 4.52385
#
# Compressibility (1/GPa) = 0.04008169
#
# Stress axis : x y z
#
# Youngs Moduli (GPa) = 35.60288 33.79547 72.70679
#
# Poissons Ratio (x) = 0.39847 0.25264
# Poissons Ratio (y) = 0.41978 0.02976
# Poissons Ratio (z) = 0.12371 0.01383
#
# Static dielectric constant tensor:
#      x y z
#    x 1.715130 0.000000 0.000000 
#    y 0.000000 1.765790 0.000000 
#    z 0.000000 0.000000 1.727530 
# 
# From -- ./inp_files/22225.got.cif
#   From: 2010.05.17/outbox.cif.g08.bks.cpg/sg46_12_cif.got.tgz:22225.got - 2010.06.03 19:58:25.
