data_PCOD9380584
_publ_section_title
;
Structure prediction by ZEFSAII (Michael W. Deem and Ramdas Pophale) SiO2 
 PCOD9380584
Probable space group: I M A 2
;
_chemical_formula_sum "Si O2"
_cell_formula_units_Z 40
_cell_length_a 11.045803
_cell_length_b 9.198152
_cell_length_c 16.070841
_cell_angle_alpha 90.000000
_cell_angle_beta 90.000000
_cell_angle_gamma 90.000000
_cell_volume 1632.813114
_symmetry_space_group_name_H-M "I M A 2"
_symmetry_group_IT_number 46
_symmetry_cell_setting 'orthorhombic'
loop_
_space_group_symop_operation_xyz
x,y,z
-x,-y,z
1/2-x,y,z
1/2+x,-y,z
1/2+x,1/2+y,1/2+z
1/2-x,1/2-y,1/2+z
-x,1/2+y,1/2+z
x,1/2-y,1/2+z
loop_
_atom_site_type_symbol
_atom_site_label
_atom_site_fract_x
_atom_site_fract_y
_atom_site_fract_z
Si Si1 0.470396 0.668746 0.801610
Si Si2 0.617688 0.595951 0.371964
Si Si3 0.882312 0.904049 0.071166
Si Si4 0.620861 0.095995 0.471565
Si Si5 0.029604 0.831254 0.641520
O O1 0.500000 0.500000 0.786244
O O2 0.593679 0.752577 0.825802
O O3 0.390409 0.682547 0.885369
O O4 0.418557 0.750000 0.721565
O O5 0.500000 0.500000 0.351631
O O6 0.750000 0.536181 0.349801
O O7 0.615558 0.618396 0.471565
O O8 0.750000 0.963819 0.093329
O O9 0.906321 0.752577 0.117328
O O10 0.000000 0.000000 0.091499
O O11 0.750000 0.016979 0.471565
O O12 0.609591 0.182547 0.557761
O O13 0.500000 0.000000 0.471565
O O14 0.000000 0.000000 0.656885
#
# Coordination Sequence:
#
# PCOD9380584 Si02
#       5
#     8   8   8   8   8
#     4  11  24  45  73 111 150 195 246 306 373 441
#     4  10  22  43  71 104 145 191 243 303 367 436
#     4  10  22  43  71 104 145 191 243 303 367 436
#     4  10  24  46  73 104 143 192 246 302 364 434
#     4  11  24  45  73 111 150 195 246 306 373 441
#
# _framework density 24.497598
#
# number of rings (size 3 to 8) (size 9 to 14) (size 15 to 20)
#    0.000    1.600    2.000    1.200    0.000    9.600 
#    0.000    8.000    0.000    0.000    0.000    0.000 
#    0.000    0.000    0.000    0.000    0.000    0.000 
#
# Total GULP energy -111791.626383 kJ/mol
# GULP energy per Si atom -5589.581319 kJ/mol
# Density = 2.444184 g / cm^3
# Si number density = 24.497598 Si / 1000 Ang^3
#
#
#
# Elastic Constant Matrix: (Units=GPa)
#
#
# Indices 1 2 3 4 5 6 
#
# 1 199.8000 63.7119 43.0753 0.0000 0.0000 0.0000
# 2 63.7119 143.4570 48.9213 0.0000 0.0000 0.0000
# 3 43.0753 48.9213 190.5360 0.0000 0.0000 0.0000
# 4 0.0000 0.0000 0.0000 38.4286 0.0000 0.0000
# 5 0.0000 0.0000 0.0000 0.0000 -17.1003 0.0000
# 6 0.0000 0.0000 0.0000 0.0000 0.0000 30.6446
#
#
#
# Elastic Compliance Matrix: (Units=1/GPa)
#
#
# Indices 1 2 3 4 5 6 
#
# 1 0.005921 -0.002382 -0.000727 0.000000 0.000000 0.000000
# 2 -0.002382 0.008598 -0.001669 0.000000 0.000000 0.000000
# 3 -0.000727 -0.001669 0.005841 0.000000 0.000000 0.000000
# 4 0.000000 0.000000 0.000000 0.026022 0.000000 0.000000
# 5 0.000000 0.000000 0.000000 0.000000 -0.058479 0.000000
# 6 0.000000 0.000000 0.000000 0.000000 0.000000 0.032632
#
#
# Mechanical properties :
#
#
# Convention : Reuss Voigt Hill
#
# Bulk Modulus (GPa) = 92.55535 93.91221 93.23378
# Shear Modulus (GPa) = 148.39715 35.60023 91.99869
#
# Velocity S-wave (km/s) = 7.79152 3.81624 6.13479
# Velocity P-wave (km/s) = 10.89986 7.60505 9.39797
#
# Compressibility (1/GPa) = 0.01080435
#
# Stress axis : x y z
#
# Youngs Moduli (GPa) = 168.88289 116.31018 171.19565
#
# Poissons Ratio (x) = 0.27703 0.12448
# Poissons Ratio (y) = 0.40224 0.28573
# Poissons Ratio (z) = 0.12280 0.19413
#
# Static dielectric constant tensor:
#      x y z
#    x 1.950770 0.000000 0.000000 
#    y 0.000000 2.020120 0.000000 
#    z 0.000000 0.000000 2.006930 
# 
# From -- ./inp_files/18792.got.cif
#   From: 2010.05.17/outbox.cif.g08.bks.cpg/sg46_10_cif.got.tgz:18792.got - 2010.06.03 19:58:25.
