data_PCOD9380189
_publ_section_title
;
Structure prediction by ZEFSAII (Michael W. Deem and Ramdas Pophale) SiO2 
 PCOD9380189
Probable space group: I M A 2
;
_chemical_formula_sum "Si O2"
_cell_formula_units_Z 64
_cell_length_a 15.789009
_cell_length_b 24.635950
_cell_length_c 8.669311
_cell_angle_alpha 90.000000
_cell_angle_beta 90.000000
_cell_angle_gamma 90.000000
_cell_volume 3372.164633
_symmetry_space_group_name_H-M "I M A 2"
_symmetry_group_IT_number 46
_symmetry_cell_setting 'orthorhombic'
loop_
_space_group_symop_operation_xyz
x,y,z
-x,-y,z
1/2-x,y,z
1/2+x,-y,z
1/2+x,1/2+y,1/2+z
1/2-x,1/2-y,1/2+z
-x,1/2+y,1/2+z
x,1/2-y,1/2+z
loop_
_atom_site_type_symbol
_atom_site_label
_atom_site_fract_x
_atom_site_fract_y
_atom_site_fract_z
Si Si1 0.996403 0.311718 0.818680
Si Si2 0.651687 0.114959 0.820994
Si Si3 0.153963 0.119076 0.942194
Si Si4 0.343416 0.382202 0.813287
Si Si5 0.344820 0.883533 0.447994
Si Si6 0.851264 0.505259 0.284332
Si Si7 0.995359 0.190676 0.948331
Si Si8 0.097514 0.496581 0.935952
O O1 0.993412 0.251577 0.886262
O O2 0.996299 0.308814 0.633606
O O3 0.081082 0.343789 0.870209
O O4 0.916182 0.346178 0.875035
O O5 0.750000 0.124504 0.865812
O O6 0.647595 0.118025 0.634339
O O7 0.627445 0.052588 0.860783
O O8 0.586058 0.156862 0.892249
O O9 0.250000 0.132379 0.888529
O O10 0.080602 0.160109 0.891520
O O11 0.133273 0.058405 0.884873
O O12 0.155208 0.119481 0.127648
O O13 0.250000 0.365032 0.867143
O O14 0.359787 0.443921 0.863600
O O15 0.250000 0.866115 0.406015
O O16 0.358666 0.946137 0.399872
O O17 0.750000 0.502379 0.251300
O O18 0.897318 0.510261 0.120954
O O19 0.000000 0.500000 0.887013
#
# Coordination Sequence:
#
# PCOD9380189 Si02
#       8
#     8   8   8   8   8   8   8   8
#     4  11  24  41  57  86 108 150 197 238 291 337
#     4   9  20  38  59  85 116 153 189 231 283 336
#     4   9  21  39  59  85 117 153 189 232 285 339
#     4  10  21  40  60  83 119 153 187 233 283 341
#     4  10  21  39  60  84 119 153 189 233 280 337
#     4   9  19  35  56  88 120 152 191 226 279 341
#     4  11  24  39  61  81 115 146 195 245 284 339
#     4  11  20  33  58  91 121 149 187 229 280 340
#
# _framework density 18.978909000000002
#
# number of rings (size 3 to 8) (size 9 to 14) (size 15 to 20)
#    0.000    2.000    1.250    2.625    3.500    3.500 
#    0.000    1.250    0.000    0.000    0.000    0.000 
#    0.000    0.000    0.000    0.000    0.000    0.000 
#
# Total GULP energy -178704.341836 kJ/mol
# GULP energy per Si atom -5584.510682 kJ/mol
# Density = 1.893571 g / cm^3
# Si number density = 18.978909 Si / 1000 Ang^3
#
#
#
# Elastic Constant Matrix: (Units=GPa)
#
#
# Indices 1 2 3 4 5 6 
#
# 1 134.0163 66.1694 28.6631 0.0001 0.0000 0.0000
# 2 66.1694 118.9478 25.4644 0.0002 0.0000 0.0000
# 3 28.6631 25.4644 15.8860 -0.0006 0.0000 0.0000
# 4 0.0001 0.0002 -0.0006 32.5700 0.0000 0.0000
# 5 0.0000 0.0000 0.0000 0.0000 25.1882 -0.0001
# 6 0.0000 0.0000 0.0000 0.0000 -0.0001 -9.6910
#
#
#
# Elastic Compliance Matrix: (Units=1/GPa)
#
#
# Indices 1 2 3 4 5 6 
#
# 1 0.012976 -0.003359 -0.018029 0.000000 0.000000 0.000000
# 2 -0.003359 0.013669 -0.015850 0.000000 0.000000 0.000000
# 3 -0.018029 -0.015850 0.120883 0.000003 0.000000 0.000001
# 4 0.000000 0.000000 0.000003 0.030703 0.000000 0.000000
# 5 0.000000 0.000000 0.000000 0.000000 0.039701 0.000000
# 6 0.000000 0.000000 0.000001 0.000000 0.000000 -0.103189
#
#
# Mechanical properties :
#
#
# Convention : Reuss Voigt Hill
#
# Bulk Modulus (GPa) = 13.68854 56.60488 35.14671
# Shear Modulus (GPa) = 23.41162 19.51699 21.46430
#
# Velocity S-wave (km/s) = 3.51602 3.21027 3.36662
# Velocity P-wave (km/s) = 4.86943 6.60538 5.80269
#
# Compressibility (1/GPa) = 0.07305383
#
# Stress axis : x y z
#
# Youngs Moduli (GPa) = 77.06454 73.15993 8.27244
#
# Poissons Ratio (x) = 0.24574 0.14914
# Poissons Ratio (y) = 0.25885 0.13112
# Poissons Ratio (z) = 1.38937 1.15956
#
# Static dielectric constant tensor:
#      x y z
#    x 1.669450 0.000000 0.000000 
#    y 0.000000 1.626540 0.000000 
#    z 0.000000 0.000000 1.645250 
# 
# From -- ./inp_files/6062.got.cif
#   From: 2010.05.17/outbox.cif.g08.bks.cpg/sg46_4_cif.got.tgz:6062.got - 2010.06.03 19:58:25.
