data_PCOD9380965
_publ_section_title
;
Structure prediction by ZEFSAII (Michael W. Deem and Ramdas Pophale) SiO2 
 PCOD9380965
Probable space group: I M A 2
;
_chemical_formula_sum "Si O2"
_cell_formula_units_Z 48
_cell_length_a 8.206625
_cell_length_b 17.560816
_cell_length_c 14.259518
_cell_angle_alpha 90.000000
_cell_angle_beta 90.000000
_cell_angle_gamma 90.000000
_cell_volume 2055.010887
_symmetry_space_group_name_H-M "I M A 2"
_symmetry_group_IT_number 46
_symmetry_cell_setting 'orthorhombic'
loop_
_space_group_symop_operation_xyz
x,y,z
-x,-y,z
1/2-x,y,z
1/2+x,-y,z
1/2+x,1/2+y,1/2+z
1/2-x,1/2-y,1/2+z
-x,1/2+y,1/2+z
x,1/2-y,1/2+z
loop_
_atom_site_type_symbol
_atom_site_label
_atom_site_fract_x
_atom_site_fract_y
_atom_site_fract_z
Si Si1 0.250000 0.555876 0.417080
Si Si2 0.566946 0.079690 0.430733
Si Si3 0.939213 0.625858 0.328210
Si Si4 0.069610 0.104190 0.244275
Si Si5 0.564241 0.741437 0.984633
Si Si6 0.560816 0.264704 0.185672
Si Si7 0.500000 0.500000 0.572628
O O1 0.401551 0.574480 0.344160
O O2 0.384947 0.543002 0.501244
O O3 0.750000 0.092480 0.463720
O O4 0.561351 0.073107 0.317628
O O5 0.463862 0.155319 0.450335
O O6 0.500000 0.000000 0.469180
O O7 0.750000 0.594959 0.343611
O O8 0.961737 0.695490 0.403740
O O9 0.961061 0.663495 0.225881
O O10 0.250000 0.095648 0.285264
O O11 0.024735 0.191429 0.229650
O O12 0.067698 0.062537 0.144626
O O13 0.750000 0.751469 0.016773
O O14 0.450081 0.748297 0.074678
O O15 0.750000 0.269800 0.214873
#
# Coordination Sequence:
#
# PCOD9380965 Si02
#       7
#     4   8   8   8   8   8   4
#     4  12  28  48  72 104 150 200 256 310 378 448
#     4  12  25  41  66  96 142 192 235 292 369 448
#     4  11  25  47  74 107 149 199 253 317 381 448
#     4  12  24  41  64 101 145 190 238 297 373 442
#     4  11  24  43  68 103 144 187 243 312 372 447
#     4  12  25  42  73 109 144 188 246 314 378 441
#     4  12  28  44  68 104 150 206 254 304 374 476
#
# _framework density 23.357541000000001
#
# number of rings (size 3 to 8) (size 9 to 14) (size 15 to 20)
#    0.000    0.333    4.167    5.000    8.167    1.333 
#    0.000    0.000    1.833    0.000    0.000    0.000 
#    0.000    0.000    0.000    0.000    0.000    0.000 
#
# Total GULP energy -133651.303650 kJ/mol
# GULP energy per Si atom -5568.804319 kJ/mol
# Density = 2.330438 g / cm^3
# Si number density = 23.357541 Si / 1000 Ang^3
#
#
#
# Elastic Constant Matrix: (Units=GPa)
#
#
# Indices 1 2 3 4 5 6 
#
# 1 160.2420 24.6447 3.9505 0.0000 0.0000 0.0000
# 2 24.6447 43.9118 -8.2041 0.0000 0.0000 0.0000
# 3 3.9505 -8.2041 35.3342 0.0000 0.0000 0.0000
# 4 0.0000 0.0000 0.0000 6.2030 0.0000 0.0000
# 5 0.0000 0.0000 0.0000 0.0000 56.6405 0.0000
# 6 0.0000 0.0000 0.0000 0.0000 0.0000 28.5364
#
#
#
# Elastic Compliance Matrix: (Units=1/GPa)
#
#
# Indices 1 2 3 4 5 6 
#
# 1 0.006933 -0.004219 -0.001755 0.000000 0.000000 0.000000
# 2 -0.004219 0.026373 0.006595 0.000000 0.000000 0.000000
# 3 -0.001755 0.006595 0.030029 0.000000 0.000000 0.000000
# 4 0.000000 0.000000 0.000000 0.161213 0.000000 0.000000
# 5 0.000000 0.000000 0.000000 0.000000 0.017655 0.000000
# 6 0.000000 0.000000 0.000000 0.000000 0.000000 0.035043
#
#
# Mechanical properties :
#
#
# Convention : Reuss Voigt Hill
#
# Bulk Modulus (GPa) = 15.48526 31.14114 23.31320
# Shear Modulus (GPa) = 16.80520 32.88244 24.84382
#
# Velocity S-wave (km/s) = 2.68522 3.75612 3.26487
# Velocity P-wave (km/s) = 4.03211 5.67209 4.92090
#
# Compressibility (1/GPa) = 0.06457756
#
# Stress axis : x y z
#
# Youngs Moduli (GPa) = 144.24540 37.91802 33.30153
#
# Poissons Ratio (x) = 0.15996 0.05843
# Poissons Ratio (y) = 0.60852 -0.21962
# Poissons Ratio (z) = 0.25309 -0.25007
#
# Static dielectric constant tensor:
#      x y z
#    x 1.168020 0.000000 0.000000 
#    y 0.000000 2.032950 0.000000 
#    z 0.000000 0.000000 1.867920 
# 
# From -- ./inp_files/13970.got.cif
#   From: 2010.05.17/outbox.cif.g08.bks.cpg/sg46_7_cif.got.tgz:13970.got - 2010.06.03 19:58:25.
