data_PCOD9380832
_publ_section_title
;
Structure prediction by ZEFSAII (Michael W. Deem and Ramdas Pophale) SiO2 
 PCOD9380832
Probable space group: I M A 2
;
_chemical_formula_sum "Si O2"
_cell_formula_units_Z 56
_cell_length_a 7.625648
_cell_length_b 24.341341
_cell_length_c 14.487464
_cell_angle_alpha 90.000000
_cell_angle_beta 90.000000
_cell_angle_gamma 90.000000
_cell_volume 2689.141312
_symmetry_space_group_name_H-M "I M A 2"
_symmetry_group_IT_number 46
_symmetry_cell_setting 'orthorhombic'
loop_
_space_group_symop_operation_xyz
x,y,z
-x,-y,z
1/2-x,y,z
1/2+x,-y,z
1/2+x,1/2+y,1/2+z
1/2-x,1/2-y,1/2+z
-x,1/2+y,1/2+z
x,1/2-y,1/2+z
loop_
_atom_site_type_symbol
_atom_site_label
_atom_site_fract_x
_atom_site_fract_y
_atom_site_fract_z
Si Si1 0.038238 0.382384 0.711250
Si Si2 0.547933 0.673303 0.996752
Si Si3 0.960505 0.563101 0.318860
Si Si4 0.960637 0.936331 0.026225
Si Si5 0.034561 0.334707 0.203185
Si Si6 0.546512 0.437285 0.900229
Si Si7 0.535322 0.772665 0.312712
O O1 0.250000 0.381642 0.707877
O O2 0.972015 0.400205 0.611093
O O3 0.980445 0.322571 0.745880
O O4 0.989049 0.424850 0.792284
O O5 0.750000 0.690960 0.006606
O O6 0.546802 0.610924 0.957694
O O7 0.471998 0.711152 0.915134
O O8 0.470960 0.674749 0.098943
O O9 0.750000 0.567978 0.322401
O O10 0.027486 0.575089 0.422824
O O11 0.024384 0.607452 0.245544
O O12 0.000000 0.500000 0.296070
O O13 0.750000 0.929724 0.023563
O O14 0.000000 0.000000 0.046178
O O15 0.250000 0.335465 0.200483
O O16 0.982448 0.285316 0.270894
O O17 0.500000 0.500000 0.922357
O O18 0.750000 0.429166 0.918312
O O19 0.750000 0.773395 0.315215
#
# Coordination Sequence:
#
# PCOD9380832 Si02
#       7
#     8   8   8   8   8   8   8
#     4   9  17  30  48  73 103 132 163 200 246 297
#     4   9  18  33  51  73 102 132 166 207 248 295
#     4   9  18  32  48  69  97 127 163 203 243 288
#     4   9  17  28  44  67  96 128 160 197 238 283
#     4   9  17  30  51  76  99 128 164 202 245 293
#     4  11  21  33  50  72 100 133 169 209 254 300
#     4   8  15  28  47  72  98 122 155 200 242 282
#
# _framework density 20.824490999999998
#
# number of rings (size 3 to 8) (size 9 to 14) (size 15 to 20)
#    0.000    2.857    0.000    2.571    0.000    3.429 
#    0.000    7.857    0.000    6.857    0.000    4.000 
#    0.000    0.000    0.000    0.000    0.000    0.000 
#
# Total GULP energy -156203.469203 kJ/mol
# GULP energy per Si atom -5578.695329 kJ/mol
# Density = 2.077709 g / cm^3
# Si number density = 20.824491 Si / 1000 Ang^3
#
#
#
# Elastic Constant Matrix: (Units=GPa)
#
#
# Indices 1 2 3 4 5 6 
#
# 1 45.8558 -5.8800 3.8847 0.0000 0.0000 0.0000
# 2 -5.8800 109.1796 101.6742 0.0000 0.0000 0.0000
# 3 3.8847 101.6742 178.9504 -0.0001 0.0001 0.0000
# 4 0.0000 0.0000 -0.0001 18.2705 0.0000 0.0000
# 5 0.0000 0.0000 0.0001 0.0000 -40.4564 0.0000
# 6 0.0000 0.0000 0.0000 0.0000 0.0000 13.8564
#
#
#
# Elastic Compliance Matrix: (Units=1/GPa)
#
#
# Indices 1 2 3 4 5 6 
#
# 1 0.022472 0.003535 -0.002496 0.000000 0.000000 0.000000
# 2 0.003535 0.020007 -0.011444 0.000000 0.000000 0.000000
# 3 -0.002496 -0.011444 0.012145 0.000000 0.000000 0.000000
# 4 0.000000 0.000000 0.000000 0.054733 0.000000 0.000000
# 5 0.000000 0.000000 0.000000 0.000000 -0.024718 0.000000
# 6 0.000000 0.000000 0.000000 0.000000 0.000000 0.072169
#
#
# Mechanical properties :
#
#
# Convention : Reuss Voigt Hill
#
# Bulk Modulus (GPa) = 29.57450 59.26039 44.41745
# Shear Modulus (GPa) = 26.47051 13.95456 20.21253
#
# Velocity S-wave (km/s) = 3.56915 2.59144 3.11885
# Velocity P-wave (km/s) = 5.58728 6.12152 5.86049
#
# Compressibility (1/GPa) = 0.03381291
#
# Stress axis : x y z
#
# Youngs Moduli (GPa) = 44.49929 49.98252 82.34168
#
# Poissons Ratio (x) = -0.17669 0.20555
# Poissons Ratio (y) = -0.15730 0.94233
# Poissons Ratio (z) = 0.11108 0.57201
#
# Static dielectric constant tensor:
#      x y z
#    x 1.798590 0.000000 0.000000 
#    y 0.000000 1.725590 0.000000 
#    z 0.000000 0.000000 1.752430 
# 
# From -- ./inp_files/14221.got.cif
#   From: 2010.05.17/outbox.cif.g08.bks.cpg/sg46_8_cif.got.tgz:14221.got - 2010.06.03 19:58:25.
