data_PCOD9380099
_publ_section_title
;
Structure prediction by ZEFSAII (Michael W. Deem and Ramdas Pophale) SiO2 
 PCOD9380099
Probable space group: I M A 2
;
_chemical_formula_sum "Si O2"
_cell_formula_units_Z 64
_cell_length_a 8.838208
_cell_length_b 29.439472
_cell_length_c 13.179644
_cell_angle_alpha 90.000000
_cell_angle_beta 90.000000
_cell_angle_gamma 90.000000
_cell_volume 3429.240264
_symmetry_space_group_name_H-M "I M A 2"
_symmetry_group_IT_number 46
_symmetry_cell_setting 'orthorhombic'
loop_
_space_group_symop_operation_xyz
x,y,z
-x,-y,z
1/2-x,y,z
1/2+x,-y,z
1/2+x,1/2+y,1/2+z
1/2-x,1/2-y,1/2+z
-x,1/2+y,1/2+z
x,1/2-y,1/2+z
loop_
_atom_site_type_symbol
_atom_site_label
_atom_site_fract_x
_atom_site_fract_y
_atom_site_fract_z
Si Si1 0.568840 0.050284 0.563500
Si Si2 0.419612 0.207219 0.588886
Si Si3 0.070240 0.881200 0.157296
Si Si4 0.567843 0.646153 0.449931
Si Si5 0.919197 0.792076 0.233619
Si Si6 0.573837 0.254936 0.420669
Si Si7 0.930145 0.619427 0.223239
Si Si8 0.432549 0.550227 0.835122
O O1 0.750000 0.047689 0.567408
O O2 0.510475 0.082300 0.653326
O O3 0.525385 0.067089 0.449179
O O4 0.500000 0.000000 0.574125
O O5 0.250000 0.197635 0.546821
O O6 0.411096 0.255360 0.644762
O O7 0.544489 0.216163 0.504673
O O8 0.456315 0.167989 0.668872
O O9 0.250000 0.885511 0.141355
O O10 0.020424 0.918076 0.241277
O O11 0.030923 0.832439 0.205671
O O12 0.986885 0.881484 0.048586
O O13 0.750000 0.651820 0.452775
O O14 0.490205 0.695797 0.452140
O O15 0.526301 0.623350 0.341675
O O16 0.750000 0.810479 0.250594
O O17 0.977419 0.763029 0.327193
O O18 0.750000 0.259064 0.396993
O O19 0.750000 0.610923 0.220589
O O20 0.500000 0.500000 0.824166
O O21 0.250000 0.547770 0.832966
#
# Coordination Sequence:
#
# PCOD9380099 Si02
#       8
#     8   8   8   8   8   8   8   8
#     4  10  21  40  65  92 120 151 187 236 297 357
#     4  10  21  38  57  80 114 156 203 243 287 347
#     4  11  23  39  59  90 123 154 198 250 300 348
#     4  11  22  40  60  82 118 162 205 243 292 355
#     4  11  22  38  58  81 115 161 204 241 289 351
#     4  12  24  36  54  81 117 156 199 253 300 342
#     4  10  22  40  61  86 116 154 200 248 291 348
#     4   9  21  41  64  90 121 150 186 238 295 356
#
# _framework density 18.663025000000001
#
# number of rings (size 3 to 8) (size 9 to 14) (size 15 to 20)
#    0.000    1.500    2.500    2.625    1.750    3.500 
#    0.000    0.625    0.000    1.500    0.000    0.000 
#    0.000    0.000    0.000    0.000    0.000    0.000 
#
# Total GULP energy -178581.402762 kJ/mol
# GULP energy per Si atom -5580.668836 kJ/mol
# Density = 1.862055 g / cm^3
# Si number density = 18.663025 Si / 1000 Ang^3
#
#
#
# Elastic Constant Matrix: (Units=GPa)
#
#
# Indices 1 2 3 4 5 6 
#
# 1 21.7716 3.5820 16.9371 0.0000 -0.0004 0.0000
# 2 3.5820 67.0219 44.1114 -0.0003 -0.0001 0.0000
# 3 16.9371 44.1114 113.0370 -0.0008 -0.0015 -0.0001
# 4 0.0000 -0.0003 -0.0008 34.5291 0.0000 0.0000
# 5 -0.0004 -0.0001 -0.0015 0.0000 26.4400 0.0001
# 6 0.0000 0.0000 -0.0001 0.0000 0.0001 26.5467
#
#
#
# Elastic Compliance Matrix: (Units=1/GPa)
#
#
# Indices 1 2 3 4 5 6 
#
# 1 0.052494 0.003191 -0.009111 0.000000 0.000000 0.000000
# 2 0.003191 0.020271 -0.008389 0.000000 0.000000 0.000000
# 3 -0.009111 -0.008389 0.013485 0.000000 0.000001 0.000000
# 4 0.000000 0.000000 0.000000 0.028961 0.000000 0.000000
# 5 0.000000 0.000000 0.000001 0.000000 0.037821 0.000000
# 6 0.000000 0.000000 0.000000 0.000000 0.000000 0.037669
#
#
# Mechanical properties :
#
#
# Convention : Reuss Voigt Hill
#
# Bulk Modulus (GPa) = 17.35104 36.78793 27.06949
# Shear Modulus (GPa) = 20.96165 26.64984 23.80574
#
# Velocity S-wave (km/s) = 3.35500 3.78292 3.57537
# Velocity P-wave (km/s) = 4.93206 6.23178 5.61962
#
# Compressibility (1/GPa) = 0.05763342
#
# Stress axis : x y z
#
# Youngs Moduli (GPa) = 19.04976 49.33133 74.15440
#
# Poissons Ratio (x) = -0.15741 0.67560
# Poissons Ratio (y) = -0.06078 0.62206
# Poissons Ratio (z) = 0.17356 0.41382
#
# Static dielectric constant tensor:
#      x y z
#    x 1.656580 0.000000 0.000000 
#    y 0.000000 1.611290 0.000000 
#    z 0.000000 0.000000 1.689460 
# 
# From -- ./inp_files/9658.got.cif
#   From: 2010.05.17/outbox.cif.g08.bks.cpg/sg46_5_cif.got.tgz:9658.got - 2010.06.03 19:58:25.
