data_PCOD9380262
_publ_section_title
;
Structure prediction by ZEFSAII (Michael W. Deem and Ramdas Pophale) SiO2 
 PCOD9380262
Probable space group: I M A 2
;
_chemical_formula_sum "Si O2"
_cell_formula_units_Z 28
_cell_length_a 5.448560
_cell_length_b 7.698317
_cell_length_c 27.884141
_cell_angle_alpha 90.000000
_cell_angle_beta 90.000000
_cell_angle_gamma 90.000000
_cell_volume 1169.593102
_symmetry_space_group_name_H-M "I M A 2"
_symmetry_group_IT_number 46
_symmetry_cell_setting 'orthorhombic'
loop_
_space_group_symop_operation_xyz
x,y,z
-x,-y,z
1/2-x,y,z
1/2+x,-y,z
1/2+x,1/2+y,1/2+z
1/2-x,1/2-y,1/2+z
-x,1/2+y,1/2+z
x,1/2-y,1/2+z
loop_
_atom_site_type_symbol
_atom_site_label
_atom_site_fract_x
_atom_site_fract_y
_atom_site_fract_z
Si Si1 0.250000 0.386089 0.212220
Si Si2 0.250000 0.407356 0.368855
Si Si3 0.250000 0.407357 0.055586
Si Si4 0.250000 0.547309 0.948671
Si Si5 0.750000 0.610677 0.798611
Si Si6 0.250000 0.547308 0.475770
Si Si7 0.250000 0.110677 0.125830
O O1 0.500000 0.500000 0.212220
O O2 0.250000 0.259695 0.258093
O O3 0.250000 0.259694 0.166347
O O4 0.500000 0.500000 0.352158
O O5 0.250000 0.216652 0.348172
O O6 0.250000 0.432510 0.426586
O O7 0.500000 0.500000 0.072283
O O8 0.250000 0.216652 0.076268
O O9 0.250000 0.432512 0.997856
O O10 0.500000 0.500000 0.923093
O O11 0.250000 0.750001 0.962220
O O12 0.500000 0.500000 0.794031
O O13 0.500000 0.500000 0.501348
O O14 0.500000 0.000000 0.130410
#
# Coordination Sequence:
#
# PCOD9380262 Si02
#       7
#     4   4   4   4   4   4   4
#     4  12  24  42  68  94 130 174 210 256 310 370
#     4  10  21  41  62  88 124 164 209 254 312 378
#     4  10  21  41  62  88 124 164 209 254 312 378
#     4  10  21  40  63  89 121 160 205 259 316 379
#     4  12  24  41  64  96 130 166 212 263 310 369
#     4  10  21  40  63  89 121 160 205 259 316 379
#     4  12  24  41  64  96 130 166 212 263 310 369
#
# _framework density 23.939945999999999
#
# number of rings (size 3 to 8) (size 9 to 14) (size 15 to 20)
#    0.000    1.143    0.000    6.857    0.000    0.000 
#    0.000   34.286    0.000    0.000    0.000    0.000 
#    0.000    0.000    0.000    0.000    0.000    0.000 
#
# Total GULP energy -78435.294129 kJ/mol
# GULP energy per Si atom -5602.521009 kJ/mol
# Density = 2.388546 g / cm^3
# Si number density = 23.939946 Si / 1000 Ang^3
#
#
#
# Elastic Constant Matrix: (Units=GPa)
#
#
# Indices 1 2 3 4 5 6 
#
# 1 330.3233 133.3550 42.6250 0.0000 0.0000 0.0000
# 2 133.3550 175.5667 87.4045 0.0000 0.0000 0.0000
# 3 42.6250 87.4045 120.1543 0.0000 0.0000 0.0000
# 4 0.0000 0.0000 0.0000 70.8050 0.0000 0.0000
# 5 0.0000 0.0000 0.0000 0.0000 122.9356 0.0000
# 6 0.0000 0.0000 0.0000 0.0000 0.0000 74.4753
#
#
#
# Elastic Compliance Matrix: (Units=1/GPa)
#
#
# Indices 1 2 3 4 5 6 
#
# 1 0.004511 -0.004123 0.001399 0.000000 0.000000 0.000000
# 2 -0.004123 0.012698 -0.007774 0.000000 0.000000 0.000000
# 3 0.001399 -0.007774 0.013482 0.000000 0.000000 0.000000
# 4 0.000000 0.000000 0.000000 0.014123 0.000000 0.000000
# 5 0.000000 0.000000 0.000000 0.000000 0.008134 0.000000
# 6 0.000000 0.000000 0.000000 0.000000 0.000000 0.013427
#
#
# Mechanical properties :
#
#
# Convention : Reuss Voigt Hill
#
# Bulk Modulus (GPa) = 103.15666 128.09034 115.62350
# Shear Modulus (GPa) = 55.18500 77.82051 66.50275
#
# Velocity S-wave (km/s) = 4.80640 5.70764 5.27630
# Velocity P-wave (km/s) = 8.60147 9.85176 9.24777
#
# Compressibility (1/GPa) = 0.00969399
#
# Stress axis : x y z
#
# Youngs Moduli (GPa) = 221.66208 78.75255 74.17477
#
# Poissons Ratio (x) = 0.32471 -0.10376
# Poissons Ratio (y) = 0.91394 0.57666
# Poissons Ratio (z) = -0.31008 0.61225
#
# Static dielectric constant tensor:
#      x y z
#    x 1.981650 0.000000 0.000000 
#    y 0.000000 1.879820 0.000000 
#    z 0.000000 0.000000 1.930210 
# 
# From -- ./inp_files/24752.got.cif
#   From: 2010.05.17/outbox.cif.g08.bks.cpg/sg46_13_cif.got.tgz:24752.got - 2010.06.03 19:58:25.
