data_PCOD9380497
_publ_section_title
;
Structure prediction by ZEFSAII (Michael W. Deem and Ramdas Pophale) SiO2 
 PCOD9380497
Probable space group: I M A 2
;
_chemical_formula_sum "Si O2"
_cell_formula_units_Z 48
_cell_length_a 25.971369
_cell_length_b 16.364444
_cell_length_c 5.186481
_cell_angle_alpha 90.000000
_cell_angle_beta 90.000000
_cell_angle_gamma 90.000000
_cell_volume 2204.290801
_symmetry_space_group_name_H-M "I M A 2"
_symmetry_group_IT_number 46
_symmetry_cell_setting 'orthorhombic'
loop_
_space_group_symop_operation_xyz
x,y,z
-x,-y,z
1/2-x,y,z
1/2+x,-y,z
1/2+x,1/2+y,1/2+z
1/2-x,1/2-y,1/2+z
-x,1/2+y,1/2+z
x,1/2-y,1/2+z
loop_
_atom_site_type_symbol
_atom_site_label
_atom_site_fract_x
_atom_site_fract_y
_atom_site_fract_z
Si Si1 0.141808 0.195515 0.238460
Si Si2 0.090453 0.581251 0.332997
Si Si3 0.430551 0.076293 0.534048
Si Si4 0.750000 0.698754 0.856542
Si Si5 0.189038 0.808219 0.931624
Si Si6 0.000000 0.500000 0.669150
Si Si7 0.502838 0.804001 0.796815
O O1 0.138331 0.269389 0.450278
O O2 0.104493 0.128926 0.349836
O O3 0.197950 0.156326 0.278616
O O4 0.145557 0.619530 0.416663
O O5 0.053862 0.657657 0.263358
O O6 0.050445 0.534687 0.527515
O O7 0.094139 0.509965 0.116708
O O8 0.453015 0.126900 0.774404
O O9 0.481932 0.067837 0.367577
O O10 0.750000 0.776513 0.656755
O O11 0.250000 0.835266 0.928139
O O12 0.181696 0.747492 0.686833
O O13 0.509995 0.741397 0.564600
#
# Coordination Sequence:
#
# PCOD9380497 Si02
#       7
#     8   8   8   4   8   4   8
#     4  10  22  40  65  93 124 168 218 266 321 386
#     4  12  25  43  67  98 140 182 223 285 356 417
#     4  12  25  41  61  94 137 179 215 281 335 411
#     4   8  16  36  62  86 118 154 202 258 310 370
#     4  10  24  48  77 106 136 180 241 299 350 414
#     4  12  24  44  64  92 148 180 224 270 358 424
#     4  12  24  40  63  93 125 172 229 266 326 404
#
# _framework density 21.775711999999999
#
# number of rings (size 3 to 8) (size 9 to 14) (size 15 to 20)
#    0.000    1.000    3.333    3.000    4.667    0.000 
#    1.500    0.000    1.833    0.000    0.000    0.000 
#    0.000    0.000    0.000    0.000    0.000    0.000 
#
# Total GULP energy -133875.731152 kJ/mol
# GULP energy per Si atom -5578.155465 kJ/mol
# Density = 2.172615 g / cm^3
# Si number density = 21.775712 Si / 1000 Ang^3
#
#
#
# Elastic Constant Matrix: (Units=GPa)
#
#
# Indices 1 2 3 4 5 6 
#
# 1 137.9490 46.9789 12.9312 0.0000 0.0000 0.0000
# 2 46.9789 86.9659 32.4969 0.0000 0.0000 0.0000
# 3 12.9312 32.4969 112.7912 0.0000 0.0000 0.0000
# 4 0.0000 0.0000 0.0000 15.6028 0.0000 0.0000
# 5 0.0000 0.0000 0.0000 0.0000 25.3577 0.0000
# 6 0.0000 0.0000 0.0000 0.0000 0.0000 27.0419
#
#
#
# Elastic Compliance Matrix: (Units=1/GPa)
#
#
# Indices 1 2 3 4 5 6 
#
# 1 0.008900 -0.004961 0.000409 0.000000 0.000000 0.000000
# 2 -0.004961 0.015651 -0.003941 0.000000 0.000000 0.000000
# 3 0.000409 -0.003941 0.009954 0.000000 0.000000 0.000000
# 4 0.000000 0.000000 0.000000 0.064091 0.000000 0.000000
# 5 0.000000 0.000000 0.000000 0.000000 0.039436 0.000000
# 6 0.000000 0.000000 0.000000 0.000000 0.000000 0.036980
#
#
# Mechanical properties :
#
#
# Convention : Reuss Voigt Hill
#
# Bulk Modulus (GPa) = 57.07491 58.05777 57.56634
# Shear Modulus (GPa) = 25.27334 29.95376 27.61355
#
# Velocity S-wave (km/s) = 3.41048 3.71288 3.56489
# Velocity P-wave (km/s) = 6.46342 6.71567 6.59075
#
# Compressibility (1/GPa) = 0.01752083
#
# Stress axis : x y z
#
# Youngs Moduli (GPa) = 112.35867 63.89389 100.45807
#
# Poissons Ratio (x) = 0.31695 -0.04107
# Poissons Ratio (y) = 0.55737 0.39586
# Poissons Ratio (z) = -0.04594 0.25178
#
# Static dielectric constant tensor:
#      x y z
#    x 1.894050 0.000000 0.000000 
#    y 0.000000 1.834480 0.000000 
#    z 0.000000 0.000000 1.849770 
# 
# From -- ./inp_files/2540.got.cif
#   From: 2010.05.17/outbox.cif.g08.bks.cpg/sg46_2_cif.got.tgz:2540.got - 2010.06.03 19:58:25.
