data_PCOD9380342
_publ_section_title
;
Structure prediction by ZEFSAII (Michael W. Deem and Ramdas Pophale) SiO2 
 PCOD9380342
Probable space group: I M A 2
;
_chemical_formula_sum "Si O2"
_cell_formula_units_Z 64
_cell_length_a 8.593508
_cell_length_b 25.583419
_cell_length_c 15.068574
_cell_angle_alpha 90.000000
_cell_angle_beta 90.000000
_cell_angle_gamma 90.000000
_cell_volume 3312.845822
_symmetry_space_group_name_H-M "I M A 2"
_symmetry_group_IT_number 46
_symmetry_cell_setting 'orthorhombic'
loop_
_space_group_symop_operation_xyz
x,y,z
-x,-y,z
1/2-x,y,z
1/2+x,-y,z
1/2+x,1/2+y,1/2+z
1/2-x,1/2-y,1/2+z
-x,1/2+y,1/2+z
x,1/2-y,1/2+z
loop_
_atom_site_type_symbol
_atom_site_label
_atom_site_fract_x
_atom_site_fract_y
_atom_site_fract_z
Si Si1 0.563058 0.650066 0.430910
Si Si2 0.566370 0.336955 0.627340
Si Si3 0.062363 0.131388 0.307379
Si Si4 0.563009 0.608677 0.139183
Si Si5 0.065295 0.225412 0.618394
Si Si6 0.934998 0.443511 0.313629
Si Si7 0.564113 0.765472 0.407725
Si Si8 0.564151 0.441429 0.959826
O O1 0.750000 0.647788 0.421708
O O2 0.518699 0.650712 0.534678
O O3 0.488391 0.601632 0.380801
O O4 0.506844 0.706416 0.392767
O O5 0.750000 0.343193 0.616420
O O6 0.502415 0.371160 0.708223
O O7 0.525556 0.276408 0.649214
O O8 0.250000 0.131243 0.306390
O O9 0.005013 0.186610 0.349644
O O10 0.002503 0.086497 0.372418
O O11 0.750000 0.606497 0.133329
O O12 0.520790 0.669317 0.157479
O O13 0.503624 0.572303 0.217887
O O14 0.493316 0.590376 0.045946
O O15 0.250000 0.234141 0.634418
O O16 0.041813 0.222027 0.511893
O O17 0.750000 0.445597 0.308491
O O18 0.000000 0.500000 0.340135
O O19 0.750000 0.763594 0.393129
O O20 0.500000 0.500000 0.966802
O O21 0.250000 0.558147 0.957446
#
# Coordination Sequence:
#
# PCOD9380342 Si02
#       8
#     8   8   8   8   8   8   8   8
#     4  10  21  42  66  91 120 163 210 256 311 372
#     4  11  23  38  58  92 131 165 203 257 312 367
#     4  11  21  39  63  91 124 167 212 255 306 370
#     4  11  22  40  64  91 125 167 209 254 307 371
#     4   9  18  36  59  86 121 165 207 245 300 368
#     4  12  26  44  64  92 124 161 208 262 314 369
#     4   8  16  33  59  88 118 156 201 244 297 364
#     4  12  25  42  63  91 126 166 209 259 312 369
#
# _framework density 19.318738
#
# number of rings (size 3 to 8) (size 9 to 14) (size 15 to 20)
#    0.000    1.500    1.250    5.625    1.750    1.000 
#    0.000    1.875    0.000    0.000    0.000    0.000 
#    0.000    0.000    0.000    0.000    0.000    0.000 
#
# Total GULP energy -178884.973765 kJ/mol
# GULP energy per Si atom -5590.155430 kJ/mol
# Density = 1.927477 g / cm^3
# Si number density = 19.318738 Si / 1000 Ang^3
#
#
#
# Elastic Constant Matrix: (Units=GPa)
#
#
# Indices 1 2 3 4 5 6 
#
# 1 65.3123 16.1214 2.9408 0.0000 0.0000 0.0000
# 2 16.1214 83.5377 9.9871 0.0000 0.0000 0.0000
# 3 2.9408 9.9871 40.2264 0.0001 0.0000 0.0000
# 4 0.0000 0.0000 0.0001 31.9134 0.0000 0.0000
# 5 0.0000 0.0000 0.0000 0.0000 30.6693 0.0000
# 6 0.0000 0.0000 0.0000 0.0000 0.0000 29.9979
#
#
#
# Elastic Compliance Matrix: (Units=1/GPa)
#
#
# Indices 1 2 3 4 5 6 
#
# 1 0.016084 -0.003054 -0.000418 0.000000 0.000000 0.000000
# 2 -0.003054 0.012917 -0.002984 0.000000 0.000000 0.000000
# 3 -0.000418 -0.002984 0.025631 0.000000 0.000000 0.000000
# 4 0.000000 0.000000 0.000000 0.031335 0.000000 0.000000
# 5 0.000000 0.000000 0.000000 0.000000 0.032606 0.000000
# 6 0.000000 0.000000 0.000000 0.000000 0.000000 0.033336
#
#
# Mechanical properties :
#
#
# Convention : Reuss Voigt Hill
#
# Bulk Modulus (GPa) = 23.96894 27.46388 25.71641
# Shear Modulus (GPa) = 27.97603 29.18461 28.58032
#
# Velocity S-wave (km/s) = 3.80956 3.89098 3.85048
# Velocity P-wave (km/s) = 5.63776 5.86799 5.75403
#
# Compressibility (1/GPa) = 0.04172065
#
# Stress axis : x y z
#
# Youngs Moduli (GPa) = 62.17477 77.41916 39.01589
#
# Poissons Ratio (x) = 0.23644 0.01629
# Poissons Ratio (y) = 0.18988 0.11641
# Poissons Ratio (z) = 0.02596 0.23099
#
# Static dielectric constant tensor:
#      x y z
#    x 1.646890 0.000000 0.000000 
#    y 0.000000 1.666860 0.000000 
#    z 0.000000 0.000000 1.667730 
# 
# From -- ./inp_files/14464.got.cif
#   From: 2010.05.17/outbox.cif.g08.bks.cpg/sg46_8_cif.got.tgz:14464.got - 2010.06.03 19:58:25.
