data_PCOD9380283
_publ_section_title
;
Structure prediction by ZEFSAII (Michael W. Deem and Ramdas Pophale) SiO2 
 PCOD9380283
Probable space group: I M A 2
;
_chemical_formula_sum "Si O2"
_cell_formula_units_Z 64
_cell_length_a 16.655101
_cell_length_b 12.170729
_cell_length_c 15.043163
_cell_angle_alpha 90.000000
_cell_angle_beta 90.000000
_cell_angle_gamma 90.000000
_cell_volume 3049.320155
_symmetry_space_group_name_H-M "I M A 2"
_symmetry_group_IT_number 46
_symmetry_cell_setting 'orthorhombic'
loop_
_space_group_symop_operation_xyz
x,y,z
-x,-y,z
1/2-x,y,z
1/2+x,-y,z
1/2+x,1/2+y,1/2+z
1/2-x,1/2-y,1/2+z
-x,1/2+y,1/2+z
x,1/2-y,1/2+z
loop_
_atom_site_type_symbol
_atom_site_label
_atom_site_fract_x
_atom_site_fract_y
_atom_site_fract_z
Si Si1 0.655902 0.256030 0.744060
Si Si2 0.842445 0.497918 0.739994
Si Si3 0.653241 0.850028 0.576812
Si Si4 0.846275 0.102179 0.584257
Si Si5 0.928023 0.810568 0.937888
Si Si6 0.117058 0.721105 0.442316
Si Si7 0.662040 0.502321 0.528570
Si Si8 0.347067 0.237941 0.265820
O O1 0.750000 0.272918 0.720276
O O2 0.618582 0.378431 0.751898
O O3 0.622335 0.176605 0.667024
O O4 0.651118 0.209141 0.843129
O O5 0.750000 0.491300 0.773759
O O6 0.839984 0.514873 0.634064
O O7 0.876308 0.611676 0.777067
O O8 0.750000 0.848730 0.564688
O O9 0.612926 0.784836 0.496561
O O10 0.635509 0.785520 0.668284
O O11 0.625134 0.976431 0.583458
O O12 0.750000 0.095526 0.595322
O O13 0.863128 0.165474 0.492370
O O14 0.905638 0.924843 0.984167
O O15 0.889350 0.808740 0.840769
O O16 0.022131 0.792156 0.935696
O O17 0.152110 0.624167 0.503143
O O18 0.750000 0.542054 0.497591
O O19 0.250000 0.239307 0.275790
#
# Coordination Sequence:
#
# PCOD9380283 Si02
#       8
#     8   8   8   8   8   8   8   8
#     4  10  21  40  65  93 120 162 217 266 307 364
#     4   9  18  37  67  92 113 150 215 273 308 348
#     4  10  22  42  67  93 121 164 219 264 304 363
#     4  10  22  42  67  93 121 164 219 264 304 363
#     4  12  26  41  60  95 133 168 202 252 325 384
#     4  12  26  41  60  95 133 168 202 252 325 384
#     4  11  21  43  71  92 117 160 215 267 306 364
#     4  10  21  40  65  93 120 162 217 266 307 364
#
# _framework density 20.988285999999999
#
# number of rings (size 3 to 8) (size 9 to 14) (size 15 to 20)
#    0.000    1.500    2.500    2.625    3.500    1.500 
#    0.000    0.000    0.000    0.000    0.000    0.000 
#    0.000    0.000    0.000    0.000    0.000    0.000 
#
# Total GULP energy -178779.369073 kJ/mol
# GULP energy per Si atom -5586.855284 kJ/mol
# Density = 2.094052 g / cm^3
# Si number density = 20.988286 Si / 1000 Ang^3
#
#
#
# Elastic Constant Matrix: (Units=GPa)
#
#
# Indices 1 2 3 4 5 6 
#
# 1 20.9982 8.0912 -0.4920 0.0000 0.0000 0.0000
# 2 8.0912 79.8241 -16.1195 0.0000 0.0000 0.0000
# 3 -0.4920 -16.1195 46.9065 0.0000 0.0000 0.0000
# 4 0.0000 0.0000 0.0000 19.8373 0.0000 0.0000
# 5 0.0000 0.0000 0.0000 0.0000 -116.2871 0.0000
# 6 0.0000 0.0000 0.0000 0.0000 0.0000 14.6120
#
#
#
# Elastic Compliance Matrix: (Units=1/GPa)
#
#
# Indices 1 2 3 4 5 6 
#
# 1 0.049632 -0.005293 -0.001298 0.000000 0.000000 0.000000
# 2 -0.005293 0.014026 0.004765 0.000000 0.000000 0.000000
# 3 -0.001298 0.004765 0.022943 0.000000 0.000000 0.000000
# 4 0.000000 0.000000 0.000000 0.050410 0.000000 0.000000
# 5 0.000000 0.000000 0.000000 0.000000 -0.008599 0.000000
# 6 0.000000 0.000000 0.000000 0.000000 0.000000 0.068437
#
#
# Mechanical properties :
#
#
# Convention : Reuss Voigt Hill
#
# Bulk Modulus (GPa) = 12.05581 14.52092 13.28837
# Shear Modulus (GPa) = 21.91529 -5.95094 7.98217
#
# Velocity S-wave (km/s) = 3.23486 -1.68568 1.95228
# Velocity P-wave (km/s) = 4.43948 1.77339 3.38038
#
# Compressibility (1/GPa) = 0.08294755
#
# Stress axis : x y z
#
# Youngs Moduli (GPa) = 20.14822 71.29512 43.58676
#
# Poissons Ratio (x) = 0.37737 0.05659
# Poissons Ratio (y) = 0.10665 -0.20767
# Poissons Ratio (z) = 0.02616 -0.33969
#
# Static dielectric constant tensor:
#      x y z
#    x 1.750280 0.000000 0.000000 
#    y 0.000000 1.765270 0.000000 
#    z 0.000000 0.000000 1.707790 
# 
# From -- ./inp_files/16783.got.cif
#   From: 2010.05.17/outbox.cif.g08.bks.cpg/sg46_9_cif.got.tgz:16783.got - 2010.06.03 19:58:25.
