data_PCOD9380489
_publ_section_title
;
Structure prediction by ZEFSAII (Michael W. Deem and Ramdas Pophale) SiO2 
 PCOD9380489
Probable space group: I M A 2
;
_chemical_formula_sum "Si O2"
_cell_formula_units_Z 40
_cell_length_a 33.278563
_cell_length_b 4.808279
_cell_length_c 10.087579
_cell_angle_alpha 90.000000
_cell_angle_beta 90.000000
_cell_angle_gamma 90.000000
_cell_volume 1614.139901
_symmetry_space_group_name_H-M "I M A 2"
_symmetry_group_IT_number 46
_symmetry_cell_setting 'orthorhombic'
loop_
_space_group_symop_operation_xyz
x,y,z
-x,-y,z
1/2-x,y,z
1/2+x,-y,z
1/2+x,1/2+y,1/2+z
1/2-x,1/2-y,1/2+z
-x,1/2+y,1/2+z
x,1/2-y,1/2+z
loop_
_atom_site_type_symbol
_atom_site_label
_atom_site_fract_x
_atom_site_fract_y
_atom_site_fract_z
Si Si1 0.077111 0.055314 0.633620
Si Si2 0.133104 0.531519 0.628563
Si Si3 0.794171 0.889896 0.958483
Si Si4 0.293093 0.884941 0.289445
Si Si5 0.972630 0.732419 0.383506
O O1 0.109041 0.277809 0.690204
O O2 0.059168 0.166450 0.494421
O O3 0.044977 0.073583 0.753578
O O4 0.099390 0.764900 0.600963
O O5 0.162897 0.368351 0.527265
O O6 0.166808 0.686927 0.714271
O O7 0.750000 0.812366 0.017223
O O8 0.793089 0.215116 0.924786
O O9 0.795136 0.708811 0.825011
O O10 0.250000 0.816090 0.226810
O O11 0.000000 0.500000 0.453659
O O12 0.000000 0.000000 0.347371
#
# Coordination Sequence:
#
# PCOD9380489 Si02
#       5
#     8   8   8   8   8
#     4  12  28  43  77 110 139 185 226 296 357 425
#     4  12  25  41  66 102 147 175 236 296 358 404
#     4  10  22  40  64  93 135 191 239 283 340 407
#     4  10  22  40  64  93 135 191 239 283 340 407
#     4  12  26  52  76 104 141 184 233 282 358 448
#
# _framework density 24.780995999999998
#
# number of rings (size 3 to 8) (size 9 to 14) (size 15 to 20)
#    0.000    0.800    0.000    6.600    8.400    0.000 
#    0.000    8.000    0.000    0.000    0.000    0.000 
#    0.000    0.000    0.000    0.000    0.000    0.000 
#
# Total GULP energy -111486.474233 kJ/mol
# GULP energy per Si atom -5574.323712 kJ/mol
# Density = 2.472459 g / cm^3
# Si number density = 24.780996 Si / 1000 Ang^3
#
#
#
# Elastic Constant Matrix: (Units=GPa)
#
#
# Indices 1 2 3 4 5 6 
#
# 1 132.3548 30.4684 23.7799 0.0000 0.0000 0.0000
# 2 30.4684 96.0360 -8.2551 0.0000 0.0000 0.0000
# 3 23.7799 -8.2551 62.1916 0.0000 0.0000 0.0000
# 4 0.0000 0.0000 0.0000 21.6795 0.0000 0.0000
# 5 0.0000 0.0000 0.0000 0.0000 31.2845 0.0000
# 6 0.0000 0.0000 0.0000 0.0000 0.0000 41.0844
#
#
#
# Elastic Compliance Matrix: (Units=1/GPa)
#
#
# Indices 1 2 3 4 5 6 
#
# 1 0.008980 -0.003181 -0.003856 0.000000 0.000000 0.000000
# 2 -0.003181 0.011659 0.002764 0.000000 0.000000 0.000000
# 3 -0.003856 0.002764 0.017921 0.000000 0.000000 0.000000
# 4 0.000000 0.000000 0.000000 0.046127 0.000000 0.000000
# 5 0.000000 0.000000 0.000000 0.000000 0.031965 0.000000
# 6 0.000000 0.000000 0.000000 0.000000 0.000000 0.024340
#
#
# Mechanical properties :
#
#
# Convention : Reuss Voigt Hill
#
# Bulk Modulus (GPa) = 33.31686 42.50764 37.91225
# Shear Modulus (GPa) = 31.33965 35.11564 33.22764
#
# Velocity S-wave (km/s) = 3.56007 3.76844 3.66574
# Velocity P-wave (km/s) = 5.51113 6.01044 5.76619
#
# Compressibility (1/GPa) = 0.03001484
#
# Stress axis : x y z
#
# Youngs Moduli (GPa) = 111.35332 85.76770 55.80170
#
# Poissons Ratio (x) = 0.27279 0.21517
# Poissons Ratio (y) = 0.35417 -0.15422
# Poissons Ratio (z) = 0.42938 -0.23704
#
# Static dielectric constant tensor:
#      x y z
#    x 1.978840 0.000000 0.000000 
#    y 0.000000 1.919170 0.000000 
#    z 0.000000 0.000000 2.085570 
# 
# From -- ./inp_files/12920.got.cif
#   From: 2010.05.17/outbox.cif.g08.bks.cpg/sg46_7_cif.got.tgz:12920.got - 2010.06.03 19:58:25.
