data_PCOD9380818
_publ_section_title
;
Structure prediction by ZEFSAII (Michael W. Deem and Ramdas Pophale) SiO2 
 PCOD9380818
Probable space group: I M A 2
;
_chemical_formula_sum "Si O2"
_cell_formula_units_Z 32
_cell_length_a 16.521768
_cell_length_b 8.914105
_cell_length_c 9.540679
_cell_angle_alpha 90.000000
_cell_angle_beta 90.000000
_cell_angle_gamma 90.000000
_cell_volume 1405.120432
_symmetry_space_group_name_H-M "I M A 2"
_symmetry_group_IT_number 46
_symmetry_cell_setting 'orthorhombic'
loop_
_space_group_symop_operation_xyz
x,y,z
-x,-y,z
1/2-x,y,z
1/2+x,-y,z
1/2+x,1/2+y,1/2+z
1/2-x,1/2-y,1/2+z
-x,1/2+y,1/2+z
x,1/2-y,1/2+z
loop_
_atom_site_type_symbol
_atom_site_label
_atom_site_fract_x
_atom_site_fract_y
_atom_site_fract_z
Si Si1 0.586972 0.409162 0.630850
Si Si2 0.340356 0.181234 0.274769
Si Si3 0.061244 0.142251 0.543119
Si Si4 0.549576 0.350425 0.350116
O O1 0.500000 0.500000 0.645515
O O2 0.650014 0.522513 0.698500
O O3 0.400664 0.207070 0.687489
O O4 0.577983 0.256518 0.723892
O O5 0.250000 0.241966 0.269663
O O6 0.365199 0.137375 0.433148
O O7 0.385408 0.605763 0.468667
O O8 0.006902 0.261259 0.459294
O O9 0.000000 0.000000 0.542187
O O10 0.500000 0.500000 0.313661
#
# Coordination Sequence:
#
# PCOD9380818 Si02
#       4
#     8   8   8   8
#     4  11  21  41  62  97 131 183 235 296 339 436
#     4  12  25  45  69 107 151 187 231 313 385 430
#     4  12  23  45  74 104 134 191 253 294 353 452
#     4  11  20  37  69  96 128 169 250 289 338 404
#
# _framework density 22.773848000000001
#
# number of rings (size 3 to 8) (size 9 to 14) (size 15 to 20)
#    0.000    0.500   10.000    0.750    0.000    5.000 
#    0.000    1.250    0.000    0.000    0.000    0.000 
#    0.000    0.000    0.000    0.000    0.000    0.000 
#
# Total GULP energy -89077.271954 kJ/mol
# GULP energy per Si atom -5567.329497 kJ/mol
# Density = 2.272201 g / cm^3
# Si number density = 22.773848 Si / 1000 Ang^3
#
#
#
# Elastic Constant Matrix: (Units=GPa)
#
#
# Indices 1 2 3 4 5 6 
#
# 1 78.6214 29.5425 21.6439 0.0000 0.0000 0.0000
# 2 29.5425 166.9151 66.0020 0.0000 0.0000 0.0000
# 3 21.6439 66.0020 187.0800 0.0000 0.0000 0.0000
# 4 0.0000 0.0000 0.0000 32.7528 0.0000 0.0000
# 5 0.0000 0.0000 0.0000 0.0000 -0.3117 0.0000
# 6 0.0000 0.0000 0.0000 0.0000 0.0000 16.7013
#
#
#
# Elastic Compliance Matrix: (Units=1/GPa)
#
#
# Indices 1 2 3 4 5 6 
#
# 1 0.013741 -0.002096 -0.000850 0.000000 0.000000 0.000000
# 2 -0.002096 0.007282 -0.002327 0.000000 0.000000 0.000000
# 3 -0.000850 -0.002327 0.006265 0.000000 0.000000 0.000000
# 4 0.000000 0.000000 0.000000 0.030532 0.000000 0.000000
# 5 0.000000 0.000000 0.000000 0.000000 -3.208542 0.000000
# 6 0.000000 0.000000 0.000000 0.000000 0.000000 0.059876
#
#
# Mechanical properties :
#
#
# Convention : Reuss Voigt Hill
#
# Bulk Modulus (GPa) = 59.73055 74.11039 66.92047
# Shear Modulus (GPa) = -1.62616 30.85702 14.61543
#
# Velocity S-wave (km/s) = -0.84593 3.68493 2.53605
# Velocity P-wave (km/s) = 5.03294 7.12162 6.16636
#
# Compressibility (1/GPa) = 0.01674185
#
# Stress axis : x y z
#
# Youngs Moduli (GPa) = 72.77613 137.32480 159.62907
#
# Poissons Ratio (x) = 0.28780 0.13574
# Poissons Ratio (y) = 0.15252 0.37140
# Poissons Ratio (z) = 0.06188 0.31950
#
# Static dielectric constant tensor:
#      x y z
#    x 2.024040 0.000000 0.000000 
#    y 0.000000 2.075740 0.000000 
#    z 0.000000 0.000000 2.226770 
# 
# From -- ./inp_files/11547.got.cif
#   From: 2010.05.17/outbox.cif.g08.bks.cpg/sg46_6_cif.got.tgz:11547.got - 2010.06.03 19:58:25.
