data_PCOD9380556
_publ_section_title
;
Structure prediction by ZEFSAII (Michael W. Deem and Ramdas Pophale) SiO2 
 PCOD9380556
Probable space group: I M A 2
;
_chemical_formula_sum "Si O2"
_cell_formula_units_Z 64
_cell_length_a 17.160449
_cell_length_b 13.474221
_cell_length_c 12.962057
_cell_angle_alpha 90.000000
_cell_angle_beta 90.000000
_cell_angle_gamma 90.000000
_cell_volume 2997.134550
_symmetry_space_group_name_H-M "I M A 2"
_symmetry_group_IT_number 46
_symmetry_cell_setting 'orthorhombic'
loop_
_space_group_symop_operation_xyz
x,y,z
-x,-y,z
1/2-x,y,z
1/2+x,-y,z
1/2+x,1/2+y,1/2+z
1/2-x,1/2-y,1/2+z
-x,1/2+y,1/2+z
x,1/2-y,1/2+z
loop_
_atom_site_type_symbol
_atom_site_label
_atom_site_fract_x
_atom_site_fract_y
_atom_site_fract_z
Si Si1 0.448875 0.597493 0.600050
Si Si2 0.161685 0.857856 0.920475
Si Si3 0.340903 0.525294 0.777192
Si Si4 0.544133 0.719539 0.000741
Si Si5 0.839928 0.700499 0.822158
Si Si6 0.837011 0.631588 0.151727
Si Si7 0.883455 0.358769 0.972678
Si Si8 0.658998 0.088710 0.700547
O O1 0.500000 0.500000 0.608398
O O2 0.390759 0.586515 0.502949
O O3 0.394334 0.593843 0.702511
O O4 0.503344 0.692265 0.568419
O O5 0.250000 0.896630 0.917558
O O6 0.161204 0.744190 0.956011
O O7 0.128313 0.862200 0.804664
O O8 0.250000 0.532349 0.744746
O O9 0.364295 0.409042 0.781903
O O10 0.348780 0.562305 0.894631
O O11 0.593896 0.646174 0.071866
O O12 0.604880 0.745947 0.910528
O O13 0.473060 0.662544 0.947421
O O14 0.750000 0.691169 0.858569
O O15 0.839962 0.775328 0.727021
O O16 0.750000 0.627145 0.103576
O O17 0.845991 0.529429 0.213047
O O18 0.880080 0.385541 0.092738
O O19 0.750000 0.117444 0.689487
#
# Coordination Sequence:
#
# PCOD9380556 Si02
#       8
#     8   8   8   8   8   8   8   8
#     4  11  26  43  64  99 136 177 223 280 341 409
#     4  10  23  43  67  94 131 172 219 273 332 404
#     4  11  24  44  72  99 136 185 234 279 336 415
#     4  11  25  40  64  97 137 173 217 284 342 401
#     4  10  23  43  68  98 132 179 230 278 337 407
#     4  10  22  42  66  93 128 173 220 272 329 401
#     4  11  25  40  66 101 131 175 218 281 337 394
#     4  10  22  42  67  96 127 169 224 270 329 406
#
# _framework density 21.353729000000001
#
# number of rings (size 3 to 8) (size 9 to 14) (size 15 to 20)
#    0.000    1.500    0.000    3.375    8.750    4.500 
#    0.000    1.250    0.000    0.000    0.000    0.000 
#    0.000    0.000    0.000    0.000    0.000    0.000 
#
# Total GULP energy -178707.968984 kJ/mol
# GULP energy per Si atom -5584.624031 kJ/mol
# Density = 2.130513 g / cm^3
# Si number density = 21.353729 Si / 1000 Ang^3
#
#
#
# Elastic Constant Matrix: (Units=GPa)
#
#
# Indices 1 2 3 4 5 6 
#
# 1 92.0510 16.5639 25.6899 0.0000 0.0000 0.0000
# 2 16.5639 44.4836 5.0791 0.0000 0.0000 0.0000
# 3 25.6899 5.0791 90.6154 0.0000 0.0000 0.0000
# 4 0.0000 0.0000 0.0000 -11.8092 0.0000 0.0000
# 5 0.0000 0.0000 0.0000 0.0000 89.1318 0.0000
# 6 0.0000 0.0000 0.0000 0.0000 0.0000 8.2037
#
#
#
# Elastic Compliance Matrix: (Units=1/GPa)
#
#
# Indices 1 2 3 4 5 6 
#
# 1 0.012564 -0.004299 -0.003321 0.000000 0.000000 0.000000
# 2 -0.004299 0.024096 -0.000132 0.000000 0.000000 0.000000
# 3 -0.003321 -0.000132 0.011985 0.000000 0.000000 0.000000
# 4 0.000000 0.000000 0.000000 -0.084680 0.000000 0.000000
# 5 0.000000 0.000000 0.000000 0.000000 0.011219 0.000000
# 6 0.000000 0.000000 0.000000 0.000000 0.000000 0.121896
#
#
# Mechanical properties :
#
#
# Convention : Reuss Voigt Hill
#
# Bulk Modulus (GPa) = 30.17429 35.75730 32.96579
# Shear Modulus (GPa) = 40.44312 29.09308 34.76810
#
# Velocity S-wave (km/s) = 4.35669 3.69512 4.03947
# Velocity P-wave (km/s) = 6.28244 5.91497 6.10147
#
# Compressibility (1/GPa) = 0.03314080
#
# Stress axis : x y z
#
# Youngs Moduli (GPa) = 79.59272 41.50059 83.44083
#
# Poissons Ratio (x) = 0.17842 0.27710
# Poissons Ratio (y) = 0.34218 0.01100
# Poissons Ratio (z) = 0.26432 0.00547
#
# Static dielectric constant tensor:
#      x y z
#    x 1.756750 0.000000 0.000000 
#    y 0.000000 1.763580 0.000000 
#    z 0.000000 0.000000 1.771270 
# 
# From -- ./inp_files/11987.got.cif
#   From: 2010.05.17/outbox.cif.g08.bks.cpg/sg46_6_cif.got.tgz:11987.got - 2010.06.03 19:58:25.
