data_PCOD9380540
_publ_section_title
;
Structure prediction by ZEFSAII (Michael W. Deem and Ramdas Pophale) SiO2 
 PCOD9380540
Probable space group: I M A 2
;
_chemical_formula_sum "Si O2"
_cell_formula_units_Z 52
_cell_length_a 24.362902
_cell_length_b 9.542330
_cell_length_c 8.665808
_cell_angle_alpha 90.000000
_cell_angle_beta 90.000000
_cell_angle_gamma 90.000000
_cell_volume 2014.617084
_symmetry_space_group_name_H-M "I M A 2"
_symmetry_group_IT_number 46
_symmetry_cell_setting 'orthorhombic'
loop_
_space_group_symop_operation_xyz
x,y,z
-x,-y,z
1/2-x,y,z
1/2+x,-y,z
1/2+x,1/2+y,1/2+z
1/2-x,1/2-y,1/2+z
-x,1/2+y,1/2+z
x,1/2-y,1/2+z
loop_
_atom_site_type_symbol
_atom_site_label
_atom_site_fract_x
_atom_site_fract_y
_atom_site_fract_z
Si Si1 0.849486 0.364950 0.721340
Si Si2 0.750000 0.088678 0.008134
Si Si3 0.171718 0.120607 0.811198
Si Si4 0.956806 0.203700 0.799871
Si Si5 0.576734 0.539972 0.502183
Si Si6 0.531848 0.659260 0.019210
Si Si7 0.156533 0.082170 0.463214
O O1 0.798835 0.333322 0.610048
O O2 0.894636 0.246776 0.757441
O O3 0.884321 0.486091 0.637052
O O4 0.827881 0.439671 0.876226
O O5 0.796120 0.991291 0.915115
O O6 0.108589 0.086542 0.847261
O O7 0.182114 0.100281 0.631991
O O8 0.177147 0.281922 0.866083
O O9 0.988981 0.136099 0.658052
O O10 0.954732 0.095352 0.942040
O O11 0.992884 0.331419 0.868134
O O12 0.552430 0.684115 0.557293
O O13 0.589840 0.583180 0.985789
#
# Coordination Sequence:
#
# PCOD9380540 Si02
#       7
#     8   4   8   8   8   8   8
#     4  11  25  45  69 102 148 191 248 317 367 454
#     4  10  24  48  72  96 138 194 244 316 390 418
#     4  10  22  41  69  99 138 182 243 309 368 442
#     4  12  24  40  68 100 147 197 244 289 372 445
#     4  10  22  44  63  97 143 190 248 302 358 452
#     4  11  23  40  67 102 147 198 235 302 372 446
#     4  11  23  41  68 109 148 181 244 305 379 455
#
# _framework density 25.811354000000001
#
# number of rings (size 3 to 8) (size 9 to 14) (size 15 to 20)
#    0.000    1.231    1.538    6.000    2.154    4.923 
#    0.000    3.077    0.000    0.000    0.000    0.000 
#    0.000    0.000    0.000    0.000    0.000    0.000 
#
# Total GULP energy -144904.710562 kJ/mol
# GULP energy per Si atom -5573.258099 kJ/mol
# Density = 2.575261 g / cm^3
# Si number density = 25.811354 Si / 1000 Ang^3
#
#
#
# Elastic Constant Matrix: (Units=GPa)
#
#
# Indices 1 2 3 4 5 6 
#
# 1 89.0760 11.4199 13.3045 0.0000 0.0000 0.0000
# 2 11.4199 61.3880 15.3277 0.0000 0.0000 0.0000
# 3 13.3045 15.3277 122.6150 0.0000 0.0000 0.0000
# 4 0.0000 0.0000 0.0000 20.9083 0.0000 0.0000
# 5 0.0000 0.0000 0.0000 0.0000 19.5711 0.0000
# 6 0.0000 0.0000 0.0000 0.0000 0.0000 18.0213
#
#
#
# Elastic Compliance Matrix: (Units=1/GPa)
#
#
# Indices 1 2 3 4 5 6 
#
# 1 0.011624 -0.001907 -0.001023 0.000000 0.000000 0.000000
# 2 -0.001907 0.017127 -0.001934 0.000000 0.000000 0.000000
# 3 -0.001023 -0.001934 0.008508 0.000000 0.000000 0.000000
# 4 0.000000 0.000000 0.000000 0.047828 0.000000 0.000000
# 5 0.000000 0.000000 0.000000 0.000000 0.051096 0.000000
# 6 0.000000 0.000000 0.000000 0.000000 0.000000 0.055490
#
#
# Mechanical properties :
#
#
# Convention : Reuss Voigt Hill
#
# Bulk Modulus (GPa) = 36.32186 39.24259 37.78223
# Shear Modulus (GPa) = 23.74416 27.23526 25.48971
#
# Velocity S-wave (km/s) = 3.03629 3.25186 3.14592
# Velocity P-wave (km/s) = 5.13758 5.41628 5.27877
#
# Compressibility (1/GPa) = 0.02753163
#
# Stress axis : x y z
#
# Youngs Moduli (GPa) = 86.03170 58.38567 117.53125
#
# Poissons Ratio (x) = 0.11134 0.12022
# Poissons Ratio (y) = 0.16406 0.22732
# Poissons Ratio (z) = 0.08800 0.11293
#
# Static dielectric constant tensor:
#      x y z
#    x 2.039050 0.000000 0.000000 
#    y 0.000000 2.073090 0.000000 
#    z 0.000000 0.000000 2.041550 
# 
# From -- ./inp_files/8172.got.cif
#   From: 2010.05.17/outbox.cif.g08.bks.cpg/sg46_5_cif.got.tgz:8172.got - 2010.06.03 19:58:25.
