data_PCOD9380293
_publ_section_title
;
Structure prediction by ZEFSAII (Michael W. Deem and Ramdas Pophale) SiO2 
 PCOD9380293
Probable space group: I M A 2
;
_chemical_formula_sum "Si O2"
_cell_formula_units_Z 32
_cell_length_a 15.191062
_cell_length_b 5.328527
_cell_length_c 17.079516
_cell_angle_alpha 90.000000
_cell_angle_beta 90.000000
_cell_angle_gamma 90.000000
_cell_volume 1382.518229
_symmetry_space_group_name_H-M "I M A 2"
_symmetry_group_IT_number 46
_symmetry_cell_setting 'orthorhombic'
loop_
_space_group_symop_operation_xyz
x,y,z
-x,-y,z
1/2-x,y,z
1/2+x,-y,z
1/2+x,1/2+y,1/2+z
1/2-x,1/2-y,1/2+z
-x,1/2+y,1/2+z
x,1/2-y,1/2+z
loop_
_atom_site_type_symbol
_atom_site_label
_atom_site_fract_x
_atom_site_fract_y
_atom_site_fract_z
Si Si1 0.850753 0.863971 0.653810
Si Si2 0.395672 0.754180 0.418910
Si Si3 0.096738 0.620491 0.738030
Si Si4 0.596372 0.751488 0.986055
O O1 0.750000 0.912258 0.629975
O O2 0.849005 0.626994 0.713275
O O3 0.906096 0.765832 0.579345
O O4 0.888470 0.128452 0.686274
O O5 0.388817 0.782965 0.326313
O O6 0.358474 0.500162 0.454185
O O7 0.498686 0.750368 0.447186
O O8 0.357117 0.001721 0.456965
O O9 0.000000 0.500000 0.733932
#
# Coordination Sequence:
#
# PCOD9380293 Si02
#       4
#     8   8   8   8
#     4  12  28  46  67 106 152 191 226 289 373 436
#     4  10  21  40  67 103 129 170 243 300 336 393
#     4  12  25  44  77 106 137 186 247 301 344 419
#     4  10  21  40  65  97 140 173 229 292 345 411
#
# _framework density 23.146166999999998
#
# number of rings (size 3 to 8) (size 9 to 14) (size 15 to 20)
#    0.000    1.000    2.500    4.500   14.000    0.000 
#    0.000    7.500    0.000    0.000    0.000    0.000 
#    0.000    0.000    0.000    0.000    0.000    0.000 
#
# Total GULP energy -89360.344912 kJ/mol
# GULP energy per Si atom -5585.021557 kJ/mol
# Density = 2.309349 g / cm^3
# Si number density = 23.146167 Si / 1000 Ang^3
#
#
#
# Elastic Constant Matrix: (Units=GPa)
#
#
# Indices 1 2 3 4 5 6 
#
# 1 32.0316 15.4779 12.3513 0.0000 0.0000 0.0000
# 2 15.4779 272.2184 73.3806 0.0000 0.0000 0.0000
# 3 12.3513 73.3806 138.6204 0.0000 0.0000 0.0000
# 4 0.0000 0.0000 0.0000 56.8425 0.0000 0.0000
# 5 0.0000 0.0000 0.0000 0.0000 0.6989 0.0000
# 6 0.0000 0.0000 0.0000 0.0000 0.0000 50.7280
#
#
#
# Elastic Compliance Matrix: (Units=1/GPa)
#
#
# Indices 1 2 3 4 5 6 
#
# 1 0.032692 -0.001252 -0.002250 0.000000 0.000000 0.000000
# 2 -0.001252 0.004333 -0.002182 0.000000 0.000000 0.000000
# 3 -0.002250 -0.002182 0.008570 0.000000 0.000000 0.000000
# 4 0.000000 0.000000 0.000000 0.017592 0.000000 0.000000
# 5 0.000000 0.000000 0.000000 0.000000 1.430751 0.000000
# 6 0.000000 0.000000 0.000000 0.000000 0.000000 0.019713
#
#
# Mechanical properties :
#
#
# Convention : Reuss Voigt Hill
#
# Bulk Modulus (GPa) = 29.21788 71.69891 50.45840
# Shear Modulus (GPa) = 3.25430 44.43125 23.84277
#
# Velocity S-wave (km/s) = 1.18703 4.38607 3.21299
# Velocity P-wave (km/s) = 3.81173 7.52954 5.96755
#
# Compressibility (1/GPa) = 0.03422561
#
# Stress axis : x y z
#
# Youngs Moduli (GPa) = 30.58859 230.78965 116.69208
#
# Poissons Ratio (x) = 0.28902 0.26256
# Poissons Ratio (y) = 0.03831 0.25464
# Poissons Ratio (z) = 0.06882 0.50361
#
# Static dielectric constant tensor:
#      x y z
#    x 1.923630 0.000000 0.000000 
#    y 0.000000 1.873470 0.000000 
#    z 0.000000 0.000000 1.876180 
# 
# From -- ./inp_files/16279.got.cif
#   From: 2010.05.17/outbox.cif.g08.bks.cpg/sg46_9_cif.got.tgz:16279.got - 2010.06.03 19:58:25.
