data_PCOD9380605
_publ_section_title
;
Structure prediction by ZEFSAII (Michael W. Deem and Ramdas Pophale) SiO2 
 PCOD9380605
Probable space group: I M A 2
;
_chemical_formula_sum "Si O2"
_cell_formula_units_Z 36
_cell_length_a 20.566387
_cell_length_b 5.274935
_cell_length_c 13.488380
_cell_angle_alpha 90.000000
_cell_angle_beta 90.000000
_cell_angle_gamma 90.000000
_cell_volume 1463.305176
_symmetry_space_group_name_H-M "I M A 2"
_symmetry_group_IT_number 46
_symmetry_cell_setting 'orthorhombic'
loop_
_space_group_symop_operation_xyz
x,y,z
-x,-y,z
1/2-x,y,z
1/2+x,-y,z
1/2+x,1/2+y,1/2+z
1/2-x,1/2-y,1/2+z
-x,1/2+y,1/2+z
x,1/2-y,1/2+z
loop_
_atom_site_type_symbol
_atom_site_label
_atom_site_fract_x
_atom_site_fract_y
_atom_site_fract_z
Si Si1 0.471843 0.242308 0.844990
Si Si2 0.000000 0.500000 0.149528
Si Si3 0.176805 0.828367 0.194130
Si Si4 0.634749 0.670422 0.093423
Si Si5 0.176512 0.162067 0.371496
O O1 0.500000 0.500000 0.885316
O O2 0.393845 0.218589 0.842527
O O3 0.500000 0.000000 0.901639
O O4 0.503941 0.219190 0.734224
O O5 0.938387 0.570756 0.085846
O O6 0.250000 0.886479 0.162060
O O7 0.163935 0.538597 0.168321
O O8 0.136645 0.043706 0.135031
O O9 0.172336 0.898008 0.310217
O O10 0.671076 0.645232 0.989483
O O11 0.250000 0.264235 0.347877
#
# Coordination Sequence:
#
# PCOD9380605 Si02
#       5
#     8   4   8   8   8
#     4  10  22  44  72 101 138 187 240 295 360 432
#     4  10  24  44  72  98 140 188 242 294 364 436
#     4  11  24  46  71 100 145 187 234 304 366 434
#     4  12  26  45  71 107 141 193 243 301 368 442
#     4  11  25  46  75 112 150 196 249 306 376 445
#
# _framework density 24.601838999999998
#
# number of rings (size 3 to 8) (size 9 to 14) (size 15 to 20)
#    0.667    0.444    2.222    3.333    1.556    3.556 
#    0.000    5.556    0.000    0.000    0.000    0.000 
#    0.000    0.000    0.000    0.000    0.000    0.000 
#
# Total GULP energy -100406.037668 kJ/mol
# GULP energy per Si atom -5578.113204 kJ/mol
# Density = 2.454584 g / cm^3
# Si number density = 24.601839 Si / 1000 Ang^3
#
#
#
# Elastic Constant Matrix: (Units=GPa)
#
#
# Indices 1 2 3 4 5 6 
#
# 1 157.0805 33.6484 -8.5963 0.0000 0.0000 0.0000
# 2 33.6484 114.5247 22.3180 0.0000 0.0000 0.0000
# 3 -8.5963 22.3180 93.1910 0.0000 0.0000 0.0000
# 4 0.0000 0.0000 0.0000 4.9662 0.0000 0.0000
# 5 0.0000 0.0000 0.0000 0.0000 30.3784 0.0000
# 6 0.0000 0.0000 0.0000 0.0000 0.0000 30.4954
#
#
#
# Elastic Compliance Matrix: (Units=1/GPa)
#
#
# Indices 1 2 3 4 5 6 
#
# 1 0.006915 -0.002262 0.001180 0.000000 0.000000 0.000000
# 2 -0.002262 0.009899 -0.002579 0.000000 0.000000 0.000000
# 3 0.001180 -0.002579 0.011457 0.000000 0.000000 0.000000
# 4 0.000000 0.000000 0.000000 0.201361 0.000000 0.000000
# 5 0.000000 0.000000 0.000000 0.000000 0.032918 0.000000
# 6 0.000000 0.000000 0.000000 0.000000 0.000000 0.032792
#
#
# Mechanical properties :
#
#
# Convention : Reuss Voigt Hill
#
# Bulk Modulus (GPa) = 47.73617 51.05958 49.39787
# Shear Modulus (GPa) = 16.14740 34.32974 25.23857
#
# Velocity S-wave (km/s) = 2.56471 3.73958 3.20641
# Velocity P-wave (km/s) = 5.31187 6.28055 5.81641
#
# Compressibility (1/GPa) = 0.02094848
#
# Stress axis : x y z
#
# Youngs Moduli (GPa) = 144.60956 101.02186 87.28174
#
# Poissons Ratio (x) = 0.22847 -0.10295
# Poissons Ratio (y) = 0.32705 0.22512
# Poissons Ratio (z) = -0.17057 0.26056
#
# Static dielectric constant tensor:
#      x y z
#    x 2.022430 0.000000 0.000000 
#    y 0.000000 1.987520 0.000000 
#    z 0.000000 0.000000 1.972680 
# 
# From -- ./inp_files/16905.got.cif
#   From: 2010.05.17/outbox.cif.g08.bks.cpg/sg46_9_cif.got.tgz:16905.got - 2010.06.03 19:58:25.
