data_PCOD9380576
_publ_section_title
;
Structure prediction by ZEFSAII (Michael W. Deem and Ramdas Pophale) SiO2 
 PCOD9380576
Probable space group: I M A 2
;
_chemical_formula_sum "Si O2"
_cell_formula_units_Z 40
_cell_length_a 20.351153
_cell_length_b 8.950244
_cell_length_c 9.863748
_cell_angle_alpha 90.000000
_cell_angle_beta 90.000000
_cell_angle_gamma 90.000000
_cell_volume 1796.659850
_symmetry_space_group_name_H-M "I M A 2"
_symmetry_group_IT_number 46
_symmetry_cell_setting 'orthorhombic'
loop_
_space_group_symop_operation_xyz
x,y,z
-x,-y,z
1/2-x,y,z
1/2+x,-y,z
1/2+x,1/2+y,1/2+z
1/2-x,1/2-y,1/2+z
-x,1/2+y,1/2+z
x,1/2-y,1/2+z
loop_
_atom_site_type_symbol
_atom_site_label
_atom_site_fract_x
_atom_site_fract_y
_atom_site_fract_z
Si Si1 0.599663 0.606855 0.666820
Si Si2 0.901324 0.146509 0.532910
Si Si3 0.324479 0.403767 0.161545
Si Si4 0.044786 0.679913 0.765431
Si Si5 0.324575 0.941590 0.948652
O O1 0.643783 0.747054 0.705328
O O2 0.524050 0.648762 0.692725
O O3 0.600213 0.448877 0.745260
O O4 0.624189 0.554824 0.519363
O O5 0.928039 0.180758 0.683377
O O6 0.960502 0.176207 0.426848
O O7 0.849822 0.274741 0.484227
O O8 0.867966 0.985591 0.547099
O O9 0.250000 0.379946 0.113789
O O10 0.321895 0.513388 0.291502
O O11 0.250000 0.960270 0.002708
#
# Coordination Sequence:
#
# PCOD9380576 Si02
#       5
#     8   8   8   8   8
#     4  10  24  42  64  99 133 175 227 280 347 402
#     4  11  22  45  65 100 128 181 229 278 342 414
#     4  11  24  41  68 103 136 179 233 287 347 407
#     4  10  24  42  69  92 138 176 226 280 341 411
#     4  10  22  43  66  95 137 180 229 287 343 410
#
# _framework density 22.263535000000001
#
# number of rings (size 3 to 8) (size 9 to 14) (size 15 to 20)
#    0.000    1.600    2.000    1.200    5.600    2.400 
#    0.000    2.000    0.000    0.000    0.000    0.000 
#    0.000    0.000    0.000    0.000    0.000    0.000 
#
# Total GULP energy -111409.785897 kJ/mol
# GULP energy per Si atom -5570.489295 kJ/mol
# Density = 2.221286 g / cm^3
# Si number density = 22.263535 Si / 1000 Ang^3
#
#
#
# Elastic Constant Matrix: (Units=GPa)
#
#
# Indices 1 2 3 4 5 6 
#
# 1 111.0416 23.1477 18.6161 0.0000 0.0000 0.0000
# 2 23.1477 41.6394 -19.0314 0.0000 0.0000 0.0000
# 3 18.6161 -19.0314 59.7108 0.0000 0.0000 0.0000
# 4 0.0000 0.0000 0.0000 20.8687 0.0000 0.0000
# 5 0.0000 0.0000 0.0000 0.0000 -4.3849 0.0000
# 6 0.0000 0.0000 0.0000 0.0000 0.0000 20.8423
#
#
#
# Elastic Compliance Matrix: (Units=1/GPa)
#
#
# Indices 1 2 3 4 5 6 
#
# 1 0.012275 -0.010035 -0.007026 0.000000 0.000000 0.000000
# 2 -0.010035 0.036314 0.014703 0.000000 0.000000 0.000000
# 3 -0.007026 0.014703 0.023624 0.000000 0.000000 0.000000
# 4 0.000000 0.000000 0.000000 0.047919 0.000000 0.000000
# 5 0.000000 0.000000 0.000000 0.000000 -0.228056 0.000000
# 6 0.000000 0.000000 0.000000 0.000000 0.000000 0.047979
#
#
# Mechanical properties :
#
#
# Convention : Reuss Voigt Hill
#
# Bulk Modulus (GPa) = 14.81516 28.65074 21.73295
# Shear Modulus (GPa) = -152.76841 20.10918 -66.32961
#
# Velocity S-wave (km/s) = -8.29260 3.00865 -5.46421
# Velocity P-wave (km/s) = 9.22067 4.99661 5.47972
#
# Compressibility (1/GPa) = 0.06749841
#
# Stress axis : x y z
#
# Youngs Moduli (GPa) = 81.46396 27.53734 42.32993
#
# Poissons Ratio (x) = 0.27634 0.29739
# Poissons Ratio (y) = 0.81749 -0.62237
# Poissons Ratio (z) = 0.57233 -0.40488
#
# Static dielectric constant tensor:
#      x y z
#    x 1.847020 0.000000 0.000000 
#    y 0.000000 1.859310 0.000000 
#    z 0.000000 0.000000 1.920720 
# 
# From -- ./inp_files/7715.got.cif
#   From: 2010.05.17/outbox.cif.g08.bks.cpg/sg46_4_cif.got.tgz:7715.got - 2010.06.03 19:58:25.
