data_PCOD9380606
_publ_section_title
;
Structure prediction by ZEFSAII (Michael W. Deem and Ramdas Pophale) SiO2 
 PCOD9380606
Probable space group: I M A 2
;
_chemical_formula_sum "Si O2"
_cell_formula_units_Z 48
_cell_length_a 13.875937
_cell_length_b 13.184904
_cell_length_c 12.267491
_cell_angle_alpha 90.000000
_cell_angle_beta 90.000000
_cell_angle_gamma 90.000000
_cell_volume 2244.373021
_symmetry_space_group_name_H-M "I M A 2"
_symmetry_group_IT_number 46
_symmetry_cell_setting 'orthorhombic'
loop_
_space_group_symop_operation_xyz
x,y,z
-x,-y,z
1/2-x,y,z
1/2+x,-y,z
1/2+x,1/2+y,1/2+z
1/2-x,1/2-y,1/2+z
-x,1/2+y,1/2+z
x,1/2-y,1/2+z
loop_
_atom_site_type_symbol
_atom_site_label
_atom_site_fract_x
_atom_site_fract_y
_atom_site_fract_z
Si Si1 0.363214 0.951162 0.974250
Si Si2 0.533491 0.637932 0.358200
Si Si3 0.862337 0.684387 0.953777
Si Si4 0.636615 0.442789 0.939333
Si Si5 0.364658 0.637192 0.701890
Si Si6 0.515403 0.169451 0.625086
O O1 0.250000 0.937077 0.952825
O O2 0.429809 0.865190 0.918226
O O3 0.401828 0.055164 0.921569
O O4 0.379467 0.943712 0.104077
O O5 0.585618 0.745594 0.365401
O O6 0.517045 0.611104 0.233052
O O7 0.750000 0.709260 0.960308
O O8 0.872074 0.564355 0.935339
O O9 0.920190 0.708308 0.063966
O O10 0.750000 0.418774 0.956396
O O11 0.606480 0.400126 0.821530
O O12 0.575175 0.395842 0.037459
O O13 0.250000 0.657307 0.704979
O O14 0.420144 0.737675 0.666574
#
# Coordination Sequence:
#
# PCOD9380606 Si02
#       6
#     8   8   8   8   8   8
#     4  10  23  44  70 101 134 176 232 288 347 405
#     4  11  25  44  68 100 141 183 227 287 346 416
#     4  11  25  45  66  97 139 183 230 281 346 419
#     4  10  24  45  71 104 140 182 233 288 348 412
#     4  10  22  44  74 102 135 181 233 292 342 402
#     4  12  24  43  66 104 139 182 230 284 350 412
#
# _framework density 21.386818999999999
#
# number of rings (size 3 to 8) (size 9 to 14) (size 15 to 20)
#    0.000    1.333    1.667    2.500    4.667    4.000 
#    6.000    1.667    0.000    0.000    0.000    0.000 
#    0.000    0.000    0.000    0.000    0.000    0.000 
#
# Total GULP energy -134245.191853 kJ/mol
# GULP energy per Si atom -5593.549661 kJ/mol
# Density = 2.133814 g / cm^3
# Si number density = 21.386819 Si / 1000 Ang^3
#
#
#
# Elastic Constant Matrix: (Units=GPa)
#
#
# Indices 1 2 3 4 5 6 
#
# 1 144.8395 50.3114 74.8012 0.0000 0.0000 0.0000
# 2 50.3114 78.0658 65.6245 0.0000 0.0000 0.0000
# 3 74.8012 65.6245 169.2111 0.0000 0.0000 0.0000
# 4 0.0000 0.0000 0.0000 24.9749 0.0000 0.0000
# 5 0.0000 0.0000 0.0000 0.0000 24.0846 0.0000
# 6 0.0000 0.0000 0.0000 0.0000 0.0000 36.4810
#
#
#
# Elastic Compliance Matrix: (Units=1/GPa)
#
#
# Indices 1 2 3 4 5 6 
#
# 1 0.009695 -0.003925 -0.002763 0.000000 0.000000 0.000000
# 2 -0.003925 0.020595 -0.006252 0.000000 0.000000 0.000000
# 3 -0.002763 -0.006252 0.009556 0.000000 0.000000 0.000000
# 4 0.000000 0.000000 0.000000 0.040040 0.000000 0.000000
# 5 0.000000 0.000000 0.000000 0.000000 0.041520 0.000000
# 6 0.000000 0.000000 0.000000 0.000000 0.000000 0.027412
#
#
# Mechanical properties :
#
#
# Convention : Reuss Voigt Hill
#
# Bulk Modulus (GPa) = 71.60930 85.95451 78.78191
# Shear Modulus (GPa) = 27.87782 30.53340 29.20561
#
# Velocity S-wave (km/s) = 3.61432 3.78256 3.69940
# Velocity P-wave (km/s) = 7.13957 7.70420 7.42725
#
# Compressibility (1/GPa) = 0.01396467
#
# Stress axis : x y z
#
# Youngs Moduli (GPa) = 103.14893 48.55528 104.64464
#
# Poissons Ratio (x) = 0.19058 0.28918
# Poissons Ratio (y) = 0.40486 0.65426
# Poissons Ratio (z) = 0.28504 0.30358
#
# Static dielectric constant tensor:
#      x y z
#    x 1.770410 0.000000 0.000000 
#    y 0.000000 1.798580 0.000000 
#    z 0.000000 0.000000 1.763570 
# 
# From -- ./inp_files/11093.got.cif
#   From: 2010.05.17/outbox.cif.g08.bks.cpg/sg46_6_cif.got.tgz:11093.got - 2010.06.03 19:58:25.
