data_PCOD9380828
_publ_section_title
;
Structure prediction by ZEFSAII (Michael W. Deem and Ramdas Pophale) SiO2 
 PCOD9380828
Probable space group: I M A 2
;
_chemical_formula_sum "Si O2"
_cell_formula_units_Z 40
_cell_length_a 8.458460
_cell_length_b 21.485264
_cell_length_c 13.101149
_cell_angle_alpha 90.000000
_cell_angle_beta 90.000000
_cell_angle_gamma 90.000000
_cell_volume 2380.901235
_symmetry_space_group_name_H-M "I M A 2"
_symmetry_group_IT_number 46
_symmetry_cell_setting 'orthorhombic'
loop_
_space_group_symop_operation_xyz
x,y,z
-x,-y,z
1/2-x,y,z
1/2+x,-y,z
1/2+x,1/2+y,1/2+z
1/2-x,1/2-y,1/2+z
-x,1/2+y,1/2+z
x,1/2-y,1/2+z
loop_
_atom_site_type_symbol
_atom_site_label
_atom_site_fract_x
_atom_site_fract_y
_atom_site_fract_z
Si Si1 0.439705 0.429877 0.814780
Si Si2 0.558162 0.838312 0.491098
Si Si3 0.441118 0.199352 0.707962
Si Si4 0.937601 0.335992 0.647697
Si Si5 0.559044 0.803312 0.933773
O O1 0.500000 0.500000 0.814647
O O2 0.250000 0.429820 0.816046
O O3 0.495999 0.391505 0.716244
O O4 0.497841 0.391545 0.914556
O O5 0.750000 0.840911 0.491635
O O6 0.504600 0.839465 0.608998
O O7 0.516468 0.769716 0.448872
O O8 0.250000 0.199094 0.708299
O O9 0.492458 0.270593 0.688890
O O10 0.492903 0.177916 0.820105
O O11 0.750000 0.333921 0.656261
O O12 0.987027 0.339640 0.529113
O O13 0.750000 0.807431 0.940462
#
# Coordination Sequence:
#
# PCOD9380828 Si02
#       5
#     8   8   8   8   8
#     4  11  21  36  53  73 101 137 176 213 251 303
#     4   8  15  28  49  74  98 126 166 208 251 300
#     4   9  16  31  53  75  99 133 170 208 254 306
#     4  11  21  31  46  74 107 135 167 210 258 305
#     4   9  16  30  52  74  99 132 167 208 253 305
#
# _framework density 16.800362
#
# number of rings (size 3 to 8) (size 9 to 14) (size 15 to 20)
#    0.000    2.400    2.000    3.600    0.000    0.800 
#    0.000    1.000    0.000    1.200    0.000    2.800 
#    0.000    0.000    0.000    0.000    0.000    0.000 
#
# Total GULP energy -111485.608917 kJ/mol
# GULP energy per Si atom -5574.280446 kJ/mol
# Density = 1.676212 g / cm^3
# Si number density = 16.800362 Si / 1000 Ang^3
#
#
#
# Elastic Constant Matrix: (Units=GPa)
#
#
# Indices 1 2 3 4 5 6 
#
# 1 16.4441 11.3277 29.8131 0.0000 0.0000 0.0000
# 2 11.3277 91.1465 73.6437 0.0000 0.0000 0.0000
# 3 29.8131 73.6437 190.4094 0.0000 0.0000 0.0000
# 4 0.0000 0.0000 0.0000 18.7547 0.0000 0.0000
# 5 0.0000 0.0000 0.0000 0.0000 8.3102 0.0000
# 6 0.0000 0.0000 0.0000 0.0000 0.0000 20.8807
#
#
#
# Elastic Compliance Matrix: (Units=1/GPa)
#
#
# Indices 1 2 3 4 5 6 
#
# 1 0.084922 0.000275 -0.013403 0.000000 0.000000 0.000000
# 2 0.000275 0.015959 -0.006215 0.000000 0.000000 0.000000
# 3 -0.013403 -0.006215 0.009754 0.000000 0.000000 0.000000
# 4 0.000000 0.000000 0.000000 0.053320 0.000000 0.000000
# 5 0.000000 0.000000 0.000000 0.000000 0.120335 0.000000
# 6 0.000000 0.000000 0.000000 0.000000 0.000000 0.047891
#
#
# Mechanical properties :
#
#
# Convention : Reuss Voigt Hill
#
# Bulk Modulus (GPa) = 13.89874 58.61878 36.25876
# Shear Modulus (GPa) = 12.66300 21.80348 17.23324
#
# Velocity S-wave (km/s) = 2.74840 3.60641 3.20623
# Velocity P-wave (km/s) = 4.28514 7.23247 5.94437
#
# Compressibility (1/GPa) = 0.07194895
#
# Stress axis : x y z
#
# Youngs Moduli (GPa) = 11.77546 62.66021 102.51868
#
# Poissons Ratio (x) = -0.01723 1.37405
# Poissons Ratio (y) = -0.00324 0.63720
# Poissons Ratio (z) = 0.15783 0.38946
#
# Static dielectric constant tensor:
#      x y z
#    x 1.566890 0.000000 0.000000 
#    y 0.000000 1.522180 0.000000 
#    z 0.000000 0.000000 1.613780 
# 
# From -- ./inp_files/9046.got.cif
#   From: 2010.05.17/outbox.cif.g08.bks.cpg/sg46_5_cif.got.tgz:9046.got - 2010.06.03 19:58:25.
