data_PCOD9380254
_publ_section_title
;
Structure prediction by ZEFSAII (Michael W. Deem and Ramdas Pophale) SiO2 
 PCOD9380254
Probable space group: I M A 2
;
_chemical_formula_sum "Si O2"
_cell_formula_units_Z 64
_cell_length_a 24.176369
_cell_length_b 19.770428
_cell_length_c 5.331649
_cell_angle_alpha 90.000000
_cell_angle_beta 90.000000
_cell_angle_gamma 90.000000
_cell_volume 2548.406461
_symmetry_space_group_name_H-M "I M A 2"
_symmetry_group_IT_number 46
_symmetry_cell_setting 'orthorhombic'
loop_
_space_group_symop_operation_xyz
x,y,z
-x,-y,z
1/2-x,y,z
1/2+x,-y,z
1/2+x,1/2+y,1/2+z
1/2-x,1/2-y,1/2+z
-x,1/2+y,1/2+z
x,1/2-y,1/2+z
loop_
_atom_site_type_symbol
_atom_site_label
_atom_site_fract_x
_atom_site_fract_y
_atom_site_fract_z
Si Si1 0.896481 0.034323 0.352010
Si Si2 0.094706 0.408381 0.497696
Si Si3 0.988184 0.076434 0.743712
Si Si4 0.080625 0.278315 0.823196
Si Si5 0.816446 0.287747 0.141886
Si Si6 0.687412 0.398906 0.524697
Si Si7 0.811670 0.537398 0.230026
Si Si8 0.955337 0.279927 0.384094
O O1 0.912343 0.981177 0.134150
O O2 0.949860 0.063749 0.499319
O O3 0.855510 0.990468 0.528069
O O4 0.858080 0.092865 0.238672
O O5 0.051765 0.398638 0.266590
O O6 0.082017 0.352669 0.706777
O O7 0.156270 0.405831 0.387366
O O8 0.959831 0.138717 0.893629
O O9 0.000000 0.000000 0.831135
O O10 0.106094 0.234104 0.595740
O O11 0.016947 0.253677 0.864207
O O12 0.750000 0.296029 0.141158
O O13 0.828036 0.269022 0.855140
O O14 0.834786 0.354642 0.292495
O O15 0.750000 0.377418 0.602480
O O16 0.693644 0.474275 0.418050
O O17 0.750000 0.553428 0.134947
O O18 0.929167 0.243814 0.622917
#
# Coordination Sequence:
#
# PCOD9380254 Si02
#       8
#     8   8   8   8   8   8   8   8
#     4  11  25  40  66  98 138 181 231 288 357 422
#     4  11  24  44  68 104 139 180 231 292 353 428
#     4  12  25  42  66 102 140 179 231 292 350 421
#     4  10  21  39  71  98 134 182 238 274 345 434
#     4   9  18  32  57  90 121 167 230 288 342 407
#     4   9  20  40  63  90 128 175 227 289 353 419
#     4  10  22  43  67  98 134 173 228 290 359 427
#     4  10  22  41  65  93 136 187 233 279 348 427
#
# _framework density 25.11373
#
# number of rings (size 3 to 8) (size 9 to 14) (size 15 to 20)
#    0.000    1.750    3.750    0.375    7.000    2.000 
#    0.000    1.250    0.000    0.750    0.000    0.000 
#    0.000    0.000    0.000    0.000    0.000    0.000 
#
# Total GULP energy -178651.820916 kJ/mol
# GULP energy per Si atom -5582.869404 kJ/mol
# Density = 2.505657 g / cm^3
# Si number density = 25.113730 Si / 1000 Ang^3
#
#
#
# Elastic Constant Matrix: (Units=GPa)
#
#
# Indices 1 2 3 4 5 6 
#
# 1 121.0291 38.8564 58.9112 0.0000 0.0000 0.0000
# 2 38.8564 119.4728 27.4863 0.0000 0.0000 0.0000
# 3 58.9112 27.4863 138.5904 0.0000 0.0000 0.0000
# 4 0.0000 0.0000 0.0000 32.9868 0.0000 0.0000
# 5 0.0000 0.0000 0.0000 0.0000 41.3279 0.0000
# 6 0.0000 0.0000 0.0000 0.0000 0.0000 20.4711
#
#
#
# Elastic Compliance Matrix: (Units=1/GPa)
#
#
# Indices 1 2 3 4 5 6 
#
# 1 0.011172 -0.002662 -0.004221 0.000000 0.000000 0.000000
# 2 -0.002662 0.009405 -0.000734 0.000000 0.000000 0.000000
# 3 -0.004221 -0.000734 0.009155 0.000000 0.000000 0.000000
# 4 0.000000 0.000000 0.000000 0.030315 0.000000 0.000000
# 5 0.000000 0.000000 0.000000 0.000000 0.024197 0.000000
# 6 0.000000 0.000000 0.000000 0.000000 0.000000 0.048849
#
#
# Mechanical properties :
#
#
# Convention : Reuss Voigt Hill
#
# Bulk Modulus (GPa) = 68.97379 69.95556 69.46468
# Shear Modulus (GPa) = 32.64584 35.87972 34.26278
#
# Velocity S-wave (km/s) = 3.60935 3.78390 3.69766
# Velocity P-wave (km/s) = 6.70031 6.85613 6.77867
#
# Compressibility (1/GPa) = 0.01449826
#
# Stress axis : x y z
#
# Youngs Moduli (GPa) = 89.51190 106.32935 109.22833
#
# Poissons Ratio (x) = 0.28309 0.46103
# Poissons Ratio (y) = 0.23831 0.08012
# Poissons Ratio (z) = 0.37781 0.07800
#
# Static dielectric constant tensor:
#      x y z
#    x 2.104260 0.000000 0.000000 
#    y 0.000000 2.055380 0.000000 
#    z 0.000000 0.000000 2.065940 
# 
# From -- ./inp_files/2622.got.cif
#   From: 2010.05.17/outbox.cif.g08.bks.cpg/sg46_2_cif.got.tgz:2622.got - 2010.06.03 19:58:25.
