data_PCOD9380158
_publ_section_title
;
Structure prediction by ZEFSAII (Michael W. Deem and Ramdas Pophale) SiO2 
 PCOD9380158
Probable space group: I M A 2
;
_chemical_formula_sum "Si O2"
_cell_formula_units_Z 48
_cell_length_a 17.980635
_cell_length_b 8.103534
_cell_length_c 14.397327
_cell_angle_alpha 90.000000
_cell_angle_beta 90.000000
_cell_angle_gamma 90.000000
_cell_volume 2097.786820
_symmetry_space_group_name_H-M "I M A 2"
_symmetry_group_IT_number 46
_symmetry_cell_setting 'orthorhombic'
loop_
_space_group_symop_operation_xyz
x,y,z
-x,-y,z
1/2-x,y,z
1/2+x,-y,z
1/2+x,1/2+y,1/2+z
1/2-x,1/2-y,1/2+z
-x,1/2+y,1/2+z
x,1/2-y,1/2+z
loop_
_atom_site_type_symbol
_atom_site_label
_atom_site_fract_x
_atom_site_fract_y
_atom_site_fract_z
Si Si1 0.166038 0.827454 0.857070
Si Si2 0.943452 0.381343 0.095419
Si Si3 0.587331 0.001213 0.393861
Si Si4 0.057684 0.364446 0.638076
Si Si5 0.167524 0.632904 0.579890
Si Si6 0.340518 0.198843 0.792897
O O1 0.250000 0.802160 0.823235
O O2 0.119303 0.661762 0.840873
O O3 0.142456 0.010192 0.823541
O O4 0.168906 0.831068 0.970106
O O5 0.873590 0.282338 0.134100
O O6 0.000000 0.500000 0.150089
O O7 0.002499 0.236429 0.070839
O O8 0.912136 0.472457 0.005296
O O9 0.500000 0.000000 0.374051
O O10 0.633468 0.838635 0.366722
O O11 0.119886 0.469710 0.588355
O O12 0.105919 0.250824 0.707232
O O13 0.000000 0.500000 0.680649
O O14 0.250000 0.609617 0.615003
O O15 0.250000 0.210088 0.777651
#
# Coordination Sequence:
#
# PCOD9380158 Si02
#       6
#     8   8   8   8   8   8
#     4   9  20  38  61  91 124 163 213 265 315 379
#     4   9  20  38  61  88 121 158 213 264 318 380
#     4  10  21  38  63  92 121 159 211 269 321 374
#     4  10  21  40  60  87 129 169 210 260 324 391
#     4   9  18  36  62  88 121 164 211 265 319 375
#     4  11  23  40  63  92 130 172 213 263 331 392
#
# _framework density 22.881257000000002
#
# number of rings (size 3 to 8) (size 9 to 14) (size 15 to 20)
#    0.000    2.333    0.000    1.500    4.667    1.333 
#    9.000    1.667    0.000    0.000    0.000    0.000 
#    0.000    0.000    0.000    0.000    0.000    0.000 
#
# Total GULP energy -133701.974774 kJ/mol
# GULP energy per Si atom -5570.915616 kJ/mol
# Density = 2.282918 g / cm^3
# Si number density = 22.881257 Si / 1000 Ang^3
#
#
#
# Elastic Constant Matrix: (Units=GPa)
#
#
# Indices 1 2 3 4 5 6 
#
# 1 138.2058 54.1131 -13.9055 0.0000 0.0000 0.0000
# 2 54.1131 124.6622 -13.0693 0.0000 0.0000 0.0000
# 3 -13.9055 -13.0693 25.3738 0.0000 0.0000 0.0000
# 4 0.0000 0.0000 0.0000 -1.6981 0.0000 0.0000
# 5 0.0000 0.0000 0.0000 0.0000 21.0646 0.0000
# 6 0.0000 0.0000 0.0000 0.0000 0.0000 52.2001
#
#
#
# Elastic Compliance Matrix: (Units=1/GPa)
#
#
# Indices 1 2 3 4 5 6 
#
# 1 0.008937 -0.003558 0.003065 0.000000 0.000000 0.000000
# 2 -0.003558 0.009896 0.003147 0.000000 0.000000 0.000000
# 3 0.003065 0.003147 0.042712 0.000000 0.000000 0.000000
# 4 0.000000 0.000000 0.000000 -0.588898 0.000000 0.000000
# 5 0.000000 0.000000 0.000000 0.000000 0.047473 0.000000
# 6 0.000000 0.000000 0.000000 0.000000 0.000000 0.019157
#
#
# Mechanical properties :
#
#
# Convention : Reuss Voigt Hill
#
# Bulk Modulus (GPa) = 14.95805 38.05757 26.50781
# Shear Modulus (GPa) = -11.26768 31.72022 10.22627
#
# Velocity S-wave (km/s) = -2.22151 3.72734 2.11636
# Velocity P-wave (km/s) = 0.16941 5.93236 4.19310
#
# Compressibility (1/GPa) = 0.06685363
#
# Stress axis : x y z
#
# Youngs Moduli (GPa) = 111.89310 101.04983 23.41281
#
# Poissons Ratio (x) = 0.35954 -0.07176
# Poissons Ratio (y) = 0.39812 -0.07369
# Poissons Ratio (z) = -0.34297 -0.31803
#
# Static dielectric constant tensor:
#      x y z
#    x 1.830800 0.000000 0.000000 
#    y 0.000000 1.936620 0.000000 
#    z 0.000000 0.000000 1.941840 
# 
# From -- ./inp_files/16537.got.cif
#   From: 2010.05.17/outbox.cif.g08.bks.cpg/sg46_9_cif.got.tgz:16537.got - 2010.06.03 19:58:25.
