data_PCOD9380946
_publ_section_title
;
Structure prediction by ZEFSAII (Michael W. Deem and Ramdas Pophale) SiO2 
 PCOD9380946
Probable space group: I M A 2
;
_chemical_formula_sum "Si O2"
_cell_formula_units_Z 60
_cell_length_a 12.252733
_cell_length_b 25.539930
_cell_length_c 10.109046
_cell_angle_alpha 90.000000
_cell_angle_beta 90.000000
_cell_angle_gamma 90.000000
_cell_volume 3163.463626
_symmetry_space_group_name_H-M "I M A 2"
_symmetry_group_IT_number 46
_symmetry_cell_setting 'orthorhombic'
loop_
_space_group_symop_operation_xyz
x,y,z
-x,-y,z
1/2-x,y,z
1/2+x,-y,z
1/2+x,1/2+y,1/2+z
1/2-x,1/2-y,1/2+z
-x,1/2+y,1/2+z
x,1/2-y,1/2+z
loop_
_atom_site_type_symbol
_atom_site_label
_atom_site_fract_x
_atom_site_fract_y
_atom_site_fract_z
Si Si1 0.380029 0.710478 0.585590
Si Si2 0.007993 0.249205 0.836735
Si Si3 0.750000 0.068442 0.590321
Si Si4 0.119799 0.586603 0.592121
Si Si5 0.452349 0.942805 0.383180
Si Si6 0.374298 0.351915 0.938828
Si Si7 0.626729 0.853458 0.752761
Si Si8 0.449702 0.556565 0.301284
O O1 0.250000 0.715547 0.599601
O O2 0.442002 0.739487 0.703452
O O3 0.421327 0.736350 0.450837
O O4 0.408332 0.648692 0.587649
O O5 0.077834 0.300237 0.871414
O O6 0.085340 0.199057 0.822388
O O7 0.653201 0.067949 0.474242
O O8 0.846426 0.067396 0.706857
O O9 0.250000 0.583230 0.596356
O O10 0.075298 0.562183 0.727563
O O11 0.081073 0.560266 0.456214
O O12 0.545361 0.899984 0.412132
O O13 0.500000 0.000000 0.413276
O O14 0.250000 0.362746 0.895553
O O15 0.372739 0.342858 0.096059
O O16 0.750000 0.867415 0.793557
O O17 0.542063 0.899782 0.777934
O O18 0.500000 0.500000 0.269963
#
# Coordination Sequence:
#
# PCOD9380946 Si02
#       8
#     8   8   4   8   8   8   8   8
#     4  11  24  40  69  99 140 176 224 281 331 406
#     4  12  22  46  64 100 134 181 231 272 346 400
#     4  12  26  44  72 102 134 176 232 284 338 412
#     4  11  23  45  68  99 141 175 220 280 343 405
#     4  12  26  45  71 102 135 179 226 283 344 405
#     4  11  25  43  68  99 134 176 230 284 336 403
#     4  11  25  43  68  99 134 176 230 284 336 403
#     4  12  26  45  71 102 135 179 226 283 344 405
#
# _framework density 18.966553000000001
#
# number of rings (size 3 to 8) (size 9 to 14) (size 15 to 20)
#    0.000    0.533    6.667    1.600    1.867    0.000 
#    4.800    2.000    0.000    0.000    0.000    0.000 
#    0.000    0.000    0.000    0.000    0.000    0.000 
#
# Total GULP energy -167183.489039 kJ/mol
# GULP energy per Si atom -5572.782968 kJ/mol
# Density = 1.892338 g / cm^3
# Si number density = 18.966553 Si / 1000 Ang^3
#
#
#
# Elastic Constant Matrix: (Units=GPa)
#
#
# Indices 1 2 3 4 5 6 
#
# 1 141.8580 67.7732 17.5330 -0.0002 0.0549 -0.0001
# 2 67.7732 119.0256 1.8275 -0.0002 0.0347 0.0000
# 3 17.5330 1.8275 79.5707 -0.0005 0.2427 -0.0002
# 4 -0.0002 -0.0002 -0.0005 11.1060 0.0409 0.0000
# 5 0.0549 0.0347 0.2427 0.040911782.7791 0.0248
# 6 -0.0001 0.0000 -0.0002 0.0000 0.0248 6.9768
#
#
#
# Elastic Compliance Matrix: (Units=1/GPa)
#
#
# Indices 1 2 3 4 5 6 
#
# 1 0.010015 -0.005671 -0.002077 0.000000 0.000000 0.000000
# 2 -0.005671 0.011615 0.000983 0.000000 0.000000 0.000000
# 3 -0.002077 0.000983 0.013002 0.000001 0.000000 0.000000
# 4 0.000000 0.000000 0.000001 0.090041 0.000000 0.000000
# 5 0.000000 0.000000 0.000000 0.000000 0.000085 0.000000
# 6 0.000000 0.000000 0.000000 0.000000 0.000000 0.143333
#
#
# Mechanical properties :
#
#
# Convention : Reuss Voigt Hill
#
# Bulk Modulus (GPa) = 47.38467 57.19132 52.28799
# Shear Modulus (GPa) = 17.32167 2377.06042 1197.19105
#
# Velocity S-wave (km/s) = 3.02532 35.44025 25.15118
# Velocity P-wave (km/s) = 6.10254 41.29045 29.51391
#
# Compressibility (1/GPa) = 0.02110387
#
# Stress axis : x y z
#
# Youngs Moduli (GPa) = 99.84837 86.09258 76.90874
#
# Poissons Ratio (x) = 0.48821 0.15971
# Poissons Ratio (y) = 0.56622 -0.07558
# Poissons Ratio (z) = 0.20734 -0.08461
#
# Static dielectric constant tensor:
#      x y z
#    x 1.413480 0.000000 0.000000 
#    y 0.000000 1.651940 0.000000 
#    z 0.000000 0.000000 1.652220 
# 
# From -- ./inp_files/4903.got.cif
#   From: 2010.05.17/outbox.cif.g08.bks.cpg/sg46_3_cif.got.tgz:4903.got - 2010.06.03 19:58:25.
