data_PCOD9380156
_publ_section_title
;
Structure prediction by ZEFSAII (Michael W. Deem and Ramdas Pophale) SiO2 
 PCOD9380156
Probable space group: I M A 2
;
_chemical_formula_sum "Si O2"
_cell_formula_units_Z 52
_cell_length_a 7.863526
_cell_length_b 23.027447
_cell_length_c 13.508647
_cell_angle_alpha 90.000000
_cell_angle_beta 90.000000
_cell_angle_gamma 90.000000
_cell_volume 2446.104303
_symmetry_space_group_name_H-M "I M A 2"
_symmetry_group_IT_number 46
_symmetry_cell_setting 'orthorhombic'
loop_
_space_group_symop_operation_xyz
x,y,z
-x,-y,z
1/2-x,y,z
1/2+x,-y,z
1/2+x,1/2+y,1/2+z
1/2-x,1/2-y,1/2+z
-x,1/2+y,1/2+z
x,1/2-y,1/2+z
loop_
_atom_site_type_symbol
_atom_site_label
_atom_site_fract_x
_atom_site_fract_y
_atom_site_fract_z
Si Si1 0.946041 0.732385 0.161930
Si Si2 0.451531 0.067372 0.995588
Si Si3 0.542025 0.634041 0.695138
Si Si4 0.750000 0.856746 0.431258
Si Si5 0.555493 0.340913 0.342580
Si Si6 0.945105 0.433641 0.890765
Si Si7 0.562356 0.223364 0.449556
O O1 0.750000 0.735810 0.126991
O O2 0.999705 0.797532 0.192285
O O3 0.956796 0.686225 0.249996
O O4 0.051924 0.713757 0.066800
O O5 0.250000 0.071372 0.998602
O O6 0.508245 0.099316 0.895210
O O7 0.500000 0.000000 0.000612
O O8 0.510241 0.103294 0.092436
O O9 0.750000 0.629388 0.710127
O O10 0.460285 0.598478 0.784483
O O11 0.595295 0.903623 0.453846
O O12 0.599742 0.808851 0.405868
O O13 0.750000 0.343691 0.310014
O O14 0.541271 0.291373 0.426861
O O15 0.750000 0.429654 0.926656
O O16 0.000000 0.500000 0.876511
O O17 0.750000 0.206331 0.411798
#
# Coordination Sequence:
#
# PCOD9380156 Si02
#       7
#     8   8   8   4   8   8   8
#     4  11  22  39  67  97 136 176 218 278 342 403
#     4  11  23  40  64  93 132 182 225 278 339 406
#     4  10  21  38  62  95 137 179 223 275 337 407
#     4  12  24  42  66  94 134 176 222 278 342 396
#     4  11  24  40  63  97 134 175 224 277 339 410
#     4  12  24  41  65  96 135 184 230 278 334 411
#     4  11  24  42  66 100 136 171 224 281 343 408
#
# _framework density 21.258291
#
# number of rings (size 3 to 8) (size 9 to 14) (size 15 to 20)
#    0.000    0.923    3.846    3.231    4.308    4.923 
#    0.000    0.000    0.000    0.923    4.000    0.000 
#    0.000    0.000    0.000    0.000    0.000    0.000 
#
# Total GULP energy -144771.886551 kJ/mol
# GULP energy per Si atom -5568.149483 kJ/mol
# Density = 2.120991 g / cm^3
# Si number density = 21.258291 Si / 1000 Ang^3
#
#
#
# Elastic Constant Matrix: (Units=GPa)
#
#
# Indices 1 2 3 4 5 6 
#
# 1 144.3412 36.5637 10.0558 0.0000 0.0000 0.0000
# 2 36.5637 93.2603 5.5605 0.0000 0.0000 0.0000
# 3 10.0558 5.5605 57.6056 -0.0001 0.0000 0.0000
# 4 0.0000 0.0000 -0.0001 26.1607 0.0000 0.0000
# 5 0.0000 0.0000 0.0000 0.0000 32.7227 0.0000
# 6 0.0000 0.0000 0.0000 0.0000 0.0000 38.1603
#
#
#
# Elastic Compliance Matrix: (Units=1/GPa)
#
#
# Indices 1 2 3 4 5 6 
#
# 1 0.007757 -0.002977 -0.001067 0.000000 0.000000 0.000000
# 2 -0.002977 0.011928 -0.000632 0.000000 0.000000 0.000000
# 3 -0.001067 -0.000632 0.017607 0.000000 0.000000 0.000000
# 4 0.000000 0.000000 0.000000 0.038225 0.000000 0.000000
# 5 0.000000 0.000000 0.000000 0.000000 0.030560 0.000000
# 6 0.000000 0.000000 0.000000 0.000000 0.000000 0.026205
#
#
# Mechanical properties :
#
#
# Convention : Reuss Voigt Hill
#
# Bulk Modulus (GPa) = 35.79159 44.39636 40.09397
# Shear Modulus (GPa) = 33.12448 35.61051 34.36750
#
# Velocity S-wave (km/s) = 3.95168 4.09728 4.02514
# Velocity P-wave (km/s) = 6.13955 6.58128 6.36425
#
# Compressibility (1/GPa) = 0.02793952
#
# Stress axis : x y z
#
# Youngs Moduli (GPa) = 128.92293 83.83859 56.79692
#
# Poissons Ratio (x) = 0.24963 0.06058
# Poissons Ratio (y) = 0.38386 0.03587
# Poissons Ratio (z) = 0.13751 0.05295
#
# Static dielectric constant tensor:
#      x y z
#    x 1.779860 0.000000 0.000000 
#    y 0.000000 1.767960 0.000000 
#    z 0.000000 0.000000 1.855180 
# 
# From -- ./inp_files/14070.got.cif
#   From: 2010.05.17/outbox.cif.g08.bks.cpg/sg46_8_cif.got.tgz:14070.got - 2010.06.03 19:58:25.
