data_PCOD9380186
_publ_section_title
;
Structure prediction by ZEFSAII (Michael W. Deem and Ramdas Pophale) SiO2 
 PCOD9380186
Probable space group: I M A 2
;
_chemical_formula_sum "Si O2"
_cell_formula_units_Z 64
_cell_length_a 11.479720
_cell_length_b 26.146873
_cell_length_c 10.405206
_cell_angle_alpha 90.000000
_cell_angle_beta 90.000000
_cell_angle_gamma 90.000000
_cell_volume 3123.213948
_symmetry_space_group_name_H-M "I M A 2"
_symmetry_group_IT_number 46
_symmetry_cell_setting 'orthorhombic'
loop_
_space_group_symop_operation_xyz
x,y,z
-x,-y,z
1/2-x,y,z
1/2+x,-y,z
1/2+x,1/2+y,1/2+z
1/2-x,1/2-y,1/2+z
-x,1/2+y,1/2+z
x,1/2-y,1/2+z
loop_
_atom_site_type_symbol
_atom_site_label
_atom_site_fract_x
_atom_site_fract_y
_atom_site_fract_z
Si Si1 0.626152 0.346673 0.447010
Si Si2 0.115761 0.404557 0.191680
Si Si3 0.622136 0.971895 0.438447
Si Si4 0.619981 0.612706 0.716772
Si Si5 0.510884 0.740800 0.346680
Si Si6 0.981964 0.560296 0.465539
Si Si7 0.614251 0.795475 0.595198
Si Si8 0.377327 0.826420 0.238080
O O1 0.750000 0.341332 0.379990
O O2 0.523001 0.317411 0.377234
O O3 0.599360 0.405910 0.473178
O O4 0.630333 0.319918 0.585324
O O5 0.250000 0.392326 0.224273
O O6 0.062473 0.427257 0.321909
O O7 0.066248 0.352263 0.128164
O O8 0.114191 0.446132 0.078555
O O9 0.750000 0.999294 0.432089
O O10 0.626857 0.928848 0.329107
O O11 0.500000 0.000000 0.416772
O O12 0.750000 0.638039 0.711693
O O13 0.596385 0.584959 0.579363
O O14 0.502289 0.644505 0.751446
O O15 0.560799 0.768113 0.471816
O O16 0.592885 0.738484 0.222233
O O17 0.397045 0.772703 0.307234
O O18 0.000000 0.500000 0.484319
O O19 0.750000 0.801157 0.568235
O O20 0.250000 0.849099 0.277196
#
# Coordination Sequence:
#
# PCOD9380186 Si02
#       8
#     8   8   8   8   8   8   8   8
#     4  10  22  40  60  88 126 167 213 265 317 380
#     4  10  21  39  59  87 128 165 206 262 318 380
#     4  10  21  39  62  87 123 165 209 263 321 380
#     4  10  22  40  64  95 127 166 215 268 322 381
#     4  12  21  42  63  93 128 171 214 263 318 387
#     4  11  22  39  64  92 123 165 215 270 325 385
#     4  11  24  39  63  95 130 169 213 264 321 387
#     4  10  22  40  64  93 129 172 212 259 319 386
#
# _framework density 20.491712
#
# number of rings (size 3 to 8) (size 9 to 14) (size 15 to 20)
#    0.000    1.500    2.500    2.625    0.000    3.500 
#    0.000    3.125    0.000    0.000    0.000    0.000 
#    0.000    0.000    0.000    0.000    0.000    0.000 
#
# Total GULP energy -178240.543978 kJ/mol
# GULP energy per Si atom -5570.016999 kJ/mol
# Density = 2.044507 g / cm^3
# Si number density = 20.491712 Si / 1000 Ang^3
#
#
#
# Elastic Constant Matrix: (Units=GPa)
#
#
# Indices 1 2 3 4 5 6 
#
# 1 104.6563 26.1294 -5.8527 0.0001 0.0000 0.0000
# 2 26.1294 65.7136 -4.4356 0.0001 0.0000 0.0000
# 3 -5.8527 -4.4356 61.6078 -0.0001 0.0001 0.0007
# 4 0.0001 0.0001 -0.0001 22.4516 -0.0001 0.0001
# 5 0.0000 0.0000 0.0001 -0.0001 -15.7569 0.0003
# 6 0.0000 0.0000 0.0007 0.0001 0.0003 19.0888
#
#
#
# Elastic Compliance Matrix: (Units=1/GPa)
#
#
# Indices 1 2 3 4 5 6 
#
# 1 0.010639 -0.004182 0.000710 0.000000 0.000000 0.000000
# 2 -0.004182 0.016936 0.000822 0.000000 0.000000 0.000000
# 3 0.000710 0.000822 0.016358 0.000000 0.000000 -0.000001
# 4 0.000000 0.000000 0.000000 0.044540 0.000000 0.000000
# 5 0.000000 0.000000 0.000000 0.000000 -0.063464 0.000001
# 6 0.000000 0.000000 -0.000001 0.000000 0.000001 0.052387
#
#
# Mechanical properties :
#
#
# Convention : Reuss Voigt Hill
#
# Bulk Modulus (GPa) = 25.88549 29.29554 27.59051
# Shear Modulus (GPa) = 52.31499 19.56582 35.94040
#
# Velocity S-wave (km/s) = 5.05819 3.09336 4.19250
# Velocity P-wave (km/s) = 6.83910 5.20441 6.07697
#
# Compressibility (1/GPa) = 0.03863169
#
# Stress axis : x y z
#
# Youngs Moduli (GPa) = 93.99393 59.04557 61.13106
#
# Poissons Ratio (x) = 0.24695 -0.04338
# Poissons Ratio (y) = 0.39312 -0.05025
# Poissons Ratio (z) = -0.06670 -0.04854
#
# Static dielectric constant tensor:
#      x y z
#    x 1.797100 0.000000 0.000000 
#    y 0.000000 1.771170 0.000000 
#    z 0.000000 0.000000 1.709980 
# 
# From -- ./inp_files/10552.got.cif
#   From: 2010.05.17/outbox.cif.g08.bks.cpg/sg46_6_cif.got.tgz:10552.got - 2010.06.03 19:58:25.
