data_PCOD9380755
_publ_section_title
;
Structure prediction by ZEFSAII (Michael W. Deem and Ramdas Pophale) SiO2 
 PCOD9380755
Probable space group: I M A 2
;
_chemical_formula_sum "Si O2"
_cell_formula_units_Z 40
_cell_length_a 14.198257
_cell_length_b 16.002402
_cell_length_c 7.730952
_cell_angle_alpha 90.000000
_cell_angle_beta 90.000000
_cell_angle_gamma 90.000000
_cell_volume 1756.520352
_symmetry_space_group_name_H-M "I M A 2"
_symmetry_group_IT_number 46
_symmetry_cell_setting 'orthorhombic'
loop_
_space_group_symop_operation_xyz
x,y,z
-x,-y,z
1/2-x,y,z
1/2+x,-y,z
1/2+x,1/2+y,1/2+z
1/2-x,1/2-y,1/2+z
-x,1/2+y,1/2+z
x,1/2-y,1/2+z
loop_
_atom_site_type_symbol
_atom_site_label
_atom_site_fract_x
_atom_site_fract_y
_atom_site_fract_z
Si Si1 0.459821 0.272953 0.115780
Si Si2 0.048570 0.584901 0.289720
Si Si3 0.362304 0.130461 0.307647
Si Si4 0.357615 0.675993 0.589323
Si Si5 0.862655 0.055668 0.411228
O O1 0.473624 0.339491 0.271005
O O2 0.410656 0.185760 0.160771
O O3 0.567439 0.249698 0.070186
O O4 0.399233 0.322398 0.977491
O O5 0.126147 0.615263 0.426135
O O6 0.000000 0.500000 0.350621
O O7 0.087981 0.567981 0.096135
O O8 0.250000 0.134625 0.291647
O O9 0.389927 0.033842 0.328362
O O10 0.250000 0.705511 0.595092
O O11 0.379899 0.626171 0.766335
O O12 0.750000 0.053627 0.440801
#
# Coordination Sequence:
#
# PCOD9380755 Si02
#       5
#     8   8   8   8   8
#     4  12  24  44  68 101 138 181 224 284 347 404
#     4  12  25  43  70 100 140 178 229 282 339 412
#     4  11  24  45  70 100 136 178 230 285 344 407
#     4  11  27  46  70 105 141 181 230 282 346 415
#     4  10  24  46  71  96 134 183 225 279 342 405
#
# _framework density 22.772296000000001
#
# number of rings (size 3 to 8) (size 9 to 14) (size 15 to 20)
#    0.000    0.800    4.000    2.400    2.800    1.600 
#    0.000    0.000    0.000    0.000    0.000    0.000 
#    0.000    0.000    0.000    0.000    0.000    0.000 
#
# Total GULP energy -111963.505113 kJ/mol
# GULP energy per Si atom -5598.175256 kJ/mol
# Density = 2.272046 g / cm^3
# Si number density = 22.772296 Si / 1000 Ang^3
#
#
#
# Elastic Constant Matrix: (Units=GPa)
#
#
# Indices 1 2 3 4 5 6 
#
# 1 106.5516 45.1605 17.0816 0.0000 0.0000 0.0000
# 2 45.1605 116.0798 10.8440 0.0000 0.0000 0.0000
# 3 17.0816 10.8440 82.9243 0.0000 0.0000 0.0000
# 4 0.0000 0.0000 0.0000 28.1193 0.0000 0.0000
# 5 0.0000 0.0000 0.0000 0.0000 38.6541 0.0000
# 6 0.0000 0.0000 0.0000 0.0000 0.0000 36.1390
#
#
#
# Elastic Compliance Matrix: (Units=1/GPa)
#
#
# Indices 1 2 3 4 5 6 
#
# 1 0.011499 -0.004305 -0.001806 0.000000 0.000000 0.000000
# 2 -0.004305 0.010333 -0.000464 0.000000 0.000000 0.000000
# 3 -0.001806 -0.000464 0.012492 0.000000 0.000000 0.000000
# 4 0.000000 0.000000 0.000000 0.035563 0.000000 0.000000
# 5 0.000000 0.000000 0.000000 0.000000 0.025870 0.000000
# 6 0.000000 0.000000 0.000000 0.000000 0.000000 0.027671
#
#
# Mechanical properties :
#
#
# Convention : Reuss Voigt Hill
#
# Bulk Modulus (GPa) = 47.22855 50.19199 48.71027
# Shear Modulus (GPa) = 34.81002 36.08044 35.44523
#
# Velocity S-wave (km/s) = 3.91399 3.98477 3.94954
# Velocity P-wave (km/s) = 6.41952 6.57722 6.49885
#
# Compressibility (1/GPa) = 0.02117363
#
# Stress axis : x y z
#
# Youngs Moduli (GPa) = 86.96216 96.77713 80.05190
#
# Poissons Ratio (x) = 0.41663 0.14455
# Poissons Ratio (y) = 0.37438 0.03718
# Poissons Ratio (z) = 0.15703 0.04495
#
# Static dielectric constant tensor:
#      x y z
#    x 1.816700 0.000000 0.000000 
#    y 0.000000 1.851740 0.000000 
#    z 0.000000 0.000000 1.879350 
# 
# From -- ./inp_files/5396.got.cif
#   From: 2010.05.17/outbox.cif.g08.bks.cpg/sg46_3_cif.got.tgz:5396.got - 2010.06.03 19:58:25.
