data_PCOD9380380
_publ_section_title
;
Structure prediction by ZEFSAII (Michael W. Deem and Ramdas Pophale) SiO2 
 PCOD9380380
Probable space group: I M A 2
;
_chemical_formula_sum "Si O2"
_cell_formula_units_Z 48
_cell_length_a 27.148656
_cell_length_b 8.738741
_cell_length_c 10.007289
_cell_angle_alpha 90.000000
_cell_angle_beta 90.000000
_cell_angle_gamma 90.000000
_cell_volume 2374.180012
_symmetry_space_group_name_H-M "I M A 2"
_symmetry_group_IT_number 46
_symmetry_cell_setting 'orthorhombic'
loop_
_space_group_symop_operation_xyz
x,y,z
-x,-y,z
1/2-x,y,z
1/2+x,-y,z
1/2+x,1/2+y,1/2+z
1/2-x,1/2-y,1/2+z
-x,1/2+y,1/2+z
x,1/2-y,1/2+z
loop_
_atom_site_type_symbol
_atom_site_label
_atom_site_fract_x
_atom_site_fract_y
_atom_site_fract_z
Si Si1 0.853127 0.588368 0.823760
Si Si2 0.250000 0.119293 0.975741
Si Si3 0.591614 0.294643 0.856418
Si Si4 0.050636 0.909567 0.634009
Si Si5 0.694357 0.386856 0.320825
Si Si6 0.250000 0.404754 0.777034
Si Si7 0.643775 0.617866 0.136052
O O1 0.896180 0.466067 0.805991
O O2 0.800557 0.507563 0.798140
O O3 0.854226 0.729699 0.723260
O O4 0.852077 0.642127 0.977811
O O5 0.250000 0.264059 0.879949
O O6 0.203810 0.010623 0.939251
O O7 0.250000 0.162908 0.128431
O O8 0.554870 0.203945 0.759846
O O9 0.645389 0.210104 0.853675
O O10 0.568949 0.316561 0.003377
O O11 0.091406 0.038994 0.659261
O O12 0.000000 0.000000 0.614899
O O13 0.750000 0.318613 0.305054
O O14 0.682424 0.491389 0.190742
#
# Coordination Sequence:
#
# PCOD9380380 Si02
#       7
#     8   4   8   8   8   4   8
#     4  11  23  36  60  93 129 169 219 262 312 390
#     4  10  22  33  56  86 132 174 223 250 320 382
#     4  10  24  42  67  99 130 165 224 270 330 405
#     4  10  24  47  69  93 130 166 214 282 340 388
#     4   9  20  38  61  86 136 175 210 267 324 388
#     4  12  22  31  56  92 128 178 215 250 310 388
#     4  10  22  40  60  92 130 171 216 268 321 391
#
# _framework density 20.217507000000001
#
# number of rings (size 3 to 8) (size 9 to 14) (size 15 to 20)
#    0.500    1.333    1.667    1.000    4.667    4.000 
#    0.000    1.667    0.000    0.000    0.000    0.000 
#    0.000    0.000    0.000    0.000    0.000    0.000 
#
# Total GULP energy -133834.627165 kJ/mol
# GULP energy per Si atom -5576.442799 kJ/mol
# Density = 2.017149 g / cm^3
# Si number density = 20.217507 Si / 1000 Ang^3
#
#
#
# Elastic Constant Matrix: (Units=GPa)
#
#
# Indices 1 2 3 4 5 6 
#
# 1 88.1174 41.4949 36.1763 0.0000 0.0000 0.0000
# 2 41.4949 75.5989 45.1989 0.0000 0.0000 0.0000
# 3 36.1763 45.1989 63.2905 0.0000 0.0000 0.0000
# 4 0.0000 0.0000 0.0000 25.7099 0.0000 0.0000
# 5 0.0000 0.0000 0.0000 0.0000 17.5930 0.0000
# 6 0.0000 0.0000 0.0000 0.0000 0.0000 28.5637
#
#
#
# Elastic Compliance Matrix: (Units=1/GPa)
#
#
# Indices 1 2 3 4 5 6 
#
# 1 0.016187 -0.005851 -0.005074 0.000000 0.000000 0.000000
# 2 -0.005851 0.025199 -0.014651 0.000000 0.000000 0.000000
# 3 -0.005074 -0.014651 0.029163 0.000000 0.000000 0.000000
# 4 0.000000 0.000000 0.000000 0.038896 0.000000 0.000000
# 5 0.000000 0.000000 0.000000 0.000000 0.056841 0.000000
# 6 0.000000 0.000000 0.000000 0.000000 0.000000 0.035009
#
#
# Mechanical properties :
#
#
# Convention : Reuss Voigt Hill
#
# Bulk Modulus (GPa) = 51.55459 52.52744 52.04101
# Shear Modulus (GPa) = 19.31147 21.31575 20.31361
#
# Velocity S-wave (km/s) = 3.09396 3.25055 3.17322
# Velocity P-wave (km/s) = 6.19022 6.33449 6.26277
#
# Compressibility (1/GPa) = 0.01939692
#
# Stress axis : x y z
#
# Youngs Moduli (GPa) = 61.77863 39.68395 34.28949
#
# Poissons Ratio (x) = 0.23220 0.17397
# Poissons Ratio (y) = 0.36148 0.50239
# Poissons Ratio (z) = 0.31344 0.58142
#
# Static dielectric constant tensor:
#      x y z
#    x 1.745950 0.000000 0.000000 
#    y 0.000000 1.729220 0.000000 
#    z 0.000000 0.000000 1.705680 
# 
# From -- ./inp_files/8422.got.cif
#   From: 2010.05.17/outbox.cif.g08.bks.cpg/sg46_5_cif.got.tgz:8422.got - 2010.06.03 19:58:25.
