data_PCOD9380960
_publ_section_title
;
Structure prediction by ZEFSAII (Michael W. Deem and Ramdas Pophale) SiO2 
 PCOD9380960
Probable space group: I M A 2
;
_chemical_formula_sum "Si O2"
_cell_formula_units_Z 64
_cell_length_a 18.732254
_cell_length_b 11.606188
_cell_length_c 14.685227
_cell_angle_alpha 90.000000
_cell_angle_beta 90.000000
_cell_angle_gamma 90.000000
_cell_volume 3192.716107
_symmetry_space_group_name_H-M "I M A 2"
_symmetry_group_IT_number 46
_symmetry_cell_setting 'orthorhombic'
loop_
_space_group_symop_operation_xyz
x,y,z
-x,-y,z
1/2-x,y,z
1/2+x,-y,z
1/2+x,1/2+y,1/2+z
1/2-x,1/2-y,1/2+z
-x,1/2+y,1/2+z
x,1/2-y,1/2+z
loop_
_atom_site_type_symbol
_atom_site_label
_atom_site_fract_x
_atom_site_fract_y
_atom_site_fract_z
Si Si1 0.579121 0.261893 0.475000
Si Si2 0.573754 0.066123 0.332214
Si Si3 0.334582 0.157001 0.300134
Si Si4 0.603221 0.681265 0.153133
Si Si5 0.669436 0.041340 0.732715
Si Si6 0.555632 0.231325 0.690158
Si Si7 0.083863 0.209098 0.959893
Si Si8 0.668915 0.487301 0.444258
O O1 0.595412 0.146903 0.417317
O O2 0.571923 0.244489 0.583062
O O3 0.500385 0.300659 0.440518
O O4 0.636586 0.361396 0.459543
O O5 0.559218 0.150068 0.246374
O O6 0.500000 0.000000 0.354787
O O7 0.631974 0.970145 0.307506
O O8 0.250000 0.156833 0.314283
O O9 0.353840 0.218201 0.204874
O O10 0.374011 0.233483 0.376857
O O11 0.642155 0.560973 0.168962
O O12 0.523978 0.680027 0.196504
O O13 0.593827 0.710525 0.047720
O O14 0.750000 0.077060 0.709038
O O15 0.614564 0.145833 0.729465
O O16 0.670296 0.994046 0.835465
O O17 0.117492 0.085398 0.982766
O O18 0.750000 0.496927 0.478636
#
# Coordination Sequence:
#
# PCOD9380960 Si02
#       8
#     8   8   8   8   8   8   8   8
#     4  11  25  43  71  98 129 176 227 271 328 398
#     4  12  24  45  67  94 137 178 216 274 327 392
#     4  12  26  43  67  97 131 174 218 274 339 399
#     4  11  24  43  69  99 131 171 224 277 330 395
#     4  11  24  42  66  98 135 172 218 272 332 396
#     4  11  25  43  71  98 129 176 227 271 328 398
#     4  11  24  43  69  99 131 171 224 277 330 395
#     4  11  24  42  66  98 135 172 218 272 332 396
#
# _framework density 20.045628000000001
#
# number of rings (size 3 to 8) (size 9 to 14) (size 15 to 20)
#    0.000    0.750    5.000    1.500    3.500    4.500 
#    0.000    0.000    0.000    0.000    0.000    0.000 
#    0.000    0.000    0.000    0.000    0.000    0.000 
#
# Total GULP energy -178984.641858 kJ/mol
# GULP energy per Si atom -5593.270058 kJ/mol
# Density = 2.000000 g / cm^3
# Si number density = 20.045628 Si / 1000 Ang^3
#
#
#
# Elastic Constant Matrix: (Units=GPa)
#
#
# Indices 1 2 3 4 5 6 
#
# 1 90.1017 16.4043 -19.7736 0.0000 0.0000 0.0000
# 2 16.4043 60.0161 -21.0623 0.0000 0.0000 0.0000
# 3 -19.7736 -21.0623 42.0245 0.0000 0.0000 0.0000
# 4 0.0000 0.0000 0.0000 23.7308 0.0000 0.0000
# 5 0.0000 0.0000 0.0000 0.0000 21.6363 0.0000
# 6 0.0000 0.0000 0.0000 0.0000 0.0000 12.6092
#
#
#
# Elastic Compliance Matrix: (Units=1/GPa)
#
#
# Indices 1 2 3 4 5 6 
#
# 1 0.012509 -0.001642 0.005062 0.000000 0.000000 0.000000
# 2 -0.001642 0.020434 0.009469 0.000000 0.000000 0.000000
# 3 0.005062 0.009469 0.030923 0.000000 0.000000 0.000000
# 4 0.000000 0.000000 0.000000 0.042139 0.000000 0.000000
# 5 0.000000 0.000000 0.000000 0.000000 0.046219 0.000000
# 6 0.000000 0.000000 0.000000 0.000000 0.000000 0.079307
#
#
# Mechanical properties :
#
#
# Convention : Reuss Voigt Hill
#
# Bulk Modulus (GPa) = 11.15533 15.91991 13.53762
# Shear Modulus (GPa) = 21.21926 26.03351 23.62639
#
# Velocity S-wave (km/s) = 3.25706 3.60767 3.43684
# Velocity P-wave (km/s) = 4.44091 5.03119 4.74523
#
# Compressibility (1/GPa) = 0.08964325
#
# Stress axis : x y z
#
# Youngs Moduli (GPa) = 79.94510 48.93793 32.33816
#
# Poissons Ratio (x) = 0.08037 -0.16371
# Poissons Ratio (y) = 0.13130 -0.30620
# Poissons Ratio (z) = -0.40472 -0.46337
#
# Static dielectric constant tensor:
#      x y z
#    x 1.690440 0.000000 0.000000 
#    y 0.000000 1.684870 0.000000 
#    z 0.000000 0.000000 1.710250 
# 
# From -- ./inp_files/16745.got.cif
#   From: 2010.05.17/outbox.cif.g08.bks.cpg/sg46_9_cif.got.tgz:16745.got - 2010.06.03 19:58:25.
