data_PCOD9380323
_publ_section_title
;
Structure prediction by ZEFSAII (Michael W. Deem and Ramdas Pophale) SiO2 
 PCOD9380323
Probable space group: I M A 2
;
_chemical_formula_sum "Si O2"
_cell_formula_units_Z 56
_cell_length_a 15.540797
_cell_length_b 5.572718
_cell_length_c 28.788791
_cell_angle_alpha 90.000000
_cell_angle_beta 90.000000
_cell_angle_gamma 90.000000
_cell_volume 2493.238251
_symmetry_space_group_name_H-M "I M A 2"
_symmetry_group_IT_number 46
_symmetry_cell_setting 'orthorhombic'
loop_
_space_group_symop_operation_xyz
x,y,z
-x,-y,z
1/2-x,y,z
1/2+x,-y,z
1/2+x,1/2+y,1/2+z
1/2-x,1/2-y,1/2+z
-x,1/2+y,1/2+z
x,1/2-y,1/2+z
loop_
_atom_site_type_symbol
_atom_site_label
_atom_site_fract_x
_atom_site_fract_y
_atom_site_fract_z
Si Si1 0.344772 0.783122 0.762070
Si Si2 0.848718 0.535791 0.446054
Si Si3 0.098126 0.539141 0.991887
Si Si4 0.500000 0.000000 0.100080
Si Si5 0.154925 0.191870 0.579100
Si Si6 0.410395 0.605779 0.164582
Si Si7 0.903093 0.896237 0.842958
Si Si8 0.000000 0.500000 0.804244
O O1 0.250000 0.671133 0.771497
O O2 0.350233 0.841732 0.707817
O O3 0.434833 0.646575 0.771688
O O4 0.354435 0.006791 0.797628
O O5 0.750000 0.514449 0.459924
O O6 0.892371 0.296675 0.467095
O O7 0.858768 0.532702 0.390435
O O8 0.877884 0.802017 0.461823
O O9 0.000000 0.500000 0.004586
O O10 0.150755 0.511701 0.039550
O O11 0.426377 0.133629 0.070642
O O12 0.555679 0.174684 0.133127
O O13 0.250000 0.303350 0.578401
O O14 0.134564 0.076864 0.629013
O O15 0.500000 0.500000 0.183876
O O16 0.927832 0.620093 0.837146
O O17 0.000000 0.000000 0.843167
#
# Coordination Sequence:
#
# PCOD9380323 Si02
#       8
#     8   8   8   4   8   8   8   4
#     4  11  23  40  66  98 136 183 233 291 354 424
#     4  12  27  46  73 107 143 185 241 302 360 433
#     4  12  27  48  73 104 143 193 240 296 370 432
#     4  10  23  42  68 100 132 186 228 292 353 430
#     4  11  25  44  69 101 138 181 233 293 356 428
#     4  10  21  41  66  95 137 180 230 287 357 426
#     4  10  23  43  67  96 132 180 226 288 355 422
#     4  10  23  42  68  98 138 182 232 288 355 428
#
# _framework density 22.460749
#
# number of rings (size 3 to 8) (size 9 to 14) (size 15 to 20)
#    0.000    1.143    0.000    6.429    9.000    3.429 
#    0.000    0.000    0.000    0.000    0.000    0.000 
#    0.000    0.000    0.000    0.000    0.000    0.000 
#
# Total GULP energy -156236.741413 kJ/mol
# GULP energy per Si atom -5579.883622 kJ/mol
# Density = 2.240963 g / cm^3
# Si number density = 22.460749 Si / 1000 Ang^3
#
#
#
# Elastic Constant Matrix: (Units=GPa)
#
#
# Indices 1 2 3 4 5 6 
#
# 1 133.1828 27.8010 32.7158 0.0000 0.0000 0.0000
# 2 27.8010 73.2185 30.9466 0.0000 0.0000 0.0000
# 3 32.7158 30.9466 80.7979 0.0000 0.0000 0.0000
# 4 0.0000 0.0000 0.0000 18.9368 0.0000 0.0000
# 5 0.0000 0.0000 0.0000 0.0000 54.5331 0.0000
# 6 0.0000 0.0000 0.0000 0.0000 0.0000 20.5571
#
#
#
# Elastic Compliance Matrix: (Units=1/GPa)
#
#
# Indices 1 2 3 4 5 6 
#
# 1 0.008611 -0.002143 -0.002666 0.000000 0.000000 0.000000
# 2 -0.002143 0.016829 -0.005578 0.000000 0.000000 0.000000
# 3 -0.002666 -0.005578 0.015592 0.000000 0.000000 0.000000
# 4 0.000000 0.000000 0.000000 0.052807 0.000000 0.000000
# 5 0.000000 0.000000 0.000000 0.000000 0.018337 0.000000
# 6 0.000000 0.000000 0.000000 0.000000 0.000000 0.048645
#
#
# Mechanical properties :
#
#
# Convention : Reuss Voigt Hill
#
# Bulk Modulus (GPa) = 49.36135 52.23623 50.79879
# Shear Modulus (GPa) = 26.54662 31.85445 29.20054
#
# Velocity S-wave (km/s) = 3.44162 3.77002 3.60956
# Velocity P-wave (km/s) = 6.14959 6.50061 6.32753
#
# Compressibility (1/GPa) = 0.02025877
#
# Stress axis : x y z
#
# Youngs Moduli (GPa) = 116.13588 59.42133 64.13349
#
# Poissons Ratio (x) = 0.12732 0.17097
# Poissons Ratio (y) = 0.24884 0.35774
# Poissons Ratio (z) = 0.30960 0.33146
#
# Static dielectric constant tensor:
#      x y z
#    x 1.768930 0.000000 0.000000 
#    y 0.000000 2.289460 0.000000 
#    z 0.000000 0.000000 1.807930 
# 
# From -- ./inp_files/25415.got.cif
#   From: 2010.05.17/outbox.cif.g08.bks.cpg/sg46_13_cif.got.tgz:25415.got - 2010.06.03 19:58:25.
