data_PCOD9380450
_publ_section_title
;
Structure prediction by ZEFSAII (Michael W. Deem and Ramdas Pophale) SiO2 
 PCOD9380450
Probable space group: I M A 2
;
_chemical_formula_sum "Si O2"
_cell_formula_units_Z 40
_cell_length_a 26.538640
_cell_length_b 14.090785
_cell_length_c 5.263385
_cell_angle_alpha 90.000000
_cell_angle_beta 90.000000
_cell_angle_gamma 90.000000
_cell_volume 1968.244244
_symmetry_space_group_name_H-M "I M A 2"
_symmetry_group_IT_number 46
_symmetry_cell_setting 'orthorhombic'
loop_
_space_group_symop_operation_xyz
x,y,z
-x,-y,z
1/2-x,y,z
1/2+x,-y,z
1/2+x,1/2+y,1/2+z
1/2-x,1/2-y,1/2+z
-x,1/2+y,1/2+z
x,1/2-y,1/2+z
loop_
_atom_site_type_symbol
_atom_site_label
_atom_site_fract_x
_atom_site_fract_y
_atom_site_fract_z
Si Si1 0.374153 0.522660 0.658870
Si Si2 0.308600 0.210233 0.822896
Si Si3 0.573828 0.815285 0.125674
Si Si4 0.545359 0.188289 0.131854
Si Si5 0.690701 0.007395 0.666095
O O1 0.398994 0.417752 0.641392
O O2 0.418777 0.598499 0.667410
O O3 0.339336 0.543432 0.412556
O O4 0.338781 0.528951 0.907596
O O5 0.250000 0.234993 0.862708
O O6 0.328974 0.279655 0.606849
O O7 0.311201 0.106473 0.707439
O O8 0.581731 0.741974 0.360860
O O9 0.513686 0.837874 0.138025
O O10 0.555077 0.261095 0.362515
O O11 0.750000 0.034219 0.658888
#
# Coordination Sequence:
#
# PCOD9380450 Si02
#       5
#     8   8   8   8   8
#     4  12  23  39  65  89 120 164 205 246 302 364
#     4   9  17  30  47  68 100 145 192 232 274 330
#     4  10  22  39  62  96 131 157 190 242 302 372
#     4  10  22  42  66  92 121 153 198 255 312 368
#     4  11  24  38  55  83 120 163 207 253 297 342
#
# _framework density 20.322680999999999
#
# number of rings (size 3 to 8) (size 9 to 14) (size 15 to 20)
#    0.000    1.600    0.000    4.800    0.000    8.000 
#    0.000    8.000    0.000   13.200    0.000    0.000 
#    0.000    0.000    0.000    0.000    0.000    0.000 
#
# Total GULP energy -111760.042400 kJ/mol
# GULP energy per Si atom -5588.002120 kJ/mol
# Density = 2.027643 g / cm^3
# Si number density = 20.322681 Si / 1000 Ang^3
#
#
#
# Elastic Constant Matrix: (Units=GPa)
#
#
# Indices 1 2 3 4 5 6 
#
# 1 142.6643 54.2458 75.7167 0.0000 0.0000 0.0000
# 2 54.2458 45.5956 25.1376 0.0000 0.0000 0.0000
# 3 75.7167 25.1376 172.3296 0.0000 0.0000 0.0000
# 4 0.0000 0.0000 0.0000 16.8845 0.0000 0.0000
# 5 0.0000 0.0000 0.0000 0.0000 37.1327 0.0000
# 6 0.0000 0.0000 0.0000 0.0000 0.0000 37.8179
#
#
#
# Elastic Compliance Matrix: (Units=1/GPa)
#
#
# Indices 1 2 3 4 5 6 
#
# 1 0.015412 -0.015880 -0.004455 0.000000 0.000000 0.000000
# 2 -0.015880 0.040211 0.001111 0.000000 0.000000 0.000000
# 3 -0.004455 0.001111 0.007598 0.000000 0.000000 0.000000
# 4 0.000000 0.000000 0.000000 0.059226 0.000000 0.000000
# 5 0.000000 0.000000 0.000000 0.000000 0.026930 0.000000
# 6 0.000000 0.000000 0.000000 0.000000 0.000000 0.026443
#
#
# Mechanical properties :
#
#
# Convention : Reuss Voigt Hill
#
# Bulk Modulus (GPa) = 40.36365 74.53217 57.44791
# Shear Modulus (GPa) = 22.46933 32.06630 27.26781
#
# Velocity S-wave (km/s) = 3.32871 3.97654 3.66695
# Velocity P-wave (km/s) = 5.88882 7.60511 6.80132
#
# Compressibility (1/GPa) = 0.02477477
#
# Stress axis : x y z
#
# Youngs Moduli (GPa) = 64.88473 24.86858 131.61000
#
# Poissons Ratio (x) = 0.39490 0.58635
# Poissons Ratio (y) = 1.03034 -0.14627
# Poissons Ratio (z) = 0.28908 -0.02764
#
# Static dielectric constant tensor:
#      x y z
#    x 1.834700 0.000000 0.000000 
#    y 0.000000 1.677380 0.000000 
#    z 0.000000 0.000000 1.755040 
# 
# From -- ./inp_files/2492.got.cif
#   From: 2010.05.17/outbox.cif.g08.bks.cpg/sg46_2_cif.got.tgz:2492.got - 2010.06.03 19:58:25.
