data_PCOD9380830
_publ_section_title
;
Structure prediction by ZEFSAII (Michael W. Deem and Ramdas Pophale) SiO2 
 PCOD9380830
Probable space group: I M A 2
;
_chemical_formula_sum "Si O2"
_cell_formula_units_Z 48
_cell_length_a 11.748642
_cell_length_b 18.846994
_cell_length_c 9.022010
_cell_angle_alpha 90.000000
_cell_angle_beta 90.000000
_cell_angle_gamma 90.000000
_cell_volume 1997.712867
_symmetry_space_group_name_H-M "I M A 2"
_symmetry_group_IT_number 46
_symmetry_cell_setting 'orthorhombic'
loop_
_space_group_symop_operation_xyz
x,y,z
-x,-y,z
1/2-x,y,z
1/2+x,-y,z
1/2+x,1/2+y,1/2+z
1/2-x,1/2-y,1/2+z
-x,1/2+y,1/2+z
x,1/2-y,1/2+z
loop_
_atom_site_type_symbol
_atom_site_label
_atom_site_fract_x
_atom_site_fract_y
_atom_site_fract_z
Si Si1 0.123376 0.916717 0.291500
Si Si2 0.056725 0.172735 0.470463
Si Si3 0.127341 0.212288 0.155120
Si Si4 0.624801 0.522902 0.043888
Si Si5 0.120842 0.573825 0.440899
Si Si6 0.123024 0.403352 0.414046
O O1 0.250000 0.888815 0.302548
O O2 0.098725 0.920673 0.118122
O O3 0.047771 0.865843 0.390968
O O4 0.121722 0.992813 0.375054
O O5 0.119414 0.206130 0.329555
O O6 0.035182 0.235081 0.585960
O O7 0.122096 0.107272 0.544097
O O8 0.250000 0.244333 0.115679
O O9 0.124261 0.136707 0.072865
O O10 0.500000 0.500000 0.106296
O O11 0.750000 0.497899 0.101784
O O12 0.250000 0.600901 0.408799
O O13 0.124702 0.488799 0.416019
O O14 0.009603 0.609597 0.363276
O O15 0.250000 0.382764 0.351702
#
# Coordination Sequence:
#
# PCOD9380830 Si02
#       6
#     8   8   8   8   8   8
#     4   9  17  30  50  77 101 126 169 223 263 292
#     4  11  21  34  51  76 107 138 171 206 254 308
#     4  11  21  33  49  72 106 140 170 204 250 307
#     4   9  17  29  49  76 101 125 164 218 262 292
#     4   9  15  26  46  72 100 125 161 212 261 296
#     4   9  17  27  44  73 104 130 158 206 261 299
#
# _framework density 24.027477000000001
#
# number of rings (size 3 to 8) (size 9 to 14) (size 15 to 20)
#    0.000    2.333    1.667    2.500    4.667    2.667 
#    0.000    1.667    0.000    0.000   13.000    0.000 
#    0.000    0.000    0.000    0.000    0.000    0.000 
#
# Total GULP energy -133705.437289 kJ/mol
# GULP energy per Si atom -5571.059887 kJ/mol
# Density = 2.397279 g / cm^3
# Si number density = 24.027477 Si / 1000 Ang^3
#
#
#
# Elastic Constant Matrix: (Units=GPa)
#
#
# Indices 1 2 3 4 5 6 
#
# 1 209.6764 28.0925 28.0784 -0.0002 0.0001 0.0002
# 2 28.0925 54.5600 27.0514 -0.0002 0.0001 0.0001
# 3 28.0784 27.0514 89.9780 -0.0004 0.0002 0.0004
# 4 -0.0002 -0.0002 -0.0004 18.1961 0.0001 0.0001
# 5 0.0001 0.0001 0.0002 0.0001 24.1025 -0.0001
# 6 0.0002 0.0001 0.0004 0.0001 -0.0001 1.7951
#
#
#
# Elastic Compliance Matrix: (Units=1/GPa)
#
#
# Indices 1 2 3 4 5 6 
#
# 1 0.005192 -0.002198 -0.000960 0.000000 0.000000 0.000000
# 2 -0.002198 0.022469 -0.006069 0.000000 0.000000 0.000000
# 3 -0.000960 -0.006069 0.013238 0.000000 0.000000 -0.000002
# 4 0.000000 0.000000 0.000000 0.054957 0.000000 -0.000004
# 5 0.000000 0.000000 0.000000 0.000000 0.041489 0.000002
# 6 0.000000 0.000000 -0.000002 -0.000004 0.000002 0.557058
#
#
# Mechanical properties :
#
#
# Convention : Reuss Voigt Hill
#
# Bulk Modulus (GPa) = 44.55109 57.85100 51.20104
# Shear Modulus (GPa) = 6.94117 26.88490 16.91304
#
# Velocity S-wave (km/s) = 1.70151 3.34866 2.65600
# Velocity P-wave (km/s) = 4.73731 6.25145 5.54630
#
# Compressibility (1/GPa) = 0.02244614
#
# Stress axis : x y z
#
# Youngs Moduli (GPa) = 192.59687 44.50517 75.54001
#
# Poissons Ratio (x) = 0.09781 0.07248
# Poissons Ratio (y) = 0.42326 0.45849
# Poissons Ratio (z) = 0.18481 0.27012
#
# Static dielectric constant tensor:
#      x y z
#    x 1.888630 0.000000 0.000000 
#    y 0.000000 1.904970 0.000000 
#    z 0.000000 0.000000 1.920320 
# 
# From -- ./inp_files/10259.got.cif
#   From: 2010.05.17/outbox.cif.g08.bks.cpg/sg46_6_cif.got.tgz:10259.got - 2010.06.03 19:58:25.
