data_PCOD9380655
_publ_section_title
;
Structure prediction by ZEFSAII (Michael W. Deem and Ramdas Pophale) SiO2 
 PCOD9380655
Probable space group: I M A 2
;
_chemical_formula_sum "Si O2"
_cell_formula_units_Z 48
_cell_length_a 16.687495
_cell_length_b 10.016724
_cell_length_c 13.569841
_cell_angle_alpha 90.000000
_cell_angle_beta 90.000000
_cell_angle_gamma 90.000000
_cell_volume 2268.253632
_symmetry_space_group_name_H-M "I M A 2"
_symmetry_group_IT_number 46
_symmetry_cell_setting 'orthorhombic'
loop_
_space_group_symop_operation_xyz
x,y,z
-x,-y,z
1/2-x,y,z
1/2+x,-y,z
1/2+x,1/2+y,1/2+z
1/2-x,1/2-y,1/2+z
-x,1/2+y,1/2+z
x,1/2-y,1/2+z
loop_
_atom_site_type_symbol
_atom_site_label
_atom_site_fract_x
_atom_site_fract_y
_atom_site_fract_z
Si Si1 0.844376 0.039532 0.264170
Si Si2 0.657578 0.280436 0.405829
Si Si3 0.936569 0.616228 0.079716
Si Si4 0.904488 0.977873 0.785769
Si Si5 0.845773 0.785767 0.386795
Si Si6 0.046046 0.633789 0.584920
O O1 0.750000 0.045649 0.237693
O O2 0.856258 0.136436 0.357698
O O3 0.898836 0.090471 0.175968
O O4 0.864269 0.890802 0.299688
O O5 0.750000 0.290508 0.436778
O O6 0.639536 0.389437 0.321477
O O7 0.599553 0.311488 0.495831
O O8 0.886669 0.562228 0.172970
O O9 0.000000 0.500000 0.053113
O O10 0.985878 0.747351 0.113206
O O11 0.884622 0.659724 0.986673
O O12 0.879881 0.857509 0.857124
O O13 0.000000 0.000000 0.790062
O O14 0.750000 0.778721 0.397131
O O15 0.000000 0.500000 0.552410
#
# Coordination Sequence:
#
# PCOD9380655 Si02
#       6
#     8   8   8   8   8   8
#     4  10  23  42  63  89 121 159 203 250 302 360
#     4  11  23  40  63  89 121 159 200 250 303 360
#     4  11  24  40  63  92 123 161 204 253 306 363
#     4  11  23  41  62  90 124 160 204 250 303 363
#     4  11  24  42  65  92 125 164 205 254 308 365
#     4  12  24  39  62  90 121 159 201 249 303 361
#
# _framework density 21.161653999999999
#
# number of rings (size 3 to 8) (size 9 to 14) (size 15 to 20)
#    0.000    1.000    0.000    7.500    0.000    4.667 
#    0.000    6.667    0.000    0.000    0.000    0.000 
#    0.000    0.000    0.000    0.000    0.000    0.000 
#
# Total GULP energy -134420.447399 kJ/mol
# GULP energy per Si atom -5600.851975 kJ/mol
# Density = 2.111349 g / cm^3
# Si number density = 21.161654 Si / 1000 Ang^3
#
#
#
# Elastic Constant Matrix: (Units=GPa)
#
#
# Indices 1 2 3 4 5 6 
#
# 1 52.3112 16.4618 28.9401 0.0000 0.0000 0.0000
# 2 16.4618 85.2111 -21.2395 0.0000 0.0000 0.0000
# 3 28.9401 -21.2395 67.2699 0.0000 0.0000 0.0000
# 4 0.0000 0.0000 0.0000 25.5060 0.0000 0.0000
# 5 0.0000 0.0000 0.0000 0.0000 22.5749 0.0000
# 6 0.0000 0.0000 0.0000 0.0000 0.0000 -1.0039
#
#
#
# Elastic Compliance Matrix: (Units=1/GPa)
#
#
# Indices 1 2 3 4 5 6 
#
# 1 0.031733 -0.010347 -0.016919 0.000000 0.000000 0.000000
# 2 -0.010347 0.016112 0.009539 0.000000 0.000000 0.000000
# 3 -0.016919 0.009539 0.025156 0.000000 0.000000 0.000000
# 4 0.000000 0.000000 0.000000 0.039207 0.000000 0.000000
# 5 0.000000 0.000000 0.000000 0.000000 0.044297 0.000000
# 6 0.000000 0.000000 0.000000 0.000000 0.000000 -0.996114
#
#
# Mechanical properties :
#
#
# Convention : Reuss Voigt Hill
#
# Bulk Modulus (GPa) = 26.63418 28.12410 27.37914
# Shear Modulus (GPa) = -6.31600 21.45739 7.57070
#
# Velocity S-wave (km/s) = -1.72949 3.18775 1.89349
# Velocity P-wave (km/s) = 2.93687 5.18343 4.21267
#
# Compressibility (1/GPa) = 0.03754573
#
# Stress axis : x y z
#
# Youngs Moduli (GPa) = 31.51339 62.06488 39.75228
#
# Poissons Ratio (x) = 0.64221 0.67256
# Poissons Ratio (y) = 0.32608 -0.37919
# Poissons Ratio (z) = 0.53317 -0.59202
#
# Static dielectric constant tensor:
#      x y z
#    x 1.733530 0.000000 0.000000 
#    y 0.000000 1.734290 0.000000 
#    z 0.000000 0.000000 1.742960 
# 
# From -- ./inp_files/16529.got.cif
#   From: 2010.05.17/outbox.cif.g08.bks.cpg/sg46_9_cif.got.tgz:16529.got - 2010.06.03 19:58:25.
