data_PCOD9380874
_publ_section_title
;
Structure prediction by ZEFSAII (Michael W. Deem and Ramdas Pophale) SiO2 
 PCOD9380874
Probable space group: I M A 2
;
_chemical_formula_sum "Si O2"
_cell_formula_units_Z 48
_cell_length_a 20.256083
_cell_length_b 12.963036
_cell_length_c 9.152338
_cell_angle_alpha 90.000000
_cell_angle_beta 90.000000
_cell_angle_gamma 90.000000
_cell_volume 2403.223961
_symmetry_space_group_name_H-M "I M A 2"
_symmetry_group_IT_number 46
_symmetry_cell_setting 'orthorhombic'
loop_
_space_group_symop_operation_xyz
x,y,z
-x,-y,z
1/2-x,y,z
1/2+x,-y,z
1/2+x,1/2+y,1/2+z
1/2-x,1/2-y,1/2+z
-x,1/2+y,1/2+z
x,1/2-y,1/2+z
loop_
_atom_site_type_symbol
_atom_site_label
_atom_site_fract_x
_atom_site_fract_y
_atom_site_fract_z
Si Si1 0.826158 0.983891 0.431170
Si Si2 0.425431 0.542425 0.677383
Si Si3 0.548091 0.604063 0.050675
Si Si4 0.887417 0.361036 0.419149
Si Si5 0.677524 0.311515 0.115417
Si Si6 0.004389 0.738081 0.793870
O O1 0.750000 0.946407 0.413258
O O2 0.874837 0.926077 0.545602
O O3 0.870986 0.994917 0.285595
O O4 0.821405 0.098138 0.496875
O O5 0.500000 0.500000 0.680535
O O6 0.396481 0.536438 0.513502
O O7 0.439683 0.661206 0.727953
O O8 0.500000 0.500000 0.057568
O O9 0.529144 0.687394 0.174923
O O10 0.537125 0.662503 0.896670
O O11 0.862323 0.355845 0.253957
O O12 0.845140 0.286549 0.522623
O O13 0.960128 0.314261 0.406045
O O14 0.750000 0.289187 0.175011
#
# Coordination Sequence:
#
# PCOD9380874 Si02
#       6
#     8   8   8   8   8   8
#     4  11  23  42  65  89 130 181 216 269 345 407
#     4  12  23  39  64  94 128 168 223 280 334 399
#     4  12  23  43  68  98 135 172 225 285 334 400
#     4  12  21  35  58  94 122 161 214 273 333 395
#     4  11  22  36  56  86 129 171 211 260 335 418
#     4  12  21  39  67  93 124 167 220 277 337 387
#
# _framework density 19.973168999999999
#
# number of rings (size 3 to 8) (size 9 to 14) (size 15 to 20)
#    0.000    0.333    8.333    1.500    0.000    4.667 
#    0.000    0.833    0.000    0.000    0.000    0.000 
#    0.000    0.000    0.000    0.000    0.000    0.000 
#
# Total GULP energy -133612.548537 kJ/mol
# GULP energy per Si atom -5567.189522 kJ/mol
# Density = 1.992771 g / cm^3
# Si number density = 19.973169 Si / 1000 Ang^3
#
#
#
# Elastic Constant Matrix: (Units=GPa)
#
#
# Indices 1 2 3 4 5 6 
#
# 1 121.6769 22.4230 25.8493 0.0000 0.0000 0.0000
# 2 22.4230 48.8585 16.6547 0.0000 0.0000 0.0000
# 3 25.8493 16.6547 71.7902 0.0000 0.0000 0.0000
# 4 0.0000 0.0000 0.0000 38.0394 0.0000 0.0000
# 5 0.0000 0.0000 0.0000 0.0000 23.9199 0.0000
# 6 0.0000 0.0000 0.0000 0.0000 0.0000 19.0488
#
#
#
# Elastic Compliance Matrix: (Units=1/GPa)
#
#
# Indices 1 2 3 4 5 6 
#
# 1 0.009401 -0.003432 -0.002589 0.000000 0.000000 0.000000
# 2 -0.003432 0.023478 -0.004211 0.000000 0.000000 0.000000
# 3 -0.002589 -0.004211 0.015838 0.000000 0.000000 0.000000
# 4 0.000000 0.000000 0.000000 0.026289 0.000000 0.000000
# 5 0.000000 0.000000 0.000000 0.000000 0.041806 0.000000
# 6 0.000000 0.000000 0.000000 0.000000 0.000000 0.052497
#
#
# Mechanical properties :
#
#
# Convention : Reuss Voigt Hill
#
# Bulk Modulus (GPa) = 35.39339 41.35328 38.37333
# Shear Modulus (GPa) = 25.10167 28.02818 26.56492
#
# Velocity S-wave (km/s) = 3.54894 3.75012 3.65091
# Velocity P-wave (km/s) = 5.87812 6.28495 6.08493
#
# Compressibility (1/GPa) = 0.02825387
#
# Stress axis : x y z
#
# Youngs Moduli (GPa) = 106.37275 42.59358 63.13733
#
# Poissons Ratio (x) = 0.14618 0.16345
# Poissons Ratio (y) = 0.36507 0.26586
# Poissons Ratio (z) = 0.27537 0.17936
#
# Static dielectric constant tensor:
#      x y z
#    x 1.785130 0.000000 0.000000 
#    y 0.000000 1.820350 0.000000 
#    z 0.000000 0.000000 1.785540 
# 
# From -- ./inp_files/7316.got.cif
#   From: 2010.05.17/outbox.cif.g08.bks.cpg/sg46_4_cif.got.tgz:7316.got - 2010.06.03 19:58:25.
