data_PCOD9380436
_publ_section_title
;
Structure prediction by ZEFSAII (Michael W. Deem and Ramdas Pophale) SiO2 
 PCOD9380436
Probable space group: I M A 2
;
_chemical_formula_sum "Si O2"
_cell_formula_units_Z 48
_cell_length_a 16.740977
_cell_length_b 9.160853
_cell_length_c 15.792743
_cell_angle_alpha 90.000000
_cell_angle_beta 90.000000
_cell_angle_gamma 90.000000
_cell_volume 2422.000799
_symmetry_space_group_name_H-M "I M A 2"
_symmetry_group_IT_number 46
_symmetry_cell_setting 'orthorhombic'
loop_
_space_group_symop_operation_xyz
x,y,z
-x,-y,z
1/2-x,y,z
1/2+x,-y,z
1/2+x,1/2+y,1/2+z
1/2-x,1/2-y,1/2+z
-x,1/2+y,1/2+z
x,1/2-y,1/2+z
loop_
_atom_site_type_symbol
_atom_site_label
_atom_site_fract_x
_atom_site_fract_y
_atom_site_fract_z
Si Si1 0.591456 0.055764 0.468390
Si Si2 0.416730 0.577711 0.645118
Si Si3 0.155543 0.406898 0.803117
Si Si4 0.154976 0.622054 0.468506
Si Si5 0.914331 0.424748 0.158571
Si Si6 0.344572 0.079457 0.816377
O O1 0.605241 0.228803 0.455982
O O2 0.617920 0.030155 0.565676
O O3 0.500000 0.000000 0.462423
O O4 0.639247 0.973982 0.395290
O O5 0.500000 0.500000 0.623604
O O6 0.384390 0.501994 0.729687
O O7 0.359715 0.564930 0.563426
O O8 0.424968 0.750758 0.660133
O O9 0.250000 0.405169 0.786804
O O10 0.122206 0.241694 0.802659
O O11 0.250000 0.652153 0.456533
O O12 0.126633 0.503924 0.399915
O O13 0.860629 0.480777 0.234832
O O14 0.000000 0.500000 0.168726
O O15 0.250000 0.097363 0.828155
#
# Coordination Sequence:
#
# PCOD9380436 Si02
#       6
#     8   8   8   8   8   8
#     4  10  22  39  60  89 119 153 202 254 304 359
#     4  11  23  39  62  90 120 156 200 253 307 361
#     4  11  23  39  60  88 122 161 201 248 304 362
#     4  10  22  41  63  89 121 162 206 249 300 364
#     4  10  22  39  60  85 116 154 196 243 298 357
#     4  10  23  39  58  85 118 156 198 243 295 353
#
# _framework density 19.818325000000002
#
# number of rings (size 3 to 8) (size 9 to 14) (size 15 to 20)
#    0.000    1.667    0.000    3.500    0.000   12.667 
#    0.000    3.333    0.000    0.000    0.000    0.000 
#    0.000    0.000    0.000    0.000    0.000    0.000 
#
# Total GULP energy -134045.504036 kJ/mol
# GULP energy per Si atom -5585.229335 kJ/mol
# Density = 1.977322 g / cm^3
# Si number density = 19.818325 Si / 1000 Ang^3
#
#
#
# Elastic Constant Matrix: (Units=GPa)
#
#
# Indices 1 2 3 4 5 6 
#
# 1 36.6535 23.9527 13.8851 0.0000 0.0000 0.0000
# 2 23.9527 125.7181 72.0486 0.0000 0.0000 0.0000
# 3 13.8851 72.0486 105.5653 0.0000 0.0000 0.0000
# 4 0.0000 0.0000 0.0000 22.4095 0.0000 0.0000
# 5 0.0000 0.0000 0.0000 0.0000 38.9792 0.0000
# 6 0.0000 0.0000 0.0000 0.0000 0.0000 30.1533
#
#
#
# Elastic Compliance Matrix: (Units=1/GPa)
#
#
# Indices 1 2 3 4 5 6 
#
# 1 0.031163 -0.005894 -0.000077 0.000000 0.000000 0.000000
# 2 -0.005894 0.014179 -0.008902 0.000000 0.000000 0.000000
# 3 -0.000077 -0.008902 0.015558 0.000000 0.000000 0.000000
# 4 0.000000 0.000000 0.000000 0.044624 0.000000 0.000000
# 5 0.000000 0.000000 0.000000 0.000000 0.025655 0.000000
# 6 0.000000 0.000000 0.000000 0.000000 0.000000 0.033164
#
#
# Mechanical properties :
#
#
# Convention : Reuss Voigt Hill
#
# Bulk Modulus (GPa) = 32.09632 54.18997 43.14315
# Shear Modulus (GPa) = 24.45324 28.84512 26.64918
#
# Velocity S-wave (km/s) = 3.51646 3.81921 3.67096
# Velocity P-wave (km/s) = 5.71994 6.84479 6.30749
#
# Compressibility (1/GPa) = 0.03115622
#
# Stress axis : x y z
#
# Youngs Moduli (GPa) = 32.08950 70.52761 64.27371
#
# Poissons Ratio (x) = 0.41566 0.00492
# Poissons Ratio (y) = 0.18912 0.57216
# Poissons Ratio (z) = 0.00246 0.62783
#
# Static dielectric constant tensor:
#      x y z
#    x 1.691730 0.000000 0.000000 
#    y 0.000000 1.689550 0.000000 
#    z 0.000000 0.000000 1.674780 
# 
# From -- ./inp_files/16508.got.cif
#   From: 2010.05.17/outbox.cif.g08.bks.cpg/sg46_9_cif.got.tgz:16508.got - 2010.06.03 19:58:25.
