data_PCOD9380387
_publ_section_title
;
Structure prediction by ZEFSAII (Michael W. Deem and Ramdas Pophale) SiO2 
 PCOD9380387
Probable space group: I M A 2
;
_chemical_formula_sum "Si O2"
_cell_formula_units_Z 56
_cell_length_a 18.244552
_cell_length_b 9.418731
_cell_length_c 14.675951
_cell_angle_alpha 90.000000
_cell_angle_beta 90.000000
_cell_angle_gamma 90.000000
_cell_volume 2521.923161
_symmetry_space_group_name_H-M "I M A 2"
_symmetry_group_IT_number 46
_symmetry_cell_setting 'orthorhombic'
loop_
_space_group_symop_operation_xyz
x,y,z
-x,-y,z
1/2-x,y,z
1/2+x,-y,z
1/2+x,1/2+y,1/2+z
1/2-x,1/2-y,1/2+z
-x,1/2+y,1/2+z
x,1/2-y,1/2+z
loop_
_atom_site_type_symbol
_atom_site_label
_atom_site_fract_x
_atom_site_fract_y
_atom_site_fract_z
Si Si1 0.917346 0.059359 0.934840
Si Si2 0.395512 0.732635 0.102971
Si Si3 0.337267 0.292474 0.505491
Si Si4 0.397337 0.115022 0.354208
Si Si5 0.434507 0.810259 0.305162
Si Si6 0.500000 0.000000 0.642614
Si Si7 0.750000 0.442126 0.148913
Si Si8 0.629126 0.815316 0.695436
O O1 0.906867 0.163495 0.849211
O O2 0.864134 0.925658 0.946252
O O3 0.902627 0.156100 0.022611
O O4 0.000000 0.000000 0.934336
O O5 0.425471 0.799693 0.197001
O O6 0.449548 0.601174 0.082553
O O7 0.315104 0.670862 0.119703
O O8 0.250000 0.289828 0.514009
O O9 0.366673 0.155529 0.452228
O O10 0.372166 0.284466 0.605691
O O11 0.482597 0.159215 0.339473
O O12 0.356401 0.213565 0.280306
O O13 0.389774 0.948631 0.336415
O O14 0.447631 0.100129 0.702738
O O15 0.812717 0.561435 0.177771
#
# Coordination Sequence:
#
# PCOD9380387 Si02
#       8
#     8   8   8   8   8   4   4   8
#     4  12  27  45  74 105 140 185 240 294 354 426
#     4  11  25  45  70 102 145 183 230 290 358 413
#     4  12  28  45  70 101 141 185 232 287 358 426
#     4  11  26  44  72 102 137 179 235 293 352 416
#     4  11  26  45  72 104 139 178 239 299 347 415
#     4  10  22  36  78  98 126 174 228 280 334 400
#     4  10  26  42  76 102 144 184 240 286 364 432
#     4  11  23  46  71 101 141 181 233 283 358 417
#
# _framework density 22.205276000000001
#
# number of rings (size 3 to 8) (size 9 to 14) (size 15 to 20)
#    0.000    0.857    3.571    1.714   13.000    0.000 
#    1.286    0.000    0.000    0.000    0.000    0.000 
#    0.000    0.000    0.000    0.000    0.000    0.000 
#
# Total GULP energy -156227.210928 kJ/mol
# GULP energy per Si atom -5579.543247 kJ/mol
# Density = 2.215474 g / cm^3
# Si number density = 22.205276 Si / 1000 Ang^3
#
#
#
# Elastic Constant Matrix: (Units=GPa)
#
#
# Indices 1 2 3 4 5 6 
#
# 1 88.3716 17.7352 -14.6477 0.0000 0.0000 0.0000
# 2 17.7352 109.4120 9.9287 0.0000 0.0000 0.0000
# 3 -14.6477 9.9287 75.2940 0.0000 0.0000 0.0000
# 4 0.0000 0.0000 0.0000 31.2853 0.0000 0.0000
# 5 0.0000 0.0000 0.0000 0.0000 -2.1596 0.0000
# 6 0.0000 0.0000 0.0000 0.0000 0.0000 26.6883
#
#
#
# Elastic Compliance Matrix: (Units=1/GPa)
#
#
# Indices 1 2 3 4 5 6 
#
# 1 0.012203 -0.002220 0.002667 0.000000 0.000000 0.000000
# 2 -0.002220 0.009654 -0.001705 0.000000 0.000000 0.000000
# 3 0.002667 -0.001705 0.014025 0.000000 0.000000 0.000000
# 4 0.000000 0.000000 0.000000 0.031964 0.000000 0.000000
# 5 0.000000 0.000000 0.000000 0.000000 -0.463053 0.000000
# 6 0.000000 0.000000 0.000000 0.000000 0.000000 0.037470
#
#
# Mechanical properties :
#
#
# Convention : Reuss Voigt Hill
#
# Bulk Modulus (GPa) = 29.97052 33.23443 31.60247
# Shear Modulus (GPa) = -14.53074 28.50024 6.98475
#
# Velocity S-wave (km/s) = -2.56087 3.58647 1.77549
# Velocity P-wave (km/s) = 2.18684 5.67007 4.29721
#
# Compressibility (1/GPa) = 0.03336612
#
# Stress axis : x y z
#
# Youngs Moduli (GPa) = 81.94414 103.58014 71.30171
#
# Poissons Ratio (x) = 0.22996 -0.19015
# Poissons Ratio (y) = 0.18193 0.12157
# Poissons Ratio (z) = -0.21853 0.17660
#
# Static dielectric constant tensor:
#      x y z
#    x 1.804790 0.000000 0.000000 
#    y 0.000000 1.819170 0.000000 
#    z 0.000000 0.000000 1.821820 
# 
# From -- ./inp_files/17139.got.cif
#   From: 2010.05.17/outbox.cif.g08.bks.cpg/sg46_9_cif.got.tgz:17139.got - 2010.06.03 19:58:25.
