data_PCOD9380132
_publ_section_title
;
Structure prediction by ZEFSAII (Michael W. Deem and Ramdas Pophale) SiO2 
 PCOD9380132
Probable space group: I M A 2
;
_chemical_formula_sum "Si O2"
_cell_formula_units_Z 40
_cell_length_a 10.293339
_cell_length_b 17.975762
_cell_length_c 9.914408
_cell_angle_alpha 90.000000
_cell_angle_beta 90.000000
_cell_angle_gamma 90.000000
_cell_volume 1834.468980
_symmetry_space_group_name_H-M "I M A 2"
_symmetry_group_IT_number 46
_symmetry_cell_setting 'orthorhombic'
loop_
_space_group_symop_operation_xyz
x,y,z
-x,-y,z
1/2-x,y,z
1/2+x,-y,z
1/2+x,1/2+y,1/2+z
1/2-x,1/2-y,1/2+z
-x,1/2+y,1/2+z
x,1/2-y,1/2+z
loop_
_atom_site_type_symbol
_atom_site_label
_atom_site_fract_x
_atom_site_fract_y
_atom_site_fract_z
Si Si1 0.610123 0.280798 0.872010
Si Si2 0.103245 0.065146 0.031496
Si Si3 0.402151 0.939036 0.502843
Si Si4 0.034571 0.224446 0.118001
Si Si5 0.105201 0.117500 0.720923
O O1 0.750000 0.249805 0.911185
O O2 0.602130 0.366849 0.909781
O O3 0.590627 0.273542 0.713868
O O4 0.501575 0.243295 0.964782
O O5 0.250000 0.036262 0.047685
O O6 0.087933 0.093287 0.876041
O O7 0.089779 0.141119 0.118845
O O8 0.000000 0.000000 0.059519
O O9 0.250000 0.958831 0.523769
O O10 0.482951 0.914885 0.637235
O O11 0.500000 0.000000 0.441738
O O12 0.108970 0.294713 0.182578
O O13 0.250000 0.089944 0.682250
#
# Coordination Sequence:
#
# PCOD9380132 Si02
#       5
#     8   8   8   8   8
#     4  10  22  38  63  95 131 169 217 271 330 391
#     4  11  25  43  65  99 137 179 221 275 338 396
#     4  10  21  38  60  92 128 169 214 265 327 389
#     4  11  21  43  65  97 128 174 224 274 330 396
#     4  10  21  40  66  95 127 171 223 273 327 394
#
# _framework density 21.804676000000001
#
# number of rings (size 3 to 8) (size 9 to 14) (size 15 to 20)
#    0.000    1.600    2.000    2.400    0.000    5.600 
#    0.000    5.000    0.000    0.000    0.000    0.000 
#    0.000    0.000    0.000    0.000    0.000    0.000 
#
# Total GULP energy -111424.176575 kJ/mol
# GULP energy per Si atom -5571.208829 kJ/mol
# Density = 2.175505 g / cm^3
# Si number density = 21.804676 Si / 1000 Ang^3
#
#
#
# Elastic Constant Matrix: (Units=GPa)
#
#
# Indices 1 2 3 4 5 6 
#
# 1 139.7572 45.1908 8.9502 0.0002 0.0000 0.0000
# 2 45.1908 124.0864 -2.3755 -0.0005 0.0000 0.0001
# 3 8.9502 -2.3755 48.6815 -0.0007 0.0000 0.0001
# 4 0.0002 -0.0005 -0.0007 13.9788 0.0000 0.0001
# 5 0.0000 0.0000 0.0000 0.0000 17.7474 0.0000
# 6 0.0000 0.0001 0.0001 0.0001 0.0000 6.6518
#
#
#
# Elastic Compliance Matrix: (Units=1/GPa)
#
#
# Indices 1 2 3 4 5 6 
#
# 1 0.008243 -0.003034 -0.001663 0.000000 0.000000 0.000000
# 2 -0.003034 0.009183 0.001006 0.000000 0.000000 0.000000
# 3 -0.001663 0.001006 0.020897 0.000001 0.000000 0.000000
# 4 0.000000 0.000000 0.000001 0.071537 0.000000 -0.000001
# 5 0.000000 0.000000 0.000000 0.000000 0.056346 0.000000
# 6 0.000000 0.000000 0.000000 -0.000001 0.000000 0.150335
#
#
# Mechanical properties :
#
#
# Convention : Reuss Voigt Hill
#
# Bulk Modulus (GPa) = 32.32103 46.22846 39.27474
# Shear Modulus (GPa) = 14.95948 25.05958 20.00953
#
# Velocity S-wave (km/s) = 2.62213 3.39377 3.03260
# Velocity P-wave (km/s) = 4.90128 6.05013 5.50576
#
# Compressibility (1/GPa) = 0.03093961
#
# Stress axis : x y z
#
# Youngs Moduli (GPa) = 121.31840 108.89664 47.85469
#
# Poissons Ratio (x) = 0.33037 0.07961
# Poissons Ratio (y) = 0.36805 -0.04814
# Poissons Ratio (z) = 0.20181 -0.10954
#
# Static dielectric constant tensor:
#      x y z
#    x 1.829140 0.000000 0.000000 
#    y 0.000000 1.831630 0.000000 
#    z 0.000000 0.000000 1.769090 
# 
# From -- ./inp_files/4439.got.cif
#   From: 2010.05.17/outbox.cif.g08.bks.cpg/sg46_3_cif.got.tgz:4439.got - 2010.06.03 19:58:25.
