data_PCOD9380619
_publ_section_title
;
Structure prediction by ZEFSAII (Michael W. Deem and Ramdas Pophale) SiO2 
 PCOD9380619
Probable space group: I M A 2
;
_chemical_formula_sum "Si O2"
_cell_formula_units_Z 56
_cell_length_a 13.837433
_cell_length_b 13.475084
_cell_length_c 11.945147
_cell_angle_alpha 90.000000
_cell_angle_beta 90.000000
_cell_angle_gamma 90.000000
_cell_volume 2227.298942
_symmetry_space_group_name_H-M "I M A 2"
_symmetry_group_IT_number 46
_symmetry_cell_setting 'orthorhombic'
loop_
_space_group_symop_operation_xyz
x,y,z
-x,-y,z
1/2-x,y,z
1/2+x,-y,z
1/2+x,1/2+y,1/2+z
1/2-x,1/2-y,1/2+z
-x,1/2+y,1/2+z
x,1/2-y,1/2+z
loop_
_atom_site_type_symbol
_atom_site_label
_atom_site_fract_x
_atom_site_fract_y
_atom_site_fract_z
Si Si1 0.360039 0.932547 0.162520
Si Si2 0.858694 0.187437 0.502188
Si Si3 0.523606 0.389203 0.850188
Si Si4 0.133443 0.949805 0.698218
Si Si5 0.635808 0.863127 0.541327
Si Si6 0.447774 0.877805 0.928243
Si Si7 0.140391 0.135751 0.058889
O O1 0.250000 0.907665 0.192041
O O2 0.431754 0.858754 0.229580
O O3 0.367314 0.053456 0.156433
O O4 0.381690 0.909118 0.032690
O O5 0.750000 0.221289 0.504050
O O6 0.878734 0.092676 0.425691
O O7 0.888414 0.147015 0.621869
O O8 0.923857 0.260330 0.426879
O O9 0.500000 0.500000 0.814365
O O10 0.433239 0.363450 0.932010
O O11 0.250000 0.951920 0.712887
O O12 0.083041 0.930483 0.815727
O O13 0.107692 0.050784 0.630737
O O14 0.750000 0.876895 0.514768
O O15 0.626856 0.751161 0.592158
O O16 0.557886 0.888265 0.967773
O O17 0.250000 0.127059 0.013457
#
# Coordination Sequence:
#
# PCOD9380619 Si02
#       7
#     8   8   8   8   8   8   8
#     4  11  26  48  74 108 153 197 250 312 380 457
#     4  11  24  41  68 110 150 191 251 313 379 452
#     4  12  23  43  72 104 143 196 248 310 378 440
#     4  10  23  45  75 110 152 200 255 319 379 446
#     4  10  22  46  78 113 151 197 259 319 372 444
#     4  12  24  46  75 112 153 202 252 309 391 464
#     4  10  23  48  75 109 151 196 249 307 374 454
#
# _framework density 25.14256
#
# number of rings (size 3 to 8) (size 9 to 14) (size 15 to 20)
#    0.000    1.143    2.857    3.000    2.000    0.571 
#    5.143    3.571    0.000   10.286    0.000    0.000 
#    0.000    0.000    0.000    0.000    0.000    0.000 
#
# Total GULP energy -156119.532805 kJ/mol
# GULP energy per Si atom -5575.697600 kJ/mol
# Density = 2.508533 g / cm^3
# Si number density = 25.142560 Si / 1000 Ang^3
#
#
#
# Elastic Constant Matrix: (Units=GPa)
#
#
# Indices 1 2 3 4 5 6 
#
# 1 161.3728 72.4049 76.5410 0.0000 0.0000 0.0000
# 2 72.4049 77.1190 56.7925 0.0000 0.0000 0.0000
# 3 76.5410 56.7925 139.4216 0.0000 0.0000 0.0000
# 4 0.0000 0.0000 0.0000 17.2993 0.0000 0.0000
# 5 0.0000 0.0000 0.0000 0.0000 7.6031 0.0000
# 6 0.0000 0.0000 0.0000 0.0000 0.0000 30.5770
#
#
#
# Elastic Compliance Matrix: (Units=1/GPa)
#
#
# Indices 1 2 3 4 5 6 
#
# 1 0.011381 -0.008691 -0.002708 0.000000 0.000000 0.000000
# 2 -0.008691 0.025161 -0.005478 0.000000 0.000000 0.000000
# 3 -0.002708 -0.005478 0.010890 0.000000 0.000000 0.000000
# 4 0.000000 0.000000 0.000000 0.057806 0.000000 0.000000
# 5 0.000000 0.000000 0.000000 0.000000 0.131525 0.000000
# 6 0.000000 0.000000 0.000000 0.000000 0.000000 0.032704
#
#
# Mechanical properties :
#
#
# Convention : Reuss Voigt Hill
#
# Bulk Modulus (GPa) = 73.10582 87.71002 80.40792
# Shear Modulus (GPa) = 16.24545 22.57423 19.40984
#
# Velocity S-wave (km/s) = 2.54467 2.99966 2.78149
# Velocity P-wave (km/s) = 6.14601 6.85260 6.50890
#
# Compressibility (1/GPa) = 0.01367880
#
# Stress axis : x y z
#
# Youngs Moduli (GPa) = 87.86946 39.74470 91.82496
#
# Poissons Ratio (x) = 0.34542 0.24863
# Poissons Ratio (y) = 0.76366 0.50300
# Poissons Ratio (z) = 0.23792 0.21771
#
# Static dielectric constant tensor:
#      x y z
#    x 2.156210 0.000000 0.000000 
#    y 0.000000 1.069400 0.000000 
#    z 0.000000 0.000000 2.005710 
# 
# From -- ./inp_files/11166.got.cif
#   From: 2010.05.17/outbox.cif.g08.bks.cpg/sg46_6_cif.got.tgz:11166.got - 2010.06.03 19:58:25.
