data_PCOD9380618
_publ_section_title
;
Structure prediction by ZEFSAII (Michael W. Deem and Ramdas Pophale) SiO2 
 PCOD9380618
Probable space group: I M A 2
;
_chemical_formula_sum "Si O2"
_cell_formula_units_Z 56
_cell_length_a 28.560409
_cell_length_b 5.037393
_cell_length_c 16.350646
_cell_angle_alpha 90.000000
_cell_angle_beta 90.000000
_cell_angle_gamma 90.000000
_cell_volume 2352.367512
_symmetry_space_group_name_H-M "I M A 2"
_symmetry_group_IT_number 46
_symmetry_cell_setting 'orthorhombic'
loop_
_space_group_symop_operation_xyz
x,y,z
-x,-y,z
1/2-x,y,z
1/2+x,-y,z
1/2+x,1/2+y,1/2+z
1/2-x,1/2-y,1/2+z
-x,1/2+y,1/2+z
x,1/2-y,1/2+z
loop_
_atom_site_type_symbol
_atom_site_label
_atom_site_fract_x
_atom_site_fract_y
_atom_site_fract_z
Si Si1 0.322737 0.486870 0.046840
Si Si2 0.923443 0.209923 0.890215
Si Si3 0.324443 0.363584 0.699911
Si Si4 0.500000 0.500000 0.791436
Si Si5 0.068333 0.590994 0.066257
Si Si6 0.644369 0.793909 0.376736
Si Si7 0.250000 0.814849 0.120653
Si Si8 0.565940 0.592007 0.658286
O O1 0.304234 0.318624 0.125326
O O2 0.375360 0.572570 0.066196
O O3 0.290366 0.741742 0.051146
O O4 0.326072 0.329091 0.961065
O O5 0.968192 0.284909 0.837048
O O6 0.883462 0.427822 0.868745
O O7 0.895765 0.931988 0.886549
O O8 0.942093 0.278866 0.980427
O O9 0.326462 0.256500 0.792788
O O10 0.291656 0.617075 0.688525
O O11 0.378776 0.400004 0.675673
O O12 0.537305 0.662162 0.737754
O O13 0.053162 0.294006 0.085845
O O14 0.053251 0.792993 0.135659
#
# Coordination Sequence:
#
# PCOD9380618 Si02
#       8
#     8   8   8   4   8   8   4   8
#     4  10  24  44  72 110 149 205 261 326 404 491
#     4  11  25  46  71 109 147 206 262 330 395 488
#     4  11  24  46  71 112 151 206 256 329 412 486
#     4  12  28  42  72 116 152 202 272 336 400 496
#     4  10  22  46  72  96 143 205 250 316 402 472
#     4  11  26  46  77 105 157 206 258 329 411 482
#     4  12  24  44  78 112 148 198 266 328 394 494
#     4  11  24  43  71 103 148 196 255 323 398 482
#
# _framework density 23.805804999999999
#
# number of rings (size 3 to 8) (size 9 to 14) (size 15 to 20)
#    0.000    1.143    2.857    3.000    8.000    4.000 
#    0.000    1.429    0.000    0.000    0.000    0.000 
#    0.000    0.000    0.000    0.000    0.000    0.000 
#
# Total GULP energy -155895.902911 kJ/mol
# GULP energy per Si atom -5567.710818 kJ/mol
# Density = 2.375162 g / cm^3
# Si number density = 23.805805 Si / 1000 Ang^3
#
#
#
# Elastic Constant Matrix: (Units=GPa)
#
#
# Indices 1 2 3 4 5 6 
#
# 1 115.0956 21.8216 53.2249 0.0000 0.0000 0.0000
# 2 21.8216 81.1598 36.6460 0.0000 0.0000 0.0000
# 3 53.2249 36.6460 165.4612 0.0000 0.0000 0.0000
# 4 0.0000 0.0000 0.0000 29.9425 0.0000 0.0000
# 5 0.0000 0.0000 0.0000 0.0000 35.5637 0.0000
# 6 0.0000 0.0000 0.0000 0.0000 0.0000 -5.1076
#
#
#
# Elastic Compliance Matrix: (Units=1/GPa)
#
#
# Indices 1 2 3 4 5 6 
#
# 1 0.010352 -0.001422 -0.003015 0.000000 0.000000 0.000000
# 2 -0.001422 0.013886 -0.002618 0.000000 0.000000 0.000000
# 3 -0.003015 -0.002618 0.007593 0.000000 0.000000 0.000000
# 4 0.000000 0.000000 0.000000 0.033397 0.000000 0.000000
# 5 0.000000 0.000000 0.000000 0.000000 0.028119 0.000000
# 6 0.000000 0.000000 0.000000 0.000000 0.000000 -0.195786
#
#
# Mechanical properties :
#
#
# Convention : Reuss Voigt Hill
#
# Bulk Modulus (GPa) = 56.42925 65.01128 60.72026
# Shear Modulus (GPa) = -60.66427 28.74801 -15.95813
#
# Velocity S-wave (km/s) = -5.05354 3.47883 -2.59191
# Velocity P-wave (km/s) = 3.20868 6.59580 4.07486
#
# Compressibility (1/GPa) = 0.01772131
#
# Stress axis : x y z
#
# Youngs Moduli (GPa) = 96.59621 72.01602 131.69260
#
# Poissons Ratio (x) = 0.10241 0.39707
# Poissons Ratio (y) = 0.13736 0.34477
# Poissons Ratio (z) = 0.29125 0.18854
#
# Static dielectric constant tensor:
#      x y z
#    x 1.872600 0.000000 0.000000 
#    y 0.000000 2.079540 0.000000 
#    z 0.000000 0.000000 1.980150 
# 
# From -- ./inp_files/17705.got.cif
#   From: 2010.05.17/outbox.cif.g08.bks.cpg/sg46_9_cif.got.tgz:17705.got - 2010.06.03 19:58:25.
