data_PCOD9380907
_publ_section_title
;
Structure prediction by ZEFSAII (Michael W. Deem and Ramdas Pophale) SiO2 
 PCOD9380907
Probable space group: I M A 2
;
_chemical_formula_sum "Si O2"
_cell_formula_units_Z 48
_cell_length_a 27.790861
_cell_length_b 9.478681
_cell_length_c 8.791134
_cell_angle_alpha 90.000000
_cell_angle_beta 90.000000
_cell_angle_gamma 90.000000
_cell_volume 2315.766726
_symmetry_space_group_name_H-M "I M A 2"
_symmetry_group_IT_number 46
_symmetry_cell_setting 'orthorhombic'
loop_
_space_group_symop_operation_xyz
x,y,z
-x,-y,z
1/2-x,y,z
1/2+x,-y,z
1/2+x,1/2+y,1/2+z
1/2-x,1/2-y,1/2+z
-x,1/2+y,1/2+z
x,1/2-y,1/2+z
loop_
_atom_site_type_symbol
_atom_site_label
_atom_site_fract_x
_atom_site_fract_y
_atom_site_fract_z
Si Si1 0.863011 0.944439 0.939460
Si Si2 0.639289 0.108830 0.424640
Si Si3 0.306571 0.667466 0.615767
Si Si4 0.504701 0.849414 0.583470
Si Si5 0.116452 0.336486 0.112390
Si Si6 0.556070 0.166903 0.883239
O O1 0.859364 0.886163 0.768731
O O2 0.911947 0.037998 0.942983
O O3 0.866026 0.813902 0.053453
O O4 0.821135 0.050284 0.990792
O O5 0.665169 0.192698 0.562268
O O6 0.673351 0.115142 0.277658
O O7 0.592185 0.199567 0.380760
O O8 0.626093 0.954558 0.483740
O O9 0.250000 0.691492 0.621536
O O10 0.559009 0.828657 0.637012
O O11 0.466455 0.863763 0.719914
O O12 0.487795 0.715951 0.487465
O O13 0.500000 0.000000 0.497410
#
# Coordination Sequence:
#
# PCOD9380907 Si02
#       6
#     8   8   8   8   8   8
#     4  11  24  43  65  91 133 169 214 265 331 376
#     4  11  22  42  69  95 131 163 211 264 326 376
#     4  11  24  44  70  98 122 163 213 264 325 400
#     4  12  23  39  61  94 131 168 229 254 297 370
#     4  12  24  42  63  97 133 174 212 266 317 373
#     4  11  22  42  61  91 129 177 210 263 303 371
#
# _framework density 20.727477
#
# number of rings (size 3 to 8) (size 9 to 14) (size 15 to 20)
#    0.000    0.667    3.333    6.500    0.000    0.000 
#    3.000    5.000    0.000    0.000    0.000    0.000 
#    0.000    0.000    0.000    0.000    0.000    0.000 
#
# Total GULP energy -134287.948099 kJ/mol
# GULP energy per Si atom -5595.331171 kJ/mol
# Density = 2.068030 g / cm^3
# Si number density = 20.727477 Si / 1000 Ang^3
#
#
#
# Elastic Constant Matrix: (Units=GPa)
#
#
# Indices 1 2 3 4 5 6 
#
# 1 68.9547 -2.4588 -1.5226 0.0000 0.0000 0.0000
# 2 -2.4588 90.2415 4.5366 0.0000 0.0000 0.0000
# 3 -1.5226 4.5366 62.0098 0.0000 0.0000 0.0000
# 4 0.0000 0.0000 0.0000 37.6706 0.0000 0.0000
# 5 0.0000 0.0000 0.0000 0.0000 18.0808 0.0000
# 6 0.0000 0.0000 0.0000 0.0000 0.0000 8.7319
#
#
#
# Elastic Compliance Matrix: (Units=1/GPa)
#
#
# Indices 1 2 3 4 5 6 
#
# 1 0.014523 0.000379 0.000329 0.000000 0.000000 0.000000
# 2 0.000379 0.011132 -0.000805 0.000000 0.000000 0.000000
# 3 0.000329 -0.000805 0.016193 0.000000 0.000000 0.000000
# 4 0.000000 0.000000 0.000000 0.026546 0.000000 0.000000
# 5 0.000000 0.000000 0.000000 0.000000 0.055307 0.000000
# 6 0.000000 0.000000 0.000000 0.000000 0.000000 0.114523
#
#
# Mechanical properties :
#
#
# Convention : Reuss Voigt Hill
#
# Bulk Modulus (GPa) = 24.00698 24.70182 24.35440
# Shear Modulus (GPa) = 19.81741 27.60672 23.71207
#
# Velocity S-wave (km/s) = 3.09543 3.65347 3.38596
# Velocity P-wave (km/s) = 4.93791 5.45347 5.20208
#
# Compressibility (1/GPa) = 0.04165455
#
# Stress axis : x y z
#
# Youngs Moduli (GPa) = 68.85607 89.82965 61.75330
#
# Poissons Ratio (x) = -0.03406 -0.02031
# Poissons Ratio (y) = -0.02611 0.04972
# Poissons Ratio (z) = -0.02264 0.07232
#
# Static dielectric constant tensor:
#      x y z
#    x 1.717950 0.000000 0.000000 
#    y 0.000000 1.748760 0.000000 
#    z 0.000000 0.000000 1.755010 
# 
# From -- ./inp_files/8371.got.cif
#   From: 2010.05.17/outbox.cif.g08.bks.cpg/sg46_5_cif.got.tgz:8371.got - 2010.06.03 19:58:25.
