data_PCOD9380498
_publ_section_title
;
Structure prediction by ZEFSAII (Michael W. Deem and Ramdas Pophale) SiO2 
 PCOD9380498
Probable space group: I M A 2
;
_chemical_formula_sum "Si O2"
_cell_formula_units_Z 64
_cell_length_a 23.991570
_cell_length_b 15.038786
_cell_length_c 8.357252
_cell_angle_alpha 90.000000
_cell_angle_beta 90.000000
_cell_angle_gamma 90.000000
_cell_volume 3015.330678
_symmetry_space_group_name_H-M "I M A 2"
_symmetry_group_IT_number 46
_symmetry_cell_setting 'orthorhombic'
loop_
_space_group_symop_operation_xyz
x,y,z
-x,-y,z
1/2-x,y,z
1/2+x,-y,z
1/2+x,1/2+y,1/2+z
1/2-x,1/2-y,1/2+z
-x,1/2+y,1/2+z
x,1/2-y,1/2+z
loop_
_atom_site_type_symbol
_atom_site_label
_atom_site_fract_x
_atom_site_fract_y
_atom_site_fract_z
Si Si1 0.857701 0.542762 0.606320
Si Si2 0.185735 0.971060 0.767489
Si Si3 0.141441 0.365945 0.128879
Si Si4 0.022013 0.160457 0.600989
Si Si5 0.907781 0.132355 0.144420
Si Si6 0.970651 0.863838 0.218463
Si Si7 0.094334 0.669634 0.267069
Si Si8 0.812908 0.804244 0.309139
O O1 0.840303 0.519667 0.425058
O O2 0.863296 0.444314 0.683156
O O3 0.918018 0.587220 0.640432
O O4 0.816785 0.615391 0.682252
O O5 0.250000 0.948364 0.796360
O O6 0.178650 0.046768 0.635220
O O7 0.148017 0.887628 0.718760
O O8 0.077250 0.385702 0.172763
O O9 0.167087 0.288284 0.236065
O O10 0.145250 0.328315 0.950518
O O11 0.025860 0.144150 0.411318
O O12 0.029608 0.264554 0.643480
O O13 0.962090 0.137167 0.677305
O O14 0.899590 0.225491 0.234009
O O15 0.969379 0.095817 0.177956
O O16 0.908985 0.154919 0.956556
O O17 0.750000 0.795594 0.370418
#
# Coordination Sequence:
#
# PCOD9380498 Si02
#       8
#     8   8   8   8   8   8   8   8
#     4  11  23  40  64  93 127 173 217 271 323 396
#     4  11  26  46  66  93 128 173 229 279 327 395
#     4  12  24  41  62  91 132 170 219 266 326 391
#     4  11  21  38  64  96 134 172 211 261 327 397
#     4  10  22  40  65  93 128 166 211 272 337 392
#     4  11  21  38  60  98 136 169 211 261 324 403
#     4  10  23  43  69  94 129 168 216 276 338 394
#     4  12  24  40  61  91 129 179 220 263 321 392
#
# _framework density 21.224869000000002
#
# number of rings (size 3 to 8) (size 9 to 14) (size 15 to 20)
#    0.000    1.000    2.500    5.625    3.500    2.500 
#    2.250    3.125    0.000    0.000    0.000    0.000 
#    0.000    0.000    0.000    0.000    0.000    0.000 
#
# Total GULP energy -178751.952459 kJ/mol
# GULP energy per Si atom -5585.998514 kJ/mol
# Density = 2.117656 g / cm^3
# Si number density = 21.224869 Si / 1000 Ang^3
#
#
#
# Elastic Constant Matrix: (Units=GPa)
#
#
# Indices 1 2 3 4 5 6 
#
# 1 121.7513 59.7750 14.6376 0.0000 0.0000 0.0000
# 2 59.7750 81.2796 14.4113 0.0000 0.0000 0.0000
# 3 14.6376 14.4113 22.6763 0.0000 0.0000 0.0000
# 4 0.0000 0.0000 0.0000 -5.5861 0.0000 0.0000
# 5 0.0000 0.0000 0.0000 0.0000 16.1160 0.0000
# 6 0.0000 0.0000 0.0000 0.0000 0.0000 11.0730
#
#
#
# Elastic Compliance Matrix: (Units=1/GPa)
#
#
# Indices 1 2 3 4 5 6 
#
# 1 0.012990 -0.009091 -0.002608 0.000000 0.000000 0.000000
# 2 -0.009091 0.020228 -0.006987 0.000000 0.000000 0.000000
# 3 -0.002608 -0.006987 0.050223 0.000000 0.000000 0.000000
# 4 0.000000 0.000000 0.000000 -0.179016 0.000000 0.000000
# 5 0.000000 0.000000 0.000000 0.000000 0.062050 0.000000
# 6 0.000000 0.000000 0.000000 0.000000 0.000000 0.090310
#
#
# Mechanical properties :
#
#
# Convention : Reuss Voigt Hill
#
# Bulk Modulus (GPa) = 21.70642 44.81724 33.26183
# Shear Modulus (GPa) = 45.65658 13.44611 29.55135
#
# Velocity S-wave (km/s) = 4.64302 2.51969 3.73540
# Velocity P-wave (km/s) = 6.24440 5.44301 5.85743
#
# Compressibility (1/GPa) = 0.04606932
#
# Stress axis : x y z
#
# Youngs Moduli (GPa) = 76.98044 49.43685 19.91133
#
# Poissons Ratio (x) = 0.44943 0.05192
# Poissons Ratio (y) = 0.69983 0.13912
# Poissons Ratio (z) = 0.20074 0.34541
#
# Static dielectric constant tensor:
#      x y z
#    x 1.796640 0.000000 0.000000 
#    y 0.000000 1.796680 0.000000 
#    z 0.000000 0.000000 1.787700 
# 
# From -- ./inp_files/7982.got.cif
#   From: 2010.05.17/outbox.cif.g08.bks.cpg/sg46_4_cif.got.tgz:7982.got - 2010.06.03 19:58:25.
