data_PCOD9380696
_publ_section_title
;
Structure prediction by ZEFSAII (Michael W. Deem and Ramdas Pophale) SiO2 
 PCOD9380696
Probable space group: I M A 2
;
_chemical_formula_sum "Si O2"
_cell_formula_units_Z 48
_cell_length_a 26.037969
_cell_length_b 10.919491
_cell_length_c 8.209968
_cell_angle_alpha 90.000000
_cell_angle_beta 90.000000
_cell_angle_gamma 90.000000
_cell_volume 2334.269334
_symmetry_space_group_name_H-M "I M A 2"
_symmetry_group_IT_number 46
_symmetry_cell_setting 'orthorhombic'
loop_
_space_group_symop_operation_xyz
x,y,z
-x,-y,z
1/2-x,y,z
1/2+x,-y,z
1/2+x,1/2+y,1/2+z
1/2-x,1/2-y,1/2+z
-x,1/2+y,1/2+z
x,1/2-y,1/2+z
loop_
_atom_site_type_symbol
_atom_site_label
_atom_site_fract_x
_atom_site_fract_y
_atom_site_fract_z
Si Si1 0.155145 0.118585 0.066820
Si Si2 0.750000 0.704371 0.785215
Si Si3 0.055380 0.440302 0.093108
Si Si4 0.908306 0.739731 0.827460
Si Si5 0.843983 0.398659 0.024902
Si Si6 0.750000 0.939566 0.625546
Si Si7 0.312492 0.633689 0.646478
O O1 0.202475 0.159745 0.176840
O O2 0.106963 0.146429 0.184585
O O3 0.165382 0.976452 0.035570
O O4 0.142710 0.209239 0.918808
O O5 0.750000 0.851333 0.780729
O O6 0.750000 0.642786 0.961102
O O7 0.066811 0.361821 0.255036
O O8 0.000000 0.500000 0.098737
O O9 0.058520 0.337881 0.952228
O O10 0.101293 0.537087 0.057732
O O11 0.800684 0.479455 0.114318
O O12 0.829095 0.395962 0.832766
O O13 0.837044 0.261476 0.091324
O O14 0.250000 0.639502 0.637245
#
# Coordination Sequence:
#
# PCOD9380696 Si02
#       7
#     8   4   8   8   8   4   8
#     4  11  20  39  64  95 132 173 218 270 335 395
#     4  12  20  33  63  91 129 168 214 265 325 401
#     4  11  25  48  72  98 134 172 233 290 344 402
#     4  10  23  44  68  96 129 172 222 288 338 398
#     4  12  25  43  64  94 139 181 220 282 338 410
#     4  12  22  41  59  97 133 170 220 269 343 401
#     4  12  23  43  63  97 142 182 225 273 341 417
#
# _framework density 20.563181
#
# number of rings (size 3 to 8) (size 9 to 14) (size 15 to 20)
#    0.000    0.667    5.833    3.000    2.333    1.333 
#    0.000    1.667    0.000    0.000    0.000    0.000 
#    0.000    0.000    0.000    0.000    0.000    0.000 
#
# Total GULP energy -134197.550691 kJ/mol
# GULP energy per Si atom -5591.564612 kJ/mol
# Density = 2.051638 g / cm^3
# Si number density = 20.563181 Si / 1000 Ang^3
#
#
#
# Elastic Constant Matrix: (Units=GPa)
#
#
# Indices 1 2 3 4 5 6 
#
# 1 130.1546 55.2129 27.1077 0.0000 0.0000 0.0000
# 2 55.2129 151.3807 37.4060 0.0000 0.0000 0.0000
# 3 27.1077 37.4060 53.2538 0.0000 0.0000 0.0000
# 4 0.0000 0.0000 0.0000 44.9555 0.0000 0.0000
# 5 0.0000 0.0000 0.0000 0.0000 12.7557 0.0000
# 6 0.0000 0.0000 0.0000 0.0000 0.0000 26.2018
#
#
#
# Elastic Compliance Matrix: (Units=1/GPa)
#
#
# Indices 1 2 3 4 5 6 
#
# 1 0.009443 -0.002730 -0.002889 0.000000 0.000000 0.000000
# 2 -0.002730 0.008783 -0.004779 0.000000 0.000000 0.000000
# 3 -0.002889 -0.004779 0.023606 0.000000 0.000000 0.000000
# 4 0.000000 0.000000 0.000000 0.022244 0.000000 0.000000
# 5 0.000000 0.000000 0.000000 0.000000 0.078396 0.000000
# 6 0.000000 0.000000 0.000000 0.000000 0.000000 0.038165
#
#
# Mechanical properties :
#
#
# Convention : Reuss Voigt Hill
#
# Bulk Modulus (GPa) = 47.54154 63.80471 55.67312
# Shear Modulus (GPa) = 23.98707 31.12010 27.55359
#
# Velocity S-wave (km/s) = 3.41912 3.89445 3.66450
# Velocity P-wave (km/s) = 6.22552 7.16368 6.71101
#
# Compressibility (1/GPa) = 0.02103424
#
# Stress axis : x y z
#
# Youngs Moduli (GPa) = 105.89748 113.86135 42.36294
#
# Poissons Ratio (x) = 0.31088 0.12239
# Poissons Ratio (y) = 0.28913 0.20246
# Poissons Ratio (z) = 0.30594 0.54416
#
# Static dielectric constant tensor:
#      x y z
#    x 1.712050 0.000000 0.000000 
#    y 0.000000 1.767610 0.000000 
#    z 0.000000 0.000000 1.789940 
# 
# From -- ./inp_files/7845.got.cif
#   From: 2010.05.17/outbox.cif.g08.bks.cpg/sg46_4_cif.got.tgz:7845.got - 2010.06.03 19:58:25.
