data_PCOD9380118
_publ_section_title
;
Structure prediction by ZEFSAII (Michael W. Deem and Ramdas Pophale) SiO2 
 PCOD9380118
Probable space group: I M A 2
;
_chemical_formula_sum "Si O2"
_cell_formula_units_Z 60
_cell_length_a 17.326040
_cell_length_b 18.501907
_cell_length_c 9.430743
_cell_angle_alpha 90.000000
_cell_angle_beta 90.000000
_cell_angle_gamma 90.000000
_cell_volume 3023.164062
_symmetry_space_group_name_H-M "I M A 2"
_symmetry_group_IT_number 46
_symmetry_cell_setting 'orthorhombic'
loop_
_space_group_symop_operation_xyz
x,y,z
-x,-y,z
1/2-x,y,z
1/2+x,-y,z
1/2+x,1/2+y,1/2+z
1/2-x,1/2-y,1/2+z
-x,1/2+y,1/2+z
x,1/2-y,1/2+z
loop_
_atom_site_type_symbol
_atom_site_label
_atom_site_fract_x
_atom_site_fract_y
_atom_site_fract_z
Si Si1 0.887878 0.167022 0.385140
Si Si2 0.113278 0.287043 0.669687
Si Si3 0.993625 0.584947 0.370135
Si Si4 0.665178 0.838034 0.877102
Si Si5 0.514207 0.585043 0.048848
Si Si6 0.250000 0.947866 0.390814
Si Si7 0.664984 0.901925 0.396270
Si Si8 0.062812 0.701184 0.575654
O O1 0.817508 0.113541 0.414478
O O2 0.893979 0.239503 0.479917
O O3 0.890817 0.184632 0.218429
O O4 0.966080 0.126263 0.430710
O O5 0.143352 0.220550 0.760195
O O6 0.160456 0.296722 0.526384
O O7 0.128054 0.358787 0.764696
O O8 0.023570 0.275534 0.627256
O O9 0.903860 0.605113 0.386693
O O10 0.013581 0.604008 0.207092
O O11 0.000000 0.500000 0.391929
O O12 0.044465 0.631606 0.477933
O O13 0.750000 0.869081 0.853626
O O14 0.500000 0.500000 0.032625
O O15 0.604117 0.601894 0.023778
O O16 0.316165 0.013443 0.369394
O O17 0.750000 0.869735 0.427192
#
# Coordination Sequence:
#
# PCOD9380118 Si02
#       8
#     8   8   8   8   8   4   8   8
#     4  12  23  44  69 100 130 175 234 283 349 407
#     4  11  22  40  63  96 133 167 220 267 329 410
#     4  10  25  42  62  94 134 169 228 277 331 404
#     4  11  23  38  59  94 128 174 202 271 335 390
#     4  11  20  39  67  93 127 178 222 277 333 411
#     4  10  26  42  66 104 136 174 230 292 334 420
#     4  10  21  38  60 102 133 173 221 275 336 406
#     4  11  24  42  70  96 126 178 226 286 335 405
#
# _framework density 19.846755000000002
#
# number of rings (size 3 to 8) (size 9 to 14) (size 15 to 20)
#    0.400    0.800    2.667    4.400    1.867    3.733 
#    0.000    0.000    1.467    0.000    0.000    0.000 
#    0.000    0.000    0.000    0.000    0.000    0.000 
#
# Total GULP energy -167024.496414 kJ/mol
# GULP energy per Si atom -5567.483214 kJ/mol
# Density = 1.980158 g / cm^3
# Si number density = 19.846755 Si / 1000 Ang^3
#
#
#
# Elastic Constant Matrix: (Units=GPa)
#
#
# Indices 1 2 3 4 5 6 
#
# 1 88.6320 48.7305 16.9653 0.0000 0.0000 0.0000
# 2 48.7305 136.1666 61.5425 0.0000 0.0000 0.0000
# 3 16.9653 61.5425 114.0301 0.0000 0.0000 0.0000
# 4 0.0000 0.0000 0.0000 25.0853 0.0000 0.0000
# 5 0.0000 0.0000 0.0000 0.0000 -0.9015 0.0000
# 6 0.0000 0.0000 0.0000 0.0000 0.0000 26.8753
#
#
#
# Elastic Compliance Matrix: (Units=1/GPa)
#
#
# Indices 1 2 3 4 5 6 
#
# 1 0.014105 -0.005422 0.000828 0.000000 0.000000 0.000000
# 2 -0.005422 0.011797 -0.005560 0.000000 0.000000 0.000000
# 3 0.000828 -0.005560 0.011647 0.000000 0.000000 0.000000
# 4 0.000000 0.000000 0.000000 0.039864 0.000000 0.000000
# 5 0.000000 0.000000 0.000000 0.000000 -1.109257 0.000000
# 6 0.000000 0.000000 0.000000 0.000000 0.000000 0.037209
#
#
# Mechanical properties :
#
#
# Convention : Reuss Voigt Hill
#
# Bulk Modulus (GPa) = 58.00240 65.92282 61.96261
# Shear Modulus (GPa) = -5.16221 24.31784 9.57782
#
# Velocity S-wave (km/s) = -1.61452 3.50420 2.19917
# Velocity P-wave (km/s) = 5.08065 7.04703 6.14303
#
# Compressibility (1/GPa) = 0.01724067
#
# Stress axis : x y z
#
# Youngs Moduli (GPa) = 70.89579 84.76401 85.85557
#
# Poissons Ratio (x) = 0.45959 -0.07106
# Poissons Ratio (y) = 0.38440 0.47740
# Poissons Ratio (z) = -0.05868 0.47133
#
# Static dielectric constant tensor:
#      x y z
#    x 1.682200 0.000000 0.000000 
#    y 0.000000 1.709970 0.000000 
#    z 0.000000 0.000000 1.712300 
# 
# From -- ./inp_files/6822.got.cif
#   From: 2010.05.17/outbox.cif.g08.bks.cpg/sg46_4_cif.got.tgz:6822.got - 2010.06.03 19:58:25.
