data_PCOD9380588
_publ_section_title
;
Structure prediction by ZEFSAII (Michael W. Deem and Ramdas Pophale) SiO2 
 PCOD9380588
Probable space group: I M A 2
;
_chemical_formula_sum "Si O2"
_cell_formula_units_Z 32
_cell_length_a 24.455605
_cell_length_b 4.861315
_cell_length_c 10.980967
_cell_angle_alpha 90.000000
_cell_angle_beta 90.000000
_cell_angle_gamma 90.000000
_cell_volume 1305.487629
_symmetry_space_group_name_H-M "I M A 2"
_symmetry_group_IT_number 46
_symmetry_cell_setting 'orthorhombic'
loop_
_space_group_symop_operation_xyz
x,y,z
-x,-y,z
1/2-x,y,z
1/2+x,-y,z
1/2+x,1/2+y,1/2+z
1/2-x,1/2-y,1/2+z
-x,1/2+y,1/2+z
x,1/2-y,1/2+z
loop_
_atom_site_type_symbol
_atom_site_label
_atom_site_fract_x
_atom_site_fract_y
_atom_site_fract_z
Si Si1 0.631421 0.056672 0.824490
Si Si2 0.250000 0.532133 0.602462
Si Si3 0.750000 0.083703 0.837139
Si Si4 0.869501 0.048809 0.089253
Si Si5 0.961188 0.748393 0.709572
O O1 0.692499 0.927836 0.824816
O O2 0.627933 0.252959 0.706770
O O3 0.582053 0.846159 0.810300
O O4 0.627003 0.193323 0.957685
O O5 0.250000 0.702518 0.726750
O O6 0.250000 0.704838 0.474683
O O7 0.310144 0.397574 0.595229
O O8 0.921228 0.851966 0.102837
O O9 0.000000 0.500000 0.748730
O O10 0.000000 0.000000 0.675262
#
# Coordination Sequence:
#
# PCOD9380588 Si02
#       5
#     8   4   4   8   8
#     4  10  22  43  72 104 141 181 230 288 350 414
#     4   8  16  35  66 103 136 174 221 281 350 414
#     4   8  16  35  66 103 136 174 221 281 350 414
#     4  10  22  43  72 104 141 181 230 288 350 414
#     4  12  26  47  66 105 138 188 236 288 338 406
#
# _framework density 24.511914999999998
#
# number of rings (size 3 to 8) (size 9 to 14) (size 15 to 20)
#    0.000    2.000    2.500    0.000    0.000    5.000 
#    0.000    0.000    0.000    9.000    0.000    0.000 
#    0.000    0.000    0.000    0.000    0.000    0.000 
#
# Total GULP energy -89219.384164 kJ/mol
# GULP energy per Si atom -5576.211510 kJ/mol
# Density = 2.445612 g / cm^3
# Si number density = 24.511915 Si / 1000 Ang^3
#
#
#
# Elastic Constant Matrix: (Units=GPa)
#
#
# Indices 1 2 3 4 5 6 
#
# 1 234.7665 68.0984 9.6139 0.0000 0.0000 0.0000
# 2 68.0984 71.0316 45.2608 0.0000 0.0000 0.0000
# 3 9.6139 45.2608 196.3890 0.0000 0.0000 0.0000
# 4 0.0000 0.0000 0.0000 30.7054 0.0000 0.0000
# 5 0.0000 0.0000 0.0000 0.0000 28.0533 0.0000
# 6 0.0000 0.0000 0.0000 0.0000 0.0000 -151.3433
#
#
#
# Elastic Compliance Matrix: (Units=1/GPa)
#
#
# Indices 1 2 3 4 5 6 
#
# 1 0.006147 -0.006683 0.001239 0.000000 0.000000 0.000000
# 2 -0.006683 0.023767 -0.005150 0.000000 0.000000 0.000000
# 3 0.001239 -0.005150 0.006218 0.000000 0.000000 0.000000
# 4 0.000000 0.000000 0.000000 0.032568 0.000000 0.000000
# 5 0.000000 0.000000 0.000000 0.000000 0.035646 0.000000
# 6 0.000000 0.000000 0.000000 0.000000 0.000000 -0.006607
#
#
# Mechanical properties :
#
#
# Convention : Reuss Voigt Hill
#
# Bulk Modulus (GPa) = 66.91484 83.12589 75.02036
# Shear Modulus (GPa) = 40.35208 6.76403 23.55806
#
# Velocity S-wave (km/s) = 4.06177 1.66297 3.10350
# Velocity P-wave (km/s) = 7.02534 6.13786 6.59655
#
# Compressibility (1/GPa) = 0.01494437
#
# Stress axis : x y z
#
# Youngs Moduli (GPa) = 162.67051 42.07468 160.81716
#
# Poissons Ratio (x) = 0.28119 -0.19930
# Poissons Ratio (y) = 1.08716 0.82827
# Poissons Ratio (z) = -0.20160 0.21670
#
# Static dielectric constant tensor:
#      x y z
#    x 1.969090 0.000000 0.000000 
#    y 0.000000 1.997830 0.000000 
#    z 0.000000 0.000000 1.969080 
# 
# From -- ./inp_files/12574.got.cif
#   From: 2010.05.17/outbox.cif.g08.bks.cpg/sg46_7_cif.got.tgz:12574.got - 2010.06.03 19:58:25.
