data_PCOD9380795
_publ_section_title
;
Structure prediction by ZEFSAII (Michael W. Deem and Ramdas Pophale) SiO2 
 PCOD9380795
Probable space group: I M A 2
;
_chemical_formula_sum "Si O2"
_cell_formula_units_Z 48
_cell_length_a 19.006162
_cell_length_b 15.073330
_cell_length_c 9.636084
_cell_angle_alpha 90.000000
_cell_angle_beta 90.000000
_cell_angle_gamma 90.000000
_cell_volume 2760.604624
_symmetry_space_group_name_H-M "I M A 2"
_symmetry_group_IT_number 46
_symmetry_cell_setting 'orthorhombic'
loop_
_space_group_symop_operation_xyz
x,y,z
-x,-y,z
1/2-x,y,z
1/2+x,-y,z
1/2+x,1/2+y,1/2+z
1/2-x,1/2-y,1/2+z
-x,1/2+y,1/2+z
x,1/2-y,1/2+z
loop_
_atom_site_type_symbol
_atom_site_label
_atom_site_fract_x
_atom_site_fract_y
_atom_site_fract_z
Si Si1 0.580146 0.966118 0.905230
Si Si2 0.405996 0.570207 0.023018
Si Si3 0.937022 0.281709 0.808617
Si Si4 0.331678 0.621872 0.290252
Si Si5 0.464430 0.299943 0.544652
Si Si6 0.436624 0.389419 0.107435
O O1 0.590103 0.917992 0.757229
O O2 0.500000 0.000000 0.910942
O O3 0.630970 0.051213 0.894680
O O4 0.580748 0.888316 0.019536
O O5 0.409795 0.631333 0.888969
O O6 0.344414 0.588482 0.132078
O O7 0.411161 0.464819 0.000380
O O8 0.478180 0.598860 0.104729
O O9 0.872242 0.215165 0.791450
O O10 0.978869 0.307499 0.669286
O O11 0.991805 0.227691 0.906827
O O12 0.250000 0.629870 0.322088
O O13 0.419750 0.211473 0.575179
#
# Coordination Sequence:
#
# PCOD9380795 Si02
#       6
#     8   8   8   8   8   8
#     4  11  17  34  54  75 110 146 192 240 274 343
#     4   9  17  32  52  75 107 143 183 225 275 349
#     4  11  19  34  52  84 113 142 187 232 290 345
#     4  11  21  34  55  82 117 158 189 226 294 368
#     4  11  18  32  56  82 110 139 184 241 292 331
#     4   9  15  31  52  73 103 137 174 230 282 323
#
# _framework density 17.387495999999999
#
# number of rings (size 3 to 8) (size 9 to 14) (size 15 to 20)
#    0.000    1.667   10.000    0.000    0.000    0.667 
#    6.000    0.000    0.000    4.000    0.000    0.000 
#    0.000    0.000    0.000    0.000    0.000    0.000 
#
# Total GULP energy -133634.220125 kJ/mol
# GULP energy per Si atom -5568.092505 kJ/mol
# Density = 1.734792 g / cm^3
# Si number density = 17.387496 Si / 1000 Ang^3
#
#
#
# Elastic Constant Matrix: (Units=GPa)
#
#
# Indices 1 2 3 4 5 6 
#
# 1 51.8864 27.8084 17.9110 0.0000 0.0000 0.0000
# 2 27.8084 142.0431 38.0295 0.0000 0.0000 0.0000
# 3 17.9110 38.0295 56.2439 0.0000 0.0000 0.0000
# 4 0.0000 0.0000 0.0000 33.6116 0.0000 0.0000
# 5 0.0000 0.0000 0.0000 0.0000 7.3941 0.0000
# 6 0.0000 0.0000 0.0000 0.0000 0.0000 13.6750
#
#
#
# Elastic Compliance Matrix: (Units=1/GPa)
#
#
# Indices 1 2 3 4 5 6 
#
# 1 0.022694 -0.003062 -0.005156 0.000000 0.000000 0.000000
# 2 -0.003062 0.009010 -0.005117 0.000000 0.000000 0.000000
# 3 -0.005156 -0.005117 0.022881 0.000000 0.000000 0.000000
# 4 0.000000 0.000000 0.000000 0.029752 0.000000 0.000000
# 5 0.000000 0.000000 0.000000 0.000000 0.135242 0.000000
# 6 0.000000 0.000000 0.000000 0.000000 0.000000 0.073126
#
#
# Mechanical properties :
#
#
# Convention : Reuss Voigt Hill
#
# Bulk Modulus (GPa) = 35.82390 46.40792 41.11591
# Shear Modulus (GPa) = 15.21233 22.03112 18.62173
#
# Velocity S-wave (km/s) = 2.96108 3.56345 3.27614
# Velocity P-wave (km/s) = 5.68671 6.60903 6.16514
#
# Compressibility (1/GPa) = 0.02791432
#
# Stress axis : x y z
#
# Youngs Moduli (GPa) = 44.06434 110.99349 43.70376
#
# Poissons Ratio (x) = 0.33991 0.22535
# Poissons Ratio (y) = 0.13494 0.22361
# Poissons Ratio (z) = 0.22721 0.56791
#
# Static dielectric constant tensor:
#      x y z
#    x 1.570250 0.000000 0.000000 
#    y 0.000000 1.678360 0.000000 
#    z 0.000000 0.000000 1.628640 
# 
# From -- ./inp_files/6618.got.cif
#   From: 2010.05.17/outbox.cif.g08.bks.cpg/sg46_4_cif.got.tgz:6618.got - 2010.06.03 19:58:25.
