data_PCOD9380452
_publ_section_title
;
Structure prediction by ZEFSAII (Michael W. Deem and Ramdas Pophale) SiO2 
 PCOD9380452
Probable space group: I M A 2
;
_chemical_formula_sum "Si O2"
_cell_formula_units_Z 60
_cell_length_a 9.186822
_cell_length_b 26.778049
_cell_length_c 12.054763
_cell_angle_alpha 90.000000
_cell_angle_beta 90.000000
_cell_angle_gamma 90.000000
_cell_volume 2965.534017
_symmetry_space_group_name_H-M "I M A 2"
_symmetry_group_IT_number 46
_symmetry_cell_setting 'orthorhombic'
loop_
_space_group_symop_operation_xyz
x,y,z
-x,-y,z
1/2-x,y,z
1/2+x,-y,z
1/2+x,1/2+y,1/2+z
1/2-x,1/2-y,1/2+z
-x,1/2+y,1/2+z
x,1/2-y,1/2+z
loop_
_atom_site_type_symbol
_atom_site_label
_atom_site_fract_x
_atom_site_fract_y
_atom_site_fract_z
Si Si1 0.500000 0.000000 0.742950
Si Si2 0.082641 0.713785 0.926985
Si Si3 0.576042 0.611644 0.854898
Si Si4 0.907677 0.324846 0.160949
Si Si5 0.595287 0.432369 0.046070
Si Si6 0.075616 0.948749 0.166919
Si Si7 0.417054 0.313297 0.365297
Si Si8 0.918732 0.574199 0.441232
O O1 0.590390 0.030702 0.650817
O O2 0.437304 0.041472 0.828571
O O3 0.250000 0.706913 0.889270
O O4 0.986958 0.666510 0.886512
O O5 0.016864 0.766657 0.894763
O O6 0.084418 0.713215 0.060321
O O7 0.750000 0.612815 0.843479
O O8 0.496032 0.593886 0.743110
O O9 0.529235 0.572557 0.953143
O O10 0.750000 0.319130 0.219971
O O11 0.905422 0.378424 0.103169
O O12 0.047075 0.321610 0.236806
O O13 0.750000 0.439616 0.986156
O O14 0.250000 0.950069 0.175755
O O15 0.000000 0.000000 0.205512
O O16 0.026399 0.942380 0.038721
O O17 0.250000 0.300791 0.386928
O O18 0.447440 0.367249 0.419103
O O19 0.750000 0.568215 0.477082
#
# Coordination Sequence:
#
# PCOD9380452 Si02
#       8
#     4   8   8   8   8   8   8   8
#     4  12  22  40  68  96 134 174 220 266 322 382
#     4  10  22  42  66  93 125 165 214 266 323 387
#     4  11  24  44  69  97 131 171 216 269 330 390
#     4   9  19  38  60  86 121 162 207 264 317 375
#     4  10  22  39  63  95 131 170 216 265 318 381
#     4  12  26  45  69  95 131 176 222 272 324 385
#     4  11  23  39  62  94 130 167 210 265 323 386
#     4  11  25  43  64  97 135 174 221 269 323 387
#
# _framework density 20.232443
#
# number of rings (size 3 to 8) (size 9 to 14) (size 15 to 20)
#    0.000    1.333    2.000    4.400    0.933    6.400 
#    0.000    2.667    0.000    0.000    0.000    0.000 
#    0.000    0.000    0.000    0.000    0.000    0.000 
#
# Total GULP energy -167271.468431 kJ/mol
# GULP energy per Si atom -5575.715614 kJ/mol
# Density = 2.018639 g / cm^3
# Si number density = 20.232443 Si / 1000 Ang^3
#
#
#
# Elastic Constant Matrix: (Units=GPa)
#
#
# Indices 1 2 3 4 5 6 
#
# 1 154.6939 56.0903 39.3988 -0.0002 -0.0001 0.0002
# 2 56.0903 69.4959 22.9562 0.0002 0.0001 -0.0002
# 3 39.3988 22.9562 59.7581 0.0002 0.0005 -0.0014
# 4 -0.0002 0.0002 0.0002 -32.1183 0.0001 -0.0004
# 5 -0.0001 0.0001 0.0005 0.0001 29.1973 -0.0004
# 6 0.0002 -0.0002 -0.0014 -0.0004 -0.0004 -46.3161
#
#
#
# Elastic Compliance Matrix: (Units=1/GPa)
#
#
# Indices 1 2 3 4 5 6 
#
# 1 0.009894 -0.006678 -0.003958 0.000000 0.000000 0.000000
# 2 -0.006678 0.020988 -0.003660 0.000000 0.000000 0.000000
# 3 -0.003958 -0.003660 0.020749 0.000000 0.000000 -0.000001
# 4 0.000000 0.000000 0.000000 -0.031135 0.000000 0.000000
# 5 0.000000 0.000000 0.000000 0.000000 0.034250 0.000000
# 6 0.000000 0.000000 -0.000001 0.000000 0.000000 -0.021591
#
#
# Mechanical properties :
#
#
# Convention : Reuss Voigt Hill
#
# Bulk Modulus (GPa) = 43.40210 57.87094 50.63652
# Shear Modulus (GPa) = 72.01919 1.18608 36.60264
#
# Velocity S-wave (km/s) = 5.97270 0.76649 4.25797
# Velocity P-wave (km/s) = 8.31039 5.42664 7.01823
#
# Compressibility (1/GPa) = 0.02304036
#
# Stress axis : x y z
#
# Youngs Moduli (GPa) = 101.07459 47.64624 48.19430
#
# Poissons Ratio (x) = 0.31818 0.19073
# Poissons Ratio (y) = 0.67497 0.17638
# Poissons Ratio (z) = 0.40002 0.17438
#
# Static dielectric constant tensor:
#      x y z
#    x 1.633570 0.000000 0.000000 
#    y 0.000000 1.785740 0.000000 
#    z 0.000000 0.000000 1.706520 
# 
# From -- ./inp_files/9550.got.cif
#   From: 2010.05.17/outbox.cif.g08.bks.cpg/sg46_5_cif.got.tgz:9550.got - 2010.06.03 19:58:25.
