data_PCOD9380002
_publ_section_title
;
Structure prediction by ZEFSAII (Michael W. Deem and Ramdas Pophale) SiO2 
 PCOD9380002
Probable space group: I M A 2
;
_chemical_formula_sum "Si O2"
_cell_formula_units_Z 60
_cell_length_a 13.699657
_cell_length_b 11.838701
_cell_length_c 19.447985
_cell_angle_alpha 90.000000
_cell_angle_beta 90.000000
_cell_angle_gamma 90.000000
_cell_volume 3154.193677
_symmetry_space_group_name_H-M "I M A 2"
_symmetry_group_IT_number 46
_symmetry_cell_setting 'orthorhombic'
loop_
_space_group_symop_operation_xyz
x,y,z
-x,-y,z
1/2-x,y,z
1/2+x,-y,z
1/2+x,1/2+y,1/2+z
1/2-x,1/2-y,1/2+z
-x,1/2+y,1/2+z
x,1/2-y,1/2+z
loop_
_atom_site_type_symbol
_atom_site_label
_atom_site_fract_x
_atom_site_fract_y
_atom_site_fract_z
Si Si1 0.940039 0.743775 0.265150
Si Si2 0.855330 0.126008 0.566080
Si Si3 0.633943 0.208948 0.189819
Si Si4 0.632329 0.694319 0.910642
Si Si5 0.867187 0.723018 0.561287
Si Si6 0.000000 0.500000 0.964288
Si Si7 0.595524 0.927512 0.659259
Si Si8 0.132985 0.446907 0.673533
O O1 0.915781 0.747255 0.344856
O O2 0.881320 0.642386 0.227534
O O3 0.903051 0.861375 0.232061
O O4 0.054068 0.736655 0.241554
O O5 0.750000 0.143391 0.531700
O O6 0.876467 0.232846 0.614906
O O7 0.935060 0.083091 0.512072
O O8 0.845173 0.023030 0.620299
O O9 0.750000 0.220153 0.208583
O O10 0.606737 0.076857 0.184085
O O11 0.750000 0.680524 0.902587
O O12 0.576466 0.575406 0.921813
O O13 0.614089 0.764287 0.980849
O O14 0.750000 0.736493 0.569953
O O15 0.912803 0.827192 0.603440
O O16 0.896895 0.609188 0.600714
O O17 0.500000 0.000000 0.674747
O O18 0.250000 0.444808 0.675214
#
# Coordination Sequence:
#
# PCOD9380002 Si02
#       8
#     8   8   8   8   8   4   8   8
#     4  11  22  37  57  84 118 154 196 238 286 340
#     4  11  20  35  62  92 118 149 189 242 300 352
#     4  10  21  36  57  87 120 153 194 238 289 349
#     4  11  24  39  58  86 118 154 194 236 290 345
#     4   9  18  34  57  85 111 143 187 241 287 332
#     4  12  22  38  58  86 122 150 188 242 294 350
#     4  11  18  34  59  85 117 144 193 242 291 337
#     4   9  19  35  58  85 113 147 194 242 286 336
#
# _framework density 19.022293999999999
#
# number of rings (size 3 to 8) (size 9 to 14) (size 15 to 20)
#    0.000    1.600    3.333    1.600    3.733    1.600 
#    0.000    0.667    2.933    0.000    0.000    0.000 
#    0.000    0.000    0.000    0.000    0.000    0.000 
#
# Total GULP energy -167162.794913 kJ/mol
# GULP energy per Si atom -5572.093164 kJ/mol
# Density = 1.897900 g / cm^3
# Si number density = 19.022294 Si / 1000 Ang^3
#
#
#
# Elastic Constant Matrix: (Units=GPa)
#
#
# Indices 1 2 3 4 5 6 
#
# 1 59.1462 9.6959 16.4817 0.0000 0.0000 0.0000
# 2 9.6959 55.1796 18.1442 0.0000 0.0000 0.0000
# 3 16.4817 18.1442 108.8534 0.0000 0.0000 0.0000
# 4 0.0000 0.0000 0.0000 22.0214 0.0000 0.0000
# 5 0.0000 0.0000 0.0000 0.0000 8.7250 0.0000
# 6 0.0000 0.0000 0.0000 0.0000 0.0000 39.4197
#
#
#
# Elastic Compliance Matrix: (Units=1/GPa)
#
#
# Indices 1 2 3 4 5 6 
#
# 1 0.017945 -0.002391 -0.002319 0.000000 0.000000 0.000000
# 2 -0.002391 0.019492 -0.002887 0.000000 0.000000 0.000000
# 3 -0.002319 -0.002887 0.010019 0.000000 0.000000 0.000000
# 4 0.000000 0.000000 0.000000 0.045410 0.000000 0.000000
# 5 0.000000 0.000000 0.000000 0.000000 0.114613 0.000000
# 6 0.000000 0.000000 0.000000 0.000000 0.000000 0.025368
#
#
# Mechanical properties :
#
#
# Convention : Reuss Voigt Hill
#
# Bulk Modulus (GPa) = 30.99494 34.64698 32.82096
# Shear Modulus (GPa) = 19.32029 25.95704 22.63867
#
# Velocity S-wave (km/s) = 3.19041 3.69800 3.45354
# Velocity P-wave (km/s) = 5.46818 6.04045 5.76142
#
# Compressibility (1/GPa) = 0.03226333
#
# Stress axis : x y z
#
# Youngs Moduli (GPa) = 55.72486 51.30294 99.81072
#
# Poissons Ratio (x) = 0.12266 0.23142
# Poissons Ratio (y) = 0.13323 0.28816
# Poissons Ratio (z) = 0.12920 0.14811
#
# Static dielectric constant tensor:
#      x y z
#    x 1.818690 0.000000 0.000000 
#    y 0.000000 1.677280 0.000000 
#    z 0.000000 0.000000 1.641390 
# 
# From -- ./inp_files/19596.got.cif
#   From: 2010.05.17/outbox.cif.g08.bks.cpg/sg46_10_cif.got.tgz:19596.got - 2010.06.03 19:58:25.
