data_PCOD9380621
_publ_section_title
;
Structure prediction by ZEFSAII (Michael W. Deem and Ramdas Pophale) SiO2 
 PCOD9380621
Probable space group: I M A 2
;
_chemical_formula_sum "Si O2"
_cell_formula_units_Z 32
_cell_length_a 12.539410
_cell_length_b 12.398382
_cell_length_c 8.518391
_cell_angle_alpha 90.000000
_cell_angle_beta 90.000000
_cell_angle_gamma 90.000000
_cell_volume 1324.340579
_symmetry_space_group_name_H-M "I M A 2"
_symmetry_group_IT_number 46
_symmetry_cell_setting 'orthorhombic'
loop_
_space_group_symop_operation_xyz
x,y,z
-x,-y,z
1/2-x,y,z
1/2+x,-y,z
1/2+x,1/2+y,1/2+z
1/2-x,1/2-y,1/2+z
-x,1/2+y,1/2+z
x,1/2-y,1/2+z
loop_
_atom_site_type_symbol
_atom_site_label
_atom_site_fract_x
_atom_site_fract_y
_atom_site_fract_z
Si Si1 0.952241 0.886503 0.599850
Si Si2 0.000000 0.500000 0.604461
Si Si3 0.750000 0.039206 0.028737
Si Si4 0.750000 0.499067 0.191205
Si Si5 0.250000 0.642953 0.879227
Si Si6 0.025453 0.787186 0.317156
O O1 0.848994 0.921553 0.690100
O O2 0.939103 0.806856 0.453444
O O3 0.022213 0.823590 0.725421
O O4 0.000000 0.000000 0.540630
O O5 0.124044 0.492188 0.534837
O O6 0.009787 0.611162 0.702460
O O7 0.750000 0.101780 0.197470
O O8 0.750000 0.074737 0.845306
O O9 0.750000 0.443265 0.020102
O O10 0.360493 0.704105 0.900486
#
# Coordination Sequence:
#
# PCOD9380621 Si02
#       6
#     8   4   4   4   4   8
#     4  12  27  48  74 116 153 209 272 337 411 501
#     4  10  22  48  74 116 160 206 266 342 402 502
#     4  10  24  39  81 115 150 207 271 320 412 495
#     4  12  26  46  81 107 167 207 260 348 421 494
#     4  10  22  51  78 112 157 212 267 346 401 489
#     4  11  25  47  80 109 161 209 270 340 414 485
#
# _framework density 24.162970000000001
#
# number of rings (size 3 to 8) (size 9 to 14) (size 15 to 20)
#    0.000    1.000    3.750    1.500    5.250    6.000 
#    0.000    0.000    0.000    0.000    0.000    0.000 
#    0.000    0.000    0.000    0.000    0.000    0.000 
#
# Total GULP energy -89085.496302 kJ/mol
# GULP energy per Si atom -5567.843519 kJ/mol
# Density = 2.410797 g / cm^3
# Si number density = 24.162970 Si / 1000 Ang^3
#
#
#
# Elastic Constant Matrix: (Units=GPa)
#
#
# Indices 1 2 3 4 5 6 
#
# 1 125.4723 24.8580 23.4859 0.0000 0.0000 0.0000
# 2 24.8580 80.2932 35.9563 0.0000 0.0000 0.0000
# 3 23.4859 35.9563 129.5555 0.0000 0.0000 0.0000
# 4 0.0000 0.0000 0.0000 5.3205 0.0000 0.0000
# 5 0.0000 0.0000 0.0000 0.0000 -12.5457 0.0000
# 6 0.0000 0.0000 0.0000 0.0000 0.0000 33.0408
#
#
#
# Elastic Compliance Matrix: (Units=1/GPa)
#
#
# Indices 1 2 3 4 5 6 
#
# 1 0.008589 -0.002240 -0.000935 0.000000 0.000000 0.000000
# 2 -0.002240 0.014806 -0.003703 0.000000 0.000000 0.000000
# 3 -0.000935 -0.003703 0.008916 0.000000 0.000000 0.000000
# 4 0.000000 0.000000 0.000000 0.187951 0.000000 0.000000
# 5 0.000000 0.000000 0.000000 0.000000 -0.079709 0.000000
# 6 0.000000 0.000000 0.000000 0.000000 0.000000 0.030266
#
#
# Mechanical properties :
#
#
# Convention : Reuss Voigt Hill
#
# Bulk Modulus (GPa) = 53.89729 55.99127 54.94428
# Shear Modulus (GPa) = 26.21088 21.89784 24.05436
#
# Velocity S-wave (km/s) = 3.29713 3.01367 3.15859
# Velocity P-wave (km/s) = 6.07033 5.94410 6.00755
#
# Compressibility (1/GPa) = 0.01855381
#
# Stress axis : x y z
#
# Youngs Moduli (GPa) = 116.43127 67.53922 112.15789
#
# Poissons Ratio (x) = 0.15130 0.10489
# Poissons Ratio (y) = 0.26083 0.41534
# Poissons Ratio (z) = 0.10889 0.25011
#
# Static dielectric constant tensor:
#      x y z
#    x 1.973980 0.000000 0.000000 
#    y 0.000000 1.914670 0.000000 
#    z 0.000000 0.000000 1.956360 
# 
# From -- ./inp_files/4320.got.cif
#   From: 2010.05.17/outbox.cif.g08.bks.cpg/sg46_3_cif.got.tgz:4320.got - 2010.06.03 19:58:25.
