data_PCOD9380036
_publ_section_title
;
Structure prediction by ZEFSAII (Michael W. Deem and Ramdas Pophale) SiO2 
 PCOD9380036
Probable space group: I M A 2
;
_chemical_formula_sum "Si O2"
_cell_formula_units_Z 64
_cell_length_a 25.872421
_cell_length_b 8.610121
_cell_length_c 14.194055
_cell_angle_alpha 90.000000
_cell_angle_beta 90.000000
_cell_angle_gamma 90.000000
_cell_volume 3161.934054
_symmetry_space_group_name_H-M "I M A 2"
_symmetry_group_IT_number 46
_symmetry_cell_setting 'orthorhombic'
loop_
_space_group_symop_operation_xyz
x,y,z
-x,-y,z
1/2-x,y,z
1/2+x,-y,z
1/2+x,1/2+y,1/2+z
1/2-x,1/2-y,1/2+z
-x,1/2+y,1/2+z
x,1/2-y,1/2+z
loop_
_atom_site_type_symbol
_atom_site_label
_atom_site_fract_x
_atom_site_fract_y
_atom_site_fract_z
Si Si1 0.095747 0.287860 0.140590
Si Si2 0.562637 0.834332 0.434728
Si Si3 0.545163 0.214186 0.951966
Si Si4 0.857817 0.222826 0.737801
Si Si5 0.445317 0.555966 0.653692
Si Si6 0.578636 0.961685 0.823605
Si Si7 0.140384 0.918225 0.404621
Si Si8 0.189990 0.006513 0.596758
O O1 0.066838 0.364979 0.229568
O O2 0.154299 0.353028 0.136401
O O3 0.087502 0.103035 0.141183
O O4 0.072924 0.359047 0.044893
O O5 0.501151 0.830198 0.428668
O O6 0.583396 0.664556 0.405501
O O7 0.598501 0.950254 0.376282
O O8 0.601302 0.292025 0.950136
O O9 0.542520 0.092890 0.866871
O O10 0.539020 0.131082 0.052505
O O11 0.909978 0.313060 0.703729
O O12 0.833613 0.341375 0.813480
O O13 0.826528 0.153196 0.650319
O O14 0.872412 0.066643 0.795152
O O15 0.500000 0.500000 0.698439
O O16 0.176880 0.982881 0.486145
O O17 0.250000 0.036309 0.611169
#
# Coordination Sequence:
#
# PCOD9380036 Si02
#       8
#     8   8   8   8   8   8   8   8
#     4  10  22  37  61  88 123 165 210 263 318 377
#     4  11  20  37  56  87 131 169 205 256 302 379
#     4  11  20  37  57  87 131 169 212 249 306 374
#     4  10  23  39  62  94 127 166 213 266 314 388
#     4  12  21  37  59  92 132 173 205 250 309 385
#     4  10  21  37  56  86 122 170 210 253 304 365
#     4  10  22  38  61  90 124 163 210 263 322 378
#     4  10  22  44  67  88 120 163 216 280 335 377
#
# _framework density 20.240776
#
# number of rings (size 3 to 8) (size 9 to 14) (size 15 to 20)
#    0.000    1.500    3.750    1.500    0.000    5.500 
#    0.000    2.500    0.000   18.000    0.000    0.000 
#    0.000    0.000    0.000    0.000    0.000    0.000 
#
# Total GULP energy -178351.404221 kJ/mol
# GULP energy per Si atom -5573.481382 kJ/mol
# Density = 2.019471 g / cm^3
# Si number density = 20.240776 Si / 1000 Ang^3
#
#
#
# Elastic Constant Matrix: (Units=GPa)
#
#
# Indices 1 2 3 4 5 6 
#
# 1 88.0483 20.7165 12.9627 0.0000 0.0000 0.0000
# 2 20.7165 90.7529 16.0700 0.0000 0.0000 0.0000
# 3 12.9627 16.0700 75.9496 0.0000 0.0000 0.0000
# 4 0.0000 0.0000 0.0000 32.3708 0.0000 0.0000
# 5 0.0000 0.0000 0.0000 0.0000 9.1082 0.0000
# 6 0.0000 0.0000 0.0000 0.0000 0.0000 17.7064
#
#
#
# Elastic Compliance Matrix: (Units=1/GPa)
#
#
# Indices 1 2 3 4 5 6 
#
# 1 0.012175 -0.002505 -0.001548 0.000000 0.000000 0.000000
# 2 -0.002505 0.011963 -0.002104 0.000000 0.000000 0.000000
# 3 -0.001548 -0.002104 0.013876 0.000000 0.000000 0.000000
# 4 0.000000 0.000000 0.000000 0.030892 0.000000 0.000000
# 5 0.000000 0.000000 0.000000 0.000000 0.109792 0.000000
# 6 0.000000 0.000000 0.000000 0.000000 0.000000 0.056477
#
#
# Mechanical properties :
#
#
# Convention : Reuss Voigt Hill
#
# Bulk Modulus (GPa) = 38.90965 39.36102 39.13534
# Shear Modulus (GPa) = 19.52708 25.50385 22.51547
#
# Velocity S-wave (km/s) = 3.10940 3.55353 3.33886
# Velocity P-wave (km/s) = 5.67065 6.02706 5.85157
#
# Compressibility (1/GPa) = 0.02570056
#
# Stress axis : x y z
#
# Youngs Moduli (GPa) = 82.13758 83.58907 72.06721
#
# Poissons Ratio (x) = 0.20940 0.11155
# Poissons Ratio (y) = 0.20576 0.15161
# Poissons Ratio (z) = 0.12714 0.17585
#
# Static dielectric constant tensor:
#      x y z
#    x 1.710290 0.000000 0.000000 
#    y 0.000000 1.774850 0.000000 
#    z 0.000000 0.000000 1.748040 
# 
# From -- ./inp_files/17423.got.cif
#   From: 2010.05.17/outbox.cif.g08.bks.cpg/sg46_9_cif.got.tgz:17423.got - 2010.06.03 19:58:25.
