data_PCOD9380351
_publ_section_title
;
Structure prediction by ZEFSAII (Michael W. Deem and Ramdas Pophale) SiO2 
 PCOD9380351
Probable space group: I M A 2
;
_chemical_formula_sum "Si O2"
_cell_formula_units_Z 60
_cell_length_a 17.756229
_cell_length_b 12.058642
_cell_length_c 11.082615
_cell_angle_alpha 90.000000
_cell_angle_beta 90.000000
_cell_angle_gamma 90.000000
_cell_volume 2372.965291
_symmetry_space_group_name_H-M "I M A 2"
_symmetry_group_IT_number 46
_symmetry_cell_setting 'orthorhombic'
loop_
_space_group_symop_operation_xyz
x,y,z
-x,-y,z
1/2-x,y,z
1/2+x,-y,z
1/2+x,1/2+y,1/2+z
1/2-x,1/2-y,1/2+z
-x,1/2+y,1/2+z
x,1/2-y,1/2+z
loop_
_atom_site_type_symbol
_atom_site_label
_atom_site_fract_x
_atom_site_fract_y
_atom_site_fract_z
Si Si1 0.663699 0.191903 0.612040
Si Si2 0.663552 0.954429 0.708678
Si Si3 0.000000 0.500000 0.332086
Si Si4 0.169231 0.226463 0.512898
Si Si5 0.983354 0.632980 0.725381
Si Si6 0.667818 0.938869 0.291301
Si Si7 0.159132 0.691207 0.852684
Si Si8 0.496801 0.280289 0.466674
O O1 0.750000 0.233761 0.608012
O O2 0.637495 0.231786 0.742144
O O3 0.626903 0.223732 0.483992
O O4 0.664216 0.059336 0.617238
O O5 0.750000 0.963651 0.767262
O O6 0.578950 0.966674 0.765127
O O7 0.663734 0.838855 0.638764
O O8 0.023610 0.604695 0.411047
O O9 0.250000 0.285297 0.503945
O O10 0.172156 0.124807 0.417069
O O11 0.095513 0.290083 0.472560
O O12 0.893148 0.626309 0.716421
O O13 0.010937 0.709256 0.613468
O O14 0.002969 0.684028 0.859251
O O15 0.000000 0.500000 0.715220
O O16 0.750000 0.941694 0.234493
O O17 0.643977 0.065183 0.315863
O O18 0.250000 0.697441 0.866002
#
# Coordination Sequence:
#
# PCOD9380351 Si02
#       8
#     8   8   4   8   8   8   8   8
#     4   9  17  32  57  89 134 188 247 313 383 467
#     4  10  21  42  69 105 153 209 271 332 407 496
#     4  12  26  46  72 114 164 210 264 344 408 500
#     4   9  18  39  74 108 143 198 269 336 407 491
#     4  11  25  50  75 107 150 202 258 325 397 477
#     4   9  18  37  66  99 140 191 248 316 393 473
#     4   9  16  31  55  89 134 188 247 311 383 464
#     4  11  25  49  76 109 155 202 261 327 409 485
#
# _framework density 25.284821000000001
#
# number of rings (size 3 to 8) (size 9 to 14) (size 15 to 20)
#    0.000    2.133    2.000    0.800    0.000    2.133 
#   13.200    6.667    0.000    0.000    0.000    0.000 
#    0.000    0.000    0.000    0.000    0.000    0.000 
#
# Total GULP energy -167217.974050 kJ/mol
# GULP energy per Si atom -5573.932468 kJ/mol
# Density = 2.522727 g / cm^3
# Si number density = 25.284821 Si / 1000 Ang^3
#
#
#
# Elastic Constant Matrix: (Units=GPa)
#
#
# Indices 1 2 3 4 5 6 
#
# 1 84.5776 15.1575 71.6862 0.0000 0.0000 0.0000
# 2 15.1575 97.4797 58.7413 0.0000 0.0000 0.0000
# 3 71.6862 58.7413 162.2861 0.0000 0.0000 0.0000
# 4 0.0000 0.0000 0.0000 43.3397 0.0000 0.0000
# 5 0.0000 0.0000 0.0000 0.0000 15.0503 0.0000
# 6 0.0000 0.0000 0.0000 0.0000 0.0000 35.2301
#
#
#
# Elastic Compliance Matrix: (Units=1/GPa)
#
#
# Indices 1 2 3 4 5 6 
#
# 1 0.019461 0.002755 -0.009594 0.000000 0.000000 0.000000
# 2 0.002755 0.013510 -0.006107 0.000000 0.000000 0.000000
# 3 -0.009594 -0.006107 0.012610 0.000000 0.000000 0.000000
# 4 0.000000 0.000000 0.000000 0.023074 0.000000 0.000000
# 5 0.000000 0.000000 0.000000 0.000000 0.066444 0.000000
# 6 0.000000 0.000000 0.000000 0.000000 0.000000 0.028385
#
#
# Mechanical properties :
#
#
# Convention : Reuss Voigt Hill
#
# Bulk Modulus (GPa) = 50.78684 70.61260 60.69972
# Shear Modulus (GPa) = 25.51812 31.97460 28.74636
#
# Velocity S-wave (km/s) = 3.18028 3.55995 3.37546
# Velocity P-wave (km/s) = 5.79785 6.69964 6.26499
#
# Compressibility (1/GPa) = 0.01969014
#
# Stress axis : x y z
#
# Youngs Moduli (GPa) = 51.38421 74.01724 79.29968
#
# Poissons Ratio (x) = -0.20393 0.76079
# Poissons Ratio (y) = -0.14157 0.48430
# Poissons Ratio (z) = 0.49297 0.45204
#
# Static dielectric constant tensor:
#      x y z
#    x 2.300710 0.000000 0.000000 
#    y 0.000000 1.899530 0.000000 
#    z 0.000000 0.000000 2.007200 
# 
# From -- ./inp_files/12466.got.cif
#   From: 2010.05.17/outbox.cif.g08.bks.cpg/sg46_7_cif.got.tgz:12466.got - 2010.06.03 19:58:25.
