data_PCOD9380098
_publ_section_title
;
Structure prediction by ZEFSAII (Michael W. Deem and Ramdas Pophale) SiO2 
 PCOD9380098
Probable space group: I M A 2
;
_chemical_formula_sum "Si O2"
_cell_formula_units_Z 64
_cell_length_a 21.687477
_cell_length_b 24.459519
_cell_length_c 4.992755
_cell_angle_alpha 90.000000
_cell_angle_beta 90.000000
_cell_angle_gamma 90.000000
_cell_volume 2648.483058
_symmetry_space_group_name_H-M "I M A 2"
_symmetry_group_IT_number 46
_symmetry_cell_setting 'orthorhombic'
loop_
_space_group_symop_operation_xyz
x,y,z
-x,-y,z
1/2-x,y,z
1/2+x,-y,z
1/2+x,1/2+y,1/2+z
1/2-x,1/2-y,1/2+z
-x,1/2+y,1/2+z
x,1/2-y,1/2+z
loop_
_atom_site_type_symbol
_atom_site_label
_atom_site_fract_x
_atom_site_fract_y
_atom_site_fract_z
Si Si1 0.178077 0.544732 0.770070
Si Si2 0.183071 0.353922 0.286297
Si Si3 0.926744 0.784324 0.552964
Si Si4 0.530547 0.550698 0.071421
Si Si5 0.350242 0.419441 0.804312
Si Si6 0.683965 0.289199 0.064552
Si Si7 0.403958 0.549350 0.287936
Si Si8 0.943101 0.211684 0.698922
O O1 0.250000 0.561073 0.747981
O O2 0.172178 0.479432 0.723040
O O3 0.129816 0.568592 0.554527
O O4 0.147164 0.554450 0.057131
O O5 0.250000 0.327322 0.299958
O O6 0.132318 0.315420 0.156836
O O7 0.164970 0.376721 0.574147
O O8 0.183769 0.403894 0.078298
O O9 0.926925 0.769876 0.241328
O O10 0.990827 0.813002 0.631235
O O11 0.500000 0.500000 0.904591
O O12 0.470673 0.575384 0.216454
O O13 0.573844 0.515374 0.276810
O O14 0.577274 0.582207 0.883272
O O15 0.750000 0.317917 0.102344
O O16 0.683227 0.237920 0.271864
O O17 0.620101 0.319336 0.128135
O O18 0.941393 0.264735 0.498327
#
# Coordination Sequence:
#
# PCOD9380098 Si02
#       8
#     8   8   8   8   8   8   8   8
#     4  11  18  29  46  70 104 139 167 203 260 316
#     4  12  25  38  54  79 108 140 185 236 298 362
#     4  10  21  38  57  73  96 138 188 240 289 340
#     4   7  17  34  51  72 100 136 176 206 248 318
#     4  11  22  37  53  78 109 144 173 223 286 343
#     4   8  12  18  31  55  87 115 134 162 218 289
#     4   8  18  28  45  69  94 132 174 204 236 298
#     4   8  14  25  42  63  86 118 157 198 252 308
#
# _framework density 24.164777999999998
#
# number of rings (size 3 to 8) (size 9 to 14) (size 15 to 20)
#    0.750    1.750    0.000    3.750    0.000    5.500 
#    0.000    0.000    0.000    0.000    0.000    0.000 
#    0.000    6.000    0.000    3.750    0.000    0.000 
#
# Total GULP energy -178528.349964 kJ/mol
# GULP energy per Si atom -5579.010936 kJ/mol
# Density = 2.410978 g / cm^3
# Si number density = 24.164778 Si / 1000 Ang^3
#
#
#
# Elastic Constant Matrix: (Units=GPa)
#
#
# Indices 1 2 3 4 5 6 
#
# 1 219.9482 17.9086 12.9415 0.0000 0.0000 0.0000
# 2 17.9086 33.2000 -9.3077 0.0000 0.0000 0.0000
# 3 12.9415 -9.3077 90.0131 0.0000 0.0000 0.0000
# 4 0.0000 0.0000 0.0000 11.1178 0.0000 0.0000
# 5 0.0000 0.0000 0.0000 0.0000 30.8891 0.0000
# 6 0.0000 0.0000 0.0000 0.0000 0.0000 30.1954
#
#
#
# Elastic Compliance Matrix: (Units=1/GPa)
#
#
# Indices 1 2 3 4 5 6 
#
# 1 0.004840 -0.002890 -0.000995 0.000000 0.000000 0.000000
# 2 -0.002890 0.032745 0.003801 0.000000 0.000000 0.000000
# 3 -0.000995 0.003801 0.011646 0.000000 0.000000 0.000000
# 4 0.000000 0.000000 0.000000 0.089946 0.000000 0.000000
# 5 0.000000 0.000000 0.000000 0.000000 0.032374 0.000000
# 6 0.000000 0.000000 0.000000 0.000000 0.000000 0.033118
#
#
# Mechanical properties :
#
#
# Convention : Reuss Voigt Hill
#
# Bulk Modulus (GPa) = 20.38121 42.91622 31.64872
# Shear Modulus (GPa) = 22.60503 35.88173 29.24338
#
# Velocity S-wave (km/s) = 3.06184 3.85759 3.48252
# Velocity P-wave (km/s) = 4.57738 6.13512 5.41258
#
# Compressibility (1/GPa) = 0.04906479
#
# Stress axis : x y z
#
# Youngs Moduli (GPa) = 206.59669 30.53896 85.86937
#
# Poissons Ratio (x) = 0.08825 0.08542
# Poissons Ratio (y) = 0.59703 -0.32643
# Poissons Ratio (z) = 0.20551 -0.11609
#
# Static dielectric constant tensor:
#      x y z
#    x 1.994280 0.000000 0.000000 
#    y 0.000000 2.010600 0.000000 
#    z 0.000000 0.000000 1.873270 
# 
# From -- ./inp_files/2214.got.cif
#   From: 2010.05.17/outbox.cif.g08.bks.cpg/sg46_2_cif.got.tgz:2214.got - 2010.06.03 19:58:25.
