data_PCOD9380557
_publ_section_title
;
Structure prediction by ZEFSAII (Michael W. Deem and Ramdas Pophale) SiO2 
 PCOD9380557
Probable space group: I M A 2
;
_chemical_formula_sum "Si O2"
_cell_formula_units_Z 48
_cell_length_a 16.850574
_cell_length_b 12.387429
_cell_length_c 11.508202
_cell_angle_alpha 90.000000
_cell_angle_beta 90.000000
_cell_angle_gamma 90.000000
_cell_volume 2402.167871
_symmetry_space_group_name_H-M "I M A 2"
_symmetry_group_IT_number 46
_symmetry_cell_setting 'orthorhombic'
loop_
_space_group_symop_operation_xyz
x,y,z
-x,-y,z
1/2-x,y,z
1/2+x,-y,z
1/2+x,1/2+y,1/2+z
1/2-x,1/2-y,1/2+z
-x,1/2+y,1/2+z
x,1/2-y,1/2+z
loop_
_atom_site_type_symbol
_atom_site_label
_atom_site_fract_x
_atom_site_fract_y
_atom_site_fract_z
Si Si1 0.841002 0.836864 0.442090
Si Si2 0.842157 0.458593 0.345331
Si Si3 0.427410 0.366266 0.506731
Si Si4 0.416343 0.753640 0.413362
Si Si5 0.523645 0.884649 0.266682
Si Si6 0.344685 0.561465 0.076699
O O1 0.750000 0.835304 0.404977
O O2 0.862812 0.729505 0.512609
O O3 0.900923 0.838813 0.334652
O O4 0.855071 0.945422 0.515564
O O5 0.750000 0.493418 0.347622
O O6 0.894202 0.540170 0.423101
O O7 0.850484 0.336813 0.392839
O O8 0.869574 0.451800 0.211029
O O9 0.507471 0.311804 0.458951
O O10 0.449739 0.402086 0.635495
O O11 0.448126 0.808974 0.294238
O O12 0.389601 0.845944 0.503795
O O13 0.500000 0.000000 0.318355
O O14 0.250000 0.586343 0.075881
#
# Coordination Sequence:
#
# PCOD9380557 Si02
#       6
#     8   8   8   8   8   8
#     4  10  23  41  63  91 125 171 216 264 319 378
#     4  11  24  42  66  96 132 172 213 265 324 385
#     4  11  25  40  62  95 133 167 212 265 317 387
#     4  11  22  42  65  96 126 167 218 264 326 377
#     4  11  22  41  63  94 128 166 215 267 322 385
#     4  10  22  42  66  94 128 167 218 267 320 386
#
# _framework density 19.981950999999999
#
# number of rings (size 3 to 8) (size 9 to 14) (size 15 to 20)
#    0.000    1.333    1.667    3.500    4.667    1.333 
#    6.000    0.000    0.000    0.000    0.000    0.000 
#    0.000    0.000    0.000    0.000    0.000    0.000 
#
# Total GULP energy -133989.172574 kJ/mol
# GULP energy per Si atom -5582.882191 kJ/mol
# Density = 1.993647 g / cm^3
# Si number density = 19.981951 Si / 1000 Ang^3
#
#
#
# Elastic Constant Matrix: (Units=GPa)
#
#
# Indices 1 2 3 4 5 6 
#
# 1 71.0490 46.8658 46.1392 0.0000 0.0000 0.0000
# 2 46.8658 117.8315 42.6446 0.0000 0.0000 0.0000
# 3 46.1392 42.6446 120.2626 0.0000 0.0000 0.0000
# 4 0.0000 0.0000 0.0000 20.4326 0.0000 0.0000
# 5 0.0000 0.0000 0.0000 0.0000 23.3680 0.0000
# 6 0.0000 0.0000 0.0000 0.0000 0.0000 41.9591
#
#
#
# Elastic Compliance Matrix: (Units=1/GPa)
#
#
# Indices 1 2 3 4 5 6 
#
# 1 0.022580 -0.006706 -0.006285 0.000000 0.000000 0.000000
# 2 -0.006706 0.011728 -0.001586 0.000000 0.000000 0.000000
# 3 -0.006285 -0.001586 0.011289 0.000000 0.000000 0.000000
# 4 0.000000 0.000000 0.000000 0.048941 0.000000 0.000000
# 5 0.000000 0.000000 0.000000 0.000000 0.042794 0.000000
# 6 0.000000 0.000000 0.000000 0.000000 0.000000 0.023833
#
#
# Mechanical properties :
#
#
# Convention : Reuss Voigt Hill
#
# Bulk Modulus (GPa) = 60.81747 64.49359 62.65553
# Shear Modulus (GPa) = 25.53644 28.71817 27.12731
#
# Velocity S-wave (km/s) = 3.57876 3.79516 3.68855
# Velocity P-wave (km/s) = 6.89775 7.17986 7.04022
#
# Compressibility (1/GPa) = 0.01644264
#
# Stress axis : x y z
#
# Youngs Moduli (GPa) = 44.28748 85.26667 88.58452
#
# Poissons Ratio (x) = 0.57182 0.55674
# Poissons Ratio (y) = 0.29700 0.14048
# Poissons Ratio (z) = 0.27834 0.13522
#
# Static dielectric constant tensor:
#      x y z
#    x 1.714530 0.000000 0.000000 
#    y 0.000000 1.778710 0.000000 
#    z 0.000000 0.000000 1.695370 
# 
# From -- ./inp_files/11786.got.cif
#   From: 2010.05.17/outbox.cif.g08.bks.cpg/sg46_6_cif.got.tgz:11786.got - 2010.06.03 19:58:25.
