data_PCOD9380260
_publ_section_title
;
Structure prediction by ZEFSAII (Michael W. Deem and Ramdas Pophale) SiO2 
 PCOD9380260
Probable space group: I M A 2
;
_chemical_formula_sum "Si O2"
_cell_formula_units_Z 56
_cell_length_a 8.713133
_cell_length_b 15.513550
_cell_length_c 20.125360
_cell_angle_alpha 90.000000
_cell_angle_beta 90.000000
_cell_angle_gamma 90.000000
_cell_volume 2720.377604
_symmetry_space_group_name_H-M "I M A 2"
_symmetry_group_IT_number 46
_symmetry_cell_setting 'orthorhombic'
loop_
_space_group_symop_operation_xyz
x,y,z
-x,-y,z
1/2-x,y,z
1/2+x,-y,z
1/2+x,1/2+y,1/2+z
1/2-x,1/2-y,1/2+z
-x,1/2+y,1/2+z
x,1/2-y,1/2+z
loop_
_atom_site_type_symbol
_atom_site_label
_atom_site_fract_x
_atom_site_fract_y
_atom_site_fract_z
Si Si1 0.426055 0.587181 0.795930
Si Si2 0.924058 0.585896 0.074087
Si Si3 0.070635 0.321546 0.416382
Si Si4 0.435504 0.404591 0.554522
Si Si5 0.581043 0.616345 0.922990
Si Si6 0.933471 0.726644 0.273787
Si Si7 0.929915 0.254349 0.134326
O O1 0.500000 0.500000 0.768329
O O2 0.250000 0.596188 0.776206
O O3 0.445602 0.584671 0.875897
O O4 0.521310 0.672634 0.780067
O O5 0.750000 0.600292 0.098920
O O6 0.000000 0.500000 0.103084
O O7 0.027742 0.669365 0.084375
O O8 0.913972 0.576162 0.994958
O O9 0.250000 0.346262 0.411577
O O10 0.009352 0.373246 0.480331
O O11 0.065782 0.219535 0.432185
O O12 0.008721 0.323449 0.340238
O O13 0.500000 0.500000 0.567853
O O14 0.250000 0.405504 0.554772
O O15 0.490357 0.333132 0.607983
O O16 0.750000 0.601963 0.890421
O O17 0.750000 0.718063 0.271357
O O18 0.008482 0.706369 0.203592
O O19 0.750000 0.238441 0.138773
#
# Coordination Sequence:
#
# PCOD9380260 Si02
#       7
#     8   8   8   8   8   8   8
#     4  11  21  33  51  81 117 153 194 243 296 363
#     4  11  22  38  60  88 121 159 200 250 306 368
#     4   8  16  35  62  88 117 155 202 250 307 369
#     4  11  22  41  66  97 130 170 216 270 325 388
#     4   9  17  33  56  83 115 153 192 236 294 355
#     4  10  21  40  63  85 114 162 208 258 319 379
#     4  12  25  42  62  92 127 167 213 264 321 388
#
# _framework density 20.585377000000001
#
# number of rings (size 3 to 8) (size 9 to 14) (size 15 to 20)
#    0.000    1.714    1.429    5.143    0.000    2.857 
#    0.000    5.714    0.000    1.714    0.000    0.000 
#    0.000    0.000    0.000    0.000    0.000    0.000 
#
# Total GULP energy -156140.066163 kJ/mol
# GULP energy per Si atom -5576.430934 kJ/mol
# Density = 2.053852 g / cm^3
# Si number density = 20.585377 Si / 1000 Ang^3
#
#
#
# Elastic Constant Matrix: (Units=GPa)
#
#
# Indices 1 2 3 4 5 6 
#
# 1 92.6242 18.3888 20.2497 0.0000 0.0000 0.0000
# 2 18.3888 58.4770 -9.7730 0.0000 0.0000 0.0000
# 3 20.2497 -9.7730 69.0353 0.0000 0.0000 0.0000
# 4 0.0000 0.0000 0.0000 6.3621 0.0000 0.0000
# 5 0.0000 0.0000 0.0000 0.0000 12.5901 0.0000
# 6 0.0000 0.0000 0.0000 0.0000 0.0000 25.8674
#
#
#
# Elastic Compliance Matrix: (Units=1/GPa)
#
#
# Indices 1 2 3 4 5 6 
#
# 1 0.012695 -0.004726 -0.004393 0.000000 0.000000 0.000000
# 2 -0.004726 0.019275 0.004115 0.000000 0.000000 0.000000
# 3 -0.004393 0.004115 0.016356 0.000000 0.000000 0.000000
# 4 0.000000 0.000000 0.000000 0.157180 0.000000 0.000000
# 5 0.000000 0.000000 0.000000 0.000000 0.079427 0.000000
# 6 0.000000 0.000000 0.000000 0.000000 0.000000 0.038659
#
#
# Mechanical properties :
#
#
# Convention : Reuss Voigt Hill
#
# Bulk Modulus (GPa) = 26.09749 30.87416 28.48582
# Shear Modulus (GPa) = 14.43532 21.71533 18.07532
#
# Velocity S-wave (km/s) = 2.65097 3.25143 2.96643
# Velocity P-wave (km/s) = 4.69845 5.39689 5.05973
#
# Compressibility (1/GPa) = 0.03831786
#
# Stress axis : x y z
#
# Youngs Moduli (GPa) = 78.77119 51.88153 61.13809
#
# Poissons Ratio (x) = 0.24521 0.26857
# Poissons Ratio (y) = 0.37229 -0.25158
# Poissons Ratio (z) = 0.34603 -0.21349
#
# Static dielectric constant tensor:
#      x y z
#    x 1.745080 0.000000 0.000000 
#    y 0.000000 1.766920 0.000000 
#    z 0.000000 0.000000 1.845860 
# 
# From -- ./inp_files/21079.got.cif
#   From: 2010.05.17/outbox.cif.g08.bks.cpg/sg46_11_cif.got.tgz:21079.got - 2010.06.03 19:58:25.
