data_PCOD9380053
_publ_section_title
;
Structure prediction by ZEFSAII (Michael W. Deem and Ramdas Pophale) SiO2 
 PCOD9380053
Probable space group: I M A 2
;
_chemical_formula_sum "Si O2"
_cell_formula_units_Z 64
_cell_length_a 15.589225
_cell_length_b 8.956511
_cell_length_c 24.808890
_cell_angle_alpha 90.000000
_cell_angle_beta 90.000000
_cell_angle_gamma 90.000000
_cell_volume 3463.942884
_symmetry_space_group_name_H-M "I M A 2"
_symmetry_group_IT_number 46
_symmetry_cell_setting 'orthorhombic'
loop_
_space_group_symop_operation_xyz
x,y,z
-x,-y,z
1/2-x,y,z
1/2+x,-y,z
1/2+x,1/2+y,1/2+z
1/2-x,1/2-y,1/2+z
-x,1/2+y,1/2+z
x,1/2-y,1/2+z
loop_
_atom_site_type_symbol
_atom_site_label
_atom_site_fract_x
_atom_site_fract_y
_atom_site_fract_z
Si Si1 0.146345 0.185354 0.143920
Si Si2 0.005460 0.177724 0.451261
Si Si3 0.582523 0.110158 0.030636
Si Si4 0.153514 0.197822 0.023600
Si Si5 0.001266 0.178051 0.324282
Si Si6 0.353116 0.840343 0.143356
Si Si7 0.649822 0.184773 0.754893
Si Si8 0.850862 0.671146 0.255185
O O1 0.250000 0.188618 0.141220
O O2 0.118447 0.232721 0.084037
O O3 0.120940 0.283265 0.194710
O O4 0.122269 0.013163 0.154534
O O5 0.933847 0.271953 0.483616
O O6 0.093224 0.235038 0.478244
O O7 0.001806 0.210879 0.387939
O O8 0.000000 0.000000 0.458887
O O9 0.602141 0.192874 0.086594
O O10 0.500000 0.000000 0.035153
O O11 0.653583 0.983127 0.020540
O O12 0.250000 0.254214 0.018885
O O13 0.085167 0.248601 0.296263
O O14 0.916444 0.242954 0.296145
O O15 0.000000 0.000000 0.317002
O O16 0.250000 0.833737 0.135979
O O17 0.374077 0.739039 0.194533
O O18 0.750000 0.228790 0.763580
O O19 0.644131 0.006764 0.759854
O O20 0.750000 0.714943 0.262102
#
# Coordination Sequence:
#
# PCOD9380053 Si02
#       8
#     8   8   8   8   8   8   8   8
#     4   8  15  30  53  82 114 146 178 214 263 328
#     4  10  23  40  54  77 110 143 184 231 276 322
#     4   9  18  33  55  80 110 144 180 220 265 321
#     4   9  18  35  59  83 109 144 183 220 265 324
#     4  11  24  41  59  77 106 150 194 232 273 327
#     4   9  17  32  54  81 113 144 178 218 264 326
#     4  10  22  38  57  85 116 144 180 229 281 329
#     4  10  21  37  59  87 115 143 180 228 281 331
#
# _framework density 18.476054999999999
#
# number of rings (size 3 to 8) (size 9 to 14) (size 15 to 20)
#    0.000    2.500    0.000    2.250    0.000    9.500 
#    0.000    6.875    0.000    0.000    0.000    0.000 
#    0.000    0.000    0.000    0.000    0.000    0.000 
#
# Total GULP energy -178458.656054 kJ/mol
# GULP energy per Si atom -5576.833002 kJ/mol
# Density = 1.843400 g / cm^3
# Si number density = 18.476055 Si / 1000 Ang^3
#
#
#
# Elastic Constant Matrix: (Units=GPa)
#
#
# Indices 1 2 3 4 5 6 
#
# 1 81.0495 43.8346 72.7649 0.0000 0.0000 0.0000
# 2 43.8346 66.5092 83.1639 0.0000 0.0000 0.0000
# 3 72.7649 83.1639 174.7854 0.0000 0.0000 0.0000
# 4 0.0000 0.0000 0.0000 34.9911 0.0000 0.0000
# 5 0.0000 0.0000 0.0000 0.0000 -0.2094 0.0000
# 6 0.0000 0.0000 0.0000 0.0000 0.0000 22.0872
#
#
#
# Elastic Compliance Matrix: (Units=1/GPa)
#
#
# Indices 1 2 3 4 5 6 
#
# 1 0.021006 -0.007183 -0.005327 0.000000 0.000000 0.000000
# 2 -0.007183 0.039577 -0.015840 0.000000 0.000000 0.000000
# 3 -0.005327 -0.015840 0.015476 0.000000 0.000000 0.000000
# 4 0.000000 0.000000 0.000000 0.028579 0.000000 0.000000
# 5 0.000000 0.000000 0.000000 0.000000 -4.775252 0.000000
# 6 0.000000 0.000000 0.000000 0.000000 0.000000 0.045275
#
#
# Mechanical properties :
#
#
# Convention : Reuss Voigt Hill
#
# Bulk Modulus (GPa) = 51.66099 80.20787 65.93443
# Shear Modulus (GPa) = -1.09597 19.54582 9.22493
#
# Velocity S-wave (km/s) = -0.77102 3.25607 2.23691
# Velocity P-wave (km/s) = 5.21815 7.59223 6.51426
#
# Compressibility (1/GPa) = 0.01935696
#
# Stress axis : x y z
#
# Youngs Moduli (GPa) = 47.60617 25.26715 64.61648
#
# Poissons Ratio (x) = 0.18151 0.34421
# Poissons Ratio (y) = 0.34198 1.02355
# Poissons Ratio (z) = 0.25359 0.40024
#
# Static dielectric constant tensor:
#      x y z
#    x 1.679950 0.000000 0.000000 
#    y 0.000000 1.624770 0.000000 
#    z 0.000000 0.000000 1.626180 
# 
# From -- ./inp_files/23700.got.cif
#   From: 2010.05.17/outbox.cif.g08.bks.cpg/sg46_12_cif.got.tgz:23700.got - 2010.06.03 19:58:25.
