data_PCOD9380094
_publ_section_title
;
Structure prediction by ZEFSAII (Michael W. Deem and Ramdas Pophale) SiO2 
 PCOD9380094
Probable space group: I M A 2
;
_chemical_formula_sum "Si O2"
_cell_formula_units_Z 48
_cell_length_a 16.596640
_cell_length_b 8.912202
_cell_length_c 12.466048
_cell_angle_alpha 90.000000
_cell_angle_beta 90.000000
_cell_angle_gamma 90.000000
_cell_volume 1843.885674
_symmetry_space_group_name_H-M "I M A 2"
_symmetry_group_IT_number 46
_symmetry_cell_setting 'orthorhombic'
loop_
_space_group_symop_operation_xyz
x,y,z
-x,-y,z
1/2-x,y,z
1/2+x,-y,z
1/2+x,1/2+y,1/2+z
1/2-x,1/2-y,1/2+z
-x,1/2+y,1/2+z
x,1/2-y,1/2+z
loop_
_atom_site_type_symbol
_atom_site_label
_atom_site_fract_x
_atom_site_fract_y
_atom_site_fract_z
Si Si1 0.911520 0.959131 0.425840
Si Si2 0.136386 0.350299 0.385872
Si Si3 0.750000 0.008322 0.728594
Si Si4 0.250000 0.834444 0.186631
Si Si5 0.884129 0.997283 0.103608
Si Si6 0.000590 0.237158 0.611614
Si Si7 0.250000 0.891197 0.499667
Si Si8 0.500000 0.000000 0.781955
O O1 0.856654 0.825544 0.379834
O O2 0.949789 0.869381 0.530253
O O3 0.840523 0.082437 0.449460
O O4 0.000000 0.000000 0.373369
O O5 0.176326 0.430319 0.285619
O O6 0.157988 0.424732 0.499195
O O7 0.044933 0.392284 0.364421
O O8 0.750000 0.185293 0.755885
O O9 0.750000 0.993427 0.601359
O O10 0.250000 0.766530 0.064386
O O11 0.173257 0.937735 0.194166
O O12 0.934355 0.145498 0.068321
O O13 0.935384 0.860334 0.151499
O O14 0.963648 0.124949 0.699857
#
# Coordination Sequence:
#
# PCOD9380094 Si02
#       8
#     8   8   4   4   8   8   4   4
#     4  11  21  40  66 102 141 191 245 293 352 443
#     4  11  23  39  67  98 136 177 230 304 358 417
#     4  10  22  40  64 104 132 186 230 291 373 414
#     4  10  21  38  71  92 130 181 230 279 351 447
#     4  10  21  41  63  96 125 178 230 281 350 429
#     4  10  21  37  67  91 131 174 236 282 345 439
#     4  10  23  38  69 102 134 193 238 290 348 445
#     4  12  22  40  64  96 128 174 220 296 350 412
#
# _framework density 26.031981999999999
#
# number of rings (size 3 to 8) (size 9 to 14) (size 15 to 20)
#    0.500    1.000    0.833    6.000    0.000    2.000 
#    3.000    0.833    7.333    0.000    0.000    0.000 
#    0.000    0.000    0.000    0.000    0.000    0.000 
#
# Total GULP energy -133716.289330 kJ/mol
# GULP energy per Si atom -5571.512055 kJ/mol
# Density = 2.597273 g / cm^3
# Si number density = 26.031982 Si / 1000 Ang^3
#
#
#
# Elastic Constant Matrix: (Units=GPa)
#
#
# Indices 1 2 3 4 5 6 
#
# 1 80.7148 36.0943 12.6915 0.0000 0.0000 0.0000
# 2 36.0943 146.4719 15.8995 0.0000 0.0000 0.0000
# 3 12.6915 15.8995 74.6540 0.0000 0.0000 0.0000
# 4 0.0000 0.0000 0.0000 46.8869 0.0000 0.0000
# 5 0.0000 0.0000 0.0000 0.0000 48.8289 0.0000
# 6 0.0000 0.0000 0.0000 0.0000 0.0000 70.4173
#
#
#
# Elastic Compliance Matrix: (Units=1/GPa)
#
#
# Indices 1 2 3 4 5 6 
#
# 1 0.014131 -0.003298 -0.001700 0.000000 0.000000 0.000000
# 2 -0.003298 0.007758 -0.001092 0.000000 0.000000 0.000000
# 3 -0.001700 -0.001092 0.013917 0.000000 0.000000 0.000000
# 4 0.000000 0.000000 0.000000 0.021328 0.000000 0.000000
# 5 0.000000 0.000000 0.000000 0.000000 0.020480 0.000000
# 6 0.000000 0.000000 0.000000 0.000000 0.000000 0.014201
#
#
# Mechanical properties :
#
#
# Convention : Reuss Voigt Hill
#
# Bulk Modulus (GPa) = 42.32385 47.91234 45.11810
# Shear Modulus (GPa) = 44.69480 49.03698 46.86589
#
# Velocity S-wave (km/s) = 4.14807 4.34489 4.24762
# Velocity P-wave (km/s) = 6.26384 6.60424 6.43629
#
# Compressibility (1/GPa) = 0.02362734
#
# Stress axis : x y z
#
# Youngs Moduli (GPa) = 70.76483 128.89244 71.85632
#
# Poissons Ratio (x) = 0.42506 0.12216
# Poissons Ratio (y) = 0.23337 0.07845
# Poissons Ratio (z) = 0.12030 0.14071
#
# Static dielectric constant tensor:
#      x y z
#    x 1.144820 0.000000 0.000000 
#    y 0.000000 2.047280 0.000000 
#    z 0.000000 0.000000 2.111170 
# 
# From -- ./inp_files/16585.got.cif
#   From: 2010.05.17/outbox.cif.g08.bks.cpg/sg46_9_cif.got.tgz:16585.got - 2010.06.03 19:58:25.
