data_PCOD9380263
_publ_section_title
;
Structure prediction by ZEFSAII (Michael W. Deem and Ramdas Pophale) SiO2 
 PCOD9380263
Probable space group: I M A 2
;
_chemical_formula_sum "Si O2"
_cell_formula_units_Z 56
_cell_length_a 14.597834
_cell_length_b 5.745770
_cell_length_c 29.084979
_cell_angle_alpha 90.000000
_cell_angle_beta 90.000000
_cell_angle_gamma 90.000000
_cell_volume 2439.525785
_symmetry_space_group_name_H-M "I M A 2"
_symmetry_group_IT_number 46
_symmetry_cell_setting 'orthorhombic'
loop_
_space_group_symop_operation_xyz
x,y,z
-x,-y,z
1/2-x,y,z
1/2+x,-y,z
1/2+x,1/2+y,1/2+z
1/2-x,1/2-y,1/2+z
-x,1/2+y,1/2+z
x,1/2-y,1/2+z
loop_
_atom_site_type_symbol
_atom_site_label
_atom_site_fract_x
_atom_site_fract_y
_atom_site_fract_z
Si Si1 0.640933 0.566442 0.390260
Si Si2 0.500000 0.500000 0.560457
Si Si3 0.349987 0.193332 0.717110
Si Si4 0.000000 0.500000 0.766683
Si Si5 0.597578 0.876443 0.614458
Si Si6 0.147354 0.662790 0.296467
Si Si7 0.642365 0.441223 0.925132
Si Si8 0.850122 0.330821 0.027435
O O1 0.750000 0.574978 0.401777
O O2 0.632058 0.529720 0.335601
O O3 0.607212 0.319473 0.412044
O O4 0.602821 0.819121 0.404474
O O5 0.572338 0.628440 0.593130
O O6 0.439018 0.670571 0.530479
O O7 0.250000 0.300073 0.727850
O O8 0.433581 0.349320 0.734134
O O9 0.354900 0.143307 0.663202
O O10 0.356134 0.958218 0.746805
O O11 0.067772 0.651164 0.797610
O O12 0.500000 0.000000 0.622567
O O13 0.646434 0.016936 0.573734
O O14 0.250000 0.757689 0.303998
O O15 0.750000 0.432780 0.910937
O O16 0.640274 0.470694 0.980220
O O17 0.750000 0.210799 0.025175
#
# Coordination Sequence:
#
# PCOD9380263 Si02
#       8
#     8   4   8   4   8   8   8   8
#     4   9  19  37  65  99 134 174 227 282 340 406
#     4  10  23  40  64  96 136 174 220 286 345 410
#     4  11  24  42  66  94 128 174 225 282 347 417
#     4  12  23  40  66  96 136 172 224 282 343 418
#     4  10  21  40  63  91 133 175 219 282 346 412
#     4  10  23  41  67  97 134 180 226 281 344 414
#     4   9  19  36  65 100 133 176 227 281 341 405
#     4  10  22  39  66  98 133 181 230 280 345 416
#
# _framework density 22.955279999999998
#
# number of rings (size 3 to 8) (size 9 to 14) (size 15 to 20)
#    0.000    2.000    0.000    2.571    4.000    2.286 
#    0.000    0.000    7.857    0.000    0.000    0.000 
#    0.000    1.143    0.000    0.000    0.000    0.000 
#
# Total GULP energy -156453.237906 kJ/mol
# GULP energy per Si atom -5587.615640 kJ/mol
# Density = 2.290303 g / cm^3
# Si number density = 22.955280 Si / 1000 Ang^3
#
#
#
# Elastic Constant Matrix: (Units=GPa)
#
#
# Indices 1 2 3 4 5 6 
#
# 1 90.8741 33.4861 31.6543 0.0000 0.0000 0.0000
# 2 33.4861 114.9300 46.9405 0.0000 0.0000 0.0000
# 3 31.6543 46.9405 100.2236 0.0000 0.0000 0.0000
# 4 0.0000 0.0000 0.0000 -70.4676 0.0000 0.0000
# 5 0.0000 0.0000 0.0000 0.0000 710.3394 0.0000
# 6 0.0000 0.0000 0.0000 0.0000 0.0000 28.8828
#
#
#
# Elastic Compliance Matrix: (Units=1/GPa)
#
#
# Indices 1 2 3 4 5 6 
#
# 1 0.012965 -0.002603 -0.002876 0.000000 0.000000 0.000000
# 2 -0.002603 0.011282 -0.004462 0.000000 0.000000 0.000000
# 3 -0.002876 -0.004462 0.012976 0.000000 0.000000 0.000000
# 4 0.000000 0.000000 0.000000 -0.014191 0.000000 0.000000
# 5 0.000000 0.000000 0.000000 0.000000 0.001408 0.000000
# 6 0.000000 0.000000 0.000000 0.000000 0.000000 0.034623
#
#
# Mechanical properties :
#
#
# Convention : Reuss Voigt Hill
#
# Bulk Modulus (GPa) = 57.66518 58.90997 58.28757
# Shear Modulus (GPa) = 59.01562 146.68072 102.84817
#
# Velocity S-wave (km/s) = 5.07590 8.00232 6.70082
# Velocity P-wave (km/s) = 7.71545 10.54047 9.23661
#
# Compressibility (1/GPa) = 0.01734149
#
# Stress axis : x y z
#
# Youngs Moduli (GPa) = 77.13004 88.63945 77.06754
#
# Poissons Ratio (x) = 0.23073 0.22163
# Poissons Ratio (y) = 0.20077 0.34385
# Poissons Ratio (z) = 0.22180 0.39549
#
# Static dielectric constant tensor:
#      x y z
#    x 1.529530 0.000000 0.000000 
#    y 0.000000 2.128240 0.000000 
#    z 0.000000 0.000000 1.814690 
# 
# From -- ./inp_files/25462.got.cif
#   From: 2010.05.17/outbox.cif.g08.bks.cpg/sg46_13_cif.got.tgz:25462.got - 2010.06.03 19:58:25.
