data_PCOD9380539
_publ_section_title
;
Structure prediction by ZEFSAII (Michael W. Deem and Ramdas Pophale) SiO2 
 PCOD9380539
Probable space group: I M A 2
;
_chemical_formula_sum "Si O2"
_cell_formula_units_Z 40
_cell_length_a 13.518831
_cell_length_b 16.386529
_cell_length_c 7.085800
_cell_angle_alpha 90.000000
_cell_angle_beta 90.000000
_cell_angle_gamma 90.000000
_cell_volume 1569.694006
_symmetry_space_group_name_H-M "I M A 2"
_symmetry_group_IT_number 46
_symmetry_cell_setting 'orthorhombic'
loop_
_space_group_symop_operation_xyz
x,y,z
-x,-y,z
1/2-x,y,z
1/2+x,-y,z
1/2+x,1/2+y,1/2+z
1/2-x,1/2-y,1/2+z
-x,1/2+y,1/2+z
x,1/2-y,1/2+z
loop_
_atom_site_type_symbol
_atom_site_label
_atom_site_fract_x
_atom_site_fract_y
_atom_site_fract_z
Si Si1 0.967855 0.592306 0.235140
Si Si2 0.250000 0.345651 0.698035
Si Si3 0.750000 0.651986 0.250880
Si Si4 0.915618 0.546474 0.641386
Si Si5 0.867219 0.185764 0.497343
Si Si6 0.362494 0.632147 0.563673
O O1 0.855283 0.616701 0.181414
O O2 0.965895 0.597666 0.468837
O O3 0.000000 0.500000 0.198840
O O4 0.054042 0.643003 0.135348
O O5 0.250000 0.362892 0.474511
O O6 0.250000 0.250058 0.728569
O O7 0.152936 0.394451 0.759171
O O8 0.866891 0.467842 0.542877
O O9 0.000000 0.500000 0.757493
O O10 0.750000 0.179015 0.555032
O O11 0.901143 0.279817 0.486877
O O12 0.873396 0.145993 0.290037
O O13 0.250000 0.644421 0.501995
#
# Coordination Sequence:
#
# PCOD9380539 Si02
#       6
#     8   4   4   8   8   8
#     4  10  24  43  69 101 136 187 234 295 356 427
#     4  10  22  46  66  97 141 176 230 289 346 437
#     4  10  24  44  68 101 133 186 230 281 362 423
#     4  10  22  41  69  98 135 189 231 281 360 423
#     4  10  24  42  70 104 144 185 241 298 361 425
#     4  10  22  43  68 105 141 185 237 300 361 428
#
# _framework density 25.482675
#
# number of rings (size 3 to 8) (size 9 to 14) (size 15 to 20)
#    0.000    2.000    1.000    0.000    9.800    2.400 
#    5.400    0.000    0.000    0.000    0.000    0.000 
#    0.000    0.000    0.000    0.000    0.000    0.000 
#
# Total GULP energy -111412.555997 kJ/mol
# GULP energy per Si atom -5570.627800 kJ/mol
# Density = 2.542468 g / cm^3
# Si number density = 25.482675 Si / 1000 Ang^3
#
#
#
# Elastic Constant Matrix: (Units=GPa)
#
#
# Indices 1 2 3 4 5 6 
#
# 1 126.0439 75.0164 4.1039 0.0000 0.0000 0.0000
# 2 75.0164 204.8060 7.3115 0.0000 0.0000 0.0000
# 3 4.1039 7.3115 114.6201 0.0000 0.0000 0.0000
# 4 0.0000 0.0000 0.0000 31.3951 0.0000 0.0000
# 5 0.0000 0.0000 0.0000 0.0000 114.5216 0.0000
# 6 0.0000 0.0000 0.0000 0.0000 0.0000 -31.3269
#
#
#
# Elastic Compliance Matrix: (Units=1/GPa)
#
#
# Indices 1 2 3 4 5 6 
#
# 1 0.010147 -0.003712 -0.000127 0.000000 0.000000 0.000000
# 2 -0.003712 0.006252 -0.000266 0.000000 0.000000 0.000000
# 3 -0.000127 -0.000266 0.008746 0.000000 0.000000 0.000000
# 4 0.000000 0.000000 0.000000 0.031852 0.000000 0.000000
# 5 0.000000 0.000000 0.000000 0.000000 0.008732 0.000000
# 6 0.000000 0.000000 0.000000 0.000000 0.000000 -0.031921
#
#
# Mechanical properties :
#
#
# Convention : Reuss Voigt Hill
#
# Bulk Modulus (GPa) = 59.04641 68.70373 63.87507
# Shear Modulus (GPa) = 104.90479 46.85382 75.87930
#
# Velocity S-wave (km/s) = 6.42312 4.29260 5.46273
# Velocity P-wave (km/s) = 8.84478 7.18249 8.05662
#
# Compressibility (1/GPa) = 0.01693583
#
# Stress axis : x y z
#
# Youngs Moduli (GPa) = 98.54902 159.95203 114.33842
#
# Poissons Ratio (x) = 0.59378 0.01447
# Poissons Ratio (y) = 0.36584 0.03040
# Poissons Ratio (z) = 0.01247 0.04253
#
# Static dielectric constant tensor:
#      x y z
#    x 1.018530 0.000000 0.000000 
#    y 0.000000 1.973410 0.000000 
#    z 0.000000 0.000000 2.095520 
# 
# From -- ./inp_files/5457.got.cif
#   From: 2010.05.17/outbox.cif.g08.bks.cpg/sg46_3_cif.got.tgz:5457.got - 2010.06.03 19:58:25.
