data_PCOD9380897
_publ_section_title
;
Structure prediction by ZEFSAII (Michael W. Deem and Ramdas Pophale) SiO2 
 PCOD9380897
Probable space group: I M A 2
;
_chemical_formula_sum "Si O2"
_cell_formula_units_Z 64
_cell_length_a 15.762184
_cell_length_b 11.281639
_cell_length_c 16.425178
_cell_angle_alpha 90.000000
_cell_angle_beta 90.000000
_cell_angle_gamma 90.000000
_cell_volume 2920.778858
_symmetry_space_group_name_H-M "I M A 2"
_symmetry_group_IT_number 46
_symmetry_cell_setting 'orthorhombic'
loop_
_space_group_symop_operation_xyz
x,y,z
-x,-y,z
1/2-x,y,z
1/2+x,-y,z
1/2+x,1/2+y,1/2+z
1/2-x,1/2-y,1/2+z
-x,1/2+y,1/2+z
x,1/2-y,1/2+z
loop_
_atom_site_type_symbol
_atom_site_label
_atom_site_fract_x
_atom_site_fract_y
_atom_site_fract_z
Si Si1 0.847752 0.611332 0.750000
Si Si2 0.884304 0.316140 0.171606
Si Si3 0.345744 0.574235 0.615259
Si Si4 0.955017 0.370582 0.456558
Si Si5 0.150446 0.018067 0.568005
Si Si6 0.655841 0.469419 0.321640
Si Si7 0.055581 0.120434 0.421368
Si Si8 0.424157 0.345750 0.216267
O O1 0.750000 0.579946 0.769115
O O2 0.877494 0.527982 0.675870
O O3 0.905604 0.617217 0.830502
O O4 0.855538 0.743134 0.715789
O O5 0.841727 0.190301 0.170125
O O6 0.875017 0.380143 0.083178
O O7 0.839995 0.399269 0.237234
O O8 0.980251 0.303161 0.204454
O O9 0.250000 0.543409 0.585789
O O10 0.408740 0.614244 0.543703
O O11 0.882935 0.381113 0.387530
O O12 0.000000 0.500000 0.449148
O O13 0.009334 0.247779 0.442933
O O14 0.250000 0.027400 0.583671
O O15 0.128545 0.088609 0.486395
O O16 0.093383 0.076941 0.637264
O O17 0.750000 0.511984 0.344712
O O18 0.593255 0.577572 0.297329
O O19 0.000000 0.000000 0.428499
#
# Coordination Sequence:
#
# PCOD9380897 Si02
#       8
#     8   8   8   8   8   8   8   8
#     4  11  26  45  67  99 142 188 237 293 362 435
#     4  11  22  40  69 101 135 179 230 291 354 426
#     4  11  26  45  67  99 142 188 237 293 362 435
#     4  12  27  46  69 105 139 187 240 297 363 430
#     4  11  22  41  69  99 135 180 233 289 350 424
#     4  11  22  41  69  99 135 180 233 289 350 424
#     4  12  27  46  69 105 139 187 240 297 363 430
#     4  11  22  40  69 101 135 179 230 291 354 426
#
# _framework density 21.911964999999999
#
# number of rings (size 3 to 8) (size 9 to 14) (size 15 to 20)
#    0.000    0.750    0.000    9.750    7.000    0.000 
#    0.000    2.500    0.000    0.000    0.000    0.000 
#    0.000    0.000    0.000    0.000    0.000    0.000 
#
# Total GULP energy -178499.778975 kJ/mol
# GULP energy per Si atom -5578.118093 kJ/mol
# Density = 2.186209 g / cm^3
# Si number density = 21.911965 Si / 1000 Ang^3
#
#
#
# Elastic Constant Matrix: (Units=GPa)
#
#
# Indices 1 2 3 4 5 6 
#
# 1 111.1297 15.5885 31.0499 0.0000 0.0000 0.0000
# 2 15.5885 115.5139 28.4504 0.0000 0.0000 0.0000
# 3 31.0499 28.4504 81.6460 0.0000 0.0000 0.0000
# 4 0.0000 0.0000 0.0000 23.8644 0.0000 0.0000
# 5 0.0000 0.0000 0.0000 0.0000 20.4412 0.0000
# 6 0.0000 0.0000 0.0000 0.0000 0.0000 46.1896
#
#
#
# Elastic Compliance Matrix: (Units=1/GPa)
#
#
# Indices 1 2 3 4 5 6 
#
# 1 0.010090 -0.000456 -0.003679 0.000000 0.000000 0.000000
# 2 -0.000456 0.009490 -0.003134 0.000000 0.000000 0.000000
# 3 -0.003679 -0.003134 0.014739 0.000000 0.000000 0.000000
# 4 0.000000 0.000000 0.000000 0.041903 0.000000 0.000000
# 5 0.000000 0.000000 0.000000 0.000000 0.048921 0.000000
# 6 0.000000 0.000000 0.000000 0.000000 0.000000 0.021650
#
#
# Mechanical properties :
#
#
# Convention : Reuss Voigt Hill
#
# Bulk Modulus (GPa) = 50.54686 50.94080 50.74383
# Shear Modulus (GPa) = 29.77541 33.64576 31.71059
#
# Velocity S-wave (km/s) = 3.69028 3.92279 3.80831
# Velocity P-wave (km/s) = 6.42462 6.61938 6.52273
#
# Compressibility (1/GPa) = 0.01978362
#
# Stress axis : x y z
#
# Youngs Moduli (GPa) = 99.10611 105.37113 67.84768
#
# Poissons Ratio (x) = 0.04801 0.24958
# Poissons Ratio (y) = 0.04516 0.21261
# Poissons Ratio (z) = 0.36456 0.33020
#
# Static dielectric constant tensor:
#      x y z
#    x 1.834700 0.000000 0.000000 
#    y 0.000000 1.884270 0.000000 
#    z 0.000000 0.000000 1.851660 
# 
# From -- ./inp_files/19634.got.cif
#   From: 2010.05.17/outbox.cif.g08.bks.cpg/sg46_10_cif.got.tgz:19634.got - 2010.06.03 19:58:25.
