data_PCOD9380630
_publ_section_title
;
Structure prediction by ZEFSAII (Michael W. Deem and Ramdas Pophale) SiO2 
 PCOD9380630
Probable space group: I M A 2
;
_chemical_formula_sum "Si O2"
_cell_formula_units_Z 52
_cell_length_a 25.100089
_cell_length_b 8.340548
_cell_length_c 11.478846
_cell_angle_alpha 90.000000
_cell_angle_beta 90.000000
_cell_angle_gamma 90.000000
_cell_volume 2403.079159
_symmetry_space_group_name_H-M "I M A 2"
_symmetry_group_IT_number 46
_symmetry_cell_setting 'orthorhombic'
loop_
_space_group_symop_operation_xyz
x,y,z
-x,-y,z
1/2-x,y,z
1/2+x,-y,z
1/2+x,1/2+y,1/2+z
1/2-x,1/2-y,1/2+z
-x,1/2+y,1/2+z
x,1/2-y,1/2+z
loop_
_atom_site_type_symbol
_atom_site_label
_atom_site_fract_x
_atom_site_fract_y
_atom_site_fract_z
Si Si1 0.160793 0.114492 0.034740
Si Si2 0.154687 0.502387 0.272327
Si Si3 0.635667 0.137578 0.202172
Si Si4 0.930904 0.654132 0.114266
Si Si5 0.054146 0.932726 0.388843
Si Si6 0.529753 0.332562 0.552477
Si Si7 0.750000 0.661421 0.122437
O O1 0.105300 0.197137 0.071583
O O2 0.203850 0.254068 0.040279
O O3 0.174491 0.983205 0.134791
O O4 0.157376 0.032191 0.909417
O O5 0.157527 0.690885 0.241093
O O6 0.099653 0.429407 0.220208
O O7 0.202827 0.414542 0.206239
O O8 0.606363 0.056603 0.311458
O O9 0.586669 0.161521 0.113348
O O10 0.990218 0.721179 0.129252
O O11 0.935205 0.531838 0.006325
O O12 0.040199 0.753605 0.429263
O O13 0.000000 0.000000 0.331475
O O14 0.500000 0.500000 0.538241
#
# Coordination Sequence:
#
# PCOD9380630 Si02
#       7
#     8   8   8   8   8   8   4
#     4  11  25  45  73 104 133 180 235 294 360 428
#     4  11  25  46  73  99 140 179 230 299 360 418
#     4  12  24  41  69 105 146 180 240 280 353 414
#     4  10  23  40  67  97 143 186 243 277 350 402
#     4  10  23  40  60  97 145 195 235 283 331 409
#     4  11  21  40  60 101 146 191 239 282 335 409
#     4  10  26  52  72 100 126 168 236 290 366 430
#
# _framework density 21.638902999999999
#
# number of rings (size 3 to 8) (size 9 to 14) (size 15 to 20)
#    0.000    1.231    3.077    1.846    4.308    1.846 
#    0.000    0.000    0.000    0.000    0.000    0.000 
#    0.000    0.000    0.000    0.000    0.000    0.000 
#
# Total GULP energy -144850.931957 kJ/mol
# GULP energy per Si atom -5571.189691 kJ/mol
# Density = 2.158965 g / cm^3
# Si number density = 21.638903 Si / 1000 Ang^3
#
#
#
# Elastic Constant Matrix: (Units=GPa)
#
#
# Indices 1 2 3 4 5 6 
#
# 1 51.1644 -14.5338 0.3083 0.0000 0.0000 0.0000
# 2 -14.5338 76.8399 45.7890 0.0000 0.0000 0.0000
# 3 0.3083 45.7890 95.2212 0.0000 0.0000 0.0000
# 4 0.0000 0.0000 0.0000 34.0579 0.0000 0.0000
# 5 0.0000 0.0000 0.0000 0.0000 12.4938 0.0000
# 6 0.0000 0.0000 0.0000 0.0000 0.0000 9.2044
#
#
#
# Elastic Compliance Matrix: (Units=1/GPa)
#
#
# Indices 1 2 3 4 5 6 
#
# 1 0.021172 0.005670 -0.002795 0.000000 0.000000 0.000000
# 2 0.005670 0.019760 -0.009520 0.000000 0.000000 0.000000
# 3 -0.002795 -0.009520 0.015089 0.000000 0.000000 0.000000
# 4 0.000000 0.000000 0.000000 0.029362 0.000000 0.000000
# 5 0.000000 0.000000 0.000000 0.000000 0.080040 0.000000
# 6 0.000000 0.000000 0.000000 0.000000 0.000000 0.108643
#
#
# Mechanical properties :
#
#
# Convention : Reuss Voigt Hill
#
# Bulk Modulus (GPa) = 23.40238 31.81695 27.60966
# Shear Modulus (GPa) = 16.57827 23.92869 20.25348
#
# Velocity S-wave (km/s) = 2.77091 3.32899 3.06269
# Velocity P-wave (km/s) = 4.59083 5.43247 5.02929
#
# Compressibility (1/GPa) = 0.04273070
#
# Stress axis : x y z
#
# Youngs Moduli (GPa) = 47.23136 50.60818 66.27402
#
# Poissons Ratio (x) = -0.28696 0.18525
# Poissons Ratio (y) = -0.26782 0.63094
# Poissons Ratio (z) = 0.13202 0.48180
#
# Static dielectric constant tensor:
#      x y z
#    x 1.900200 0.000000 0.000000 
#    y 0.000000 1.865750 0.000000 
#    z 0.000000 0.000000 1.789010 
# 
# From -- ./inp_files/13013.got.cif
#   From: 2010.05.17/outbox.cif.g08.bks.cpg/sg46_7_cif.got.tgz:13013.got - 2010.06.03 19:58:25.
