data_PCOD9380019
_publ_section_title
;
Structure prediction by ZEFSAII (Michael W. Deem and Ramdas Pophale) SiO2 
 PCOD9380019
Probable space group: I M A 2
;
_chemical_formula_sum "Si O2"
_cell_formula_units_Z 44
_cell_length_a 19.626690
_cell_length_b 9.471084
_cell_length_c 11.889179
_cell_angle_alpha 90.000000
_cell_angle_beta 90.000000
_cell_angle_gamma 90.000000
_cell_volume 2210.032280
_symmetry_space_group_name_H-M "I M A 2"
_symmetry_group_IT_number 46
_symmetry_cell_setting 'orthorhombic'
loop_
_space_group_symop_operation_xyz
x,y,z
-x,-y,z
1/2-x,y,z
1/2+x,-y,z
1/2+x,1/2+y,1/2+z
1/2-x,1/2-y,1/2+z
-x,1/2+y,1/2+z
x,1/2-y,1/2+z
loop_
_atom_site_type_symbol
_atom_site_label
_atom_site_fract_x
_atom_site_fract_y
_atom_site_fract_z
Si Si1 0.169655 0.837369 0.317950
Si Si2 0.084592 0.278941 0.366211
Si Si3 0.831090 0.477906 0.268826
Si Si4 0.500000 0.000000 0.970046
Si Si5 0.668726 0.552882 0.010617
Si Si6 0.072877 0.043563 0.193063
O O1 0.250000 0.838593 0.294030
O O2 0.144966 0.678662 0.300796
O O3 0.131667 0.942214 0.234468
O O4 0.159976 0.908291 0.439757
O O5 0.135299 0.408412 0.348750
O O6 0.013373 0.357117 0.398852
O O7 0.118022 0.168654 0.455057
O O8 0.083397 0.196959 0.246557
O O9 0.750000 0.481759 0.281333
O O10 0.846347 0.519014 0.139867
O O11 0.438659 0.017834 0.061047
O O12 0.750000 0.593545 0.000014
O O13 0.000000 0.000000 0.245957
#
# Coordination Sequence:
#
# PCOD9380019 Si02
#       6
#     8   8   8   4   8   8
#     4   9  19  38  62  87 116 153 194 244 296 349
#     4  11  21  38  61  83 117 159 195 239 298 343
#     4  10  21  36  60  91 118 148 196 245 294 353
#     4  10  24  38  58  84 118 150 204 242 282 350
#     4   9  19  38  61  87 119 151 191 241 298 353
#     4   9  22  42  58  83 121 153 197 242 290 349
#
# _framework density 19.909212
#
# number of rings (size 3 to 8) (size 9 to 14) (size 15 to 20)
#    0.545    1.818    0.000    1.636    2.545    2.182 
#    3.273    3.636    4.000    0.000    0.000    0.000 
#    0.000    0.000    0.000    0.000    0.000    0.000 
#
# Total GULP energy -122486.554009 kJ/mol
# GULP energy per Si atom -5567.570637 kJ/mol
# Density = 1.986390 g / cm^3
# Si number density = 19.909212 Si / 1000 Ang^3
#
#
#
# Elastic Constant Matrix: (Units=GPa)
#
#
# Indices 1 2 3 4 5 6 
#
# 1 47.2407 51.0279 43.0015 0.0000 0.0000 0.0000
# 2 51.0279 162.2735 57.8842 0.0000 0.0000 0.0000
# 3 43.0015 57.8842 87.8088 0.0000 0.0000 0.0000
# 4 0.0000 0.0000 0.0000 18.9396 0.0000 0.0000
# 5 0.0000 0.0000 0.0000 0.0000 28.6895 0.0000
# 6 0.0000 0.0000 0.0000 0.0000 0.0000 28.4674
#
#
#
# Elastic Compliance Matrix: (Units=1/GPa)
#
#
# Indices 1 2 3 4 5 6 
#
# 1 0.045377 -0.008292 -0.016756 0.000000 0.000000 0.000000
# 2 -0.008292 0.009572 -0.002249 0.000000 0.000000 0.000000
# 3 -0.016756 -0.002249 0.021077 0.000000 0.000000 0.000000
# 4 0.000000 0.000000 0.000000 0.052799 0.000000 0.000000
# 5 0.000000 0.000000 0.000000 0.000000 0.034856 0.000000
# 6 0.000000 0.000000 0.000000 0.000000 0.000000 0.035128
#
#
# Mechanical properties :
#
#
# Convention : Reuss Voigt Hill
#
# Bulk Modulus (GPa) = 46.65966 66.79445 56.72705
# Shear Modulus (GPa) = 19.19028 24.91325 22.05176
#
# Velocity S-wave (km/s) = 3.10802 3.54127 3.33170
# Velocity P-wave (km/s) = 6.03049 7.09529 6.58445
#
# Compressibility (1/GPa) = 0.02143179
#
# Stress axis : x y z
#
# Youngs Moduli (GPa) = 22.03736 104.46782 47.44568
#
# Poissons Ratio (x) = 0.86628 0.79499
# Poissons Ratio (y) = 0.18274 0.10672
# Poissons Ratio (z) = 0.36925 0.23498
#
# Static dielectric constant tensor:
#      x y z
#    x 1.712450 0.000000 0.000000 
#    y 0.000000 1.715220 0.000000 
#    z 0.000000 0.000000 1.738080 
# 
# From -- ./inp_files/12648.got.cif
#   From: 2010.05.17/outbox.cif.g08.bks.cpg/sg46_7_cif.got.tgz:12648.got - 2010.06.03 19:58:25.
