data_PCOD9380835
_publ_section_title
;
Structure prediction by ZEFSAII (Michael W. Deem and Ramdas Pophale) SiO2 
 PCOD9380835
Probable space group: I M A 2
;
_chemical_formula_sum "Si O2"
_cell_formula_units_Z 64
_cell_length_a 8.866404
_cell_length_b 28.673428
_cell_length_c 12.817209
_cell_angle_alpha 90.000000
_cell_angle_beta 90.000000
_cell_angle_gamma 90.000000
_cell_volume 3258.521565
_symmetry_space_group_name_H-M "I M A 2"
_symmetry_group_IT_number 46
_symmetry_cell_setting 'orthorhombic'
loop_
_space_group_symop_operation_xyz
x,y,z
-x,-y,z
1/2-x,y,z
1/2+x,-y,z
1/2+x,1/2+y,1/2+z
1/2-x,1/2-y,1/2+z
-x,1/2+y,1/2+z
x,1/2-y,1/2+z
loop_
_atom_site_type_symbol
_atom_site_label
_atom_site_fract_x
_atom_site_fract_y
_atom_site_fract_z
Si Si1 0.933326 0.377995 0.654750
Si Si2 0.572206 0.046401 0.319170
Si Si3 0.567151 0.911645 0.760457
Si Si4 0.077631 0.177960 0.478016
Si Si5 0.568226 0.449389 0.473642
Si Si6 0.078644 0.431853 0.030043
Si Si7 0.068343 0.305689 0.207338
Si Si8 0.570702 0.210906 0.270194
O O1 0.750000 0.376662 0.652959
O O2 0.981607 0.408938 0.754397
O O3 0.979160 0.407829 0.553460
O O4 0.983189 0.325139 0.679283
O O5 0.750000 0.043838 0.308775
O O6 0.526744 0.049261 0.439746
O O7 0.500000 0.000000 0.273046
O O8 0.750000 0.913556 0.770095
O O9 0.489772 0.935278 0.858983
O O10 0.529086 0.936174 0.649900
O O11 0.522891 0.856853 0.749369
O O12 0.250000 0.193093 0.454690
O O13 0.084518 0.123433 0.506729
O O14 0.022652 0.200321 0.586118
O O15 0.973474 0.188012 0.380308
O O16 0.500000 0.500000 0.501685
O O17 0.750000 0.452539 0.475757
O O18 0.250000 0.450096 0.018467
O O19 0.250000 0.305299 0.209258
O O20 0.003257 0.261554 0.266361
O O21 0.750000 0.215454 0.261812
#
# Coordination Sequence:
#
# PCOD9380835 Si02
#       8
#     8   8   8   8   8   8   8   8
#     4   9  21  39  56  80 116 153 191 243 294 345
#     4  11  21  35  55  81 113 145 182 230 284 343
#     4   9  20  40  62  84 116 152 194 245 296 346
#     4   9  18  35  57  79 109 147 188 236 288 343
#     4  11  23  41  63  86 118 159 205 251 303 360
#     4   9  18  35  58  82 108 142 183 232 286 342
#     4   9  20  38  58  84 117 155 198 246 295 351
#     4  11  21  35  57  86 119 154 195 244 300 357
#
# _framework density 19.640809999999998
#
# number of rings (size 3 to 8) (size 9 to 14) (size 15 to 20)
#    0.000    2.250    1.250    3.000    0.000    3.000 
#    0.000    9.375    0.000    0.000    0.000    0.000 
#    0.000    0.000    0.000    0.000    0.000    0.000 
#
# Total GULP energy -178498.178878 kJ/mol
# GULP energy per Si atom -5578.068090 kJ/mol
# Density = 1.959611 g / cm^3
# Si number density = 19.640810 Si / 1000 Ang^3
#
#
#
# Elastic Constant Matrix: (Units=GPa)
#
#
# Indices 1 2 3 4 5 6 
#
# 1 21.8051 7.9653 14.0870 0.0000 0.0000 0.0000
# 2 7.9653 50.1463 6.2457 0.0000 0.0000 -0.0001
# 3 14.0870 6.2457 79.1791 0.0006 0.0001 0.0000
# 4 0.0000 0.0000 0.0006 16.3024 0.0000 0.0001
# 5 0.0000 0.0000 0.0001 0.0000 27.3553 0.0001
# 6 0.0000 -0.0001 0.0000 0.0001 0.0001 22.8862
#
#
#
# Elastic Compliance Matrix: (Units=1/GPa)
#
#
# Indices 1 2 3 4 5 6 
#
# 1 0.054488 -0.007521 -0.009101 0.000000 0.000000 0.000000
# 2 -0.007521 0.021178 -0.000332 0.000000 0.000000 0.000000
# 3 -0.009101 -0.000332 0.014275 -0.000001 0.000000 0.000000
# 4 0.000000 0.000000 -0.000001 0.061341 0.000000 0.000000
# 5 0.000000 0.000000 0.000000 0.000000 0.036556 0.000000
# 6 0.000000 0.000000 0.000000 0.000000 0.000000 0.043694
#
#
# Mechanical properties :
#
#
# Convention : Reuss Voigt Hill
#
# Bulk Modulus (GPa) = 17.84712 23.08071 20.46391
# Shear Modulus (GPa) = 17.59832 21.49762 19.54797
#
# Velocity S-wave (km/s) = 2.99659 3.31197 3.15822
# Velocity P-wave (km/s) = 4.59121 5.13833 4.87245
#
# Compressibility (1/GPa) = 0.05603146
#
# Stress axis : x y z
#
# Youngs Moduli (GPa) = 18.35270 47.21936 70.05265
#
# Poissons Ratio (x) = 0.35516 0.63754
# Poissons Ratio (y) = 0.13804 0.02328
# Poissons Ratio (z) = 0.16702 0.01569
#
# Static dielectric constant tensor:
#      x y z
#    x 1.673500 0.000000 0.000000 
#    y 0.000000 1.721930 0.000000 
#    z 0.000000 0.000000 1.692720 
# 
# From -- ./inp_files/9761.got.cif
#   From: 2010.05.17/outbox.cif.g08.bks.cpg/sg46_5_cif.got.tgz:9761.got - 2010.06.03 19:58:25.
