data_PCOD9380171
_publ_section_title
;
Structure prediction by ZEFSAII (Michael W. Deem and Ramdas Pophale) SiO2 
 PCOD9380171
Probable space group: I M A 2
;
_chemical_formula_sum "Si O2"
_cell_formula_units_Z 36
_cell_length_a 21.323133
_cell_length_b 6.622567
_cell_length_c 12.307745
_cell_angle_alpha 90.000000
_cell_angle_beta 90.000000
_cell_angle_gamma 90.000000
_cell_volume 1738.024388
_symmetry_space_group_name_H-M "I M A 2"
_symmetry_group_IT_number 46
_symmetry_cell_setting 'orthorhombic'
loop_
_space_group_symop_operation_xyz
x,y,z
-x,-y,z
1/2-x,y,z
1/2+x,-y,z
1/2+x,1/2+y,1/2+z
1/2-x,1/2-y,1/2+z
-x,1/2+y,1/2+z
x,1/2-y,1/2+z
loop_
_atom_site_type_symbol
_atom_site_label
_atom_site_fract_x
_atom_site_fract_y
_atom_site_fract_z
Si Si1 0.891977 0.020230 0.722440
Si Si2 0.822577 0.094837 0.133804
Si Si3 0.908589 0.741745 0.526676
Si Si4 0.179963 0.320781 0.846890
Si Si5 0.500000 0.000000 0.884507
O O1 0.857166 0.195661 0.657561
O O2 0.945667 0.086746 0.806370
O O3 0.921516 0.865180 0.635335
O O4 0.842518 0.888640 0.792160
O O5 0.750000 0.117359 0.096869
O O6 0.864486 0.950406 0.057477
O O7 0.820899 0.981561 0.250188
O O8 0.867670 0.871707 0.442536
O O9 0.968867 0.665374 0.462358
O O10 0.250000 0.303043 0.890672
#
# Coordination Sequence:
#
# PCOD9380171 Si02
#       5
#     8   8   8   8   4
#     4  10  22  40  59  90 122 163 210 262 306 368
#     4  10  21  38  64  94 122 160 211 262 317 378
#     4  10  22  40  61  90 123 167 207 259 316 362
#     4   9  19  38  59  87 127 160 197 253 316 372
#     4  10  24  42  60  88 124 170 212 248 312 376
#
# _framework density 20.713173000000001
#
# number of rings (size 3 to 8) (size 9 to 14) (size 15 to 20)
#    0.000    2.222    0.000    1.333    3.111    6.222 
#    0.000    6.667    0.000    0.000    0.000    0.000 
#    0.000    0.000    0.000    0.000    0.000    0.000 
#
# Total GULP energy -100531.265512 kJ/mol
# GULP energy per Si atom -5585.070306 kJ/mol
# Density = 2.066603 g / cm^3
# Si number density = 20.713173 Si / 1000 Ang^3
#
#
#
# Elastic Constant Matrix: (Units=GPa)
#
#
# Indices 1 2 3 4 5 6 
#
# 1 107.5004 36.0285 35.1304 0.0000 0.0000 0.0000
# 2 36.0285 61.2929 16.3514 0.0000 0.0000 0.0000
# 3 35.1304 16.3514 82.2226 0.0000 0.0000 0.0000
# 4 0.0000 0.0000 0.0000 7.6284 0.0000 0.0000
# 5 0.0000 0.0000 0.0000 0.0000 12.7604 0.0000
# 6 0.0000 0.0000 0.0000 0.0000 0.0000 14.2839
#
#
#
# Elastic Compliance Matrix: (Units=1/GPa)
#
#
# Indices 1 2 3 4 5 6 
#
# 1 0.012827 -0.006418 -0.004204 0.000000 0.000000 0.000000
# 2 -0.006418 0.020441 -0.001323 0.000000 0.000000 0.000000
# 3 -0.004204 -0.001323 0.014221 0.000000 0.000000 0.000000
# 4 0.000000 0.000000 0.000000 0.131089 0.000000 0.000000
# 5 0.000000 0.000000 0.000000 0.000000 0.078368 0.000000
# 6 0.000000 0.000000 0.000000 0.000000 0.000000 0.070009
#
#
# Mechanical properties :
#
#
# Convention : Reuss Voigt Hill
#
# Bulk Modulus (GPa) = 42.37475 47.33738 44.85606
# Shear Modulus (GPa) = 13.93874 17.83490 15.88682
#
# Velocity S-wave (km/s) = 2.59692 2.93753 2.77246
# Velocity P-wave (km/s) = 5.43087 5.86591 5.65257
#
# Compressibility (1/GPa) = 0.02359896
#
# Stress axis : x y z
#
# Youngs Moduli (GPa) = 77.95869 48.92182 70.31654
#
# Poissons Ratio (x) = 0.31400 0.29562
# Poissons Ratio (y) = 0.50037 0.09300
# Poissons Ratio (z) = 0.32775 0.06471
#
# Static dielectric constant tensor:
#      x y z
#    x 1.740540 0.000000 0.000000 
#    y 0.000000 1.736240 0.000000 
#    z 0.000000 0.000000 1.726660 
# 
# From -- ./inp_files/12606.got.cif
#   From: 2010.05.17/outbox.cif.g08.bks.cpg/sg46_7_cif.got.tgz:12606.got - 2010.06.03 19:58:25.
