data_PCOD9380318
_publ_section_title
;
Structure prediction by ZEFSAII (Michael W. Deem and Ramdas Pophale) SiO2 
 PCOD9380318
Probable space group: I M A 2
;
_chemical_formula_sum "Si O2"
_cell_formula_units_Z 56
_cell_length_a 15.231488
_cell_length_b 5.018234
_cell_length_c 33.908091
_cell_angle_alpha 90.000000
_cell_angle_beta 90.000000
_cell_angle_gamma 90.000000
_cell_volume 2591.770732
_symmetry_space_group_name_H-M "I M A 2"
_symmetry_group_IT_number 46
_symmetry_cell_setting 'orthorhombic'
loop_
_space_group_symop_operation_xyz
x,y,z
-x,-y,z
1/2-x,y,z
1/2+x,-y,z
1/2+x,1/2+y,1/2+z
1/2-x,1/2-y,1/2+z
-x,1/2+y,1/2+z
x,1/2-y,1/2+z
loop_
_atom_site_type_symbol
_atom_site_label
_atom_site_fract_x
_atom_site_fract_y
_atom_site_fract_z
Si Si1 0.601505 0.914924 0.366830
Si Si2 0.848618 0.100206 0.916273
Si Si3 0.000000 0.000000 0.109642
Si Si4 0.105180 0.522445 0.777418
Si Si5 0.351909 0.358331 0.546887
Si Si6 0.847101 0.528273 0.229073
Si Si7 0.500000 0.500000 0.165326
Si Si8 0.148884 0.626487 0.993409
O O1 0.610879 0.645223 0.392101
O O2 0.628922 0.919760 0.321111
O O3 0.500000 0.000000 0.367483
O O4 0.654111 0.150622 0.387278
O O5 0.750000 0.011995 0.927872
O O6 0.893131 0.231805 0.955080
O O7 0.919301 0.899112 0.082466
O O8 0.019501 0.751818 0.137791
O O9 0.129554 0.820683 0.764273
O O10 0.000000 0.500000 0.773915
O O11 0.148630 0.322088 0.746959
O O12 0.250000 0.286478 0.557619
O O13 0.348895 0.642165 0.525544
O O14 0.385480 0.138007 0.515070
O O15 0.750000 0.463869 0.214626
O O16 0.917389 0.523157 0.194403
O O17 0.250000 0.557940 0.981754
#
# Coordination Sequence:
#
# PCOD9380318 Si02
#       8
#     8   8   4   8   8   8   4   8
#     4  11  24  39  60  92 136 176 217 277 342 384
#     4  11  22  39  62  91 129 175 225 278 332 385
#     4  12  26  42  70 100 127 174 211 258 344 408
#     4  11  22  43  66  90 134 182 222 281 338 387
#     4  10  21  41  65  94 129 165 216 267 318 393
#     4  12  25  43  71  99 129 178 229 269 333 408
#     4  12  26  46  66  96 141 162 209 280 338 400
#     4   9  19  38  64  89 124 172 212 264 325 375
#
# _framework density 21.606850999999999
#
# number of rings (size 3 to 8) (size 9 to 14) (size 15 to 20)
#    0.000    1.143    1.429    4.714    0.000    9.143 
#    5.143    0.000    0.000    0.000    0.000    0.000 
#    0.000    0.000    0.000    0.000    0.000    0.000 
#
# Total GULP energy -156416.143206 kJ/mol
# GULP energy per Si atom -5586.290829 kJ/mol
# Density = 2.155767 g / cm^3
# Si number density = 21.606851 Si / 1000 Ang^3
#
#
#
# Elastic Constant Matrix: (Units=GPa)
#
#
# Indices 1 2 3 4 5 6 
#
# 1 81.9922 4.3055 42.9400 0.0000 0.0000 0.0000
# 2 4.3055 121.1115 35.0613 0.0000 0.0000 0.0000
# 3 42.9400 35.0613 119.4570 0.0000 0.0000 0.0000
# 4 0.0000 0.0000 0.0000 45.5205 0.0000 0.0000
# 5 0.0000 0.0000 0.0000 0.0000 48.1849 0.0000
# 6 0.0000 0.0000 0.0000 0.0000 0.0000 27.1814
#
#
#
# Elastic Compliance Matrix: (Units=1/GPa)
#
#
# Indices 1 2 3 4 5 6 
#
# 1 0.015166 0.001136 -0.005785 0.000000 0.000000 0.000000
# 2 0.001136 0.009109 -0.003082 0.000000 0.000000 0.000000
# 3 -0.005785 -0.003082 0.011355 0.000000 0.000000 0.000000
# 4 0.000000 0.000000 0.000000 0.021968 0.000000 0.000000
# 5 0.000000 0.000000 0.000000 0.000000 0.020753 0.000000
# 6 0.000000 0.000000 0.000000 0.000000 0.000000 0.036790
#
#
# Mechanical properties :
#
#
# Convention : Reuss Voigt Hill
#
# Bulk Modulus (GPa) = 49.58350 54.13048 51.85699
# Shear Modulus (GPa) = 36.40970 40.19431 38.30201
#
# Velocity S-wave (km/s) = 4.10945 4.31775 4.21489
# Velocity P-wave (km/s) = 6.74645 7.06853 6.90937
#
# Compressibility (1/GPa) = 0.02016800
#
# Stress axis : x y z
#
# Youngs Moduli (GPa) = 65.93578 109.78637 88.06583
#
# Poissons Ratio (x) = -0.12467 0.50946
# Poissons Ratio (y) = -0.07487 0.27139
# Poissons Ratio (z) = 0.38144 0.33832
#
# Static dielectric constant tensor:
#      x y z
#    x 1.855490 0.000000 0.000000 
#    y 0.000000 1.743840 0.000000 
#    z 0.000000 0.000000 1.799180 
# 
# From -- ./inp_files/25457.got.cif
#   From: 2010.05.17/outbox.cif.g08.bks.cpg/sg46_13_cif.got.tgz:25457.got - 2010.06.03 19:58:25.
