data_PCOD9380100
_publ_section_title
;
Structure prediction by ZEFSAII (Michael W. Deem and Ramdas Pophale) SiO2 
 PCOD9380100
Probable space group: I M A 2
;
_chemical_formula_sum "Si O2"
_cell_formula_units_Z 56
_cell_length_a 9.216384
_cell_length_b 14.220073
_cell_length_c 23.012401
_cell_angle_alpha 90.000000
_cell_angle_beta 90.000000
_cell_angle_gamma 90.000000
_cell_volume 3015.951271
_symmetry_space_group_name_H-M "I M A 2"
_symmetry_group_IT_number 46
_symmetry_cell_setting 'orthorhombic'
loop_
_space_group_symop_operation_xyz
x,y,z
-x,-y,z
1/2-x,y,z
1/2+x,-y,z
1/2+x,1/2+y,1/2+z
1/2-x,1/2-y,1/2+z
-x,1/2+y,1/2+z
x,1/2-y,1/2+z
loop_
_atom_site_type_symbol
_atom_site_label
_atom_site_fract_x
_atom_site_fract_y
_atom_site_fract_z
Si Si1 0.075133 0.305404 0.502860
Si Si2 0.419342 0.654853 0.615099
Si Si3 0.082689 0.408921 0.033506
Si Si4 0.078027 0.805059 0.768579
Si Si5 0.580836 0.091762 0.243297
Si Si6 0.580801 0.660125 0.159281
Si Si7 0.422289 0.600422 0.393707
O O1 0.250000 0.311704 0.501175
O O2 0.034627 0.195163 0.513098
O O3 0.014446 0.364121 0.558112
O O4 0.000043 0.343152 0.445262
O O5 0.250000 0.661037 0.599190
O O6 0.431259 0.592490 0.672888
O O7 0.481388 0.753576 0.638445
O O8 0.250000 0.416972 0.016899
O O9 0.075609 0.408173 0.104082
O O10 0.000000 0.500000 0.011123
O O11 0.250000 0.807685 0.753062
O O12 0.030445 0.695142 0.764543
O O13 0.061010 0.845264 0.832762
O O14 0.986542 0.864557 0.721495
O O15 0.750000 0.085118 0.258067
O O16 0.500000 0.000000 0.266214
O O17 0.750000 0.687984 0.165743
O O18 0.500000 0.500000 0.389362
O O19 0.250000 0.589790 0.405272
#
# Coordination Sequence:
#
# PCOD9380100 Si02
#       7
#     8   8   8   8   8   8   8
#     4  10  21  38  57  81 112 143 184 233 277 326
#     4   9  17  31  51  76 108 145 181 217 265 320
#     4   9  19  33  52  81 114 146 180 220 266 324
#     4   9  20  38  56  77 108 144 182 224 272 328
#     4   9  18  32  52  80 111 142 177 215 260 319
#     4   9  17  30  50  78 109 141 179 222 267 313
#     4  11  24  42  62  81 104 139 183 231 282 334
#
# _framework density 18.567938999999999
#
# number of rings (size 3 to 8) (size 9 to 14) (size 15 to 20)
#    0.000    2.571    0.000    3.429    0.000    8.571 
#    0.000    5.000    0.000    3.429    0.000    0.000 
#    0.000    0.000    0.000    0.000    0.000    0.000 
#
# Total GULP energy -155984.487336 kJ/mol
# GULP energy per Si atom -5570.874548 kJ/mol
# Density = 1.852568 g / cm^3
# Si number density = 18.567939 Si / 1000 Ang^3
#
#
#
# Elastic Constant Matrix: (Units=GPa)
#
#
# Indices 1 2 3 4 5 6 
#
# 1 84.9328 55.2650 49.0173 0.0000 0.0000 0.0000
# 2 55.2650 88.4493 31.9015 0.0000 0.0000 0.0000
# 3 49.0173 31.9015 94.1276 0.0000 0.0000 0.0000
# 4 0.0000 0.0000 0.0000 10.3156 0.0000 0.0000
# 5 0.0000 0.0000 0.0000 0.0000 23.6460 0.0000
# 6 0.0000 0.0000 0.0000 0.0000 0.0000 26.4808
#
#
#
# Elastic Compliance Matrix: (Units=1/GPa)
#
#
# Indices 1 2 3 4 5 6 
#
# 1 0.024898 -0.012396 -0.008765 0.000000 0.000000 0.000000
# 2 -0.012396 0.019052 -0.000002 0.000000 0.000000 0.000000
# 3 -0.008765 -0.000002 0.015189 0.000000 0.000000 0.000000
# 4 0.000000 0.000000 0.000000 0.096940 0.000000 0.000000
# 5 0.000000 0.000000 0.000000 0.000000 0.042291 0.000000
# 6 0.000000 0.000000 0.000000 0.000000 0.000000 0.037763
#
#
# Mechanical properties :
#
#
# Convention : Reuss Voigt Hill
#
# Bulk Modulus (GPa) = 59.47382 59.98637 59.73009
# Shear Modulus (GPa) = 17.60180 20.84354 19.22267
#
# Velocity S-wave (km/s) = 3.08225 3.35409 3.22104
# Velocity P-wave (km/s) = 6.69081 6.88306 6.78761
#
# Compressibility (1/GPa) = 0.01681412
#
# Stress axis : x y z
#
# Youngs Moduli (GPa) = 40.16365 52.48890 65.83825
#
# Poissons Ratio (x) = 0.65063 0.57705
# Poissons Ratio (y) = 0.49786 0.00012
# Poissons Ratio (z) = 0.35202 0.00010
#
# Static dielectric constant tensor:
#      x y z
#    x 1.631490 0.000000 0.000000 
#    y 0.000000 1.656860 0.000000 
#    z 0.000000 0.000000 1.660560 
# 
# From -- ./inp_files/21121.got.cif
#   From: 2010.05.17/outbox.cif.g08.bks.cpg/sg46_11_cif.got.tgz:21121.got - 2010.06.03 19:58:25.
