data_PCOD9380415
_publ_section_title
;
Structure prediction by ZEFSAII (Michael W. Deem and Ramdas Pophale) SiO2 
 PCOD9380415
Probable space group: I M A 2
;
_chemical_formula_sum "Si O2"
_cell_formula_units_Z 48
_cell_length_a 10.244381
_cell_length_b 7.593553
_cell_length_c 30.597154
_cell_angle_alpha 90.000000
_cell_angle_beta 90.000000
_cell_angle_gamma 90.000000
_cell_volume 2380.190858
_symmetry_space_group_name_H-M "I M A 2"
_symmetry_group_IT_number 46
_symmetry_cell_setting 'orthorhombic'
loop_
_space_group_symop_operation_xyz
x,y,z
-x,-y,z
1/2-x,y,z
1/2+x,-y,z
1/2+x,1/2+y,1/2+z
1/2-x,1/2-y,1/2+z
-x,1/2+y,1/2+z
x,1/2-y,1/2+z
loop_
_atom_site_type_symbol
_atom_site_label
_atom_site_fract_x
_atom_site_fract_y
_atom_site_fract_z
Si Si1 0.402285 0.655780 0.956960
Si Si2 0.750000 0.312270 0.795279
Si Si3 0.515923 0.212338 0.730990
Si Si4 0.500000 0.500000 0.405972
Si Si5 0.598646 0.162634 0.636696
Si Si6 0.897923 0.151922 0.044321
Si Si7 0.750000 0.803648 0.273552
Si Si8 0.250000 0.477234 0.349108
O O1 0.500000 0.500000 0.944175
O O2 0.250000 0.618291 0.947071
O O3 0.445762 0.837822 0.934254
O O4 0.413277 0.693125 0.008968
O O5 0.623759 0.266281 0.766188
O O6 0.750000 0.520571 0.802725
O O7 0.750000 0.184210 0.836689
O O8 0.562444 0.257195 0.682145
O O9 0.378621 0.297105 0.743878
O O10 0.500000 0.000000 0.732410
O O11 0.380124 0.436781 0.375990
O O12 0.750000 0.103370 0.639967
O O13 0.586249 0.279982 0.593585
O O14 0.500000 0.000000 0.632361
O O15 0.750000 0.084194 0.038957
O O16 0.000000 0.000000 0.034986
O O17 0.750000 0.633410 0.304540
#
# Coordination Sequence:
#
# PCOD9380415 Si02
#       8
#     8   4   8   4   8   8   4   4
#     4  11  25  45  74 106 139 182 228 279 344 413
#     4  12  24  44  68  95 131 173 224 276 337 412
#     4  11  21  42  66  93 135 177 225 276 339 396
#     4  12  26  46  74  98 140 176 230 288 346 414
#     4  10  22  38  62  95 132 175 225 279 328 394
#     4  10  22  41  64  97 140 182 226 273 336 398
#     4  12  26  42  72  97 125 185 226 274 347 404
#     4  12  26  46  70 100 136 172 228 294 346 406
#
# _framework density 20.166450999999999
#
# number of rings (size 3 to 8) (size 9 to 14) (size 15 to 20)
#    0.000    1.000    4.167    2.000    4.667    4.000 
#    0.000    0.000    0.000    0.000    0.000    0.000 
#    0.000    0.000    0.000    0.000    0.000    0.000 
#
# Total GULP energy -134200.089097 kJ/mol
# GULP energy per Si atom -5591.670379 kJ/mol
# Density = 2.012055 g / cm^3
# Si number density = 20.166451 Si / 1000 Ang^3
#
#
#
# Elastic Constant Matrix: (Units=GPa)
#
#
# Indices 1 2 3 4 5 6 
#
# 1 165.9096 37.1143 33.7145 0.0000 0.0000 0.0000
# 2 37.1143 77.9922 1.0932 0.0000 0.0000 0.0000
# 3 33.7145 1.0932 63.1908 0.0000 0.0000 0.0000
# 4 0.0000 0.0000 0.0000 13.7397 0.0000 0.0000
# 5 0.0000 0.0000 0.0000 0.0000 34.3721 0.0000
# 6 0.0000 0.0000 0.0000 0.0000 0.0000 -188.9229
#
#
#
# Elastic Compliance Matrix: (Units=1/GPa)
#
#
# Indices 1 2 3 4 5 6 
#
# 1 0.007645 -0.003582 -0.004017 0.000000 0.000000 0.000000
# 2 -0.003582 0.014503 0.001660 0.000000 0.000000 0.000000
# 3 -0.004017 0.001660 0.017939 0.000000 0.000000 0.000000
# 4 0.000000 0.000000 0.000000 0.072782 0.000000 0.000000
# 5 0.000000 0.000000 0.000000 0.000000 0.029093 0.000000
# 6 0.000000 0.000000 0.000000 0.000000 0.000000 -0.005293
#
#
# Mechanical properties :
#
#
# Convention : Reuss Voigt Hill
#
# Bulk Modulus (GPa) = 35.44798 50.10408 42.77603
# Shear Modulus (GPa) = 31.65567 -12.48419 9.58574
#
# Velocity S-wave (km/s) = 3.96627 -2.49079 2.18257
# Velocity P-wave (km/s) = 6.21216 4.07764 5.25443
#
# Compressibility (1/GPa) = 0.02821036
#
# Stress axis : x y z
#
# Youngs Moduli (GPa) = 130.80671 68.95150 55.74293
#
# Poissons Ratio (x) = 0.24696 0.22391
# Poissons Ratio (y) = 0.46851 -0.09254
# Poissons Ratio (z) = 0.52543 -0.11446
#
# Static dielectric constant tensor:
#      x y z
#    x 1.689200 0.000000 0.000000 
#    y 0.000000 1.696970 0.000000 
#    z 0.000000 0.000000 1.706920 
# 
# From -- ./inp_files/25099.got.cif
#   From: 2010.05.17/outbox.cif.g08.bks.cpg/sg46_13_cif.got.tgz:25099.got - 2010.06.03 19:58:25.
