data_PCOD9380402
_publ_section_title
;
Structure prediction by ZEFSAII (Michael W. Deem and Ramdas Pophale) SiO2 
 PCOD9380402
Probable space group: I M A 2
;
_chemical_formula_sum "Si O2"
_cell_formula_units_Z 56
_cell_length_a 9.525096
_cell_length_b 21.106583
_cell_length_c 13.246328
_cell_angle_alpha 90.000000
_cell_angle_beta 90.000000
_cell_angle_gamma 90.000000
_cell_volume 2663.071311
_symmetry_space_group_name_H-M "I M A 2"
_symmetry_group_IT_number 46
_symmetry_cell_setting 'orthorhombic'
loop_
_space_group_symop_operation_xyz
x,y,z
-x,-y,z
1/2-x,y,z
1/2+x,-y,z
1/2+x,1/2+y,1/2+z
1/2-x,1/2-y,1/2+z
-x,1/2+y,1/2+z
x,1/2-y,1/2+z
loop_
_atom_site_type_symbol
_atom_site_label
_atom_site_fract_x
_atom_site_fract_y
_atom_site_fract_z
Si Si1 0.091805 0.309372 0.526660
Si Si2 0.595896 0.087592 0.509113
Si Si3 0.479539 0.303923 0.884978
Si Si4 0.500000 0.000000 0.330335
Si Si5 0.583233 0.889941 0.690432
Si Si6 0.250000 0.406189 0.798546
Si Si7 0.415747 0.060814 0.913187
Si Si8 0.588698 0.259112 0.190378
O O1 0.250000 0.315329 0.570980
O O2 0.093010 0.254822 0.441778
O O3 0.053305 0.375692 0.475609
O O4 0.982666 0.287554 0.610091
O O5 0.750000 0.079913 0.554334
O O6 0.568099 0.158243 0.468578
O O7 0.476947 0.074822 0.592192
O O8 0.581686 0.045134 0.409881
O O9 0.370870 0.353969 0.837105
O O10 0.574838 0.274872 0.797985
O O11 0.621228 0.958643 0.275866
O O12 0.750000 0.880337 0.680510
O O13 0.554130 0.925182 0.795271
O O14 0.503892 0.822815 0.693748
O O15 0.250000 0.049229 0.921871
O O16 0.500000 0.000000 0.948100
O O17 0.750000 0.273114 0.167279
#
# Coordination Sequence:
#
# PCOD9380402 Si02
#       8
#     8   8   8   4   8   4   8   8
#     4  11  23  43  71  98 132 175 229 285 336 407
#     4  11  23  39  60  90 134 174 216 270 331 402
#     4  11  23  40  68  95 133 174 224 274 346 396
#     4  10  22  38  58  90 132 174 222 262 328 406
#     4  11  24  39  63  98 137 175 225 274 333 419
#     4  10  22  40  68  94 128 184 224 274 332 408
#     4  10  24  46  68  95 132 179 226 278 342 411
#     4  12  26  41  65 103 137 172 223 289 347 399
#
# _framework density 21.028352999999999
#
# number of rings (size 3 to 8) (size 9 to 14) (size 15 to 20)
#    0.000    1.143    4.286    1.286    7.000    2.286 
#    0.000    0.000    6.286    0.000    0.000    0.000 
#    0.000    0.000    0.000    0.000    0.000    0.000 
#
# Total GULP energy -155954.881601 kJ/mol
# GULP energy per Si atom -5569.817200 kJ/mol
# Density = 2.098049 g / cm^3
# Si number density = 21.028353 Si / 1000 Ang^3
#
#
#
# Elastic Constant Matrix: (Units=GPa)
#
#
# Indices 1 2 3 4 5 6 
#
# 1 105.3158 24.2724 12.5489 0.0000 0.0000 0.0000
# 2 24.2724 94.8287 2.6618 0.0000 0.0000 0.0000
# 3 12.5489 2.6618 28.5104 0.0000 0.0000 0.0000
# 4 0.0000 0.0000 0.0000 8.0250 0.0000 0.0000
# 5 0.0000 0.0000 0.0000 0.0000 19.7643 0.0000
# 6 0.0000 0.0000 0.0000 0.0000 0.0000 28.8669
#
#
#
# Elastic Compliance Matrix: (Units=1/GPa)
#
#
# Indices 1 2 3 4 5 6 
#
# 1 0.010621 -0.002594 -0.004433 0.000000 0.000000 0.000000
# 2 -0.002594 0.011207 0.000096 0.000000 0.000000 0.000000
# 3 -0.004433 0.000096 0.037017 0.000000 0.000000 0.000000
# 4 0.000000 0.000000 0.000000 0.124611 0.000000 0.000000
# 5 0.000000 0.000000 0.000000 0.000000 0.050596 0.000000
# 6 0.000000 0.000000 0.000000 0.000000 0.000000 0.034642
#
#
# Mechanical properties :
#
#
# Convention : Reuss Voigt Hill
#
# Bulk Modulus (GPa) = 22.23102 34.18012 28.20557
# Shear Modulus (GPa) = 16.80384 23.94268 20.37326
#
# Velocity S-wave (km/s) = 2.82991 3.37796 3.11601
# Velocity P-wave (km/s) = 4.61224 5.61282 5.13695
#
# Compressibility (1/GPa) = 0.04498220
#
# Stress axis : x y z
#
# Youngs Moduli (GPa) = 94.15011 89.23259 27.01455
#
# Poissons Ratio (x) = 0.23149 0.11975
# Poissons Ratio (y) = 0.24425 -0.00258
# Poissons Ratio (z) = 0.41735 -0.00853
#
# Static dielectric constant tensor:
#      x y z
#    x 1.732840 0.000000 0.000000 
#    y 0.000000 1.774800 0.000000 
#    z 0.000000 0.000000 1.778540 
# 
# From -- ./inp_files/14243.got.cif
#   From: 2010.05.17/outbox.cif.g08.bks.cpg/sg46_8_cif.got.tgz:14243.got - 2010.06.03 19:58:25.
