data_PCOD9380896
_publ_section_title
;
Structure prediction by ZEFSAII (Michael W. Deem and Ramdas Pophale) SiO2 
 PCOD9380896
Probable space group: I M A 2
;
_chemical_formula_sum "Si O2"
_cell_formula_units_Z 48
_cell_length_a 21.450969
_cell_length_b 10.052827
_cell_length_c 9.161573
_cell_angle_alpha 90.000000
_cell_angle_beta 90.000000
_cell_angle_gamma 90.000000
_cell_volume 1975.627990
_symmetry_space_group_name_H-M "I M A 2"
_symmetry_group_IT_number 46
_symmetry_cell_setting 'orthorhombic'
loop_
_space_group_symop_operation_xyz
x,y,z
-x,-y,z
1/2-x,y,z
1/2+x,-y,z
1/2+x,1/2+y,1/2+z
1/2-x,1/2-y,1/2+z
-x,1/2+y,1/2+z
x,1/2-y,1/2+z
loop_
_atom_site_type_symbol
_atom_site_label
_atom_site_fract_x
_atom_site_fract_y
_atom_site_fract_z
Si Si1 0.137192 0.070012 0.000000
Si Si2 0.565879 0.176223 0.652387
Si Si3 0.518701 0.809374 0.928503
Si Si4 0.390277 0.050330 0.451416
Si Si5 0.676180 0.139842 0.212780
Si Si6 0.320588 0.194867 0.691568
O O1 0.064163 0.071024 0.969929
O O2 0.163718 0.127828 0.846710
O O3 0.144028 0.174441 0.134641
O O4 0.168912 0.936805 0.057377
O O5 0.517130 0.166103 0.781055
O O6 0.533498 0.282248 0.547346
O O7 0.633960 0.227607 0.702706
O O8 0.571555 0.043694 0.559528
O O9 0.564372 0.676427 0.914618
O O10 0.333842 0.100151 0.554344
O O11 0.360459 0.955223 0.328248
O O12 0.750000 0.157036 0.245108
O O13 0.250000 0.238068 0.700146
#
# Coordination Sequence:
#
# PCOD9380896 Si02
#       6
#     8   8   8   8   8   8
#     4  11  24  42  70 107 143 192 245 313 368 434
#     4  12  26  46  71 105 140 192 235 303 365 451
#     4  11  24  46  73 104 143 180 252 308 376 427
#     4  11  25  47  72 103 140 196 248 312 373 436
#     4  12  27  47  71 105 150 199 244 295 374 455
#     4  11  22  40  68 102 143 190 246 305 368 434
#
# _framework density 24.296071000000001
#
# number of rings (size 3 to 8) (size 9 to 14) (size 15 to 20)
#    0.000    0.667    1.667    7.500    2.333    3.333 
#    0.000    0.000    0.000    0.000    0.000    0.000 
#    0.000    0.000    0.000    0.000    0.000    0.000 
#
# Total GULP energy -134243.094735 kJ/mol
# GULP energy per Si atom -5593.462281 kJ/mol
# Density = 2.424077 g / cm^3
# Si number density = 24.296071 Si / 1000 Ang^3
#
#
#
# Elastic Constant Matrix: (Units=GPa)
#
#
# Indices 1 2 3 4 5 6 
#
# 1 133.8615 30.9746 24.1183 0.0000 0.0000 0.0000
# 2 30.9746 74.8408 13.6089 0.0000 0.0000 0.0000
# 3 24.1183 13.6089 56.3829 0.0000 0.0000 0.0000
# 4 0.0000 0.0000 0.0000 29.9217 0.0000 0.0000
# 5 0.0000 0.0000 0.0000 0.0000 48.5708 0.0000
# 6 0.0000 0.0000 0.0000 0.0000 0.0000 22.3587
#
#
#
# Elastic Compliance Matrix: (Units=1/GPa)
#
#
# Indices 1 2 3 4 5 6 
#
# 1 0.008718 -0.003065 -0.002990 0.000000 0.000000 0.000000
# 2 -0.003065 0.015052 -0.002322 0.000000 0.000000 0.000000
# 3 -0.002990 -0.002322 0.019575 0.000000 0.000000 0.000000
# 4 0.000000 0.000000 0.000000 0.033421 0.000000 0.000000
# 5 0.000000 0.000000 0.000000 0.000000 0.020589 0.000000
# 6 0.000000 0.000000 0.000000 0.000000 0.000000 0.044725
#
#
# Mechanical properties :
#
#
# Convention : Reuss Voigt Hill
#
# Bulk Modulus (GPa) = 37.60402 44.72098 41.16250
# Shear Modulus (GPa) = 29.81567 33.26247 31.53907
#
# Velocity S-wave (km/s) = 3.50691 3.70408 3.60684
# Velocity P-wave (km/s) = 5.64880 6.06137 5.85872
#
# Compressibility (1/GPa) = 0.02659290
#
# Stress axis : x y z
#
# Youngs Moduli (GPa) = 114.70291 66.43499 51.08509
#
# Poissons Ratio (x) = 0.20360 0.15272
# Poissons Ratio (y) = 0.35152 0.11863
# Poissons Ratio (z) = 0.34291 0.15428
#
# Static dielectric constant tensor:
#      x y z
#    x 1.849190 0.000000 0.000000 
#    y 0.000000 2.032700 0.000000 
#    z 0.000000 0.000000 2.059910 
# 
# From -- ./inp_files/7813.got.cif
#   From: 2010.05.17/outbox.cif.g08.bks.cpg/sg46_4_cif.got.tgz:7813.got - 2010.06.03 19:58:25.
