data_PCOD9380357
_publ_section_title
;
Structure prediction by ZEFSAII (Michael W. Deem and Ramdas Pophale) SiO2 
 PCOD9380357
Probable space group: I M A 2
;
_chemical_formula_sum "Si O2"
_cell_formula_units_Z 28
_cell_length_a 9.530550
_cell_length_b 7.067519
_cell_length_c 18.785954
_cell_angle_alpha 90.000000
_cell_angle_beta 90.000000
_cell_angle_gamma 90.000000
_cell_volume 1265.371951
_symmetry_space_group_name_H-M "I M A 2"
_symmetry_group_IT_number 46
_symmetry_cell_setting 'orthorhombic'
loop_
_space_group_symop_operation_xyz
x,y,z
-x,-y,z
1/2-x,y,z
1/2+x,-y,z
1/2+x,1/2+y,1/2+z
1/2-x,1/2-y,1/2+z
-x,1/2+y,1/2+z
x,1/2-y,1/2+z
loop_
_atom_site_type_symbol
_atom_site_label
_atom_site_fract_x
_atom_site_fract_y
_atom_site_fract_z
Si Si1 0.082530 0.302352 0.105740
Si Si2 0.088560 0.665543 0.740042
Si Si3 0.091558 0.188367 0.446461
Si Si4 0.000000 0.500000 0.336004
O O1 0.250000 0.321103 0.120853
O O2 0.000000 0.500000 0.103012
O O3 0.001092 0.197795 0.168488
O O4 0.066897 0.225308 0.025495
O O5 0.250000 0.611133 0.727122
O O6 0.000000 0.500000 0.778498
O O7 0.086474 0.860561 0.784438
O O8 0.250000 0.117589 0.445652
O O9 0.075197 0.350973 0.387935
O O10 0.000000 0.000000 0.437625
#
# Coordination Sequence:
#
# PCOD9380357 Si02
#       4
#     8   8   8   4
#     4  10  21  42  71 103 140 182 231 284 344 412
#     4  12  27  45  69 101 141 185 235 289 346 414
#     4  10  24  45  70 104 140 181 230 284 344 411
#     4  12  26  44  72 104 140 186 232 284 346 414
#
# _framework density 22.127880999999999
#
# number of rings (size 3 to 8) (size 9 to 14) (size 15 to 20)
#    0.000    1.143    1.429    3.429    2.000    9.143 
#    0.000    0.000    0.000    0.000    0.000    0.000 
#    0.000    0.000    0.000    0.000    0.000    0.000 
#
# Total GULP energy -78164.258739 kJ/mol
# GULP energy per Si atom -5583.161338 kJ/mol
# Density = 2.207752 g / cm^3
# Si number density = 22.127881 Si / 1000 Ang^3
#
#
#
# Elastic Constant Matrix: (Units=GPa)
#
#
# Indices 1 2 3 4 5 6 
#
# 1 184.9978 65.3385 79.0037 0.0000 0.0000 0.0000
# 2 65.3385 121.4088 49.2178 0.0000 0.0000 0.0000
# 3 79.0037 49.2178 141.4556 0.0000 0.0000 0.0000
# 4 0.0000 0.0000 0.0000 19.5174 0.0000 0.0000
# 5 0.0000 0.0000 0.0000 0.0000 -5.5001 0.0000
# 6 0.0000 0.0000 0.0000 0.0000 0.0000 25.4073
#
#
#
# Elastic Compliance Matrix: (Units=1/GPa)
#
#
# Indices 1 2 3 4 5 6 
#
# 1 0.007866 -0.002855 -0.003400 0.000000 0.000000 0.000000
# 2 -0.002855 0.010625 -0.002103 0.000000 0.000000 0.000000
# 3 -0.003400 -0.002103 0.009700 0.000000 0.000000 0.000000
# 4 0.000000 0.000000 0.000000 0.051236 0.000000 0.000000
# 5 0.000000 0.000000 0.000000 0.000000 -0.181814 0.000000
# 6 0.000000 0.000000 0.000000 0.000000 0.000000 0.039359
#
#
# Mechanical properties :
#
#
# Convention : Reuss Voigt Hill
#
# Bulk Modulus (GPa) = 87.13436 92.77582 89.95509
# Shear Modulus (GPa) = -117.67890 24.83837 -46.42026
#
# Velocity S-wave (km/s) = -7.30046 3.35400 -4.58516
# Velocity P-wave (km/s) = 5.62132 7.55097 3.56497
#
# Compressibility (1/GPa) = 0.01147653
#
# Stress axis : x y z
#
# Youngs Moduli (GPa) = 127.13603 94.11439 103.09655
#
# Poissons Ratio (x) = 0.26868 0.35049
# Poissons Ratio (y) = 0.36295 0.21676
# Poissons Ratio (z) = 0.43222 0.19788
#
# Static dielectric constant tensor:
#      x y z
#    x 1.758690 0.000000 0.000000 
#    y 0.000000 1.913690 0.000000 
#    z 0.000000 0.000000 1.895440 
# 
# From -- ./inp_files/20636.got.cif
#   From: 2010.05.17/outbox.cif.g08.bks.cpg/sg46_11_cif.got.tgz:20636.got - 2010.06.03 19:58:25.
