data_PCOD9380742
_publ_section_title
;
Structure prediction by ZEFSAII (Michael W. Deem and Ramdas Pophale) SiO2 
 PCOD9380742
Probable space group: I M A 2
;
_chemical_formula_sum "Si O2"
_cell_formula_units_Z 36
_cell_length_a 20.407872
_cell_length_b 8.564946
_cell_length_c 8.622713
_cell_angle_alpha 90.000000
_cell_angle_beta 90.000000
_cell_angle_gamma 90.000000
_cell_volume 1507.184024
_symmetry_space_group_name_H-M "I M A 2"
_symmetry_group_IT_number 46
_symmetry_cell_setting 'orthorhombic'
loop_
_space_group_symop_operation_xyz
x,y,z
-x,-y,z
1/2-x,y,z
1/2+x,-y,z
1/2+x,1/2+y,1/2+z
1/2-x,1/2-y,1/2+z
-x,1/2+y,1/2+z
x,1/2-y,1/2+z
loop_
_atom_site_type_symbol
_atom_site_label
_atom_site_fract_x
_atom_site_fract_y
_atom_site_fract_z
Si Si1 0.613069 0.401558 0.015240
Si Si2 0.821748 0.915134 0.979589
Si Si3 0.532228 0.153907 0.818269
Si Si4 0.750000 0.261830 0.485354
Si Si5 0.398963 0.183832 0.278830
O O1 0.579791 0.404445 0.182572
O O2 0.690438 0.362733 0.016502
O O3 0.572417 0.267132 0.927645
O O4 0.601709 0.559590 0.918899
O O5 0.750000 0.842661 0.013660
O O6 0.867866 0.893892 0.127755
O O7 0.805272 0.097409 0.958966
O O8 0.853477 0.826036 0.836512
O O9 0.471670 0.253727 0.751369
O O10 0.500000 0.000000 0.894730
#
# Coordination Sequence:
#
# PCOD9380742 Si02
#       5
#     8   8   8   4   8
#     4  12  27  46  72 105 141 191 234 301 352 432
#     4  10  24  44  72 107 142 191 230 294 358 424
#     4  12  26  46  71 103 141 183 242 292 365 419
#     4  10  26  42  68  98 146 180 238 276 362 412
#     4  12  24  47  75 107 145 185 245 295 360 428
#
# _framework density 23.885603
#
# number of rings (size 3 to 8) (size 9 to 14) (size 15 to 20)
#    0.667    0.000    0.000    8.000    3.111    2.667 
#    0.000    0.000    0.000    0.000    0.000    0.000 
#    0.000    0.000    0.000    0.000    0.000    0.000 
#
# Total GULP energy -100299.522749 kJ/mol
# GULP energy per Si atom -5572.195708 kJ/mol
# Density = 2.383124 g / cm^3
# Si number density = 23.885603 Si / 1000 Ang^3
#
#
#
# Elastic Constant Matrix: (Units=GPa)
#
#
# Indices 1 2 3 4 5 6 
#
# 1 194.9127 63.9057 18.3048 0.0000 0.0000 0.0000
# 2 63.9057 119.3055 19.8030 0.0000 0.0000 0.0000
# 3 18.3048 19.8030 27.7688 0.0000 0.0000 0.0000
# 4 0.0000 0.0000 0.0000 22.7455 0.0000 0.0000
# 5 0.0000 0.0000 0.0000 0.0000 10.5012 0.0000
# 6 0.0000 0.0000 0.0000 0.0000 0.0000 -88.5416
#
#
#
# Elastic Compliance Matrix: (Units=1/GPa)
#
#
# Indices 1 2 3 4 5 6 
#
# 1 0.006319 -0.003055 -0.001987 0.000000 0.000000 0.000000
# 2 -0.003055 0.010984 -0.005819 0.000000 0.000000 0.000000
# 3 -0.001987 -0.005819 0.041471 0.000000 0.000000 0.000000
# 4 0.000000 0.000000 0.000000 0.043965 0.000000 0.000000
# 5 0.000000 0.000000 0.000000 0.000000 0.095227 0.000000
# 6 0.000000 0.000000 0.000000 0.000000 0.000000 -0.011294
#
#
# Mechanical properties :
#
#
# Convention : Reuss Voigt Hill
#
# Bulk Modulus (GPa) = 26.98898 60.66821 43.82859
# Shear Modulus (GPa) = 22.65060 4.93925 13.79493
#
# Velocity S-wave (km/s) = 3.08278 1.43957 2.40582
# Velocity P-wave (km/s) = 4.89849 5.31204 5.10945
#
# Compressibility (1/GPa) = 0.03705216
#
# Stress axis : x y z
#
# Youngs Moduli (GPa) = 158.26168 91.04077 24.11304
#
# Poissons Ratio (x) = 0.27811 0.04790
# Poissons Ratio (y) = 0.48346 0.14033
# Poissons Ratio (z) = 0.31441 0.52981
#
# Static dielectric constant tensor:
#      x y z
#    x 1.899540 0.000000 0.000000 
#    y 0.000000 1.898050 0.000000 
#    z 0.000000 0.000000 1.933890 
# 
# From -- ./inp_files/7161.got.cif
#   From: 2010.05.17/outbox.cif.g08.bks.cpg/sg46_4_cif.got.tgz:7161.got - 2010.06.03 19:58:25.
