data_PCOD9380702
_publ_section_title
;
Structure prediction by ZEFSAII (Michael W. Deem and Ramdas Pophale) SiO2 
 PCOD9380702
Probable space group: I M A 2
;
_chemical_formula_sum "Si O2"
_cell_formula_units_Z 44
_cell_length_a 16.649222
_cell_length_b 7.922847
_cell_length_c 14.158103
_cell_angle_alpha 90.000000
_cell_angle_beta 90.000000
_cell_angle_gamma 90.000000
_cell_volume 1867.584586
_symmetry_space_group_name_H-M "I M A 2"
_symmetry_group_IT_number 46
_symmetry_cell_setting 'orthorhombic'
loop_
_space_group_symop_operation_xyz
x,y,z
-x,-y,z
1/2-x,y,z
1/2+x,-y,z
1/2+x,1/2+y,1/2+z
1/2-x,1/2-y,1/2+z
-x,1/2+y,1/2+z
x,1/2-y,1/2+z
loop_
_atom_site_type_symbol
_atom_site_label
_atom_site_fract_x
_atom_site_fract_y
_atom_site_fract_z
Si Si1 0.631662 0.191408 0.477600
Si Si2 0.158936 0.128174 0.348339
Si Si3 0.946550 0.769485 0.184232
Si Si4 0.460882 0.330382 0.469553
Si Si5 0.882373 0.386034 0.192278
Si Si6 0.750000 0.127946 0.858308
O O1 0.535513 0.200536 0.466645
O O2 0.648297 0.159918 0.587471
O O3 0.679277 0.352402 0.440114
O O4 0.661503 0.041269 0.409787
O O5 0.250000 0.179366 0.323972
O O6 0.102708 0.117301 0.257154
O O7 0.114719 0.266083 0.412417
O O8 0.940889 0.846185 0.079915
O O9 0.907781 0.582625 0.185359
O O10 0.039029 0.730571 0.209640
O O11 0.500000 0.500000 0.430361
O O12 0.819476 0.368494 0.275342
#
# Coordination Sequence:
#
# PCOD9380702 Si02
#       6
#     8   8   8   8   8   4
#     4  11  24  48  71 106 148 197 240 297 371 443
#     4  12  26  44  74 107 147 193 241 298 376 444
#     4  10  24  46  71 100 142 194 241 294 361 437
#     4  11  26  46  74 104 142 191 250 306 360 437
#     4  10  23  44  72 105 145 193 236 298 373 430
#     4  12  24  38  74 106 140 180 248 290 352 450
#
# _framework density 23.559842
#
# number of rings (size 3 to 8) (size 9 to 14) (size 15 to 20)
#    0.000    1.091    2.727    2.182    6.364    5.091 
#    0.000    0.000    0.000    0.000    0.000    0.000 
#    0.000    0.000    0.000    0.000    0.000    0.000 
#
# Total GULP energy -122741.287719 kJ/mol
# GULP energy per Si atom -5579.149442 kJ/mol
# Density = 2.350622 g / cm^3
# Si number density = 23.559842 Si / 1000 Ang^3
#
#
#
# Elastic Constant Matrix: (Units=GPa)
#
#
# Indices 1 2 3 4 5 6 
#
# 1 110.7353 11.3468 48.9451 0.0000 0.0000 0.0000
# 2 11.3468 43.2371 4.1636 0.0000 0.0000 0.0000
# 3 48.9451 4.1636 128.0764 0.0000 0.0000 0.0000
# 4 0.0000 0.0000 0.0000 29.7376 0.0000 0.0000
# 5 0.0000 0.0000 0.0000 0.0000 118.6485 0.0000
# 6 0.0000 0.0000 0.0000 0.0000 0.0000 -10.1362
#
#
#
# Elastic Compliance Matrix: (Units=1/GPa)
#
#
# Indices 1 2 3 4 5 6 
#
# 1 0.011133 -0.002520 -0.004173 0.000000 0.000000 0.000000
# 2 -0.002520 0.023771 0.000190 0.000000 0.000000 0.000000
# 3 -0.004173 0.000190 0.009396 0.000000 0.000000 0.000000
# 4 0.000000 0.000000 0.000000 0.033627 0.000000 0.000000
# 5 0.000000 0.000000 0.000000 0.000000 0.008428 0.000000
# 6 0.000000 0.000000 0.000000 0.000000 0.000000 -0.098656
#
#
# Mechanical properties :
#
#
# Convention : Reuss Voigt Hill
#
# Bulk Modulus (GPa) = 31.95300 45.66222 38.80761
# Shear Modulus (GPa) = 448.97805 42.15621 245.56713
#
# Velocity S-wave (km/s) = 13.81966 4.23463 10.22045
# Velocity P-wave (km/s) = 16.37791 6.58277 12.48136
#
# Compressibility (1/GPa) = 0.03129597
#
# Stress axis : x y z
#
# Youngs Moduli (GPa) = 89.82258 42.06759 106.42537
#
# Poissons Ratio (x) = 0.10600 0.44408
# Poissons Ratio (y) = 0.22634 -0.02024
# Poissons Ratio (z) = 0.37480 -0.00800
#
# Static dielectric constant tensor:
#      x y z
#    x 1.834560 0.000000 0.000000 
#    y 0.000000 1.980480 0.000000 
#    z 0.000000 0.000000 1.842450 
# 
# From -- ./inp_files/16440.got.cif
#   From: 2010.05.17/outbox.cif.g08.bks.cpg/sg46_9_cif.got.tgz:16440.got - 2010.06.03 19:58:25.
