data_PCOD9380642
_publ_section_title
;
Structure prediction by ZEFSAII (Michael W. Deem and Ramdas Pophale) SiO2 
 PCOD9380642
Probable space group: I M A 2
;
_chemical_formula_sum "Si O2"
_cell_formula_units_Z 64
_cell_length_a 20.692036
_cell_length_b 17.606249
_cell_length_c 10.292611
_cell_angle_alpha 90.000000
_cell_angle_beta 90.000000
_cell_angle_gamma 90.000000
_cell_volume 3749.692243
_symmetry_space_group_name_H-M "I M A 2"
_symmetry_group_IT_number 46
_symmetry_cell_setting 'orthorhombic'
loop_
_space_group_symop_operation_xyz
x,y,z
-x,-y,z
1/2-x,y,z
1/2+x,-y,z
1/2+x,1/2+y,1/2+z
1/2-x,1/2-y,1/2+z
-x,1/2+y,1/2+z
x,1/2-y,1/2+z
loop_
_atom_site_type_symbol
_atom_site_label
_atom_site_fract_x
_atom_site_fract_y
_atom_site_fract_z
Si Si1 0.176511 0.109513 0.266290
Si Si2 0.103438 0.471030 0.991375
Si Si3 0.488323 0.233338 0.017233
Si Si4 0.826230 0.582290 0.246557
Si Si5 0.098019 0.264191 0.266296
Si Si6 0.455338 0.575556 0.611388
Si Si7 0.469274 0.887813 0.418186
Si Si8 0.675174 0.500723 0.521961
O O1 0.250000 0.131923 0.292885
O O2 0.151924 0.052406 0.376855
O O3 0.131958 0.182846 0.264933
O O4 0.172909 0.067618 0.128645
O O5 0.083336 0.558340 0.983563
O O6 0.039021 0.421113 0.962626
O O7 0.133976 0.453522 0.129141
O O8 0.454215 0.262057 0.149841
O O9 0.519784 0.151187 0.039758
O O10 0.435421 0.224934 0.904749
O O11 0.533770 0.300831 0.962773
O O12 0.750000 0.579979 0.220559
O O13 0.850710 0.668724 0.251799
O O14 0.837855 0.537577 0.381210
O O15 0.500000 0.500000 0.590161
O O16 0.461516 0.596806 0.764308
O O17 0.382661 0.555131 0.565412
O O18 0.750000 0.471191 0.523101
#
# Coordination Sequence:
#
# PCOD9380642 Si02
#       8
#     8   8   8   8   8   8   8   8
#     4  11  20  35  60  87 116 165 215 243 288 376
#     4  11  20  37  61  83 119 162 204 246 308 354
#     4  12  24  36  60  91 125 156 206 256 312 359
#     4  11  23  38  55  86 131 166 197 247 309 379
#     4  12  21  36  52  88 130 163 196 247 308 373
#     4  12  21  41  68  91 121 166 212 260 308 366
#     4  11  21  39  61  87 120 154 202 266 302 356
#     4  10  23  41  62  88 120 163 212 258 304 368
#
# _framework density 17.068066999999999
#
# number of rings (size 3 to 8) (size 9 to 14) (size 15 to 20)
#    0.000    0.750    6.250    3.000    0.000    1.000 
#    2.250    3.750    0.000    2.250    0.000    0.000 
#    0.000    0.000    0.000    0.000    0.000    0.000 
#
# Total GULP energy -178685.096180 kJ/mol
# GULP energy per Si atom -5583.909256 kJ/mol
# Density = 1.702922 g / cm^3
# Si number density = 17.068067 Si / 1000 Ang^3
#
#
#
# Elastic Constant Matrix: (Units=GPa)
#
#
# Indices 1 2 3 4 5 6 
#
# 1 95.2581 48.3552 54.6356 0.0000 0.0000 0.0000
# 2 48.3552 109.4307 34.2815 0.0000 0.0000 0.0000
# 3 54.6356 34.2815 107.7907 0.0000 0.0000 0.0000
# 4 0.0000 0.0000 0.0000 -383.4092 0.0000 0.0000
# 5 0.0000 0.0000 0.0000 0.0000 29.0852 0.0000
# 6 0.0000 0.0000 0.0000 0.0000 0.0000 34.3497
#
#
#
# Elastic Compliance Matrix: (Units=1/GPa)
#
#
# Indices 1 2 3 4 5 6 
#
# 1 0.017294 -0.005437 -0.007036 0.000000 0.000000 0.000000
# 2 -0.005437 0.011859 -0.001016 0.000000 0.000000 0.000000
# 3 -0.007036 -0.001016 0.013167 0.000000 0.000000 0.000000
# 4 0.000000 0.000000 0.000000 -0.002608 0.000000 0.000000
# 5 0.000000 0.000000 0.000000 0.000000 0.034382 0.000000
# 6 0.000000 0.000000 0.000000 0.000000 0.000000 0.029112
#
#
# Mechanical properties :
#
#
# Convention : Reuss Voigt Hill
#
# Bulk Modulus (GPa) = 65.18557 65.22488 65.20523
# Shear Modulus (GPa) = 36.95561 -52.31438 -7.67938
#
# Velocity S-wave (km/s) = 4.65821 -5.54229 -2.12345
# Velocity P-wave (km/s) = 8.19795 1.63047 5.68102
#
# Compressibility (1/GPa) = 0.01534082
#
# Stress axis : x y z
#
# Youngs Moduli (GPa) = 57.82467 84.32385 75.94928
#
# Poissons Ratio (x) = 0.45851 0.53440
# Poissons Ratio (y) = 0.31442 0.07713
# Poissons Ratio (z) = 0.40687 0.08564
#
# Static dielectric constant tensor:
#      x y z
#    x 1.590230 0.000000 0.000000 
#    y 0.000000 1.655260 0.000000 
#    z 0.000000 0.000000 1.576320 
# 
# From -- ./inp_files/7541.got.cif
#   From: 2010.05.17/outbox.cif.g08.bks.cpg/sg46_4_cif.got.tgz:7541.got - 2010.06.03 19:58:25.
