data_PCOD9380301
_publ_section_title
;
Structure prediction by ZEFSAII (Michael W. Deem and Ramdas Pophale) SiO2 
 PCOD9380301
Probable space group: I M A 2
;
_chemical_formula_sum "Si O2"
_cell_formula_units_Z 56
_cell_length_a 14.552776
_cell_length_b 5.761616
_cell_length_c 29.150032
_cell_angle_alpha 90.000000
_cell_angle_beta 90.000000
_cell_angle_gamma 90.000000
_cell_volume 2444.157514
_symmetry_space_group_name_H-M "I M A 2"
_symmetry_group_IT_number 46
_symmetry_cell_setting 'orthorhombic'
loop_
_space_group_symop_operation_xyz
x,y,z
-x,-y,z
1/2-x,y,z
1/2+x,-y,z
1/2+x,1/2+y,1/2+z
1/2-x,1/2-y,1/2+z
-x,1/2+y,1/2+z
x,1/2-y,1/2+z
loop_
_atom_site_type_symbol
_atom_site_label
_atom_site_fract_x
_atom_site_fract_y
_atom_site_fract_z
Si Si1 0.000000 0.000000 0.991020
Si Si2 0.644810 0.383822 0.147879
Si Si3 0.598335 0.377619 0.044037
Si Si4 0.649438 0.328651 0.871420
Si Si5 0.150470 0.170655 0.457432
Si Si6 0.639610 0.614079 0.682259
Si Si7 0.500000 0.000000 0.840340
Si Si8 0.354070 0.185441 0.289286
O O1 0.939105 0.826757 0.961524
O O2 0.073247 0.871964 0.023586
O O3 0.750000 0.385403 0.166101
O O4 0.645836 0.375169 0.092848
O O5 0.604820 0.636228 0.162768
O O6 0.603347 0.135490 0.164087
O O7 0.500000 0.500000 0.051267
O O8 0.647902 0.516292 0.003541
O O9 0.750000 0.213776 0.874483
O O10 0.643376 0.509258 0.912954
O O11 0.644713 0.466805 0.823454
O O12 0.565083 0.157735 0.871099
O O13 0.250000 0.293148 0.455397
O O14 0.750000 0.612581 0.671697
O O15 0.627854 0.618453 0.736971
O O16 0.569349 0.856462 0.808449
O O17 0.250000 0.285000 0.291475
#
# Coordination Sequence:
#
# PCOD9380301 Si02
#       8
#     4   8   8   8   8   8   4   8
#     4  10  24  43  68  98 134 178 226 286 347 408
#     4  10  21  40  67  96 130 181 237 291 354 422
#     4  10  23  40  60  96 136 176 222 291 347 413
#     4  10  24  45  69 100 137 177 228 284 344 417
#     4  10  23  44  70 100 135 180 229 279 348 418
#     4   9  21  40  66  96 132 181 237 292 351 420
#     4  12  24  41  70 102 130 180 226 282 349 418
#     4  10  23  43  66  98 138 179 228 287 348 418
#
# _framework density 22.911781999999999
#
# number of rings (size 3 to 8) (size 9 to 14) (size 15 to 20)
#    0.000    2.000    0.000    1.286    6.000    6.857 
#    1.286    2.857    0.000    1.714    0.000    0.000 
#    0.000    0.000    0.000    0.000    0.000    0.000 
#
# Total GULP energy -156580.003534 kJ/mol
# GULP energy per Si atom -5592.142983 kJ/mol
# Density = 2.285963 g / cm^3
# Si number density = 22.911782 Si / 1000 Ang^3
#
#
#
# Elastic Constant Matrix: (Units=GPa)
#
#
# Indices 1 2 3 4 5 6 
#
# 1 104.3888 53.3906 40.1129 0.0000 0.0000 0.0000
# 2 53.3906 133.0590 67.8090 0.0000 0.0000 0.0000
# 3 40.1129 67.8090 143.3165 0.0000 0.0000 0.0000
# 4 0.0000 0.0000 0.0000 28.4419 0.0000 0.0000
# 5 0.0000 0.0000 0.0000 0.0000 25.0789 0.0000
# 6 0.0000 0.0000 0.0000 0.0000 0.0000 2.9277
#
#
#
# Elastic Compliance Matrix: (Units=1/GPa)
#
#
# Indices 1 2 3 4 5 6 
#
# 1 0.012280 -0.004185 -0.001457 0.000000 0.000000 0.000000
# 2 -0.004185 0.011330 -0.004189 0.000000 0.000000 0.000000
# 3 -0.001457 -0.004189 0.009367 0.000000 0.000000 0.000000
# 4 0.000000 0.000000 0.000000 0.035159 0.000000 0.000000
# 5 0.000000 0.000000 0.000000 0.000000 0.039874 0.000000
# 6 0.000000 0.000000 0.000000 0.000000 0.000000 0.341569
#
#
# Mechanical properties :
#
#
# Convention : Reuss Voigt Hill
#
# Bulk Modulus (GPa) = 75.10449 78.15436 76.62942
# Shear Modulus (GPa) = 10.55567 25.91982 18.23774
#
# Velocity S-wave (km/s) = 2.14874 3.36711 2.82441
# Velocity P-wave (km/s) = 6.24557 7.02151 6.64488
#
# Compressibility (1/GPa) = 0.01331478
#
# Stress axis : x y z
#
# Youngs Moduli (GPa) = 81.43449 88.26496 106.75285
#
# Poissons Ratio (x) = 0.36937 0.15554
# Poissons Ratio (y) = 0.34079 0.44721
# Poissons Ratio (z) = 0.11865 0.36976
#
# Static dielectric constant tensor:
#      x y z
#    x 1.871380 0.000000 0.000000 
#    y 0.000000 1.912910 0.000000 
#    z 0.000000 0.000000 1.785680 
# 
# From -- ./inp_files/25437.got.cif
#   From: 2010.05.17/outbox.cif.g08.bks.cpg/sg46_13_cif.got.tgz:25437.got - 2010.06.03 19:58:25.
