data_PCOD9380482
_publ_section_title
;
Structure prediction by ZEFSAII (Michael W. Deem and Ramdas Pophale) SiO2 
 PCOD9380482
Probable space group: I M A 2
;
_chemical_formula_sum "Si O2"
_cell_formula_units_Z 40
_cell_length_a 10.595529
_cell_length_b 6.354481
_cell_length_c 27.773503
_cell_angle_alpha 90.000000
_cell_angle_beta 90.000000
_cell_angle_gamma 90.000000
_cell_volume 1869.964620
_symmetry_space_group_name_H-M "I M A 2"
_symmetry_group_IT_number 46
_symmetry_cell_setting 'orthorhombic'
loop_
_space_group_symop_operation_xyz
x,y,z
-x,-y,z
1/2-x,y,z
1/2+x,-y,z
1/2+x,1/2+y,1/2+z
1/2-x,1/2-y,1/2+z
-x,1/2+y,1/2+z
x,1/2-y,1/2+z
loop_
_atom_site_type_symbol
_atom_site_label
_atom_site_fract_x
_atom_site_fract_y
_atom_site_fract_z
Si Si1 0.890005 0.332892 0.301010
Si Si2 0.000000 0.500000 0.461122
Si Si3 0.386498 0.643467 0.902515
Si Si4 0.391567 0.674196 0.191487
Si Si5 0.396212 0.312691 0.040660
Si Si6 0.500000 0.500000 0.619798
O O1 0.750000 0.433744 0.303554
O O2 0.893928 0.171689 0.344984
O O3 0.902798 0.246841 0.246839
O O4 0.000000 0.500000 0.308290
O O5 0.093513 0.631505 0.427251
O O6 0.073974 0.337353 0.495219
O O7 0.500000 0.500000 0.919008
O O8 0.250000 0.556062 0.915619
O O9 0.500000 0.500000 0.184461
O O10 0.250000 0.584975 0.185801
O O11 0.412169 0.860185 0.154039
O O12 0.500000 0.500000 0.041602
O O13 0.250000 0.385709 0.040424
O O14 0.422807 0.161244 0.086278
#
# Coordination Sequence:
#
# PCOD9380482 Si02
#       6
#     8   4   8   8   8   4
#     4   9  19  38  61  89 127 171 218 263 309 367
#     4  11  24  44  70  94 128 168 214 265 322 382
#     4  11  24  40  63  95 130 170 215 263 315 375
#     4  10  22  40  63  93 129 171 218 265 314 371
#     4  11  26  46  69  98 128 165 212 268 327 388
#     4  11  24  40  68  96 132 170 212 263 322 384
#
# _framework density 21.390778999999998
#
# number of rings (size 3 to 8) (size 9 to 14) (size 15 to 20)
#    0.000    1.600    1.000    2.400    1.400   12.000 
#    0.000    0.000    0.000    0.000    0.000    0.000 
#    0.000    0.000    0.000    0.000    0.000    0.000 
#
# Total GULP energy -111749.657793 kJ/mol
# GULP energy per Si atom -5587.482890 kJ/mol
# Density = 2.134209 g / cm^3
# Si number density = 21.390779 Si / 1000 Ang^3
#
#
#
# Elastic Constant Matrix: (Units=GPa)
#
#
# Indices 1 2 3 4 5 6 
#
# 1 199.4543 69.7666 45.5062 0.0000 0.0000 0.0000
# 2 69.7666 89.0424 47.7231 0.0000 0.0000 0.0000
# 3 45.5062 47.7231 110.1347 0.0000 0.0000 0.0000
# 4 0.0000 0.0000 0.0000 21.8507 0.0000 0.0000
# 5 0.0000 0.0000 0.0000 0.0000 23.3359 0.0000
# 6 0.0000 0.0000 0.0000 0.0000 0.0000 33.6780
#
#
#
# Elastic Compliance Matrix: (Units=1/GPa)
#
#
# Indices 1 2 3 4 5 6 
#
# 1 0.006944 -0.005084 -0.000666 0.000000 0.000000 0.000000
# 2 -0.005084 0.018349 -0.005851 0.000000 0.000000 0.000000
# 3 -0.000666 -0.005851 0.011890 0.000000 0.000000 0.000000
# 4 0.000000 0.000000 0.000000 0.045765 0.000000 0.000000
# 5 0.000000 0.000000 0.000000 0.000000 0.042853 0.000000
# 6 0.000000 0.000000 0.000000 0.000000 0.000000 0.029693
#
#
# Mechanical properties :
#
#
# Convention : Reuss Voigt Hill
#
# Bulk Modulus (GPa) = 71.51787 80.51369 76.01578
# Shear Modulus (GPa) = 27.26936 31.48194 29.37565
#
# Velocity S-wave (km/s) = 3.57433 3.84050 3.70981
# Velocity P-wave (km/s) = 7.10922 7.57543 7.34602
#
# Compressibility (1/GPa) = 0.01398252
#
# Stress axis : x y z
#
# Youngs Moduli (GPa) = 144.01211 54.49788 84.10234
#
# Poissons Ratio (x) = 0.27704 0.05604
# Poissons Ratio (y) = 0.73209 0.49205
# Poissons Ratio (z) = 0.09596 0.31885
#
# Static dielectric constant tensor:
#      x y z
#    x 1.765480 0.000000 0.000000 
#    y 0.000000 1.745940 0.000000 
#    z 0.000000 0.000000 1.793330 
# 
# From -- ./inp_files/24450.got.cif
#   From: 2010.05.17/outbox.cif.g08.bks.cpg/sg46_13_cif.got.tgz:24450.got - 2010.06.03 19:58:25.
