data_PCOD9380386
_publ_section_title
;
Structure prediction by ZEFSAII (Michael W. Deem and Ramdas Pophale) SiO2 
 PCOD9380386
Probable space group: I M A 2
;
_chemical_formula_sum "Si O2"
_cell_formula_units_Z 40
_cell_length_a 7.665390
_cell_length_b 26.303383
_cell_length_c 9.769169
_cell_angle_alpha 90.000000
_cell_angle_beta 90.000000
_cell_angle_gamma 90.000000
_cell_volume 1969.715431
_symmetry_space_group_name_H-M "I M A 2"
_symmetry_group_IT_number 46
_symmetry_cell_setting 'orthorhombic'
loop_
_space_group_symop_operation_xyz
x,y,z
-x,-y,z
1/2-x,y,z
1/2+x,-y,z
1/2+x,1/2+y,1/2+z
1/2-x,1/2-y,1/2+z
-x,1/2+y,1/2+z
x,1/2-y,1/2+z
loop_
_atom_site_type_symbol
_atom_site_label
_atom_site_fract_x
_atom_site_fract_y
_atom_site_fract_z
Si Si1 0.250000 0.787417 0.961320
Si Si2 0.951532 0.862275 0.895117
Si Si3 0.957455 0.603654 0.864396
Si Si4 0.250000 0.685626 0.789123
Si Si5 0.044075 0.559889 0.161942
Si Si6 0.456024 0.054426 0.095703
O O1 0.419759 0.814909 0.895810
O O2 0.250000 0.730781 0.900835
O O3 0.250000 0.794670 0.128965
O O4 0.750000 0.847192 0.919047
O O5 0.956570 0.900952 0.767625
O O6 0.028175 0.897898 0.015415
O O7 0.750000 0.615518 0.852917
O O8 0.004111 0.560400 0.753036
O O9 0.080129 0.650853 0.823135
O O10 0.995352 0.580537 0.012216
O O11 0.250000 0.564792 0.182635
O O12 0.000000 0.500000 0.177374
O O13 0.250000 0.059260 0.083829
O O14 0.500000 0.000000 0.036522
#
# Coordination Sequence:
#
# PCOD9380386 Si02
#       6
#     4   8   8   4   8   8
#     4  12  28  48  76 102 134 182 236 296 361 410
#     4  11  24  45  67  98 141 180 227 288 341 414
#     4  11  24  45  67  98 141 180 227 288 341 414
#     4  12  28  48  76 102 134 182 236 296 361 410
#     4  12  24  40  66 104 147 192 232 277 341 414
#     4  10  22  36  64  97 130 178 221 265 338 407
#
# _framework density 20.307500999999998
#
# number of rings (size 3 to 8) (size 9 to 14) (size 15 to 20)
#    0.000    0.800    4.000    3.000    5.600    4.000 
#    0.000    0.000    0.000    0.000    0.000    0.000 
#    0.000    0.000    0.000    0.000    0.000    0.000 
#
# Total GULP energy -111650.233377 kJ/mol
# GULP energy per Si atom -5582.511669 kJ/mol
# Density = 2.026128 g / cm^3
# Si number density = 20.307501 Si / 1000 Ang^3
#
#
#
# Elastic Constant Matrix: (Units=GPa)
#
#
# Indices 1 2 3 4 5 6 
#
# 1 119.9998 38.2849 1.6889 -0.0001 -0.0003 -0.0002
# 2 38.2849 109.4065 12.1081 0.0001 -0.0001 -0.0001
# 3 1.6889 12.1081 90.6189 0.0013 0.0003 0.0013
# 4 -0.0001 0.0001 0.0013 27.5259 -0.0001 -0.0001
# 5 -0.0003 -0.0001 0.0003 -0.0001 15.1267 -0.0004
# 6 -0.0002 -0.0001 0.0013 -0.0001 -0.0004 28.2160
#
#
#
# Elastic Compliance Matrix: (Units=1/GPa)
#
#
# Indices 1 2 3 4 5 6 
#
# 1 0.009387 -0.003314 0.000268 0.000000 0.000000 0.000000
# 2 -0.003314 0.010448 -0.001334 0.000000 0.000000 0.000000
# 3 0.000268 -0.001334 0.011208 -0.000001 0.000000 -0.000001
# 4 0.000000 0.000000 -0.000001 0.036329 0.000000 0.000000
# 5 0.000000 0.000000 0.000000 0.000000 0.066108 0.000001
# 6 0.000000 0.000000 -0.000001 0.000000 0.000001 0.035441
#
#
# Mechanical properties :
#
#
# Convention : Reuss Voigt Hill
#
# Bulk Modulus (GPa) = 44.87984 47.13212 46.00598
# Shear Modulus (GPa) = 27.01084 32.03659 29.52372
#
# Velocity S-wave (km/s) = 3.65100 3.97618 3.81705
# Velocity P-wave (km/s) = 6.31832 6.65880 6.49079
#
# Compressibility (1/GPa) = 0.02228172
#
# Stress axis : x y z
#
# Youngs Moduli (GPa) = 106.52995 95.71459 89.21802
#
# Poissons Ratio (x) = 0.31724 -0.02390
# Poissons Ratio (y) = 0.35309 0.11903
# Poissons Ratio (z) = -0.02854 0.12770
#
# Static dielectric constant tensor:
#      x y z
#    x 1.708450 0.000000 0.000000 
#    y 0.000000 1.736660 0.000000 
#    z 0.000000 0.000000 1.776120 
# 
# From -- ./inp_files/3568.got.cif
#   From: 2010.05.17/outbox.cif.g08.bks.cpg/sg46_2_cif.got.tgz:3568.got - 2010.06.03 19:58:25.
