data_PCOD9380164
_publ_section_title
;
Structure prediction by ZEFSAII (Michael W. Deem and Ramdas Pophale) SiO2 
 PCOD9380164
Probable space group: I M A 2
;
_chemical_formula_sum "Si O2"
_cell_formula_units_Z 52
_cell_length_a 14.337726
_cell_length_b 12.092062
_cell_length_c 14.281280
_cell_angle_alpha 90.000000
_cell_angle_beta 90.000000
_cell_angle_gamma 90.000000
_cell_volume 2475.983669
_symmetry_space_group_name_H-M "I M A 2"
_symmetry_group_IT_number 46
_symmetry_cell_setting 'orthorhombic'
loop_
_space_group_symop_operation_xyz
x,y,z
-x,-y,z
1/2-x,y,z
1/2+x,-y,z
1/2+x,1/2+y,1/2+z
1/2-x,1/2-y,1/2+z
-x,1/2+y,1/2+z
x,1/2-y,1/2+z
loop_
_atom_site_type_symbol
_atom_site_label
_atom_site_fract_x
_atom_site_fract_y
_atom_site_fract_z
Si Si1 0.643850 0.120245 0.248810
Si Si2 0.941540 0.148250 0.716121
Si Si3 0.979119 0.300667 0.009853
Si Si4 0.143898 0.416234 0.270062
Si Si5 0.143436 0.902865 0.024492
Si Si6 0.143602 0.146701 0.985317
Si Si7 0.000000 0.500000 0.865770
O O1 0.750000 0.124384 0.282895
O O2 0.593018 0.237778 0.260716
O O3 0.644709 0.108838 0.136614
O O4 0.588069 0.021565 0.298359
O O5 0.930042 0.149999 0.602973
O O6 0.053103 0.138100 0.724216
O O7 0.886749 0.046043 0.763746
O O8 0.914139 0.197249 0.980796
O O9 0.078016 0.240709 0.026350
O O10 0.997530 0.394124 0.933562
O O11 0.250000 0.406098 0.232357
O O12 0.145353 0.360893 0.372736
O O13 0.250000 0.900815 0.988960
O O14 0.105826 0.025321 0.009225
O O15 0.250000 0.157041 0.019407
#
# Coordination Sequence:
#
# PCOD9380164 Si02
#       7
#     8   8   8   8   8   8   4
#     4  10  23  42  62  89 127 166 212 261 311 382
#     4  10  22  40  65  90 123 172 214 257 316 380
#     4  11  24  41  61  88 132 166 206 256 312 383
#     4  10  21  38  63  95 126 158 211 271 316 368
#     4   9  21  41  66  91 114 159 214 263 316 366
#     4  10  22  39  63  93 121 157 208 265 320 368
#     4  12  26  38  58  98 128 172 206 248 326 380
#
# _framework density 21.001753999999998
#
# number of rings (size 3 to 8) (size 9 to 14) (size 15 to 20)
#    0.000    1.846    0.000    2.769   10.769    2.462 
#    0.000    2.308    0.000    0.000    0.000    0.000 
#    0.000    0.000    0.000    0.000    0.000    0.000 
#
# Total GULP energy -145033.169363 kJ/mol
# GULP energy per Si atom -5578.198822 kJ/mol
# Density = 2.095395 g / cm^3
# Si number density = 21.001754 Si / 1000 Ang^3
#
#
#
# Elastic Constant Matrix: (Units=GPa)
#
#
# Indices 1 2 3 4 5 6 
#
# 1 124.7671 33.2381 5.8088 0.0000 0.0000 0.0000
# 2 33.2381 74.4698 18.4454 0.0000 0.0000 0.0000
# 3 5.8088 18.4454 36.5457 0.0000 0.0000 0.0000
# 4 0.0000 0.0000 0.0000 35.7932 0.0000 0.0000
# 5 0.0000 0.0000 0.0000 0.0000 17.5073 0.0000
# 6 0.0000 0.0000 0.0000 0.0000 0.0000 -7.1741
#
#
#
# Elastic Compliance Matrix: (Units=1/GPa)
#
#
# Indices 1 2 3 4 5 6 
#
# 1 0.009112 -0.004238 0.000691 0.000000 0.000000 0.000000
# 2 -0.004238 0.017318 -0.008067 0.000000 0.000000 0.000000
# 3 0.000691 -0.008067 0.031325 0.000000 0.000000 0.000000
# 4 0.000000 0.000000 0.000000 0.027938 0.000000 0.000000
# 5 0.000000 0.000000 0.000000 0.000000 0.057119 0.000000
# 6 0.000000 0.000000 0.000000 0.000000 0.000000 -0.139390
#
#
# Mechanical properties :
#
#
# Convention : Reuss Voigt Hill
#
# Bulk Modulus (GPa) = 28.96379 38.97412 33.96896
# Shear Modulus (GPa) = 131.02849 21.11130 76.06989
#
# Velocity S-wave (km/s) = 7.90726 3.17395 6.02490
# Velocity P-wave (km/s) = 9.85837 5.65949 8.03795
#
# Compressibility (1/GPa) = 0.03452587
#
# Stress axis : x y z
#
# Youngs Moduli (GPa) = 109.74818 57.74367 31.92348
#
# Poissons Ratio (x) = 0.24471 -0.02205
# Poissons Ratio (y) = 0.46511 0.25753
# Poissons Ratio (z) = -0.07580 0.46583
#
# Static dielectric constant tensor:
#      x y z
#    x 1.772740 0.000000 0.000000 
#    y 0.000000 1.747870 0.000000 
#    z 0.000000 0.000000 1.806700 
# 
# From -- ./inp_files/15968.got.cif
#   From: 2010.05.17/outbox.cif.g08.bks.cpg/sg46_8_cif.got.tgz:15968.got - 2010.06.03 19:58:25.
