data_PCOD9380916
_publ_section_title
;
Structure prediction by ZEFSAII (Michael W. Deem and Ramdas Pophale) SiO2 
 PCOD9380916
Probable space group: I M A 2
;
_chemical_formula_sum "Si O2"
_cell_formula_units_Z 32
_cell_length_a 25.489899
_cell_length_b 5.635410
_cell_length_c 9.210670
_cell_angle_alpha 90.000000
_cell_angle_beta 90.000000
_cell_angle_gamma 90.000000
_cell_volume 1323.076195
_symmetry_space_group_name_H-M "I M A 2"
_symmetry_group_IT_number 46
_symmetry_cell_setting 'orthorhombic'
loop_
_space_group_symop_operation_xyz
x,y,z
-x,-y,z
1/2-x,y,z
1/2+x,-y,z
1/2+x,1/2+y,1/2+z
1/2-x,1/2-y,1/2+z
-x,1/2+y,1/2+z
x,1/2-y,1/2+z
loop_
_atom_site_type_symbol
_atom_site_label
_atom_site_fract_x
_atom_site_fract_y
_atom_site_fract_z
Si Si1 0.840591 0.830345 0.929530
Si Si2 0.250000 0.661242 0.297678
Si Si3 0.492471 0.750266 0.600620
Si Si4 0.750000 0.966205 0.515079
Si Si5 0.407808 0.045941 0.199837
O O1 0.869062 0.639281 0.824188
O O2 0.801943 0.016569 0.848422
O O3 0.801220 0.686044 0.032832
O O4 0.880243 0.947532 0.042428
O O5 0.250000 0.679342 0.125806
O O6 0.250000 0.923675 0.357433
O O7 0.500000 0.500000 0.514769
O O8 0.543752 0.731012 0.701875
O O9 0.439387 0.704965 0.693622
O O10 0.500000 0.000000 0.522501
#
# Coordination Sequence:
#
# PCOD9380916 Si02
#       5
#     8   4   8   4   8
#     4  11  22  46  66  96 138 186 242 291 366 430
#     4  11  26  40  67 101 139 183 241 295 360 441
#     4   8  20  44  66  98 138 180 238 284 354 422
#     4  11  26  40  67 101 139 183 241 295 360 441
#     4   9  22  39  70  96 132 189 232 302 348 430
#
# _framework density 24.186060000000001
#
# number of rings (size 3 to 8) (size 9 to 14) (size 15 to 20)
#    1.500    0.500    2.500    0.000    3.500    4.000 
#    9.000    0.000    0.000    0.000    0.000    0.000 
#    0.000    0.000    0.000    0.000    0.000    0.000 
#
# Total GULP energy -89079.230865 kJ/mol
# GULP energy per Si atom -5567.451929 kJ/mol
# Density = 2.413101 g / cm^3
# Si number density = 24.186060 Si / 1000 Ang^3
#
#
#
# Elastic Constant Matrix: (Units=GPa)
#
#
# Indices 1 2 3 4 5 6 
#
# 1 155.1569 20.5864 33.1160 0.0000 0.0000 0.0000
# 2 20.5864 117.1183 -6.3790 0.0000 0.0000 0.0000
# 3 33.1160 -6.3790 45.9280 0.0000 0.0000 0.0000
# 4 0.0000 0.0000 0.0000 24.5453 0.0000 0.0000
# 5 0.0000 0.0000 0.0000 0.0000 65.3244 0.0000
# 6 0.0000 0.0000 0.0000 0.0000 0.0000 14.4190
#
#
#
# Elastic Compliance Matrix: (Units=1/GPa)
#
#
# Indices 1 2 3 4 5 6 
#
# 1 0.007948 -0.001722 -0.005970 0.000000 0.000000 0.000000
# 2 -0.001722 0.008977 0.002489 0.000000 0.000000 0.000000
# 3 -0.005970 0.002489 0.026423 0.000000 0.000000 0.000000
# 4 0.000000 0.000000 0.000000 0.040741 0.000000 0.000000
# 5 0.000000 0.000000 0.000000 0.000000 0.015308 0.000000
# 6 0.000000 0.000000 0.000000 0.000000 0.000000 0.069353
#
#
# Mechanical properties :
#
#
# Convention : Reuss Voigt Hill
#
# Bulk Modulus (GPa) = 30.35753 45.87222 38.11487
# Shear Modulus (GPa) = 26.29682 38.91640 32.60661
#
# Velocity S-wave (km/s) = 3.30096 4.01564 3.67571
# Velocity P-wave (km/s) = 5.20647 6.36459 5.81444
#
# Compressibility (1/GPa) = 0.03294076
#
# Stress axis : x y z
#
# Youngs Moduli (GPa) = 125.82151 111.40042 37.84527
#
# Poissons Ratio (x) = 0.19185 0.22593
# Poissons Ratio (y) = 0.21669 -0.09418
# Poissons Ratio (z) = 0.75114 -0.27722
#
# Static dielectric constant tensor:
#      x y z
#    x 1.920520 0.000000 0.000000 
#    y 0.000000 1.965300 0.000000 
#    z 0.000000 0.000000 1.873940 
# 
# From -- ./inp_files/12893.got.cif
#   From: 2010.05.17/outbox.cif.g08.bks.cpg/sg46_7_cif.got.tgz:12893.got - 2010.06.03 19:58:25.
