data_PCOD9380866
_publ_section_title
;
Structure prediction by ZEFSAII (Michael W. Deem and Ramdas Pophale) SiO2 
 PCOD9380866
Probable space group: I M A 2
;
_chemical_formula_sum "Si O2"
_cell_formula_units_Z 52
_cell_length_a 15.979066
_cell_length_b 11.770371
_cell_length_c 13.383844
_cell_angle_alpha 90.000000
_cell_angle_beta 90.000000
_cell_angle_gamma 90.000000
_cell_volume 2517.227157
_symmetry_space_group_name_H-M "I M A 2"
_symmetry_group_IT_number 46
_symmetry_cell_setting 'orthorhombic'
loop_
_space_group_symop_operation_xyz
x,y,z
-x,-y,z
1/2-x,y,z
1/2+x,-y,z
1/2+x,1/2+y,1/2+z
1/2-x,1/2-y,1/2+z
-x,1/2+y,1/2+z
x,1/2-y,1/2+z
loop_
_atom_site_type_symbol
_atom_site_label
_atom_site_fract_x
_atom_site_fract_y
_atom_site_fract_z
Si Si1 0.901163 0.513871 0.678470
Si Si2 0.606111 0.730823 0.800190
Si Si3 0.345521 0.788916 0.272040
Si Si4 0.750000 0.589468 0.362206
Si Si5 0.521495 0.129813 0.673405
Si Si6 0.592359 0.470348 0.454862
Si Si7 0.453638 0.711114 0.953188
O O1 0.866814 0.611862 0.750488
O O2 0.856830 0.394145 0.697073
O O3 0.896959 0.537954 0.560028
O O4 0.000000 0.500000 0.702234
O O5 0.677827 0.814175 0.835797
O O6 0.554653 0.792756 0.711599
O O7 0.540448 0.713748 0.891182
O O8 0.250000 0.757815 0.283098
O O9 0.400012 0.682636 0.233260
O O10 0.385838 0.834502 0.374707
O O11 0.674060 0.499524 0.392016
O O12 0.536859 0.145907 0.556071
O O13 0.500000 0.000000 0.693247
O O14 0.500000 0.500000 0.411885
O O15 0.579983 0.337399 0.477086
#
# Coordination Sequence:
#
# PCOD9380866 Si02
#       7
#     8   8   8   4   8   8   8
#     4  11  21  46  72  99 142 197 245 298 370 445
#     4  11  26  44  67 104 139 184 237 299 366 437
#     4  11  26  42  71 105 142 187 243 305 367 446
#     4  12  28  40  72 108 142 182 242 314 366 424
#     4  11  25  45  71  98 143 188 234 300 374 437
#     4  11  23  42  72  99 139 190 249 292 354 441
#     4  11  23  44  69 100 137 189 242 290 367 437
#
# _framework density 20.657651999999999
#
# number of rings (size 3 to 8) (size 9 to 14) (size 15 to 20)
#    0.000    0.923    6.154    0.923    9.692    0.615 
#    0.000    0.000    0.000    0.000    0.000    0.000 
#    0.000    0.000    0.000    0.000    0.000    0.000 
#
# Total GULP energy -144784.135868 kJ/mol
# GULP energy per Si atom -5568.620610 kJ/mol
# Density = 2.061063 g / cm^3
# Si number density = 20.657652 Si / 1000 Ang^3
#
#
#
# Elastic Constant Matrix: (Units=GPa)
#
#
# Indices 1 2 3 4 5 6 
#
# 1 157.7540 33.8360 35.3032 0.0000 0.0000 0.0000
# 2 33.8360 104.3233 32.4809 0.0000 0.0000 0.0000
# 3 35.3032 32.4809 113.0617 0.0000 0.0000 0.0000
# 4 0.0000 0.0000 0.0000 9.4247 0.0000 0.0000
# 5 0.0000 0.0000 0.0000 0.0000 5.8709 0.0000
# 6 0.0000 0.0000 0.0000 0.0000 0.0000 31.7429
#
#
#
# Elastic Compliance Matrix: (Units=1/GPa)
#
#
# Indices 1 2 3 4 5 6 
#
# 1 0.007101 -0.001771 -0.001708 0.000000 0.000000 0.000000
# 2 -0.001771 0.010969 -0.002598 0.000000 0.000000 0.000000
# 3 -0.001708 -0.002598 0.010125 0.000000 0.000000 0.000000
# 4 0.000000 0.000000 0.000000 0.106104 0.000000 0.000000
# 5 0.000000 0.000000 0.000000 0.000000 0.170332 0.000000
# 6 0.000000 0.000000 0.000000 0.000000 0.000000 0.031503
#
#
# Mechanical properties :
#
#
# Convention : Reuss Voigt Hill
#
# Bulk Modulus (GPa) = 62.34787 64.26435 63.30611
# Shear Modulus (GPa) = 14.13883 27.64230 20.89057
#
# Velocity S-wave (km/s) = 2.61901 3.66199 3.18351
# Velocity P-wave (km/s) = 6.27635 7.00407 6.65017
#
# Compressibility (1/GPa) = 0.01603904
#
# Stress axis : x y z
#
# Youngs Moduli (GPa) = 140.82063 91.16599 98.76923
#
# Poissons Ratio (x) = 0.16148 0.16875
# Poissons Ratio (y) = 0.24943 0.25662
# Poissons Ratio (z) = 0.24059 0.23686
#
# Static dielectric constant tensor:
#      x y z
#    x 1.740850 0.000000 0.000000 
#    y 0.000000 1.792940 0.000000 
#    z 0.000000 0.000000 1.776650 
# 
# From -- ./inp_files/15965.got.cif
#   From: 2010.05.17/outbox.cif.g08.bks.cpg/sg46_8_cif.got.tgz:15965.got - 2010.06.03 19:58:25.
