data_PCOD9380040
_publ_section_title
;
Structure prediction by ZEFSAII (Michael W. Deem and Ramdas Pophale) SiO2 
 PCOD9380040
Probable space group: I M A 2
;
_chemical_formula_sum "Si O2"
_cell_formula_units_Z 60
_cell_length_a 8.257031
_cell_length_b 23.752677
_cell_length_c 13.046979
_cell_angle_alpha 90.000000
_cell_angle_beta 90.000000
_cell_angle_gamma 90.000000
_cell_volume 2558.859505
_symmetry_space_group_name_H-M "I M A 2"
_symmetry_group_IT_number 46
_symmetry_cell_setting 'orthorhombic'
loop_
_space_group_symop_operation_xyz
x,y,z
-x,-y,z
1/2-x,y,z
1/2+x,-y,z
1/2+x,1/2+y,1/2+z
1/2-x,1/2-y,1/2+z
-x,1/2+y,1/2+z
x,1/2-y,1/2+z
loop_
_atom_site_type_symbol
_atom_site_label
_atom_site_fract_x
_atom_site_fract_y
_atom_site_fract_z
Si Si1 0.930242 0.616636 0.402990
Si Si2 0.945317 0.065041 0.697682
Si Si3 0.065833 0.241429 0.713045
Si Si4 0.750000 0.257194 0.340408
Si Si5 0.433676 0.937791 0.094734
Si Si6 0.428616 0.128687 0.282548
Si Si7 0.560921 0.437177 0.968734
Si Si8 0.933640 0.747546 0.470208
O O1 0.750000 0.593563 0.421970
O O2 0.928767 0.681389 0.438939
O O3 0.977385 0.602838 0.286886
O O4 0.051093 0.586480 0.480918
O O5 0.750000 0.068527 0.705603
O O6 0.003066 0.080283 0.581826
O O7 0.000000 0.000000 0.713851
O O8 0.250000 0.218181 0.736370
O O9 0.066230 0.306016 0.753442
O O10 0.052360 0.243649 0.591096
O O11 0.896936 0.220394 0.761859
O O12 0.603793 0.235143 0.418949
O O13 0.250000 0.936380 0.129775
O O14 0.530887 0.901510 0.176308
O O15 0.500000 0.000000 0.095007
O O16 0.250000 0.112002 0.314899
O O17 0.533651 0.106201 0.376593
O O18 0.500000 0.500000 0.941466
O O19 0.750000 0.443543 0.984337
O O20 0.750000 0.769946 0.443649
#
# Coordination Sequence:
#
# PCOD9380040 Si02
#       8
#     8   8   8   4   8   8   8   8
#     4  11  22  39  63  91 127 169 216 265 327 396
#     4  10  21  37  57  84 122 170 221 269 318 376
#     4  10  23  44  69  99 134 172 214 275 350 416
#     4  12  24  40  72 100 128 168 232 268 340 424
#     4  12  24  36  58  92 136 176 222 268 320 390
#     4  11  22  39  63  91 127 169 216 265 327 396
#     4  10  21  37  57  84 122 170 221 269 318 376
#     4  10  23  44  69  99 134 172 214 275 350 416
#
# _framework density 23.447946000000002
#
# number of rings (size 3 to 8) (size 9 to 14) (size 15 to 20)
#    0.000    1.333    1.333    4.400    3.733    1.600 
#    0.000    2.667    0.000    3.200    0.000    0.000 
#    0.000    0.000    0.000    0.000    0.000    0.000 
#
# Total GULP energy -167066.857595 kJ/mol
# GULP energy per Si atom -5568.895253 kJ/mol
# Density = 2.339458 g / cm^3
# Si number density = 23.447946 Si / 1000 Ang^3
#
#
#
# Elastic Constant Matrix: (Units=GPa)
#
#
# Indices 1 2 3 4 5 6 
#
# 1 146.6769 28.7281 31.9500 0.0000 0.0000 0.0000
# 2 28.7281 36.0871 -5.4224 0.0000 0.0000 0.0000
# 3 31.9500 -5.4224 114.9069 0.0000 0.0000 0.0000
# 4 0.0000 0.0000 0.0000 29.3986 0.0000 0.0000
# 5 0.0000 0.0000 0.0000 0.0000 39.4227 0.0000
# 6 0.0000 0.0000 0.0000 0.0000 0.0000 10.9213
#
#
#
# Elastic Compliance Matrix: (Units=1/GPa)
#
#
# Indices 1 2 3 4 5 6 
#
# 1 0.008906 -0.007516 -0.002831 0.000000 0.000000 0.000000
# 2 -0.007516 0.034251 0.003706 0.000000 0.000000 0.000000
# 3 -0.002831 0.003706 0.009665 0.000000 0.000000 0.000000
# 4 0.000000 0.000000 0.000000 0.034015 0.000000 0.000000
# 5 0.000000 0.000000 0.000000 0.000000 0.025366 0.000000
# 6 0.000000 0.000000 0.000000 0.000000 0.000000 0.091565
#
#
# Mechanical properties :
#
#
# Convention : Reuss Voigt Hill
#
# Bulk Modulus (GPa) = 25.29061 45.35359 35.32210
# Shear Modulus (GPa) = 21.71750 32.10953 26.91351
#
# Velocity S-wave (km/s) = 3.04666 3.70455 3.39159
# Velocity P-wave (km/s) = 4.81512 6.13861 5.51670
#
# Compressibility (1/GPa) = 0.03954037
#
# Stress axis : x y z
#
# Youngs Moduli (GPa) = 112.27905 29.19659 103.46863
#
# Poissons Ratio (x) = 0.21943 0.29293
# Poissons Ratio (y) = 0.84384 -0.38345
# Poissons Ratio (z) = 0.31787 -0.10820
#
# Static dielectric constant tensor:
#      x y z
#    x 1.888600 0.000000 0.000000 
#    y 0.000000 1.893290 0.000000 
#    z 0.000000 0.000000 1.969700 
# 
# From -- ./inp_files/9545.got.cif
#   From: 2010.05.17/outbox.cif.g08.bks.cpg/sg46_5_cif.got.tgz:9545.got - 2010.06.03 19:58:25.
