data_PCOD9380762
_publ_section_title
;
Structure prediction by ZEFSAII (Michael W. Deem and Ramdas Pophale) SiO2 
 PCOD9380762
Probable space group: I M A 2
;
_chemical_formula_sum "Si O2"
_cell_formula_units_Z 40
_cell_length_a 18.385802
_cell_length_b 11.065526
_cell_length_c 8.882817
_cell_angle_alpha 90.000000
_cell_angle_beta 90.000000
_cell_angle_gamma 90.000000
_cell_volume 1807.196417
_symmetry_space_group_name_H-M "I M A 2"
_symmetry_group_IT_number 46
_symmetry_cell_setting 'orthorhombic'
loop_
_space_group_symop_operation_xyz
x,y,z
-x,-y,z
1/2-x,y,z
1/2+x,-y,z
1/2+x,1/2+y,1/2+z
1/2-x,1/2-y,1/2+z
-x,1/2+y,1/2+z
x,1/2-y,1/2+z
loop_
_atom_site_type_symbol
_atom_site_label
_atom_site_fract_x
_atom_site_fract_y
_atom_site_fract_z
Si Si1 0.000000 0.000000 0.582621
Si Si2 0.098473 0.176996 0.785296
Si Si3 0.362826 0.874476 0.508661
Si Si4 0.669023 0.142204 0.167688
Si Si5 0.250000 0.444709 0.182433
Si Si6 0.427748 0.417953 0.617349
O O1 0.043641 0.094223 0.687159
O O2 0.940045 0.064400 0.482849
O O3 0.182783 0.141025 0.749507
O O4 0.082539 0.315797 0.743312
O O5 0.079422 0.149800 0.957990
O O6 0.329929 0.847430 0.346781
O O7 0.376117 0.751396 0.598800
O O8 0.312591 0.963162 0.606986
O O9 0.750000 0.156916 0.105182
O O10 0.637900 0.013258 0.125279
O O11 0.500000 0.500000 0.625845
#
# Coordination Sequence:
#
# PCOD9380762 Si02
#       6
#     4   8   8   8   4   8
#     4  10  24  46  76  98 148 198 240 302 364 440
#     4  11  27  48  75 108 151 192 252 304 374 439
#     4  11  25  46  75 110 149 196 249 305 371 442
#     4  12  27  45  76 112 150 192 255 303 375 443
#     4  10  24  46  78 106 152 198 242 306 376 434
#     4  12  30  49  75 111 149 198 252 304 375 449
#
# _framework density 22.133731000000001
#
# number of rings (size 3 to 8) (size 9 to 14) (size 15 to 20)
#    0.000    0.800    3.000    1.200   15.400    3.200 
#    0.000    0.000    0.000    0.000    0.000    0.000 
#    0.000    0.000    0.000    0.000    0.000    0.000 
#
# Total GULP energy -111415.569310 kJ/mol
# GULP energy per Si atom -5570.778466 kJ/mol
# Density = 2.208335 g / cm^3
# Si number density = 22.133731 Si / 1000 Ang^3
#
#
#
# Elastic Constant Matrix: (Units=GPa)
#
#
# Indices 1 2 3 4 5 6 
#
# 1 105.5026 59.9640 9.0952 0.0000 0.0000 0.0000
# 2 59.9640 150.7438 60.6430 0.0000 0.0000 0.0000
# 3 9.0952 60.6430 86.4566 0.0000 0.0000 0.0000
# 4 0.0000 0.0000 0.0000 31.9738 0.0000 0.0000
# 5 0.0000 0.0000 0.0000 0.0000 54.6905 0.0000
# 6 0.0000 0.0000 0.0000 0.0000 0.0000 29.6013
#
#
#
# Elastic Compliance Matrix: (Units=1/GPa)
#
#
# Indices 1 2 3 4 5 6 
#
# 1 0.012819 -0.006348 0.003104 0.000000 0.000000 0.000000
# 2 -0.006348 0.012385 -0.008019 0.000000 0.000000 0.000000
# 3 0.003104 -0.008019 0.016865 0.000000 0.000000 0.000000
# 4 0.000000 0.000000 0.000000 0.031276 0.000000 0.000000
# 5 0.000000 0.000000 0.000000 0.000000 0.018285 0.000000
# 6 0.000000 0.000000 0.000000 0.000000 0.000000 0.033782
#
#
# Mechanical properties :
#
#
# Convention : Reuss Voigt Hill
#
# Bulk Modulus (GPa) = 51.17105 66.90080 59.03592
# Shear Modulus (GPa) = 32.37254 37.45317 34.91286
#
# Velocity S-wave (km/s) = 3.82853 4.11801 3.97591
# Velocity P-wave (km/s) = 6.53550 7.27338 6.91429
#
# Compressibility (1/GPa) = 0.01954230
#
# Stress axis : x y z
#
# Youngs Moduli (GPa) = 78.01071 80.74286 59.29455
#
# Poissons Ratio (x) = 0.51254 -0.18405
# Poissons Ratio (y) = 0.49520 0.47551
# Poissons Ratio (z) = -0.24215 0.64751
#
# Static dielectric constant tensor:
#      x y z
#    x 1.799780 0.000000 0.000000 
#    y 0.000000 1.824780 0.000000 
#    z 0.000000 0.000000 1.802700 
# 
# From -- ./inp_files/6395.got.cif
#   From: 2010.05.17/outbox.cif.g08.bks.cpg/sg46_4_cif.got.tgz:6395.got - 2010.06.03 19:58:25.
