data_PCOD9380660
_publ_section_title
;
Structure prediction by ZEFSAII (Michael W. Deem and Ramdas Pophale) SiO2 
 PCOD9380660
Probable space group: I M A 2
;
_chemical_formula_sum "Si O2"
_cell_formula_units_Z 56
_cell_length_a 20.228908
_cell_length_b 11.917179
_cell_length_c 11.325563
_cell_angle_alpha 90.000000
_cell_angle_beta 90.000000
_cell_angle_gamma 90.000000
_cell_volume 2730.270660
_symmetry_space_group_name_H-M "I M A 2"
_symmetry_group_IT_number 46
_symmetry_cell_setting 'orthorhombic'
loop_
_space_group_symop_operation_xyz
x,y,z
-x,-y,z
1/2-x,y,z
1/2+x,-y,z
1/2+x,1/2+y,1/2+z
1/2-x,1/2-y,1/2+z
-x,1/2+y,1/2+z
x,1/2-y,1/2+z
loop_
_atom_site_type_symbol
_atom_site_label
_atom_site_fract_x
_atom_site_fract_y
_atom_site_fract_z
Si Si1 0.931384 0.058235 0.813220
Si Si2 0.821587 0.569222 0.449766
Si Si3 0.442184 0.168218 0.255053
Si Si4 0.173852 0.984874 0.209736
Si Si5 0.896166 0.779442 0.511401
Si Si6 0.087671 0.682060 0.826072
Si Si7 0.075573 0.973725 0.538299
O O1 0.920576 0.186455 0.849494
O O2 0.875547 0.977200 0.862140
O O3 0.928471 0.062856 0.672263
O O4 0.000000 0.000000 0.849808
O O5 0.750000 0.561830 0.394530
O O6 0.825324 0.496616 0.568827
O O7 0.835633 0.695531 0.493301
O O8 0.384110 0.073034 0.251295
O O9 0.432397 0.228229 0.383218
O O10 0.519818 0.138418 0.262743
O O11 0.432197 0.238172 0.132696
O O12 0.250000 0.008754 0.249837
O O13 0.148447 0.862674 0.248161
O O14 0.884083 0.910970 0.528589
O O15 0.098488 0.620949 0.950347
O O16 0.000000 0.000000 0.501240
#
# Coordination Sequence:
#
# PCOD9380660 Si02
#       7
#     8   8   8   8   8   8   8
#     4  11  26  42  68 104 139 173 226 287 342 419
#     4  10  24  45  67  95 137 181 224 281 343 407
#     4  11  22  39  67 102 137 178 223 284 345 401
#     4  10  23  42  64  96 133 179 234 276 329 405
#     4  11  21  40  68  99 137 173 225 283 340 410
#     4  12  23  40  70  96 135 181 221 283 342 408
#     4  11  21  40  64 100 138 169 221 282 344 404
#
# _framework density 20.510787000000001
#
# number of rings (size 3 to 8) (size 9 to 14) (size 15 to 20)
#    0.000    1.143    2.857    3.857    2.000    3.429 
#    0.000    4.286    0.000    0.000    0.000    0.000 
#    0.000    0.000    0.000    0.000    0.000    0.000 
#
# Total GULP energy -156161.707185 kJ/mol
# GULP energy per Si atom -5577.203828 kJ/mol
# Density = 2.046410 g / cm^3
# Si number density = 20.510787 Si / 1000 Ang^3
#
#
#
# Elastic Constant Matrix: (Units=GPa)
#
#
# Indices 1 2 3 4 5 6 
#
# 1 98.2959 29.7096 5.5411 0.0000 0.0000 0.0000
# 2 29.7096 134.9828 11.6267 0.0000 0.0000 0.0000
# 3 5.5411 11.6267 55.8968 0.0000 0.0000 0.0000
# 4 0.0000 0.0000 0.0000 31.6030 0.0000 0.0000
# 5 0.0000 0.0000 0.0000 0.0000 -0.4520 0.0000
# 6 0.0000 0.0000 0.0000 0.0000 0.0000 7.3653
#
#
#
# Elastic Compliance Matrix: (Units=1/GPa)
#
#
# Indices 1 2 3 4 5 6 
#
# 1 0.010918 -0.002352 -0.000593 0.000000 0.000000 0.000000
# 2 -0.002352 0.008050 -0.001441 0.000000 0.000000 0.000000
# 3 -0.000593 -0.001441 0.018249 0.000000 0.000000 0.000000
# 4 0.000000 0.000000 0.000000 0.031643 0.000000 0.000000
# 5 0.000000 0.000000 0.000000 0.000000 -2.212176 0.000000
# 6 0.000000 0.000000 0.000000 0.000000 0.000000 0.135773
#
#
# Mechanical properties :
#
#
# Convention : Reuss Voigt Hill
#
# Bulk Modulus (GPa) = 35.15687 42.54782 38.85235
# Shear Modulus (GPa) = -2.51346 23.85644 10.67149
#
# Velocity S-wave (km/s) = -1.10819 3.41415 2.28345
# Velocity P-wave (km/s) = 3.94213 6.02752 5.09271
#
# Compressibility (1/GPa) = 0.02844394
#
# Stress axis : x y z
#
# Youngs Moduli (GPa) = 91.59481 124.22142 54.79845
#
# Poissons Ratio (x) = 0.29215 0.03250
# Poissons Ratio (y) = 0.21542 0.07898
# Poissons Ratio (z) = 0.05432 0.17904
#
# Static dielectric constant tensor:
#      x y z
#    x 1.741070 0.000000 0.000000 
#    y 0.000000 1.776810 0.000000 
#    z 0.000000 0.000000 1.730440 
# 
# From -- ./inp_files/12409.got.cif
#   From: 2010.05.17/outbox.cif.g08.bks.cpg/sg46_7_cif.got.tgz:12409.got - 2010.06.03 19:58:25.
