data_PCOD9380476
_publ_section_title
;
Structure prediction by ZEFSAII (Michael W. Deem and Ramdas Pophale) SiO2 
 PCOD9380476
Probable space group: I M A 2
;
_chemical_formula_sum "Si O2"
_cell_formula_units_Z 64
_cell_length_a 17.330128
_cell_length_b 13.816847
_cell_length_c 13.090032
_cell_angle_alpha 90.000000
_cell_angle_beta 90.000000
_cell_angle_gamma 90.000000
_cell_volume 3134.378410
_symmetry_space_group_name_H-M "I M A 2"
_symmetry_group_IT_number 46
_symmetry_cell_setting 'orthorhombic'
loop_
_space_group_symop_operation_xyz
x,y,z
-x,-y,z
1/2-x,y,z
1/2+x,-y,z
1/2+x,1/2+y,1/2+z
1/2-x,1/2-y,1/2+z
-x,1/2+y,1/2+z
x,1/2-y,1/2+z
loop_
_atom_site_type_symbol
_atom_site_label
_atom_site_fract_x
_atom_site_fract_y
_atom_site_fract_z
Si Si1 0.452525 0.724909 0.068820
Si Si2 0.839319 0.203730 0.749567
Si Si3 0.837072 0.369027 0.919302
Si Si4 0.613129 0.640827 0.105489
Si Si5 0.662841 0.653884 0.664021
Si Si6 0.050052 0.404001 0.487410
Si Si7 0.408424 0.493541 0.280206
Si Si8 0.159224 0.088106 0.379844
O O1 0.391443 0.747512 0.158206
O O2 0.524950 0.673258 0.121216
O O3 0.491724 0.812593 0.003653
O O4 0.404974 0.651540 0.998279
O O5 0.750000 0.189135 0.718120
O O6 0.839645 0.281920 0.839516
O O7 0.874119 0.101470 0.789721
O O8 0.750000 0.371114 0.965073
O O9 0.848384 0.472970 0.867544
O O10 0.662763 0.733570 0.135454
O O11 0.630761 0.553721 0.181249
O O12 0.621521 0.617196 0.986484
O O13 0.750000 0.615076 0.663950
O O14 0.611225 0.604531 0.578173
O O15 0.629593 0.639475 0.777768
O O16 0.094288 0.422238 0.379450
O O17 0.000000 0.500000 0.499529
O O18 0.500000 0.500000 0.261607
O O19 0.250000 0.112119 0.390117
#
# Coordination Sequence:
#
# PCOD9380476 Si02
#       8
#     8   8   8   8   8   8   8   8
#     4  11  23  39  64  93 131 168 215 274 321 394
#     4  11  24  41  64  97 132 174 220 271 336 397
#     4  10  22  40  62  90 126 168 207 262 324 383
#     4  11  24  39  67  96 123 173 211 268 329 383
#     4  10  24  44  65  94 132 168 215 272 328 390
#     4  10  24  42  65  98 131 176 223 271 327 396
#     4  11  22  43  66  95 134 171 221 276 324 391
#     4  10  23  43  65  94 128 164 217 269 322 394
#
# _framework density 20.418721000000001
#
# number of rings (size 3 to 8) (size 9 to 14) (size 15 to 20)
#    0.000    1.500    1.250    3.000    5.250    3.500 
#    0.000    0.625    0.000    0.000    0.000    0.000 
#    0.000    0.000    0.000    0.000    0.000    0.000 
#
# Total GULP energy -178597.647720 kJ/mol
# GULP energy per Si atom -5581.176491 kJ/mol
# Density = 2.037225 g / cm^3
# Si number density = 20.418721 Si / 1000 Ang^3
#
#
#
# Elastic Constant Matrix: (Units=GPa)
#
#
# Indices 1 2 3 4 5 6 
#
# 1 78.4085 5.6731 18.0744 0.0000 0.0000 0.0000
# 2 5.6731 85.3712 26.1186 0.0000 0.0000 0.0000
# 3 18.0744 26.1186 103.9907 0.0000 0.0000 0.0000
# 4 0.0000 0.0000 0.0000 29.0863 0.0000 0.0000
# 5 0.0000 0.0000 0.0000 0.0000 21.7339 0.0000
# 6 0.0000 0.0000 0.0000 0.0000 0.0000 -15.9537
#
#
#
# Elastic Compliance Matrix: (Units=1/GPa)
#
#
# Indices 1 2 3 4 5 6 
#
# 1 0.013289 -0.000191 -0.002262 0.000000 0.000000 0.000000
# 2 -0.000191 0.012691 -0.003154 0.000000 0.000000 0.000000
# 3 -0.002262 -0.003154 0.010802 0.000000 0.000000 0.000000
# 4 0.000000 0.000000 0.000000 0.034380 0.000000 0.000000
# 5 0.000000 0.000000 0.000000 0.000000 0.046011 0.000000
# 6 0.000000 0.000000 0.000000 0.000000 0.000000 -0.062681
#
#
# Mechanical properties :
#
#
# Convention : Reuss Voigt Hill
#
# Bulk Modulus (GPa) = 39.11228 40.83362 39.97295
# Shear Modulus (GPa) = 67.35921 21.50023 44.42972
#
# Velocity S-wave (km/s) = 5.74983 3.24847 4.66975
# Velocity P-wave (km/s) = 7.95471 5.84051 6.97815
#
# Compressibility (1/GPa) = 0.02556742
#
# Stress axis : x y z
#
# Youngs Moduli (GPa) = 75.25070 78.79407 92.57882
#
# Poissons Ratio (x) = 0.01506 0.20939
# Poissons Ratio (y) = 0.01438 0.29203
# Poissons Ratio (z) = 0.17020 0.24855
#
# Static dielectric constant tensor:
#      x y z
#    x 1.742550 0.000000 0.000000 
#    y 0.000000 1.720530 0.000000 
#    z 0.000000 0.000000 1.750330 
# 
# From -- ./inp_files/11978.got.cif
#   From: 2010.05.17/outbox.cif.g08.bks.cpg/sg46_6_cif.got.tgz:11978.got - 2010.06.03 19:58:25.
