data_PCOD9380191
_publ_section_title
;
Structure prediction by ZEFSAII (Michael W. Deem and Ramdas Pophale) SiO2 
 PCOD9380191
Probable space group: I M A 2
;
_chemical_formula_sum "Si O2"
_cell_formula_units_Z 36
_cell_length_a 13.663466
_cell_length_b 25.891798
_cell_length_c 5.048578
_cell_angle_alpha 90.000000
_cell_angle_beta 90.000000
_cell_angle_gamma 90.000000
_cell_volume 1786.044030
_symmetry_space_group_name_H-M "I M A 2"
_symmetry_group_IT_number 46
_symmetry_cell_setting 'orthorhombic'
loop_
_space_group_symop_operation_xyz
x,y,z
-x,-y,z
1/2-x,y,z
1/2+x,-y,z
1/2+x,1/2+y,1/2+z
1/2-x,1/2-y,1/2+z
-x,1/2+y,1/2+z
x,1/2-y,1/2+z
loop_
_atom_site_type_symbol
_atom_site_label
_atom_site_fract_x
_atom_site_fract_y
_atom_site_fract_z
Si Si1 0.537705 0.785962 0.595850
Si Si2 0.250000 0.019804 0.981716
Si Si3 0.250000 0.284534 0.212062
Si Si4 0.250000 0.947783 0.481702
Si Si5 0.049819 0.891929 0.628096
Si Si6 0.458222 0.057572 0.138486
O O1 0.530793 0.760012 0.309219
O O2 0.646431 0.810115 0.644719
O O3 0.458878 0.830385 0.637082
O O4 0.250000 0.995521 0.689137
O O5 0.347404 0.052022 0.040783
O O6 0.250000 0.971977 0.189443
O O7 0.250000 0.265629 0.515544
O O8 0.153753 0.914154 0.536142
O O9 0.972361 0.911922 0.409877
O O10 0.021532 0.915469 0.910420
O O11 0.500000 0.000000 0.180564
#
# Coordination Sequence:
#
# PCOD9380191 Si02
#       6
#     8   4   4   4   8   8
#     4  10  21  39  60  87 119 156 199 254 300 354
#     4  12  24  38  65  87 128 159 204 247 310 360
#     4   8  16  32  56  78 108 150 184 234 310 352
#     4  12  22  40  61  89 118 173 202 241 310 370
#     4  12  24  40  65  89 125 163 210 246 309 362
#     4  12  23  41  60  93 121 161 201 256 297 367
#
# _framework density 20.156278
#
# number of rings (size 3 to 8) (size 9 to 14) (size 15 to 20)
#    0.000    0.889    4.444    3.333    0.000    1.778 
#    0.000    3.333    0.000    0.000    0.000    0.000 
#    0.000    0.000    0.000    0.000    0.000    0.000 
#
# Total GULP energy -100652.407180 kJ/mol
# GULP energy per Si atom -5591.800399 kJ/mol
# Density = 2.011040 g / cm^3
# Si number density = 20.156278 Si / 1000 Ang^3
#
#
#
# Elastic Constant Matrix: (Units=GPa)
#
#
# Indices 1 2 3 4 5 6 
#
# 1 72.8003 13.3896 -25.9274 -0.0061 -1.1116 0.0070
# 2 13.3896 49.5390 2.0102 0.0853 -0.5906 0.0043
# 3 -25.9274 2.0102 72.6511 0.2990 -5.0861 0.1032
# 4 -0.0061 0.0853 0.2990 20.3488 0.4242 0.0403
# 5 -1.1116 -0.5906 -5.0861 0.4242 728.0313 -0.3689
# 6 0.0070 0.0043 0.1032 0.0403 -0.3689 19.2447
#
#
#
# Elastic Compliance Matrix: (Units=1/GPa)
#
#
# Indices 1 2 3 4 5 6 
#
# 1 0.016803 -0.004789 0.006134 -0.000066 0.000065 -0.000037
# 2 -0.004789 0.021574 -0.002306 -0.000058 -0.000006 0.000009
# 3 0.006134 -0.002306 0.016027 -0.000226 0.000120 -0.000085
# 4 -0.000066 -0.000058 -0.000226 0.049147 -0.000030 -0.000102
# 5 0.000065 -0.000006 0.000120 -0.000030 0.001375 0.000026
# 6 -0.000037 0.000009 -0.000085 -0.000102 0.000026 0.051964
#
#
# Mechanical properties :
#
#
# Convention : Reuss Voigt Hill
#
# Bulk Modulus (GPa) = 19.05511 19.32614 19.19063
# Shear Modulus (GPa) = 28.35976 167.22616 97.79296
#
# Velocity S-wave (km/s) = 3.75506 9.11838 6.97300
# Velocity P-wave (km/s) = 5.31741 10.97583 8.62391
#
# Compressibility (1/GPa) = 0.05247937
#
# Stress axis : x y z
#
# Youngs Moduli (GPa) = 59.51464 46.35152 62.39608
#
# Poissons Ratio (x) = 0.22200 -0.38272
# Poissons Ratio (y) = 0.28504 0.14391
# Poissons Ratio (z) = -0.36505 0.10690
#
# Static dielectric constant tensor:
#      x y z
#    x 1.497570 0.001120 0.001880 
#    y 0.001120 1.698630 -0.000180 
#    z 0.001880 -0.000180 1.675150 
# 
# From -- ./inp_files/761.got.cif
#   From: 2010.05.17/outbox.cif.g08.bks.cpg/sg46_1_cif.got.tgz:761.got - 2010.06.03 19:58:25.
