data_PCOD9380952
_publ_section_title
;
Structure prediction by ZEFSAII (Michael W. Deem and Ramdas Pophale) SiO2 
 PCOD9380952
Probable space group: I M A 2
;
_chemical_formula_sum "Si O2"
_cell_formula_units_Z 48
_cell_length_a 14.651872
_cell_length_b 9.271351
_cell_length_c 16.182443
_cell_angle_alpha 90.000000
_cell_angle_beta 90.000000
_cell_angle_gamma 90.000000
_cell_volume 2198.265910
_symmetry_space_group_name_H-M "I M A 2"
_symmetry_group_IT_number 46
_symmetry_cell_setting 'orthorhombic'
loop_
_space_group_symop_operation_xyz
x,y,z
-x,-y,z
1/2-x,y,z
1/2+x,-y,z
1/2+x,1/2+y,1/2+z
1/2-x,1/2-y,1/2+z
-x,1/2+y,1/2+z
x,1/2-y,1/2+z
loop_
_atom_site_type_symbol
_atom_site_label
_atom_site_fract_x
_atom_site_fract_y
_atom_site_fract_z
Si Si1 0.568386 0.373024 0.566700
Si Si2 0.250000 0.052497 0.044727
Si Si3 0.902469 0.881353 0.329070
Si Si4 0.750000 0.670010 0.372219
Si Si5 0.402129 0.819241 0.251220
Si Si6 0.937370 0.876094 0.519854
Si Si7 0.750000 0.084740 0.769971
Si Si8 0.750000 0.661907 0.122679
O O1 0.500000 0.500000 0.589475
O O2 0.660735 0.451321 0.536622
O O3 0.593066 0.301828 0.653169
O O4 0.504783 0.263315 0.514878
O O5 0.250000 0.169934 0.970782
O O6 0.250000 0.158937 0.125970
O O7 0.834878 0.748526 0.331624
O O8 0.912122 0.920449 0.426133
O O9 0.997307 0.826182 0.290874
O O10 0.867877 0.021391 0.279227
O O11 0.750000 0.504673 0.352832
O O12 0.337011 0.689200 0.274815
O O13 0.846232 0.862799 0.574435
O O14 0.000000 0.000000 0.557795
O O15 0.750000 0.960095 0.696981
#
# Coordination Sequence:
#
# PCOD9380952 Si02
#       8
#     8   4   8   4   8   8   4   4
#     4  12  24  45  76 105 144 194 252 306 370 455
#     4  12  27  47  74 107 149 201 254 320 384 446
#     4  11  23  47  75 103 145 192 246 293 380 461
#     4  12  27  45  70 107 143 193 239 314 373 450
#     4  11  25  48  71 109 140 192 249 300 379 448
#     4  12  25  46  76 107 143 195 248 311 373 447
#     4  12  30  44  72 110 148 188 246 325 362 451
#     4  12  26  48  68 108 154 190 253 307 397 437
#
# _framework density 21.835394000000001
#
# number of rings (size 3 to 8) (size 9 to 14) (size 15 to 20)
#    0.000    0.333    6.667    2.000    7.000    1.333 
#    0.000    0.000    0.000    0.000    0.000    0.000 
#    0.000    0.000    0.000    0.000    0.000    0.000 
#
# Total GULP energy -133844.751169 kJ/mol
# GULP energy per Si atom -5576.864632 kJ/mol
# Density = 2.178570 g / cm^3
# Si number density = 21.835394 Si / 1000 Ang^3
#
#
#
# Elastic Constant Matrix: (Units=GPa)
#
#
# Indices 1 2 3 4 5 6 
#
# 1 124.8051 57.8846 8.6668 0.0000 0.0000 0.0000
# 2 57.8846 98.7610 15.6258 0.0000 0.0000 0.0000
# 3 8.6668 15.6258 60.0081 0.0000 0.0000 0.0000
# 4 0.0000 0.0000 0.0000 28.7082 0.0000 0.0000
# 5 0.0000 0.0000 0.0000 0.0000 16.4079 0.0000
# 6 0.0000 0.0000 0.0000 0.0000 0.0000 83.8381
#
#
#
# Elastic Compliance Matrix: (Units=1/GPa)
#
#
# Indices 1 2 3 4 5 6 
#
# 1 0.011004 -0.006465 0.000094 0.000000 0.000000 0.000000
# 2 -0.006465 0.014358 -0.002805 0.000000 0.000000 0.000000
# 3 0.000094 -0.002805 0.017381 0.000000 0.000000 0.000000
# 4 0.000000 0.000000 0.000000 0.034833 0.000000 0.000000
# 5 0.000000 0.000000 0.000000 0.000000 0.060946 0.000000
# 6 0.000000 0.000000 0.000000 0.000000 0.000000 0.011928
#
#
# Mechanical properties :
#
#
# Convention : Reuss Voigt Hill
#
# Bulk Modulus (GPa) = 40.99640 49.76984 45.38312
# Shear Modulus (GPa) = 28.25925 39.21731 33.73828
#
# Velocity S-wave (km/s) = 3.60139 4.24257 3.93506
# Velocity P-wave (km/s) = 6.00911 6.84411 6.44016
#
# Compressibility (1/GPa) = 0.02439239
#
# Stress axis : x y z
#
# Youngs Moduli (GPa) = 90.87434 69.64671 57.53317
#
# Poissons Ratio (x) = 0.45023 -0.00541
# Poissons Ratio (y) = 0.58746 0.16139
# Poissons Ratio (z) = -0.00854 0.19537
#
# Static dielectric constant tensor:
#      x y z
#    x 1.823430 0.000000 0.000000 
#    y 0.000000 1.834310 0.000000 
#    z 0.000000 0.000000 1.832370 
# 
# From -- ./inp_files/19457.got.cif
#   From: 2010.05.17/outbox.cif.g08.bks.cpg/sg46_10_cif.got.tgz:19457.got - 2010.06.03 19:58:25.
