data_PCOD9380230
_publ_section_title
;
Structure prediction by ZEFSAII (Michael W. Deem and Ramdas Pophale) SiO2 
 PCOD9380230
Probable space group: I M A 2
;
_chemical_formula_sum "Si O2"
_cell_formula_units_Z 40
_cell_length_a 13.877978
_cell_length_b 27.419002
_cell_length_c 5.219859
_cell_angle_alpha 90.000000
_cell_angle_beta 90.000000
_cell_angle_gamma 90.000000
_cell_volume 1986.262347
_symmetry_space_group_name_H-M "I M A 2"
_symmetry_group_IT_number 46
_symmetry_cell_setting 'orthorhombic'
loop_
_space_group_symop_operation_xyz
x,y,z
-x,-y,z
1/2-x,y,z
1/2+x,-y,z
1/2+x,1/2+y,1/2+z
1/2-x,1/2-y,1/2+z
-x,1/2+y,1/2+z
x,1/2-y,1/2+z
loop_
_atom_site_type_symbol
_atom_site_label
_atom_site_fract_x
_atom_site_fract_y
_atom_site_fract_z
Si Si1 0.995939 0.442169 0.281840
Si Si2 0.633563 0.280521 0.726629
Si Si3 0.867275 0.722785 0.416889
Si Si4 0.535986 0.385119 0.788347
Si Si5 0.862389 0.871819 0.606777
O O1 0.956452 0.419614 0.543566
O O2 0.000000 0.500000 0.274800
O O3 0.104586 0.421494 0.242569
O O4 0.940136 0.416576 0.043989
O O5 0.750000 0.283702 0.729346
O O6 0.604629 0.254631 0.461493
O O7 0.592683 0.334841 0.758202
O O8 0.750000 0.722031 0.423050
O O9 0.896627 0.737343 0.702484
O O10 0.897370 0.671871 0.291059
O O11 0.424361 0.371505 0.848063
O O12 0.750000 0.866937 0.560301
#
# Coordination Sequence:
#
# PCOD9380230 Si02
#       5
#     8   8   8   8   8
#     4  10  22  41  61  81 119 160 204 258 308 355
#     4  10  21  39  64  93 127 163 204 253 313 376
#     4   9  18  30  46  72 110 147 179 216 258 318
#     4  10  22  38  62  89 118 160 199 255 301 369
#     4   9  22  38  59  87 121 158 196 238 292 362
#
# _framework density 20.138325999999999
#
# number of rings (size 3 to 8) (size 9 to 14) (size 15 to 20)
#    1.200    1.200    0.000    1.800    2.800    2.400 
#    0.000    2.000    0.000    0.000    0.000    0.000 
#    0.000    0.000    0.000    0.000    0.000    0.000 
#
# Total GULP energy -111594.840878 kJ/mol
# GULP energy per Si atom -5579.742044 kJ/mol
# Density = 2.009249 g / cm^3
# Si number density = 20.138326 Si / 1000 Ang^3
#
#
#
# Elastic Constant Matrix: (Units=GPa)
#
#
# Indices 1 2 3 4 5 6 
#
# 1 40.7741 23.6170 14.0683 -0.0026 -0.0040 -0.0014
# 2 23.6170 191.2552 70.6446 0.0020 -0.0231 -0.0017
# 3 14.0683 70.6446 165.5686 0.0559 -0.0882 -0.0141
# 4 -0.0026 0.0020 0.0559 31.6272 -0.0116 -0.0007
# 5 -0.0040 -0.0231 -0.0882 -0.0116 15.2911 0.0034
# 6 -0.0014 -0.0017 -0.0141 -0.0007 0.0034 26.3314
#
#
#
# Elastic Compliance Matrix: (Units=1/GPa)
#
#
# Indices 1 2 3 4 5 6 
#
# 1 0.026558 -0.002904 -0.001018 0.000004 -0.000003 0.000001
# 2 -0.002904 0.006524 -0.002537 0.000004 -0.000006 -0.000001
# 3 -0.001018 -0.002537 0.007209 -0.000013 0.000037 0.000004
# 4 0.000004 0.000004 -0.000013 0.031618 0.000024 0.000001
# 5 -0.000003 -0.000006 0.000037 0.000024 0.065398 -0.000008
# 6 0.000001 -0.000001 0.000004 0.000001 -0.000008 0.037977
#
#
# Mechanical properties :
#
#
# Convention : Reuss Voigt Hill
#
# Bulk Modulus (GPa) = 36.53022 68.25085 52.39054
# Shear Modulus (GPa) = 25.33869 33.93448 29.63658
#
# Velocity S-wave (km/s) = 3.55101 4.10941 3.84037
# Velocity P-wave (km/s) = 5.91539 7.51538 6.76287
#
# Compressibility (1/GPa) = 0.02737459
#
# Stress axis : x y z
#
# Youngs Moduli (GPa) = 37.65297 153.27339 138.71927
#
# Poissons Ratio (x) = 0.44505 0.14118
# Poissons Ratio (y) = 0.10933 0.35194
# Poissons Ratio (z) = 0.03832 0.38886
#
# Static dielectric constant tensor:
#      x y z
#    x 1.744730 -0.000010 0.000010 
#    y -0.000010 1.708270 0.000000 
#    z 0.000010 0.000000 1.739230 
# 
# From -- ./inp_files/1202.got.cif
#   From: 2010.05.17/outbox.cif.g08.bks.cpg/sg46_1_cif.got.tgz:1202.got - 2010.06.03 19:58:25.
