data_PCOD9380673
_publ_section_title
;
Structure prediction by ZEFSAII (Michael W. Deem and Ramdas Pophale) SiO2 
 PCOD9380673
Probable space group: I M A 2
;
_chemical_formula_sum "Si O2"
_cell_formula_units_Z 64
_cell_length_a 21.955881
_cell_length_b 9.361096
_cell_length_c 14.048434
_cell_angle_alpha 90.000000
_cell_angle_beta 90.000000
_cell_angle_gamma 90.000000
_cell_volume 2887.390231
_symmetry_space_group_name_H-M "I M A 2"
_symmetry_group_IT_number 46
_symmetry_cell_setting 'orthorhombic'
loop_
_space_group_symop_operation_xyz
x,y,z
-x,-y,z
1/2-x,y,z
1/2+x,-y,z
1/2+x,1/2+y,1/2+z
1/2-x,1/2-y,1/2+z
-x,1/2+y,1/2+z
x,1/2-y,1/2+z
loop_
_atom_site_type_symbol
_atom_site_label
_atom_site_fract_x
_atom_site_fract_y
_atom_site_fract_z
Si Si1 0.502672 0.167045 0.449800
Si Si2 0.818111 0.572182 0.554632
Si Si3 0.119176 0.397228 0.758550
Si Si4 0.680439 0.371567 0.388074
Si Si5 0.609056 0.276816 0.723174
Si Si6 0.012719 0.169137 0.757795
Si Si7 0.137972 0.832146 0.531937
Si Si8 0.134744 0.144856 0.481379
O O1 0.501908 0.280015 0.364876
O O2 0.567421 0.183874 0.499829
O O3 0.436918 0.184009 0.500404
O O4 0.500000 0.000000 0.416938
O O5 0.750000 0.514494 0.559367
O O6 0.841896 0.586967 0.662113
O O7 0.847303 0.481144 0.466647
O O8 0.822186 0.731334 0.515621
O O9 0.099742 0.564787 0.764462
O O10 0.073555 0.262797 0.738816
O O11 0.142005 0.370900 0.866620
O O12 0.750000 0.411434 0.361161
O O13 0.638393 0.334478 0.298081
O O14 0.679728 0.225571 0.447786
O O15 0.541291 0.232149 0.694949
O O16 0.648050 0.258705 0.627335
O O17 0.000000 0.000000 0.749661
O O18 0.147600 0.000436 0.538587
#
# Coordination Sequence:
#
# PCOD9380673 Si02
#       8
#     8   8   8   8   8   8   8   8
#     4   9  19  40  66  96 140 177 219 278 342 419
#     4  11  27  47  69 101 141 183 240 293 350 421
#     4  11  24  46  71 100 140 189 229 288 358 426
#     4  11  25  46  68  98 138 183 238 295 346 411
#     4  12  24  43  70 103 140 179 233 288 351 421
#     4  11  24  38  67 105 142 175 225 284 353 425
#     4  11  22  40  70 102 133 177 231 283 345 423
#     4  10  23  42  69 101 140 179 226 288 357 416
#
# _framework density 22.165346
#
# number of rings (size 3 to 8) (size 9 to 14) (size 15 to 20)
#    0.000    1.250    3.750    1.875    7.000    2.500 
#    0.000    1.250    0.000    0.000    0.000    0.000 
#    0.000    0.000    0.000    0.000    0.000    0.000 
#
# Total GULP energy -178193.805204 kJ/mol
# GULP energy per Si atom -5568.556413 kJ/mol
# Density = 2.211490 g / cm^3
# Si number density = 22.165346 Si / 1000 Ang^3
#
#
#
# Elastic Constant Matrix: (Units=GPa)
#
#
# Indices 1 2 3 4 5 6 
#
# 1 36.6169 16.5843 16.6172 0.0000 0.0000 0.0000
# 2 16.5843 80.3289 13.0541 0.0000 0.0000 0.0000
# 3 16.6172 13.0541 85.3530 0.0000 0.0000 0.0000
# 4 0.0000 0.0000 0.0000 29.3365 0.0000 0.0000
# 5 0.0000 0.0000 0.0000 0.0000 20.8327 0.0000
# 6 0.0000 0.0000 0.0000 0.0000 0.0000 18.8224
#
#
#
# Elastic Compliance Matrix: (Units=1/GPa)
#
#
# Indices 1 2 3 4 5 6 
#
# 1 0.032400 -0.005808 -0.005420 0.000000 0.000000 0.000000
# 2 -0.005808 0.013807 -0.000981 0.000000 0.000000 0.000000
# 3 -0.005420 -0.000981 0.012921 0.000000 0.000000 0.000000
# 4 0.000000 0.000000 0.000000 0.034087 0.000000 0.000000
# 5 0.000000 0.000000 0.000000 0.000000 0.048001 0.000000
# 6 0.000000 0.000000 0.000000 0.000000 0.000000 0.053128
#
#
# Mechanical properties :
#
#
# Convention : Reuss Voigt Hill
#
# Bulk Modulus (GPa) = 28.80944 32.75666 30.78305
# Shear Modulus (GPa) = 21.70769 24.20123 22.95446
#
# Velocity S-wave (km/s) = 3.13286 3.30790 3.22157
# Velocity P-wave (km/s) = 5.11000 5.42218 5.26840
#
# Compressibility (1/GPa) = 0.03471084
#
# Stress axis : x y z
#
# Youngs Moduli (GPa) = 30.86424 72.42492 77.39229
#
# Poissons Ratio (x) = 0.42067 0.41943
# Poissons Ratio (y) = 0.17927 0.07591
# Poissons Ratio (z) = 0.16727 0.07104
#
# Static dielectric constant tensor:
#      x y z
#    x 1.908810 0.000000 0.000000 
#    y 0.000000 1.835870 0.000000 
#    z 0.000000 0.000000 1.868970 
# 
# From -- ./inp_files/17440.got.cif
#   From: 2010.05.17/outbox.cif.g08.bks.cpg/sg46_9_cif.got.tgz:17440.got - 2010.06.03 19:58:25.
