data_PCOD9380756
_publ_section_title
;
Structure prediction by ZEFSAII (Michael W. Deem and Ramdas Pophale) SiO2 
 PCOD9380756
Probable space group: I M A 2
;
_chemical_formula_sum "Si O2"
_cell_formula_units_Z 32
_cell_length_a 11.088169
_cell_length_b 13.319615
_cell_length_c 9.372995
_cell_angle_alpha 90.000000
_cell_angle_beta 90.000000
_cell_angle_gamma 90.000000
_cell_volume 1384.298964
_symmetry_space_group_name_H-M "I M A 2"
_symmetry_group_IT_number 46
_symmetry_cell_setting 'orthorhombic'
loop_
_space_group_symop_operation_xyz
x,y,z
-x,-y,z
1/2-x,y,z
1/2+x,-y,z
1/2+x,1/2+y,1/2+z
1/2-x,1/2-y,1/2+z
-x,1/2+y,1/2+z
x,1/2-y,1/2+z
loop_
_atom_site_type_symbol
_atom_site_label
_atom_site_fract_x
_atom_site_fract_y
_atom_site_fract_z
Si Si1 0.882786 0.164753 0.218650
Si Si2 0.250000 0.243215 0.285019
Si Si3 0.750000 0.948977 0.616285
Si Si4 0.493527 0.292613 0.438208
Si Si5 0.750000 0.975421 0.277075
Si Si6 0.500000 0.000000 0.767975
O O1 0.750000 0.201168 0.169870
O O2 0.912988 0.214618 0.368614
O O3 0.862526 0.045509 0.233040
O O4 0.981424 0.197668 0.104858
O O5 0.250000 0.335257 0.175649
O O6 0.365297 0.253401 0.386927
O O7 0.250000 0.134392 0.211594
O O8 0.750000 0.960556 0.446739
O O9 0.624143 0.994024 0.677394
O O10 0.509446 0.401280 0.365909
#
# Coordination Sequence:
#
# PCOD9380756 Si02
#       6
#     8   4   4   8   4   4
#     4  10  26  45  75 109 148 200 259 321 379 470
#     4  10  26  46  72 110 154 200 259 330 406 468
#     4  10  24  46  73 110 144 204 256 327 394 490
#     4  11  25  46  72 108 152 203 255 327 390 472
#     4  10  26  46  75 110 150 204 259 329 392 480
#     4  10  26  42  76 102 152 200 266 318 402 466
#
# _framework density 23.116392999999999
#
# number of rings (size 3 to 8) (size 9 to 14) (size 15 to 20)
#    0.750    1.000    0.000    0.750   14.000    3.000 
#    4.500    0.000    0.000    0.000    0.000    0.000 
#    0.000    0.000    0.000    0.000    0.000    0.000 
#
# Total GULP energy -89521.189593 kJ/mol
# GULP energy per Si atom -5595.074350 kJ/mol
# Density = 2.306378 g / cm^3
# Si number density = 23.116393 Si / 1000 Ang^3
#
#
#
# Elastic Constant Matrix: (Units=GPa)
#
#
# Indices 1 2 3 4 5 6 
#
# 1 112.9778 39.3813 23.4507 0.0000 0.0000 0.0000
# 2 39.3813 123.8342 9.8642 0.0000 0.0000 0.0000
# 3 23.4507 9.8642 92.3548 0.0000 0.0000 0.0000
# 4 0.0000 0.0000 0.0000 28.5754 0.0000 0.0000
# 5 0.0000 0.0000 0.0000 0.0000 27.4438 0.0000
# 6 0.0000 0.0000 0.0000 0.0000 0.0000 24.4801
#
#
#
# Elastic Compliance Matrix: (Units=1/GPa)
#
#
# Indices 1 2 3 4 5 6 
#
# 1 0.010422 -0.003130 -0.002312 0.000000 0.000000 0.000000
# 2 -0.003130 0.009085 -0.000175 0.000000 0.000000 0.000000
# 3 -0.002312 -0.000175 0.011434 0.000000 0.000000 0.000000
# 4 0.000000 0.000000 0.000000 0.034995 0.000000 0.000000
# 5 0.000000 0.000000 0.000000 0.000000 0.036438 0.000000
# 6 0.000000 0.000000 0.000000 0.000000 0.000000 0.040849
#
#
# Mechanical properties :
#
#
# Convention : Reuss Voigt Hill
#
# Bulk Modulus (GPa) = 50.74852 52.72880 51.73866
# Shear Modulus (GPa) = 31.05058 33.19791 32.12425
#
# Velocity S-wave (km/s) = 3.66898 3.79373 3.73188
# Velocity P-wave (km/s) = 6.32058 6.48456 6.40309
#
# Compressibility (1/GPa) = 0.01970501
#
# Stress axis : x y z
#
# Youngs Moduli (GPa) = 95.94746 110.07417 87.46127
#
# Poissons Ratio (x) = 0.34457 0.20222
# Poissons Ratio (y) = 0.30035 0.01535
# Poissons Ratio (z) = 0.22184 0.01932
#
# Static dielectric constant tensor:
#      x y z
#    x 1.885300 0.000000 0.000000 
#    y 0.000000 1.850180 0.000000 
#    z 0.000000 0.000000 1.812570 
# 
# From -- ./inp_files/4314.got.cif
#   From: 2010.05.17/outbox.cif.g08.bks.cpg/sg46_3_cif.got.tgz:4314.got - 2010.06.03 19:58:25.
