data_PCOD9380103
_publ_section_title
;
Structure prediction by ZEFSAII (Michael W. Deem and Ramdas Pophale) SiO2 
 PCOD9380103
Probable space group: I M A 2
;
_chemical_formula_sum "Si O2"
_cell_formula_units_Z 36
_cell_length_a 31.519077
_cell_length_b 11.516019
_cell_length_c 5.340488
_cell_angle_alpha 90.000000
_cell_angle_beta 90.000000
_cell_angle_gamma 90.000000
_cell_volume 1938.459838
_symmetry_space_group_name_H-M "I M A 2"
_symmetry_group_IT_number 46
_symmetry_cell_setting 'orthorhombic'
loop_
_space_group_symop_operation_xyz
x,y,z
-x,-y,z
1/2-x,y,z
1/2+x,-y,z
1/2+x,1/2+y,1/2+z
1/2-x,1/2-y,1/2+z
-x,1/2+y,1/2+z
x,1/2-y,1/2+z
loop_
_atom_site_type_symbol
_atom_site_label
_atom_site_fract_x
_atom_site_fract_y
_atom_site_fract_z
Si Si1 0.657589 0.328792 0.922360
Si Si2 0.250000 0.675196 0.998235
Si Si3 0.060633 0.291884 0.953481
Si Si4 0.021827 0.874118 0.953138
Si Si5 0.568473 0.065333 0.454177
O O1 0.654273 0.261716 0.656060
O O2 0.704598 0.383629 0.949131
O O3 0.618793 0.417326 0.945177
O O4 0.250000 0.776656 0.783346
O O5 0.083298 0.249138 0.202806
O O6 0.055133 0.429841 0.955535
O O7 0.016339 0.218813 0.952119
O O8 0.049073 0.876268 0.206486
O O9 0.050520 0.875500 0.704932
O O10 0.000000 0.000000 0.949553
#
# Coordination Sequence:
#
# PCOD9380103 Si02
#       5
#     8   4   8   8   8
#     4  10  21  38  58  87 113 141 177 224 281 337
#     4   8  16  34  60  82 112 138 166 218 284 342
#     4  12  23  37  53  71 101 143 188 226 268 307
#     4  12  23  38  54  74 105 148 193 226 268 310
#     4  12  24  39  54  79 106 143 189 229 273 322
#
# _framework density 18.571444
#
# number of rings (size 3 to 8) (size 9 to 14) (size 15 to 20)
#    0.000    0.889    4.444    3.333    0.000    5.333 
#    0.000    0.000    0.000    0.000    0.000    1.556 
#    0.000    0.000    0.000    0.000    0.000    0.000 
#
# Total GULP energy -100532.441569 kJ/mol
# GULP energy per Si atom -5585.135643 kJ/mol
# Density = 1.852918 g / cm^3
# Si number density = 18.571444 Si / 1000 Ang^3
#
#
#
# Elastic Constant Matrix: (Units=GPa)
#
#
# Indices 1 2 3 4 5 6 
#
# 1 130.3083 36.9354 10.7786 0.0004 0.0002 0.0000
# 2 36.9354 120.5891 19.0476 0.0020 0.0007 0.0003
# 3 10.7786 19.0476 165.6128 0.0055 0.0014 -0.0001
# 4 0.0004 0.0020 0.0055 7.8217 0.0011 0.0002
# 5 0.0002 0.0007 0.0014 0.0011 17.4565 -0.0001
# 6 0.0000 0.0003 -0.0001 0.0002 -0.0001 11.6882
#
#
#
# Elastic Compliance Matrix: (Units=1/GPa)
#
#
# Indices 1 2 3 4 5 6 
#
# 1 0.008414 -0.002537 -0.000256 0.000000 0.000000 0.000000
# 2 -0.002537 0.009211 -0.000894 -0.000002 0.000000 0.000000
# 3 -0.000256 -0.000894 0.006158 -0.000004 0.000000 0.000000
# 4 0.000000 -0.000002 -0.000004 0.127850 -0.000008 -0.000002
# 5 0.000000 0.000000 0.000000 -0.000008 0.057285 0.000001
# 6 0.000000 0.000000 0.000000 -0.000002 0.000001 0.085556
#
#
# Mechanical properties :
#
#
# Convention : Reuss Voigt Hill
#
# Bulk Modulus (GPa) = 60.94218 61.11482 61.02850
# Shear Modulus (GPa) = 16.26982 30.70986 23.48984
#
# Velocity S-wave (km/s) = 2.96305 4.07087 3.56031
# Velocity P-wave (km/s) = 6.67776 7.42128 7.05931
#
# Compressibility (1/GPa) = 0.01640900
#
# Stress axis : x y z
#
# Youngs Moduli (GPa) = 118.84494 108.56720 162.39871
#
# Poissons Ratio (x) = 0.27542 0.04155
# Poissons Ratio (y) = 0.30149 0.14523
# Poissons Ratio (z) = 0.03041 0.09709
#
# Static dielectric constant tensor:
#      x y z
#    x 1.646620 0.000000 0.000000 
#    y 0.000000 1.655760 0.000000 
#    z 0.000000 0.000000 1.772120 
# 
# From -- ./inp_files/2682.got.cif
#   From: 2010.05.17/outbox.cif.g08.bks.cpg/sg46_2_cif.got.tgz:2682.got - 2010.06.03 19:58:25.
