data_PCOD9380403
_publ_section_title
;
Structure prediction by ZEFSAII (Michael W. Deem and Ramdas Pophale) SiO2 
 PCOD9380403
Probable space group: I M A 2
;
_chemical_formula_sum "Si O2"
_cell_formula_units_Z 60
_cell_length_a 22.708201
_cell_length_b 8.799997
_cell_length_c 13.933979
_cell_angle_alpha 90.000000
_cell_angle_beta 90.000000
_cell_angle_gamma 90.000000
_cell_volume 2784.456294
_symmetry_space_group_name_H-M "I M A 2"
_symmetry_group_IT_number 46
_symmetry_cell_setting 'orthorhombic'
loop_
_space_group_symop_operation_xyz
x,y,z
-x,-y,z
1/2-x,y,z
1/2+x,-y,z
1/2+x,1/2+y,1/2+z
1/2-x,1/2-y,1/2+z
-x,1/2+y,1/2+z
x,1/2-y,1/2+z
loop_
_atom_site_type_symbol
_atom_site_label
_atom_site_fract_x
_atom_site_fract_y
_atom_site_fract_z
Si Si1 0.397810 0.806204 0.213250
Si Si2 0.000000 0.000000 0.228352
Si Si3 0.578568 0.606415 0.959883
Si Si4 0.953233 0.265444 0.005358
Si Si5 0.317832 0.168231 0.967052
Si Si6 0.907137 0.035468 0.844567
Si Si7 0.423652 0.260585 0.750117
Si Si8 0.684203 0.914180 0.185694
O O1 0.381841 0.654566 0.268445
O O2 0.454273 0.876612 0.268504
O O3 0.346718 0.929859 0.216479
O O4 0.422856 0.781513 0.105918
O O5 0.043600 0.122542 0.177658
O O6 0.641617 0.681875 0.981038
O O7 0.576538 0.427558 0.978441
O O8 0.522514 0.687711 0.010545
O O9 0.567574 0.647321 0.848936
O O10 0.941578 0.131560 0.926986
O O11 0.250000 0.195894 0.936765
O O12 0.315243 0.090388 0.070976
O O13 0.356223 0.060578 0.897691
O O14 0.940884 0.909357 0.778340
O O15 0.355870 0.274966 0.721551
O O16 0.750000 0.902949 0.222855
#
# Coordination Sequence:
#
# PCOD9380403 Si02
#       8
#     8   4   8   8   8   8   8   8
#     4  11  24  39  67  97 134 178 226 276 351 412
#     4  10  22  38  58  94 132 168 216 268 334 416
#     4  10  23  40  65  96 139 176 227 269 346 416
#     4  11  23  41  65 102 141 179 219 290 347 416
#     4  10  23  44  67  92 131 181 233 284 341 411
#     4  11  24  42  65  99 135 171 229 282 342 413
#     4  10  22  38  65  92 126 170 217 276 336 408
#     4  10  22  44  66  90 128 177 229 283 342 410
#
# _framework density 21.548192
#
# number of rings (size 3 to 8) (size 9 to 14) (size 15 to 20)
#    0.000    1.600    1.333    3.200    5.600    8.533 
#    0.000    1.333    0.000    0.000    0.000    0.000 
#    0.000    0.000    0.000    0.000    0.000    0.000 
#
# Total GULP energy -167191.277721 kJ/mol
# GULP energy per Si atom -5573.042591 kJ/mol
# Density = 2.149915 g / cm^3
# Si number density = 21.548192 Si / 1000 Ang^3
#
#
#
# Elastic Constant Matrix: (Units=GPa)
#
#
# Indices 1 2 3 4 5 6 
#
# 1 146.1416 58.6631 8.2551 0.0000 0.0000 0.0000
# 2 58.6631 147.8048 33.4342 0.0000 0.0000 0.0000
# 3 8.2551 33.4342 73.6569 0.0000 0.0000 0.0000
# 4 0.0000 0.0000 0.0000 32.8979 0.0000 0.0000
# 5 0.0000 0.0000 0.0000 0.0000 24.0084 0.0000
# 6 0.0000 0.0000 0.0000 0.0000 0.0000 23.8279
#
#
#
# Elastic Compliance Matrix: (Units=1/GPa)
#
#
# Indices 1 2 3 4 5 6 
#
# 1 0.008165 -0.003381 0.000619 0.000000 0.000000 0.000000
# 2 -0.003381 0.008940 -0.003679 0.000000 0.000000 0.000000
# 3 0.000619 -0.003679 0.015177 0.000000 0.000000 0.000000
# 4 0.000000 0.000000 0.000000 0.030397 0.000000 0.000000
# 5 0.000000 0.000000 0.000000 0.000000 0.041652 0.000000
# 6 0.000000 0.000000 0.000000 0.000000 0.000000 0.041968
#
#
# Mechanical properties :
#
#
# Convention : Reuss Voigt Hill
#
# Bulk Modulus (GPa) = 51.54364 63.14534 57.34449
# Shear Modulus (GPa) = 30.18491 33.96355 32.07423
#
# Velocity S-wave (km/s) = 3.74680 3.97440 3.86228
# Velocity P-wave (km/s) = 6.53377 7.10134 6.82346
#
# Compressibility (1/GPa) = 0.01940104
#
# Stress axis : x y z
#
# Youngs Moduli (GPa) = 122.47795 111.86103 65.88920
#
# Poissons Ratio (x) = 0.37817 -0.04082
# Poissons Ratio (y) = 0.41406 0.24241
# Poissons Ratio (z) = -0.07587 0.41154
#
# Static dielectric constant tensor:
#      x y z
#    x 1.856900 0.000000 0.000000 
#    y 0.000000 1.806470 0.000000 
#    z 0.000000 0.000000 1.903450 
# 
# From -- ./inp_files/17365.got.cif
#   From: 2010.05.17/outbox.cif.g08.bks.cpg/sg46_9_cif.got.tgz:17365.got - 2010.06.03 19:58:25.
