data_PCOD9380324
_publ_section_title
;
Structure prediction by ZEFSAII (Michael W. Deem and Ramdas Pophale) SiO2 
 PCOD9380324
Probable space group: I M A 2
;
_chemical_formula_sum "Si O2"
_cell_formula_units_Z 40
_cell_length_a 10.618200
_cell_length_b 6.735245
_cell_length_c 27.140793
_cell_angle_alpha 90.000000
_cell_angle_beta 90.000000
_cell_angle_gamma 90.000000
_cell_volume 1941.005796
_symmetry_space_group_name_H-M "I M A 2"
_symmetry_group_IT_number 46
_symmetry_cell_setting 'orthorhombic'
loop_
_space_group_symop_operation_xyz
x,y,z
-x,-y,z
1/2-x,y,z
1/2+x,-y,z
1/2+x,1/2+y,1/2+z
1/2-x,1/2-y,1/2+z
-x,1/2+y,1/2+z
x,1/2-y,1/2+z
loop_
_atom_site_type_symbol
_atom_site_label
_atom_site_fract_x
_atom_site_fract_y
_atom_site_fract_z
Si Si1 0.109731 0.649129 0.581040
Si Si2 0.500000 0.000000 0.641150
Si Si3 0.000000 0.500000 0.797068
Si Si4 0.390170 0.841152 0.476998
Si Si5 0.891790 0.649594 0.237095
Si Si6 0.606989 0.334910 0.367483
O O1 0.250000 0.576240 0.592947
O O2 0.101877 0.690300 0.522575
O O3 0.000000 0.500000 0.595651
O O4 0.084938 0.858043 0.608049
O O5 0.418745 0.136956 0.678580
O O6 0.915519 0.639079 0.762017
O O7 0.921686 0.351995 0.832115
O O8 0.250000 0.934633 0.479717
O O9 0.400615 0.738072 0.424048
O O10 0.500000 0.000000 0.482195
O O11 0.750000 0.581102 0.246720
O O12 0.000000 0.500000 0.256337
O O13 0.500000 0.500000 0.361213
O O14 0.750000 0.408400 0.358910
#
# Coordination Sequence:
#
# PCOD9380324 Si02
#       6
#     8   4   4   8   8   8
#     4  11  24  42  69 101 134 175 217 265 325 389
#     4  10  24  45  68  92 132 171 220 270 324 384
#     4  12  24  43  70  96 130 169 222 274 330 388
#     4  10  21  41  66  98 136 172 213 263 322 387
#     4  10  25  45  66  93 127 170 216 274 330 383
#     4  11  25  43  67  98 134 174 217 267 326 391
#
# _framework density 20.607873000000001
#
# number of rings (size 3 to 8) (size 9 to 14) (size 15 to 20)
#    0.600    0.800    2.000    2.400    1.400    8.000 
#    0.000    0.000    0.000    0.000    0.000    0.000 
#    0.000    0.000    0.000    0.000    0.000    0.000 
#
# Total GULP energy -111669.354313 kJ/mol
# GULP energy per Si atom -5583.467716 kJ/mol
# Density = 2.056097 g / cm^3
# Si number density = 20.607873 Si / 1000 Ang^3
#
#
#
# Elastic Constant Matrix: (Units=GPa)
#
#
# Indices 1 2 3 4 5 6 
#
# 1 202.0366 70.4995 23.2579 0.0000 0.0000 0.0000
# 2 70.4995 81.7532 28.9776 0.0000 0.0000 0.0000
# 3 23.2579 28.9776 107.2348 0.0000 0.0000 0.0000
# 4 0.0000 0.0000 0.0000 22.8141 0.0000 0.0000
# 5 0.0000 0.0000 0.0000 0.0000 36.6031 0.0000
# 6 0.0000 0.0000 0.0000 0.0000 0.0000 36.7490
#
#
#
# Elastic Compliance Matrix: (Units=1/GPa)
#
#
# Indices 1 2 3 4 5 6 
#
# 1 0.007082 -0.006152 0.000126 0.000000 0.000000 0.000000
# 2 -0.006152 0.018871 -0.003765 0.000000 0.000000 0.000000
# 3 0.000126 -0.003765 0.010315 0.000000 0.000000 0.000000
# 4 0.000000 0.000000 0.000000 0.043832 0.000000 0.000000
# 5 0.000000 0.000000 0.000000 0.000000 0.027320 0.000000
# 6 0.000000 0.000000 0.000000 0.000000 0.000000 0.027212
#
#
# Mechanical properties :
#
#
# Convention : Reuss Voigt Hill
#
# Bulk Modulus (GPa) = 59.92565 70.72164 65.32364
# Shear Modulus (GPa) = 31.29378 37.11920 34.20649
#
# Velocity S-wave (km/s) = 3.90107 4.24868 4.07858
# Velocity P-wave (km/s) = 7.03088 7.64595 7.34486
#
# Compressibility (1/GPa) = 0.01668735
#
# Stress axis : x y z
#
# Youngs Moduli (GPa) = 141.21077 52.99031 96.94236
#
# Poissons Ratio (x) = 0.32598 -0.01225
# Poissons Ratio (y) = 0.86867 0.36502
# Poissons Ratio (z) = -0.01785 0.19953
#
# Static dielectric constant tensor:
#      x y z
#    x 1.725360 0.000000 0.000000 
#    y 0.000000 1.702360 0.000000 
#    z 0.000000 0.000000 1.758610 
# 
# From -- ./inp_files/24460.got.cif
#   From: 2010.05.17/outbox.cif.g08.bks.cpg/sg46_13_cif.got.tgz:24460.got - 2010.06.03 19:58:25.
