data_PCOD9380149
_publ_section_title
;
Structure prediction by ZEFSAII (Michael W. Deem and Ramdas Pophale) SiO2 
 PCOD9380149
Probable space group: I M A 2
;
_chemical_formula_sum "Si O2"
_cell_formula_units_Z 32
_cell_length_a 25.843093
_cell_length_b 8.672201
_cell_length_c 5.186563
_cell_angle_alpha 90.000000
_cell_angle_beta 90.000000
_cell_angle_gamma 90.000000
_cell_volume 1162.394331
_symmetry_space_group_name_H-M "I M A 2"
_symmetry_group_IT_number 46
_symmetry_cell_setting 'orthorhombic'
loop_
_space_group_symop_operation_xyz
x,y,z
-x,-y,z
1/2-x,y,z
1/2+x,-y,z
1/2+x,1/2+y,1/2+z
1/2-x,1/2-y,1/2+z
-x,1/2+y,1/2+z
x,1/2-y,1/2+z
loop_
_atom_site_type_symbol
_atom_site_label
_atom_site_fract_x
_atom_site_fract_y
_atom_site_fract_z
Si Si1 0.250000 0.626205 0.820991
Si Si2 0.250000 0.396489 0.322194
Si Si3 0.130443 0.821297 0.617010
Si Si4 0.864644 0.670629 0.315811
Si Si5 0.508864 0.176455 0.534507
O O1 0.250000 0.754844 0.578761
O O2 0.250000 0.495298 0.585688
O O3 0.250000 0.488508 0.050530
O O4 0.196343 0.307011 0.329180
O O5 0.154144 0.797695 0.329959
O O6 0.070211 0.789042 0.559402
O O7 0.130247 0.991641 0.733362
O O8 0.885770 0.717399 0.593766
O O9 0.487996 0.290801 0.318128
O O10 0.500000 0.000000 0.458093
#
# Coordination Sequence:
#
# PCOD9380149 Si02
#       5
#     4   4   8   8   8
#     4   9  20  35  56  86 114 144 192 242 294 358
#     4  11  22  39  58  84 118 154 198 254 304 350
#     4  10  23  42  61  87 123 159 195 244 297 349
#     4  12  25  41  62  88 118 158 203 249 301 357
#     4  10  21  38  62  91 123 157 195 240 293 349
#
# _framework density 27.52938
#
# number of rings (size 3 to 8) (size 9 to 14) (size 15 to 20)
#    0.000    1.500    0.000    4.500    0.000    8.000 
#    0.000    0.000    0.000    0.000    0.000    0.000 
#    0.000    0.000    0.000    0.000    0.000    0.000 
#
# Total GULP energy -89135.174891 kJ/mol
# GULP energy per Si atom -5570.948431 kJ/mol
# Density = 2.746672 g / cm^3
# Si number density = 27.529380 Si / 1000 Ang^3
#
#
#
# Elastic Constant Matrix: (Units=GPa)
#
#
# Indices 1 2 3 4 5 6 
#
# 1 83.1562 -30.2625 34.6800 0.0001 0.0001 -0.0001
# 2 -30.2625 108.0796 62.1213 0.0003 0.0002 -0.0001
# 3 34.6800 62.1213 264.7362 0.0015 0.0009 -0.0004
# 4 0.0001 0.0003 0.0015 76.3888 0.0004 -0.0001
# 5 0.0001 0.0002 0.0009 0.0004 45.3505 0.0000
# 6 -0.0001 -0.0001 -0.0004 -0.0001 0.0000 34.8070
#
#
#
# Elastic Compliance Matrix: (Units=1/GPa)
#
#
# Indices 1 2 3 4 5 6 
#
# 1 0.015913 0.006535 -0.003618 0.000000 0.000000 0.000000
# 2 0.006535 0.013379 -0.003995 0.000000 0.000000 0.000000
# 3 -0.003618 -0.003995 0.005189 0.000000 0.000000 0.000000
# 4 0.000000 0.000000 0.000000 0.013091 0.000000 0.000000
# 5 0.000000 0.000000 0.000000 0.000000 0.022050 0.000000
# 6 0.000000 0.000000 0.000000 0.000000 0.000000 0.028730
#
#
# Mechanical properties :
#
#
# Convention : Reuss Voigt Hill
#
# Bulk Modulus (GPa) = 30.93706 65.44997 48.19352
# Shear Modulus (GPa) = 44.93050 57.27146 51.10098
#
# Velocity S-wave (km/s) = 4.04430 4.56606 4.31308
# Velocity P-wave (km/s) = 5.75071 7.18504 6.50751
#
# Compressibility (1/GPa) = 0.03232369
#
# Stress axis : x y z
#
# Youngs Moduli (GPa) = 62.84264 74.74512 192.72064
#
# Poissons Ratio (x) = -0.48847 0.69727
# Poissons Ratio (y) = -0.41069 0.77001
# Poissons Ratio (z) = 0.22737 0.29864
#
# Static dielectric constant tensor:
#      x y z
#    x 2.066580 0.000000 0.000000 
#    y 0.000000 2.094110 0.000000 
#    z 0.000000 0.000000 2.155670 
# 
# From -- ./inp_files/2676.got.cif
#   From: 2010.05.17/outbox.cif.g08.bks.cpg/sg46_2_cif.got.tgz:2676.got - 2010.06.03 19:58:25.
