data_PCOD9380199
_publ_section_title
;
Structure prediction by ZEFSAII (Michael W. Deem and Ramdas Pophale) SiO2 
 PCOD9380199
Probable space group: I M A 2
;
_chemical_formula_sum "Si O2"
_cell_formula_units_Z 36
_cell_length_a 11.590195
_cell_length_b 23.779542
_cell_length_c 4.925709
_cell_angle_alpha 90.000000
_cell_angle_beta 90.000000
_cell_angle_gamma 90.000000
_cell_volume 1357.572336
_symmetry_space_group_name_H-M "I M A 2"
_symmetry_group_IT_number 46
_symmetry_cell_setting 'orthorhombic'
loop_
_space_group_symop_operation_xyz
x,y,z
-x,-y,z
1/2-x,y,z
1/2+x,-y,z
1/2+x,1/2+y,1/2+z
1/2-x,1/2-y,1/2+z
-x,1/2+y,1/2+z
x,1/2-y,1/2+z
loop_
_atom_site_type_symbol
_atom_site_label
_atom_site_fract_x
_atom_site_fract_y
_atom_site_fract_z
Si Si1 0.621108 0.324547 0.093230
Si Si2 0.750000 0.620073 0.542238
Si Si3 0.883686 0.101871 0.093686
Si Si4 0.902450 0.782534 0.817306
Si Si5 0.500000 0.500000 0.856439
Si Si6 0.250000 0.042583 0.551204
O O1 0.750000 0.302626 0.093452
O O2 0.614642 0.380683 0.280654
O O3 0.537812 0.284918 0.261417
O O4 0.590000 0.345634 0.794034
O O5 0.644401 0.660175 0.445530
O O6 0.750000 0.597126 0.847748
O O7 0.750000 0.564894 0.357034
O O8 0.750000 0.086144 0.155764
O O9 0.971116 0.053423 0.170112
O O10 0.865606 0.767493 0.513534
O O11 0.624395 0.512519 0.003681
#
# Coordination Sequence:
#
# PCOD9380199 Si02
#       6
#     8   4   8   8   4   4
#     4  10  22  40  62  90 129 175 211 276 338 396
#     4  12  26  49  66 102 132 192 206 299 330 422
#     4  10  21  39  61  88 131 171 224 270 335 390
#     4  12  24  41  68  97 130 171 227 277 331 405
#     4  12  24  46  64 110 124 192 216 304 302 430
#     4  12  28  43  76  96 150 168 248 261 360 380
#
# _framework density 26.517925999999999
#
# number of rings (size 3 to 8) (size 9 to 14) (size 15 to 20)
#    0.000    0.889    1.111    6.000    0.000    4.444 
#    0.000    0.000    0.000    0.000    0.000    0.000 
#    0.000    0.000    0.000    0.000    0.000    0.000 
#
# Total GULP energy -100734.400276 kJ/mol
# GULP energy per Si atom -5596.355571 kJ/mol
# Density = 2.645757 g / cm^3
# Si number density = 26.517926 Si / 1000 Ang^3
#
#
#
# Elastic Constant Matrix: (Units=GPa)
#
#
# Indices 1 2 3 4 5 6 
#
# 1 152.7040 40.2355 26.7539 0.0211 0.0185 0.0001
# 2 40.2355 65.9238 4.7613 -0.0423 0.0424 0.0031
# 3 26.7539 4.7613 110.3661 -0.0127 0.5757 0.0748
# 4 0.0211 -0.0423 -0.0127 28.8415 0.1151 0.0043
# 5 0.0185 0.0424 0.5757 0.1151 110.9190 -0.1141
# 6 0.0001 0.0031 0.0748 0.0043 -0.1141 55.1252
#
#
#
# Elastic Compliance Matrix: (Units=1/GPa)
#
#
# Indices 1 2 3 4 5 6 
#
# 1 0.008132 -0.004836 -0.001763 -0.000014 0.000010 0.000003
# 2 -0.004836 0.018092 0.000392 0.000030 -0.000008 -0.000002
# 3 -0.001763 0.000392 0.009471 0.000006 -0.000049 -0.000013
# 4 -0.000014 0.000030 0.000006 0.034673 -0.000036 -0.000003
# 5 0.000010 -0.000008 -0.000049 -0.000036 0.009016 0.000019
# 6 0.000003 -0.000002 -0.000013 -0.000003 0.000019 0.018141
#
#
# Mechanical properties :
#
#
# Convention : Reuss Voigt Hill
#
# Bulk Modulus (GPa) = 42.95162 52.49949 47.72555
# Shear Modulus (GPa) = 42.48166 56.12669 49.30417
#
# Velocity S-wave (km/s) = 4.00684 4.60560 4.31661
# Velocity P-wave (km/s) = 6.13504 6.93706 6.54834
#
# Compressibility (1/GPa) = 0.02328201
#
# Stress axis : x y z
#
# Youngs Moduli (GPa) = 122.97751 55.27264 105.58111
#
# Poissons Ratio (x) = 0.26728 0.18610
# Poissons Ratio (y) = 0.59468 -0.04136
# Poissons Ratio (z) = 0.21676 -0.02165
#
# Static dielectric constant tensor:
#      x y z
#    x 2.153000 0.000000 0.000040 
#    y 0.000000 2.115420 -0.000030 
#    z 0.000040 -0.000030 1.957890 
# 
# From -- ./inp_files/769.got.cif
#   From: 2010.05.17/outbox.cif.g08.bks.cpg/sg46_1_cif.got.tgz:769.got - 2010.06.03 19:58:25.
