data_PCOD9380453
_publ_section_title
;
Structure prediction by ZEFSAII (Michael W. Deem and Ramdas Pophale) SiO2 
 PCOD9380453
Probable space group: I M A 2
;
_chemical_formula_sum "Si O2"
_cell_formula_units_Z 64
_cell_length_a 18.532673
_cell_length_b 11.911379
_cell_length_c 15.440217
_cell_angle_alpha 90.000000
_cell_angle_beta 90.000000
_cell_angle_gamma 90.000000
_cell_volume 3408.423147
_symmetry_space_group_name_H-M "I M A 2"
_symmetry_group_IT_number 46
_symmetry_cell_setting 'orthorhombic'
loop_
_space_group_symop_operation_xyz
x,y,z
-x,-y,z
1/2-x,y,z
1/2+x,-y,z
1/2+x,1/2+y,1/2+z
1/2-x,1/2-y,1/2+z
-x,1/2+y,1/2+z
x,1/2-y,1/2+z
loop_
_atom_site_type_symbol
_atom_site_label
_atom_site_fract_x
_atom_site_fract_y
_atom_site_fract_z
Si Si1 0.164036 0.777848 0.793470
Si Si2 0.836503 0.046561 0.217143
Si Si3 0.417555 0.315563 0.396871
Si Si4 0.086370 0.008654 0.744883
Si Si5 0.585645 0.503806 0.544933
Si Si6 0.663701 0.581027 0.893602
Si Si7 0.417486 0.963153 0.548987
Si Si8 0.419259 0.766213 0.960282
O O1 0.250000 0.793218 0.790070
O O2 0.143391 0.678197 0.727271
O O3 0.123763 0.895344 0.779128
O O4 0.138369 0.734850 0.887033
O O5 0.750000 0.042035 0.209724
O O6 0.872399 0.990580 0.134349
O O7 0.857378 0.982235 0.304906
O O8 0.401190 0.387261 0.309742
O O9 0.399340 0.396231 0.477959
O O10 0.371080 0.203794 0.394961
O O11 0.502071 0.282063 0.413854
O O12 0.105953 0.009215 0.643099
O O13 0.000000 0.000000 0.746959
O O14 0.500000 0.500000 0.562036
O O15 0.602485 0.385911 0.498995
O O16 0.750000 0.586090 0.897184
O O17 0.632356 0.515174 0.975427
O O18 0.419167 0.828882 0.534131
O O19 0.500000 0.000000 0.534621
#
# Coordination Sequence:
#
# PCOD9380453 Si02
#       8
#     8   8   8   8   8   8   8   8
#     4  11  22  38  65  94 121 161 208 260 320 369
#     4  10  23  42  61  89 125 160 206 259 314 367
#     4  11  22  41  64  90 128 168 206 252 308 378
#     4  11  22  41  65  95 127 163 204 261 316 378
#     4  10  22  39  64  94 121 159 207 257 308 371
#     4  11  25  43  62  89 126 170 212 258 310 375
#     4  11  23  39  67  96 123 164 214 258 317 376
#     4  11  20  40  65  93 125 160 208 259 310 371
#
# _framework density 18.777010000000001
#
# number of rings (size 3 to 8) (size 9 to 14) (size 15 to 20)
#    0.000    1.250    5.000    1.125    0.000    4.500 
#    2.250    1.250    0.000    0.000    0.000    0.000 
#    0.000    0.000    0.000    0.000    0.000    0.000 
#
# Total GULP energy -178616.006249 kJ/mol
# GULP energy per Si atom -5581.750195 kJ/mol
# Density = 1.873427 g / cm^3
# Si number density = 18.777010 Si / 1000 Ang^3
#
#
#
# Elastic Constant Matrix: (Units=GPa)
#
#
# Indices 1 2 3 4 5 6 
#
# 1 39.7779 39.8083 48.8530 0.0000 0.0000 0.0000
# 2 39.8083 127.9174 52.5126 0.0000 0.0000 0.0000
# 3 48.8530 52.5126 121.4872 0.0000 0.0000 0.0000
# 4 0.0000 0.0000 0.0000 -38.3393 0.0000 0.0000
# 5 0.0000 0.0000 0.0000 0.0000 75.5486 0.0000
# 6 0.0000 0.0000 0.0000 0.0000 0.0000 26.1613
#
#
#
# Elastic Compliance Matrix: (Units=1/GPa)
#
#
# Indices 1 2 3 4 5 6 
#
# 1 0.059480 -0.010566 -0.019351 0.000000 0.000000 0.000000
# 2 -0.010566 0.011381 -0.000670 0.000000 0.000000 0.000000
# 3 -0.019351 -0.000670 0.016303 0.000000 0.000000 0.000000
# 4 0.000000 0.000000 0.000000 -0.026083 0.000000 0.000000
# 5 0.000000 0.000000 0.000000 0.000000 0.013237 0.000000
# 6 0.000000 0.000000 0.000000 0.000000 0.000000 0.038224
#
#
# Mechanical properties :
#
#
# Convention : Reuss Voigt Hill
#
# Bulk Modulus (GPa) = 38.47942 63.50337 50.99139
# Shear Modulus (GPa) = 27.41528 22.54136 24.97832
#
# Velocity S-wave (km/s) = 3.82520 3.46855 3.65123
# Velocity P-wave (km/s) = 6.32826 7.06642 6.70750
#
# Compressibility (1/GPa) = 0.02598792
#
# Stress axis : x y z
#
# Youngs Moduli (GPa) = 16.81239 87.86525 61.33967
#
# Poissons Ratio (x) = 0.92842 1.18699
# Poissons Ratio (y) = 0.17765 0.04113
# Poissons Ratio (z) = 0.32534 0.05891
#
# Static dielectric constant tensor:
#      x y z
#    x 1.618660 0.000000 0.000000 
#    y 0.000000 1.670270 0.000000 
#    z 0.000000 0.000000 1.667260 
# 
# From -- ./inp_files/16767.got.cif
#   From: 2010.05.17/outbox.cif.g08.bks.cpg/sg46_9_cif.got.tgz:16767.got - 2010.06.03 19:58:25.
