data_PCOD9380107
_publ_section_title
;
Structure prediction by ZEFSAII (Michael W. Deem and Ramdas Pophale) SiO2 
 PCOD9380107
Probable space group: I M A 2
;
_chemical_formula_sum "Si O2"
_cell_formula_units_Z 32
_cell_length_a 9.043680
_cell_length_b 12.861093
_cell_length_c 12.642370
_cell_angle_alpha 90.000000
_cell_angle_beta 90.000000
_cell_angle_gamma 90.000000
_cell_volume 1470.454403
_symmetry_space_group_name_H-M "I M A 2"
_symmetry_group_IT_number 46
_symmetry_cell_setting 'orthorhombic'
loop_
_space_group_symop_operation_xyz
x,y,z
-x,-y,z
1/2-x,y,z
1/2+x,-y,z
1/2+x,1/2+y,1/2+z
1/2-x,1/2-y,1/2+z
-x,1/2+y,1/2+z
x,1/2-y,1/2+z
loop_
_atom_site_type_symbol
_atom_site_label
_atom_site_fract_x
_atom_site_fract_y
_atom_site_fract_z
Si Si1 0.925024 0.175933 0.310660
Si Si2 0.924524 0.600264 0.599334
Si Si3 0.919725 0.831477 0.516447
Si Si4 0.424181 0.106984 0.759182
O O1 0.750000 0.176324 0.297097
O O2 0.001773 0.116658 0.213944
O O3 0.971624 0.132414 0.424760
O O4 0.991128 0.292662 0.303120
O O5 0.750000 0.583925 0.610597
O O6 0.946114 0.708721 0.538675
O O7 0.000000 0.500000 0.548422
O O8 0.750000 0.844222 0.480449
O O9 0.934736 0.883713 0.631096
O O10 0.250000 0.111366 0.787299
O O11 0.500000 0.000000 0.791928
#
# Coordination Sequence:
#
# PCOD9380107 Si02
#       4
#     8   8   8   8
#     4  11  22  36  57  83 113 147 183 225 272 326
#     4  10  21  38  59  82 111 145 183 228 274 324
#     4   9  20  38  57  79 111 147 183 227 274 322
#     4  10  21  38  59  82 111 145 183 228 274 324
#
# _framework density 21.761980000000001
#
# number of rings (size 3 to 8) (size 9 to 14) (size 15 to 20)
#    0.000    2.000    0.000    5.250    0.000    8.000 
#    0.000    5.000    0.000    0.000    0.000    0.000 
#    0.000    0.000    0.000    0.000    0.000    0.000 
#
# Total GULP energy -89511.297423 kJ/mol
# GULP energy per Si atom -5594.456089 kJ/mol
# Density = 2.171245 g / cm^3
# Si number density = 21.761980 Si / 1000 Ang^3
#
#
#
# Elastic Constant Matrix: (Units=GPa)
#
#
# Indices 1 2 3 4 5 6 
#
# 1 121.4957 30.2522 51.7461 0.0000 0.0000 0.0000
# 2 30.2522 93.7271 -10.0537 0.0000 0.0000 0.0000
# 3 51.7461 -10.0537 81.1472 0.0000 0.0000 0.0000
# 4 0.0000 0.0000 0.0000 -13.7050 0.0000 0.0000
# 5 0.0000 0.0000 0.0000 0.0000 24.6022 0.0000
# 6 0.0000 0.0000 0.0000 0.0000 0.0000 32.9579
#
#
#
# Elastic Compliance Matrix: (Units=1/GPa)
#
#
# Indices 1 2 3 4 5 6 
#
# 1 0.013520 -0.005360 -0.009286 0.000000 0.000000 0.000000
# 2 -0.005360 0.012938 0.005021 0.000000 0.000000 0.000000
# 3 -0.009286 0.005021 0.018867 0.000000 0.000000 0.000000
# 4 0.000000 0.000000 0.000000 -0.072966 0.000000 0.000000
# 5 0.000000 0.000000 0.000000 0.000000 0.040647 0.000000
# 6 0.000000 0.000000 0.000000 0.000000 0.000000 0.030342
#
#
# Mechanical properties :
#
#
# Convention : Reuss Voigt Hill
#
# Bulk Modulus (GPa) = 38.35055 48.91770 43.63413
# Shear Modulus (GPa) = 70.13783 23.73271 46.93527
#
# Velocity S-wave (km/s) = 5.68326 3.30594 4.64913
# Velocity P-wave (km/s) = 7.79275 6.09095 6.99381
#
# Compressibility (1/GPa) = 0.02607524
#
# Stress axis : x y z
#
# Youngs Moduli (GPa) = 73.96347 77.29253 53.00365
#
# Poissons Ratio (x) = 0.41428 0.49217
# Poissons Ratio (y) = 0.39644 -0.26612
# Poissons Ratio (z) = 0.68680 -0.38807
#
# Static dielectric constant tensor:
#      x y z
#    x 1.718820 0.000000 0.000000 
#    y 0.000000 1.827210 0.000000 
#    z 0.000000 0.000000 1.811400 
# 
# From -- ./inp_files/8894.got.cif
#   From: 2010.05.17/outbox.cif.g08.bks.cpg/sg46_5_cif.got.tgz:8894.got - 2010.06.03 19:58:25.
