data_PCOD9380366
_publ_section_title
;
Structure prediction by ZEFSAII (Michael W. Deem and Ramdas Pophale) SiO2 
 PCOD9380366
Probable space group: I M A 2
;
_chemical_formula_sum "Si O2"
_cell_formula_units_Z 48
_cell_length_a 26.146763
_cell_length_b 8.228149
_cell_length_c 9.562085
_cell_angle_alpha 90.000000
_cell_angle_beta 90.000000
_cell_angle_gamma 90.000000
_cell_volume 2057.181821
_symmetry_space_group_name_H-M "I M A 2"
_symmetry_group_IT_number 46
_symmetry_cell_setting 'orthorhombic'
loop_
_space_group_symop_operation_xyz
x,y,z
-x,-y,z
1/2-x,y,z
1/2+x,-y,z
1/2+x,1/2+y,1/2+z
1/2-x,1/2-y,1/2+z
-x,1/2+y,1/2+z
x,1/2-y,1/2+z
loop_
_atom_site_type_symbol
_atom_site_label
_atom_site_fract_x
_atom_site_fract_y
_atom_site_fract_z
Si Si1 0.348497 0.454705 0.317390
Si Si2 0.051069 0.669885 0.314940
Si Si3 0.863033 0.091268 0.398893
Si Si4 0.807900 0.256782 0.658629
Si Si5 0.512781 0.674133 0.593593
Si Si6 0.131378 0.252759 0.061901
O O1 0.406687 0.527109 0.309967
O O2 0.313318 0.598520 0.260057
O O3 0.344322 0.308777 0.206887
O O4 0.341212 0.387207 0.472502
O O5 0.085081 0.829631 0.343264
O O6 0.011310 0.663497 0.440356
O O7 0.018796 0.689505 0.175230
O O8 0.842643 0.208857 0.525078
O O9 0.826901 0.102025 0.262579
O O10 0.868914 0.915205 0.465902
O O11 0.750000 0.279222 0.612784
O O12 0.500000 0.500000 0.662232
O O13 0.572921 0.702210 0.589564
#
# Coordination Sequence:
#
# PCOD9380366 Si02
#       6
#     8   8   8   8   8   8
#     4  10  23  42  60  87 130 167 207 268 331 379
#     4  11  24  42  58  91 128 171 225 263 318 375
#     4  10  23  40  67  94 126 171 210 273 333 385
#     4  10  21  43  69  97 126 163 214 270 333 414
#     4  12  25  38  62  91 127 178 227 267 306 378
#     4  11  23  39  60  89 127 171 213 266 323 370
#
# _framework density 23.332889999999999
#
# number of rings (size 3 to 8) (size 9 to 14) (size 15 to 20)
#    0.000    1.333    1.667    4.500    4.667    4.000 
#    0.000    4.167    0.000    0.000    0.000    0.000 
#    0.000    0.000    0.000    0.000    0.000    0.000 
#
# Total GULP energy -134305.086415 kJ/mol
# GULP energy per Si atom -5596.045267 kJ/mol
# Density = 2.327978 g / cm^3
# Si number density = 23.332890 Si / 1000 Ang^3
#
#
#
# Elastic Constant Matrix: (Units=GPa)
#
#
# Indices 1 2 3 4 5 6 
#
# 1 52.1143 -4.5922 -0.1420 0.0000 0.0000 0.0000
# 2 -4.5922 62.9064 20.9289 0.0000 0.0000 0.0000
# 3 -0.1420 20.9289 109.5567 0.0000 0.0000 0.0000
# 4 0.0000 0.0000 0.0000 48.0947 0.0000 0.0000
# 5 0.0000 0.0000 0.0000 0.0000 20.7881 0.0000
# 6 0.0000 0.0000 0.0000 0.0000 0.0000 4.1643
#
#
#
# Elastic Compliance Matrix: (Units=1/GPa)
#
#
# Indices 1 2 3 4 5 6 
#
# 1 0.019320 0.001497 -0.000261 0.000000 0.000000 0.000000
# 2 0.001497 0.017092 -0.003263 0.000000 0.000000 0.000000
# 3 -0.000261 -0.003263 0.009751 0.000000 0.000000 0.000000
# 4 0.000000 0.000000 0.000000 0.020792 0.000000 0.000000
# 5 0.000000 0.000000 0.000000 0.000000 0.048104 0.000000
# 6 0.000000 0.000000 0.000000 0.000000 0.000000 0.240136
#
#
# Mechanical properties :
#
#
# Convention : Reuss Voigt Hill
#
# Bulk Modulus (GPa) = 23.74827 28.55185 26.15006
# Shear Modulus (GPa) = 13.39460 28.50160 20.94810
#
# Velocity S-wave (km/s) = 2.39857 3.49882 2.99957
# Velocity P-wave (km/s) = 4.22740 5.34655 4.81957
#
# Compressibility (1/GPa) = 0.04210833
#
# Stress axis : x y z
#
# Youngs Moduli (GPa) = 51.76033 58.50839 102.55663
#
# Poissons Ratio (x) = -0.08760 0.02676
# Poissons Ratio (y) = -0.07749 0.33465
# Poissons Ratio (z) = 0.01351 0.19092
#
# Static dielectric constant tensor:
#      x y z
#    x 1.855160 0.000000 0.000000 
#    y 0.000000 1.969890 0.000000 
#    z 0.000000 0.000000 1.901500 
# 
# From -- ./inp_files/8397.got.cif
#   From: 2010.05.17/outbox.cif.g08.bks.cpg/sg46_5_cif.got.tgz:8397.got - 2010.06.03 19:58:25.
