data_PCOD9380413
_publ_section_title
;
Structure prediction by ZEFSAII (Michael W. Deem and Ramdas Pophale) SiO2 
 PCOD9380413
Probable space group: I M A 2
;
_chemical_formula_sum "Si O2"
_cell_formula_units_Z 64
_cell_length_a 18.300790
_cell_length_b 15.668069
_cell_length_c 11.905883
_cell_angle_alpha 90.000000
_cell_angle_beta 90.000000
_cell_angle_gamma 90.000000
_cell_volume 3413.869562
_symmetry_space_group_name_H-M "I M A 2"
_symmetry_group_IT_number 46
_symmetry_cell_setting 'orthorhombic'
loop_
_space_group_symop_operation_xyz
x,y,z
-x,-y,z
1/2-x,y,z
1/2+x,-y,z
1/2+x,1/2+y,1/2+z
1/2-x,1/2-y,1/2+z
-x,1/2+y,1/2+z
x,1/2-y,1/2+z
loop_
_atom_site_type_symbol
_atom_site_label
_atom_site_fract_x
_atom_site_fract_y
_atom_site_fract_z
Si Si1 0.952837 0.327982 0.209510
Si Si2 0.578096 0.899717 0.415552
Si Si3 0.167043 0.804679 0.292863
Si Si4 0.976407 0.404146 0.440996
Si Si5 0.424888 0.237365 0.064572
Si Si6 0.167963 0.576796 0.572733
Si Si7 0.089510 0.588253 0.976990
Si Si8 0.834189 0.604939 0.686514
O O1 0.892954 0.266393 0.265488
O O2 0.977968 0.390842 0.307669
O O3 0.021224 0.274986 0.160217
O O4 0.919325 0.376192 0.102127
O O5 0.597923 0.815015 0.484256
O O6 0.489680 0.900545 0.416615
O O7 0.611956 0.900989 0.292271
O O8 0.603886 0.987274 0.474636
O O9 0.250000 0.771786 0.300478
O O10 0.163560 0.869921 0.188018
O O11 0.145932 0.856833 0.404546
O O12 0.894887 0.392914 0.489555
O O13 0.000000 0.500000 0.470937
O O14 0.027801 0.332748 0.496750
O O15 0.357154 0.188441 0.118350
O O16 0.250000 0.587145 0.526645
O O17 0.157088 0.478420 0.608473
O O18 0.750000 0.606877 0.723934
#
# Coordination Sequence:
#
# PCOD9380413 Si02
#       8
#     8   8   8   8   8   8   8   8
#     4  11  24  40  60  93 127 158 202 250 308 371
#     4  10  22  38  62  89 119 157 206 259 298 361
#     4  11  22  39  64  92 122 158 204 254 306 372
#     4  12  24  39  64  92 125 167 202 253 309 374
#     4  11  22  40  62  90 120 161 208 259 310 357
#     4  10  22  40  61  89 122 160 203 250 304 366
#     4  10  22  40  63  90 122 161 199 251 311 363
#     4  11  22  39  61  87 119 157 206 256 304 359
#
# _framework density 18.747055
#
# number of rings (size 3 to 8) (size 9 to 14) (size 15 to 20)
#    0.000    1.250    3.750    3.000    3.500    1.500 
#    0.000    0.000    0.000    0.000    0.000    0.000 
#    0.000    0.000    0.000    0.000    0.000    0.000 
#
# Total GULP energy -178802.326275 kJ/mol
# GULP energy per Si atom -5587.572696 kJ/mol
# Density = 1.870439 g / cm^3
# Si number density = 18.747055 Si / 1000 Ang^3
#
#
#
# Elastic Constant Matrix: (Units=GPa)
#
#
# Indices 1 2 3 4 5 6 
#
# 1 36.8880 6.5334 22.8737 0.0000 0.0000 0.0000
# 2 6.5334 81.1282 12.5607 0.0000 0.0000 0.0000
# 3 22.8737 12.5607 74.0609 0.0000 0.0000 0.0000
# 4 0.0000 0.0000 0.0000 24.7838 0.0000 0.0000
# 5 0.0000 0.0000 0.0000 0.0000 16.1699 0.0000
# 6 0.0000 0.0000 0.0000 0.0000 0.0000 6.9620
#
#
#
# Elastic Compliance Matrix: (Units=1/GPa)
#
#
# Indices 1 2 3 4 5 6 
#
# 1 0.033631 -0.001130 -0.010195 0.000000 0.000000 0.000000
# 2 -0.001130 0.012697 -0.001804 0.000000 0.000000 0.000000
# 3 -0.010195 -0.001804 0.016957 0.000000 0.000000 0.000000
# 4 0.000000 0.000000 0.000000 0.040349 0.000000 0.000000
# 5 0.000000 0.000000 0.000000 0.000000 0.061843 0.000000
# 6 0.000000 0.000000 0.000000 0.000000 0.000000 0.143638
#
#
# Mechanical properties :
#
#
# Convention : Reuss Voigt Hill
#
# Bulk Modulus (GPa) = 27.00819 30.66806 28.83813
# Shear Modulus (GPa) = 14.37955 19.59043 16.98499
#
# Velocity S-wave (km/s) = 2.77254 3.23613 3.01326
# Velocity P-wave (km/s) = 4.96862 5.50979 5.24619
#
# Compressibility (1/GPa) = 0.03702580
#
# Stress axis : x y z
#
# Youngs Moduli (GPa) = 29.73426 78.76175 58.97178
#
# Poissons Ratio (x) = 0.08899 0.60124
# Poissons Ratio (y) = 0.03360 0.10641
# Poissons Ratio (z) = 0.30315 0.14211
#
# Static dielectric constant tensor:
#      x y z
#    x 1.634680 0.000000 0.000000 
#    y 0.000000 1.661280 0.000000 
#    z 0.000000 0.000000 1.626850 
# 
# From -- ./inp_files/11972.got.cif
#   From: 2010.05.17/outbox.cif.g08.bks.cpg/sg46_6_cif.got.tgz:11972.got - 2010.06.03 19:58:25.
