data_PCOD9380353
_publ_section_title
;
Structure prediction by ZEFSAII (Michael W. Deem and Ramdas Pophale) SiO2 
 PCOD9380353
Probable space group: I M A 2
;
_chemical_formula_sum "Si O2"
_cell_formula_units_Z 28
_cell_length_a 9.413931
_cell_length_b 7.089605
_cell_length_c 18.947660
_cell_angle_alpha 90.000000
_cell_angle_beta 90.000000
_cell_angle_gamma 90.000000
_cell_volume 1264.586767
_symmetry_space_group_name_H-M "I M A 2"
_symmetry_group_IT_number 46
_symmetry_cell_setting 'orthorhombic'
loop_
_space_group_symop_operation_xyz
x,y,z
-x,-y,z
1/2-x,y,z
1/2+x,-y,z
1/2+x,1/2+y,1/2+z
1/2-x,1/2-y,1/2+z
-x,1/2+y,1/2+z
x,1/2-y,1/2+z
loop_
_atom_site_type_symbol
_atom_site_label
_atom_site_fract_x
_atom_site_fract_y
_atom_site_fract_z
Si Si1 0.500000 0.500000 0.309840
Si Si2 0.584095 0.803062 0.196933
Si Si3 0.408497 0.666183 0.904325
Si Si4 0.422055 0.798927 0.059743
O O1 0.578139 0.649017 0.258939
O O2 0.585263 0.360825 0.361554
O O3 0.750000 0.843183 0.180881
O O4 0.498749 0.720196 0.129402
O O5 0.500000 0.000000 0.212432
O O6 0.500000 0.500000 0.871949
O O7 0.250000 0.593761 0.904683
O O8 0.451852 0.700804 0.985252
O O9 0.250000 0.809869 0.067809
O O10 0.500000 0.000000 0.053149
#
# Coordination Sequence:
#
# PCOD9380353 Si02
#       4
#     4   8   8   8
#     4  12  26  46  70 102 138 184 228 282 338 408
#     4  11  25  44  70 102 139 180 227 282 339 406
#     4  11  26  45  69 102 138 180 229 283 341 405
#     4  10  21  42  70 101 137 179 227 280 338 405
#
# _framework density 22.141622000000002
#
# number of rings (size 3 to 8) (size 9 to 14) (size 15 to 20)
#    0.000    1.143    1.429    5.143    2.000   11.429 
#    0.000    0.000    0.000    0.000    0.000    0.000 
#    0.000    0.000    0.000    0.000    0.000    0.000 
#
# Total GULP energy -78144.430874 kJ/mol
# GULP energy per Si atom -5581.745062 kJ/mol
# Density = 2.209123 g / cm^3
# Si number density = 22.141622 Si / 1000 Ang^3
#
#
#
# Elastic Constant Matrix: (Units=GPa)
#
#
# Indices 1 2 3 4 5 6 
#
# 1 95.5101 48.9960 56.4049 0.0000 0.0000 0.0000
# 2 48.9960 134.1045 50.9643 0.0000 0.0000 0.0000
# 3 56.4049 50.9643 153.0084 0.0000 0.0000 0.0000
# 4 0.0000 0.0000 0.0000 -3.4348 0.0000 0.0000
# 5 0.0000 0.0000 0.0000 0.0000 213.3720 0.0000
# 6 0.0000 0.0000 0.0000 0.0000 0.0000 19.6556
#
#
#
# Elastic Compliance Matrix: (Units=1/GPa)
#
#
# Indices 1 2 3 4 5 6 
#
# 1 0.014942 -0.003854 -0.004225 0.000000 0.000000 0.000000
# 2 -0.003854 0.009531 -0.001754 0.000000 0.000000 0.000000
# 3 -0.004225 -0.001754 0.008677 0.000000 0.000000 0.000000
# 4 0.000000 0.000000 0.000000 -0.291138 0.000000 0.000000
# 5 0.000000 0.000000 0.000000 0.000000 0.004687 0.000000
# 6 0.000000 0.000000 0.000000 0.000000 0.000000 0.050876
#
#
# Mechanical properties :
#
#
# Convention : Reuss Voigt Hill
#
# Bulk Modulus (GPa) = 74.15203 77.26148 75.70676
# Shear Modulus (GPa) = -28.04819 61.00243 16.47712
#
# Velocity S-wave (km/s) = -3.56302 5.25460 2.73091
# Velocity P-wave (km/s) = 4.07869 8.47257 6.64907
#
# Compressibility (1/GPa) = 0.01348581
#
# Stress axis : x y z
#
# Youngs Moduli (GPa) = 66.92605 104.91578 115.24431
#
# Poissons Ratio (x) = 0.40431 0.48686
# Poissons Ratio (y) = 0.25791 0.20216
# Poissons Ratio (z) = 0.28273 0.18404
#
# Static dielectric constant tensor:
#      x y z
#    x 1.746950 0.000000 0.000000 
#    y 0.000000 1.810730 0.000000 
#    z 0.000000 0.000000 1.887090 
# 
# From -- ./inp_files/17871.got.cif
#   From: 2010.05.17/outbox.cif.g08.bks.cpg/sg46_9_cif.got.tgz:17871.got - 2010.06.03 19:58:25.
