data_PCOD9380277
_publ_section_title
;
Structure prediction by ZEFSAII (Michael W. Deem and Ramdas Pophale) SiO2 
 PCOD9380277
Probable space group: I M A 2
;
_chemical_formula_sum "Si O2"
_cell_formula_units_Z 60
_cell_length_a 8.993251
_cell_length_b 27.120505
_cell_length_c 11.270818
_cell_angle_alpha 90.000000
_cell_angle_beta 90.000000
_cell_angle_gamma 90.000000
_cell_volume 2748.969515
_symmetry_space_group_name_H-M "I M A 2"
_symmetry_group_IT_number 46
_symmetry_cell_setting 'orthorhombic'
loop_
_space_group_symop_operation_xyz
x,y,z
-x,-y,z
1/2-x,y,z
1/2+x,-y,z
1/2+x,1/2+y,1/2+z
1/2-x,1/2-y,1/2+z
-x,1/2+y,1/2+z
x,1/2-y,1/2+z
loop_
_atom_site_type_symbol
_atom_site_label
_atom_site_fract_x
_atom_site_fract_y
_atom_site_fract_z
Si Si1 0.080094 0.903919 0.111240
Si Si2 0.409583 0.069597 0.320891
Si Si3 0.000000 0.500000 0.004006
Si Si4 0.572550 0.594668 0.146484
Si Si5 0.920220 0.447262 0.350724
Si Si6 0.924296 0.348162 0.955758
Si Si7 0.071015 0.202201 0.071646
Si Si8 0.071016 0.256689 0.826114
O O1 0.250000 0.901355 0.156701
O O2 0.971002 0.937149 0.190858
O O3 0.011418 0.849001 0.102140
O O4 0.085242 0.928866 0.984006
O O5 0.250000 0.095989 0.318918
O O6 0.392072 0.022939 0.405433
O O7 0.534620 0.103389 0.380605
O O8 0.012257 0.546795 0.090573
O O9 0.750000 0.588838 0.133991
O O10 0.518259 0.592522 0.279821
O O11 0.515599 0.642118 0.076442
O O12 0.750000 0.450379 0.305505
O O13 0.000000 0.500000 0.342195
O O14 0.750000 0.343378 0.977474
O O15 0.990354 0.304297 0.879674
O O16 0.250000 0.195373 0.075172
O O17 0.035424 0.240600 0.182507
O O18 0.033216 0.217946 0.934477
O O19 0.250000 0.260448 0.831059
#
# Coordination Sequence:
#
# PCOD9380277 Si02
#       8
#     8   8   4   8   8   8   8   8
#     4  11  25  43  63  92 127 164 209 261 318 375
#     4  11  23  39  62  89 122 164 209 258 312 371
#     4  10  22  36  58  92 120 158 208 264 310 364
#     4  11  23  40  64  91 126 169 212 262 314 374
#     4  11  25  43  63  90 126 168 212 260 313 376
#     4  11  22  37  62  94 127 163 203 258 316 371
#     4  10  22  41  67  94 126 166 210 261 319 386
#     4  10  21  40  64  94 127 165 212 261 317 389
#
# _framework density 21.826359
#
# number of rings (size 3 to 8) (size 9 to 14) (size 15 to 20)
#    0.000    1.333    2.000    4.000    0.933    9.600 
#    0.000    1.333    0.000    0.000    0.000    0.000 
#    0.000    0.000    0.000    0.000    0.000    0.000 
#
# Total GULP energy -167053.449687 kJ/mol
# GULP energy per Si atom -5568.448323 kJ/mol
# Density = 2.177668 g / cm^3
# Si number density = 21.826359 Si / 1000 Ang^3
#
#
#
# Elastic Constant Matrix: (Units=GPa)
#
#
# Indices 1 2 3 4 5 6 
#
# 1 39.7764 18.9974 29.6493 -0.0001 -0.0002 0.0001
# 2 18.9974 35.2268 2.5838 -0.0001 0.0000 0.0002
# 3 29.6493 2.5838 91.1123 0.0015 0.0004 0.0003
# 4 -0.0001 -0.0001 0.0015 29.8665 0.0002 -0.0001
# 5 -0.0002 0.0000 0.0004 0.0002 55.1179 -0.0002
# 6 0.0001 0.0002 0.0003 -0.0001 -0.0002 -1.8756
#
#
#
# Elastic Compliance Matrix: (Units=1/GPa)
#
#
# Indices 1 2 3 4 5 6 
#
# 1 0.048192 -0.024891 -0.014977 0.000001 0.000000 -0.000003
# 2 -0.024891 0.041303 0.006929 0.000000 0.000000 0.000004
# 3 -0.014977 0.006929 0.015653 -0.000001 0.000000 0.000003
# 4 0.000001 0.000000 -0.000001 0.033482 0.000000 -0.000002
# 5 0.000000 0.000000 0.000000 0.000000 0.018143 -0.000002
# 6 -0.000003 0.000004 0.000003 -0.000002 -0.000002 -0.533153
#
#
# Mechanical properties :
#
#
# Convention : Reuss Voigt Hill
#
# Bulk Modulus (GPa) = 25.46502 29.84183 27.65342
# Shear Modulus (GPa) = -16.81167 24.28075 3.73454
#
# Velocity S-wave (km/s) = -2.77834 3.33896 1.30948
# Velocity P-wave (km/s) = 1.18329 5.34481 3.87086
#
# Compressibility (1/GPa) = 0.03926956
#
# Stress axis : x y z
#
# Youngs Moduli (GPa) = 20.75023 24.21145 63.88721
#
# Poissons Ratio (x) = 0.60265 0.95681
# Poissons Ratio (y) = 0.51650 -0.44265
# Poissons Ratio (z) = 0.31077 -0.16775
#
# Static dielectric constant tensor:
#      x y z
#    x 1.671270 0.000000 0.000000 
#    y 0.000000 1.845290 0.000000 
#    z 0.000000 0.000000 1.914000 
# 
# From -- ./inp_files/9531.got.cif
#   From: 2010.05.17/outbox.cif.g08.bks.cpg/sg46_5_cif.got.tgz:9531.got - 2010.06.03 19:58:25.
