data_PCOD9380526
_publ_section_title
;
Structure prediction by ZEFSAII (Michael W. Deem and Ramdas Pophale) SiO2 
 PCOD9380526
Probable space group: I M A 2
;
_chemical_formula_sum "Si O2"
_cell_formula_units_Z 48
_cell_length_a 14.833972
_cell_length_b 14.634958
_cell_length_c 9.900624
_cell_angle_alpha 90.000000
_cell_angle_beta 90.000000
_cell_angle_gamma 90.000000
_cell_volume 2149.371583
_symmetry_space_group_name_H-M "I M A 2"
_symmetry_group_IT_number 46
_symmetry_cell_setting 'orthorhombic'
loop_
_space_group_symop_operation_xyz
x,y,z
-x,-y,z
1/2-x,y,z
1/2+x,-y,z
1/2+x,1/2+y,1/2+z
1/2-x,1/2-y,1/2+z
-x,1/2+y,1/2+z
x,1/2-y,1/2+z
loop_
_atom_site_type_symbol
_atom_site_label
_atom_site_fract_x
_atom_site_fract_y
_atom_site_fract_z
Si Si1 0.447965 0.149910 0.487400
Si Si2 0.152149 0.841378 0.110143
Si Si3 0.355688 0.460450 0.490465
Si Si4 0.545862 0.676606 0.686778
Si Si5 0.150412 0.863102 0.524208
Si Si6 0.854323 0.977226 0.695642
O O1 0.441295 0.234106 0.593008
O O2 0.415059 0.178673 0.338354
O O3 0.551389 0.118108 0.467685
O O4 0.396324 0.069656 0.564706
O O5 0.250000 0.847229 0.180508
O O6 0.061940 0.835708 0.196123
O O7 0.153959 0.746178 0.030437
O O8 0.143334 0.931511 0.019967
O O9 0.250000 0.432051 0.496580
O O10 0.411064 0.406416 0.602601
O O11 0.393917 0.447196 0.339238
O O12 0.250000 0.895121 0.474265
O O13 0.142806 0.913721 0.670438
O O14 0.750000 0.950740 0.701403
#
# Coordination Sequence:
#
# PCOD9380526 Si02
#       6
#     8   8   8   8   8   8
#     4  11  24  41  63  91 123 162 206 254 308 363
#     4   9  20  38  61  91 125 159 198 245 298 359
#     4  10  22  41  65  92 123 162 206 252 305 364
#     4  11  24  41  63  91 123 162 206 254 308 363
#     4   9  20  38  61  91 125 159 198 245 298 359
#     4  10  22  41  65  92 123 162 206 252 305 364
#
# _framework density 22.332108999999999
#
# number of rings (size 3 to 8) (size 9 to 14) (size 15 to 20)
#    0.000    2.000    0.000    2.000    0.000   12.667 
#    0.000   10.000    0.000    0.000    0.000    0.000 
#    0.000    0.000    0.000    0.000    0.000    0.000 
#
# Total GULP energy -133765.972435 kJ/mol
# GULP energy per Si atom -5573.582185 kJ/mol
# Density = 2.228128 g / cm^3
# Si number density = 22.332109 Si / 1000 Ang^3
#
#
#
# Elastic Constant Matrix: (Units=GPa)
#
#
# Indices 1 2 3 4 5 6 
#
# 1 55.8275 19.9996 0.9499 0.0000 0.0000 0.0000
# 2 19.9996 97.5461 41.5122 0.0000 0.0000 0.0000
# 3 0.9499 41.5122 129.3161 0.0000 0.0000 0.0000
# 4 0.0000 0.0000 0.0000 2.9115 0.0000 0.0000
# 5 0.0000 0.0000 0.0000 0.0000 3.3656 0.0000
# 6 0.0000 0.0000 0.0000 0.0000 0.0000 26.8907
#
#
#
# Elastic Compliance Matrix: (Units=1/GPa)
#
#
# Indices 1 2 3 4 5 6 
#
# 1 0.019526 -0.004566 0.001322 0.000000 0.000000 0.000000
# 2 -0.004566 0.012941 -0.004121 0.000000 0.000000 0.000000
# 3 0.001322 -0.004121 0.009046 0.000000 0.000000 0.000000
# 4 0.000000 0.000000 0.000000 0.343464 0.000000 0.000000
# 5 0.000000 0.000000 0.000000 0.000000 0.297120 0.000000
# 6 0.000000 0.000000 0.000000 0.000000 0.000000 0.037188
#
#
# Mechanical properties :
#
#
# Convention : Reuss Voigt Hill
#
# Bulk Modulus (GPa) = 37.33566 45.29034 41.31300
# Shear Modulus (GPa) = 6.73001 21.31544 14.02272
#
# Velocity S-wave (km/s) = 1.73786 3.09281 2.50855
# Velocity P-wave (km/s) = 4.55868 5.75138 5.18941
#
# Compressibility (1/GPa) = 0.02678405
#
# Stress axis : x y z
#
# Youngs Moduli (GPa) = 51.21498 77.27145 110.54475
#
# Poissons Ratio (x) = 0.35282 -0.14617
# Poissons Ratio (y) = 0.23385 0.45553
# Poissons Ratio (z) = -0.06772 0.31842
#
# Static dielectric constant tensor:
#      x y z
#    x 1.857160 0.000000 0.000000 
#    y 0.000000 1.834620 0.000000 
#    z 0.000000 0.000000 1.844680 
# 
# From -- ./inp_files/6619.got.cif
#   From: 2010.05.17/outbox.cif.g08.bks.cpg/sg46_4_cif.got.tgz:6619.got - 2010.06.03 19:58:25.
