data_PCOD9380424
_publ_section_title
;
Structure prediction by ZEFSAII (Michael W. Deem and Ramdas Pophale) SiO2 
 PCOD9380424
Probable space group: I M A 2
;
_chemical_formula_sum "Si O2"
_cell_formula_units_Z 56
_cell_length_a 21.176920
_cell_length_b 12.769897
_cell_length_c 9.873891
_cell_angle_alpha 90.000000
_cell_angle_beta 90.000000
_cell_angle_gamma 90.000000
_cell_volume 2670.167582
_symmetry_space_group_name_H-M "I M A 2"
_symmetry_group_IT_number 46
_symmetry_cell_setting 'orthorhombic'
loop_
_space_group_symop_operation_xyz
x,y,z
-x,-y,z
1/2-x,y,z
1/2+x,-y,z
1/2+x,1/2+y,1/2+z
1/2-x,1/2-y,1/2+z
-x,1/2+y,1/2+z
x,1/2-y,1/2+z
loop_
_atom_site_type_symbol
_atom_site_label
_atom_site_fract_x
_atom_site_fract_y
_atom_site_fract_z
Si Si1 0.924296 0.511775 0.326520
Si Si2 0.381054 0.325147 0.100697
Si Si3 0.886893 0.578511 0.625709
Si Si4 0.067444 0.032855 0.404363
Si Si5 0.678514 0.368833 0.953327
Si Si6 0.750000 0.695208 0.976210
Si Si7 0.822434 0.331383 0.264869
Si Si8 0.250000 0.109998 0.168563
O O1 0.901649 0.600958 0.222205
O O2 0.909119 0.546376 0.478938
O O3 0.879151 0.411288 0.300071
O O4 0.000000 0.500000 0.310672
O O5 0.385412 0.204327 0.136788
O O6 0.420952 0.353500 0.968012
O O7 0.310903 0.350523 0.049448
O O8 0.930409 0.535640 0.743587
O O9 0.814663 0.546018 0.659168
O O10 0.123511 0.954887 0.447309
O O11 0.000000 0.000000 0.457792
O O12 0.750000 0.412705 0.934391
O O13 0.668544 0.277633 0.843442
O O14 0.676360 0.318697 0.102925
O O15 0.750000 0.674621 0.813466
O O16 0.750000 0.815449 0.033111
O O17 0.750000 0.369116 0.298917
#
# Coordination Sequence:
#
# PCOD9380424 Si02
#       8
#     8   8   8   8   8   4   8   4
#     4  12  27  46  67 104 139 181 235 284 346 416
#     4  11  24  43  70  98 141 180 222 275 350 419
#     4  11  26  43  68 101 141 179 222 279 346 416
#     4  12  25  44  67 102 133 182 232 280 348 413
#     4  10  24  45  72  98 133 177 232 288 338 399
#     4  10  22  38  66 100 135 172 225 269 335 422
#     4  10  24  46  71 100 131 179 233 285 341 395
#     4  10  22  40  64 102 131 176 225 267 341 414
#
# _framework density 20.972466000000001
#
# number of rings (size 3 to 8) (size 9 to 14) (size 15 to 20)
#    0.000    1.143    2.857    1.714   12.000    2.286 
#    0.000    0.000    0.000    0.000    0.000    0.000 
#    0.000    0.000    0.000    0.000    0.000    0.000 
#
# Total GULP energy -156402.469042 kJ/mol
# GULP energy per Si atom -5585.802466 kJ/mol
# Density = 2.092473 g / cm^3
# Si number density = 20.972466 Si / 1000 Ang^3
#
#
#
# Elastic Constant Matrix: (Units=GPa)
#
#
# Indices 1 2 3 4 5 6 
#
# 1 130.1166 34.5136 4.6006 0.0000 0.0000 0.0000
# 2 34.5136 54.3855 7.3540 0.0000 0.0000 0.0000
# 3 4.6006 7.3540 104.8943 0.0000 0.0000 0.0000
# 4 0.0000 0.0000 0.0000 36.9335 0.0000 0.0000
# 5 0.0000 0.0000 0.0000 0.0000 36.9435 0.0000
# 6 0.0000 0.0000 0.0000 0.0000 0.0000 5.9855
#
#
#
# Elastic Compliance Matrix: (Units=1/GPa)
#
#
# Indices 1 2 3 4 5 6 
#
# 1 0.009241 -0.005865 0.000006 0.000000 0.000000 0.000000
# 2 -0.005865 0.022286 -0.001305 0.000000 0.000000 0.000000
# 3 0.000006 -0.001305 0.009625 0.000000 0.000000 0.000000
# 4 0.000000 0.000000 0.000000 0.027076 0.000000 0.000000
# 5 0.000000 0.000000 0.000000 0.000000 0.027068 0.000000
# 6 0.000000 0.000000 0.000000 0.000000 0.000000 0.167070
#
#
# Mechanical properties :
#
#
# Convention : Reuss Voigt Hill
#
# Bulk Modulus (GPa) = 37.28218 42.48145 39.88181
# Shear Modulus (GPa) = 17.50486 32.16773 24.83629
#
# Velocity S-wave (km/s) = 2.89218 3.92063 3.44500
# Velocity P-wave (km/s) = 5.38222 6.38709 5.90607
#
# Compressibility (1/GPa) = 0.02682247
#
# Stress axis : x y z
#
# Youngs Moduli (GPa) = 108.21393 44.87152 103.89989
#
# Poissons Ratio (x) = 0.26318 -0.00061
# Poissons Ratio (y) = 0.63470 0.13561
# Poissons Ratio (z) = -0.00064 0.05857
#
# Static dielectric constant tensor:
#      x y z
#    x 1.618630 0.000000 0.000000 
#    y 0.000000 1.765990 0.000000 
#    z 0.000000 0.000000 1.734760 
# 
# From -- ./inp_files/7448.got.cif
#   From: 2010.05.17/outbox.cif.g08.bks.cpg/sg46_4_cif.got.tgz:7448.got - 2010.06.03 19:58:25.
