data_PCOD9380382
_publ_section_title
;
Structure prediction by ZEFSAII (Michael W. Deem and Ramdas Pophale) SiO2 
 PCOD9380382
Probable space group: I M A 2
;
_chemical_formula_sum "Si O2"
_cell_formula_units_Z 44
_cell_length_a 12.474551
_cell_length_b 22.739896
_cell_length_c 8.895885
_cell_angle_alpha 90.000000
_cell_angle_beta 90.000000
_cell_angle_gamma 90.000000
_cell_volume 2523.495630
_symmetry_space_group_name_H-M "I M A 2"
_symmetry_group_IT_number 46
_symmetry_cell_setting 'orthorhombic'
loop_
_space_group_symop_operation_xyz
x,y,z
-x,-y,z
1/2-x,y,z
1/2+x,-y,z
1/2+x,1/2+y,1/2+z
1/2-x,1/2-y,1/2+z
-x,1/2+y,1/2+z
x,1/2-y,1/2+z
loop_
_atom_site_type_symbol
_atom_site_label
_atom_site_fract_x
_atom_site_fract_y
_atom_site_fract_z
Si Si1 0.964923 0.432932 0.848100
Si Si2 0.874179 0.834466 0.450644
Si Si3 0.750000 0.108636 0.495604
Si Si4 0.427721 0.850982 0.071796
Si Si5 0.250000 0.786522 0.266630
Si Si6 0.375081 0.222480 0.123171
Si Si7 0.250000 0.648166 0.331679
O O1 0.854061 0.424485 0.935253
O O2 0.948842 0.405977 0.681193
O O3 0.000000 0.500000 0.843758
O O4 0.050776 0.390310 0.928897
O O5 0.750000 0.852013 0.464486
O O6 0.884338 0.795573 0.297730
O O7 0.902177 0.789927 0.585116
O O8 0.750000 0.172997 0.415420
O O9 0.750000 0.116742 0.672605
O O10 0.353811 0.806035 0.170192
O O11 0.539818 0.819006 0.039081
O O12 0.355236 0.866367 0.929580
O O13 0.250000 0.718449 0.304754
O O14 0.250000 0.213796 0.078834
#
# Coordination Sequence:
#
# PCOD9380382 Si02
#       7
#     8   8   4   8   4   8   4
#     4  10  22  39  58  78 108 149 194 230 262 334
#     4   9  19  33  54  82 107 140 176 222 279 324
#     4  10  22  36  56  88 110 142 189 229 281 325
#     4   9  20  34  54  83 112 151 186 219 286 332
#     4   9  19  33  53  85 119 147 175 219 283 344
#     4   9  18  32  50  79 114 138 176 224 272 334
#     4  11  21  33  57  85 119 143 174 238 286 337
#
# _framework density 17.436131
#
# number of rings (size 3 to 8) (size 9 to 14) (size 15 to 20)
#    0.000    2.545    0.000    1.636   11.455    0.000 
#    0.000    0.909    0.000    0.000    0.000    0.000 
#    0.000    0.000    0.000    0.000    0.000    0.000 
#
# Total GULP energy -122738.919069 kJ/mol
# GULP energy per Si atom -5579.041776 kJ/mol
# Density = 1.739645 g / cm^3
# Si number density = 17.436131 Si / 1000 Ang^3
#
#
#
# Elastic Constant Matrix: (Units=GPa)
#
#
# Indices 1 2 3 4 5 6 
#
# 1 105.2592 77.5121 39.7103 -0.0003 0.0000 0.0000
# 2 77.5121 140.5745 43.0964 -0.0003 0.0001 0.0000
# 3 39.7103 43.0964 58.6265 -0.0009 0.0001 0.0001
# 4 -0.0003 -0.0003 -0.0009 10.1440 0.0001 0.0001
# 5 0.0000 0.0001 0.0001 0.0001 5.1039 0.0000
# 6 0.0000 0.0000 0.0001 0.0001 0.0000 14.9572
#
#
#
# Elastic Compliance Matrix: (Units=1/GPa)
#
#
# Indices 1 2 3 4 5 6 
#
# 1 0.017569 -0.007796 -0.006169 0.000000 0.000000 0.000000
# 2 -0.007796 0.012643 -0.004013 0.000000 0.000000 0.000000
# 3 -0.006169 -0.004013 0.024186 0.000002 0.000000 0.000000
# 4 0.000000 0.000000 0.000002 0.098581 -0.000002 0.000000
# 5 0.000000 0.000000 0.000000 -0.000002 0.195930 0.000000
# 6 0.000000 0.000000 0.000000 0.000000 0.000000 0.066857
#
#
# Mechanical properties :
#
#
# Convention : Reuss Voigt Hill
#
# Bulk Modulus (GPa) = 54.22805 69.45533 61.84169
# Shear Modulus (GPa) = 10.92018 15.65044 13.28531
#
# Velocity S-wave (km/s) = 2.50531 2.99923 2.76332
# Velocity P-wave (km/s) = 6.28786 7.20517 6.76209
#
# Compressibility (1/GPa) = 0.01844064
#
# Stress axis : x y z
#
# Youngs Moduli (GPa) = 56.91964 79.09761 41.34652
#
# Poissons Ratio (x) = 0.61664 0.25508
# Poissons Ratio (y) = 0.44374 0.16593
# Poissons Ratio (z) = 0.35115 0.31742
#
# Static dielectric constant tensor:
#      x y z
#    x 1.613600 0.000000 0.000000 
#    y 0.000000 1.551220 0.000000 
#    z 0.000000 0.000000 1.603150 
# 
# From -- ./inp_files/4683.got.cif
#   From: 2010.05.17/outbox.cif.g08.bks.cpg/sg46_3_cif.got.tgz:4683.got - 2010.06.03 19:58:25.
