data_PCOD9380937
_publ_section_title
;
Structure prediction by ZEFSAII (Michael W. Deem and Ramdas Pophale) SiO2 
 PCOD9380937
Probable space group: I M A 2
;
_chemical_formula_sum "Si O2"
_cell_formula_units_Z 56
_cell_length_a 14.405657
_cell_length_b 13.644460
_cell_length_c 14.117625
_cell_angle_alpha 90.000000
_cell_angle_beta 90.000000
_cell_angle_gamma 90.000000
_cell_volume 2774.923815
_symmetry_space_group_name_H-M "I M A 2"
_symmetry_group_IT_number 46
_symmetry_cell_setting 'orthorhombic'
loop_
_space_group_symop_operation_xyz
x,y,z
-x,-y,z
1/2-x,y,z
1/2+x,-y,z
1/2+x,1/2+y,1/2+z
1/2-x,1/2-y,1/2+z
-x,1/2+y,1/2+z
x,1/2-y,1/2+z
loop_
_atom_site_type_symbol
_atom_site_label
_atom_site_fract_x
_atom_site_fract_y
_atom_site_fract_z
Si Si1 0.353973 0.357731 0.994580
Si Si2 0.887296 0.812500 0.139686
Si Si3 0.598656 0.331835 0.612109
Si Si4 0.034487 0.888831 0.905414
Si Si5 0.642911 0.124801 0.709406
Si Si6 0.250000 0.497672 0.639914
Si Si7 0.148048 0.221785 0.835390
Si Si8 0.000000 0.500000 0.085777
O O1 0.250000 0.394918 0.017876
O O2 0.355666 0.328515 0.884713
O O3 0.369247 0.254060 0.047505
O O4 0.437176 0.427414 0.023923
O O5 0.859244 0.740204 0.224557
O O6 0.994472 0.839854 0.151511
O O7 0.828912 0.910322 0.137137
O O8 0.580775 0.339570 0.498116
O O9 0.635105 0.229961 0.656779
O O10 0.668696 0.417409 0.638559
O O11 0.105405 0.878825 0.817356
O O12 0.939744 0.837492 0.871285
O O13 0.000000 0.000000 0.926487
O O14 0.750000 0.092595 0.706875
O O15 0.572750 0.056403 0.651568
O O16 0.250000 0.178639 0.858804
#
# Coordination Sequence:
#
# PCOD9380937 Si02
#       8
#     8   8   8   8   8   4   8   4
#     4  11  23  41  70 100 136 178 236 294 347 427
#     4  12  22  46  70  98 138 185 237 295 355 422
#     4  12  26  47  72 104 147 184 242 301 360 433
#     4  12  25  45  71 110 141 190 243 302 365 427
#     4  12  26  46  71 105 146 190 237 294 366 433
#     4  12  26  44  70 102 134 196 232 292 366 420
#     4  11  23  42  70 101 138 180 241 294 348 426
#     4  12  22  48  70  96 140 196 228 294 366 426
#
# _framework density 20.180734999999999
#
# number of rings (size 3 to 8) (size 9 to 14) (size 15 to 20)
#    0.000    0.286    7.143    1.714    1.000    0.571 
#    2.571    0.000    3.143    0.000    0.000    0.000 
#    0.000    0.000    0.000    0.000    0.000    0.000 
#
# Total GULP energy -155902.935318 kJ/mol
# GULP energy per Si atom -5567.961976 kJ/mol
# Density = 2.013480 g / cm^3
# Si number density = 20.180735 Si / 1000 Ang^3
#
#
#
# Elastic Constant Matrix: (Units=GPa)
#
#
# Indices 1 2 3 4 5 6 
#
# 1 175.1286 18.8474 -14.7300 0.0000 0.0000 0.0000
# 2 18.8474 60.1075 -11.3369 0.0000 0.0000 0.0000
# 3 -14.7300 -11.3369 44.4032 0.0000 0.0000 0.0000
# 4 0.0000 0.0000 0.0000 20.0137 0.0000 0.0000
# 5 0.0000 0.0000 0.0000 0.0000 23.9675 0.0000
# 6 0.0000 0.0000 0.0000 0.0000 0.0000 84.2174
#
#
#
# Elastic Compliance Matrix: (Units=1/GPa)
#
#
# Indices 1 2 3 4 5 6 
#
# 1 0.006015 -0.001586 0.001590 0.000000 0.000000 0.000000
# 2 -0.001586 0.017897 0.004043 0.000000 0.000000 0.000000
# 3 0.001590 0.004043 0.024081 0.000000 0.000000 0.000000
# 4 0.000000 0.000000 0.000000 0.049966 0.000000 0.000000
# 5 0.000000 0.000000 0.000000 0.000000 0.041723 0.000000
# 6 0.000000 0.000000 0.000000 0.000000 0.000000 0.011874
#
#
# Mechanical properties :
#
#
# Convention : Reuss Voigt Hill
#
# Bulk Modulus (GPa) = 17.82941 29.46669 23.64805
# Shear Modulus (GPa) = 30.83457 44.76365 37.79911
#
# Velocity S-wave (km/s) = 3.91310 4.71482 4.33255
# Velocity P-wave (km/s) = 5.41023 6.65376 6.06395
#
# Compressibility (1/GPa) = 0.05608712
#
# Stress axis : x y z
#
# Youngs Moduli (GPa) = 166.26399 55.87602 41.52695
#
# Poissons Ratio (x) = 0.08862 -0.06604
# Poissons Ratio (y) = 0.26369 -0.16790
# Poissons Ratio (z) = -0.26441 -0.22592
#
# Static dielectric constant tensor:
#      x y z
#    x 1.657620 0.000000 0.000000 
#    y 0.000000 1.662590 0.000000 
#    z 0.000000 0.000000 1.728920 
# 
# From -- ./inp_files/16008.got.cif
#   From: 2010.05.17/outbox.cif.g08.bks.cpg/sg46_9_cif.got.tgz:16008.got - 2010.06.03 19:58:25.
