data_PCOD9380148
_publ_section_title
;
Structure prediction by ZEFSAII (Michael W. Deem and Ramdas Pophale) SiO2 
 PCOD9380148
Probable space group: I M A 2
;
_chemical_formula_sum "Si O2"
_cell_formula_units_Z 64
_cell_length_a 22.945162
_cell_length_b 9.045811
_cell_length_c 14.344223
_cell_angle_alpha 90.000000
_cell_angle_beta 90.000000
_cell_angle_gamma 90.000000
_cell_volume 2977.252483
_symmetry_space_group_name_H-M "I M A 2"
_symmetry_group_IT_number 46
_symmetry_cell_setting 'orthorhombic'
loop_
_space_group_symop_operation_xyz
x,y,z
-x,-y,z
1/2-x,y,z
1/2+x,-y,z
1/2+x,1/2+y,1/2+z
1/2-x,1/2-y,1/2+z
-x,1/2+y,1/2+z
x,1/2-y,1/2+z
loop_
_atom_site_type_symbol
_atom_site_label
_atom_site_fract_x
_atom_site_fract_y
_atom_site_fract_z
Si Si1 0.082693 0.388046 0.550320
Si Si2 0.522700 0.169137 0.550543
Si Si3 0.582693 0.888046 0.267496
Si Si4 0.816285 0.854964 0.765049
Si Si5 0.183715 0.145037 0.552767
Si Si6 0.630918 0.100520 0.894419
Si Si7 0.869082 0.100520 0.423397
Si Si8 0.977300 0.330863 0.267273
O O1 0.075152 0.433143 0.658908
O O2 0.137040 0.275593 0.545625
O O3 0.099602 0.520110 0.481683
O O4 0.025923 0.290685 0.522183
O O5 0.580213 0.161925 0.490448
O O6 0.535238 0.198077 0.658908
O O7 0.500000 0.000000 0.544538
O O8 0.637040 0.775593 0.272190
O O9 0.525923 0.790685 0.295633
O O10 0.599602 0.020110 0.336133
O O11 0.750000 0.802964 0.777815
O O12 0.821597 0.914644 0.658908
O O13 0.833050 0.977306 0.839763
O O14 0.250000 0.197036 0.540000
O O15 0.166950 0.022694 0.478053
O O16 0.667546 0.250000 0.908908
O O17 0.580213 0.161925 0.827368
O O18 0.000000 0.500000 0.273277
#
# Coordination Sequence:
#
# PCOD9380148 Si02
#       8
#     8   8   8   8   8   8   8   8
#     4  10  23  42  63  92 126 163 207 257 307 366
#     4  10  21  38  62  90 123 159 204 255 307 363
#     4  10  23  42  63  92 126 163 207 257 307 366
#     4  10  22  43  68  90 117 159 211 262 312 366
#     4  10  22  43  68  90 117 159 211 262 312 366
#     4  12  26  37  63  93 130 166 206 250 309 375
#     4  12  26  37  63  93 130 166 206 250 309 375
#     4  10  21  38  62  90 123 159 204 255 307 363
#
# _framework density 21.496328999999999
#
# number of rings (size 3 to 8) (size 9 to 14) (size 15 to 20)
#    0.000    1.500    2.500    1.500    3.500    4.500 
#    0.000    2.500    0.000    3.000    0.000    0.000 
#    0.000    0.000    0.000    0.000    0.000    0.000 
#
# Total GULP energy -178923.242715 kJ/mol
# GULP energy per Si atom -5591.351335 kJ/mol
# Density = 2.144740 g / cm^3
# Si number density = 21.496329 Si / 1000 Ang^3
#
#
#
# Elastic Constant Matrix: (Units=GPa)
#
#
# Indices 1 2 3 4 5 6 
#
# 1 64.9677 -10.2320 -4.5733 0.0000 0.0000 0.0000
# 2 -10.2320 85.7170 22.6962 0.0000 0.0000 0.0000
# 3 -4.5733 22.6962 46.5212 0.0000 0.0000 0.0000
# 4 0.0000 0.0000 0.0000 -16.7636 0.0000 0.0000
# 5 0.0000 0.0000 0.0000 0.0000 -35.2700 0.0000
# 6 0.0000 0.0000 0.0000 0.0000 0.0000 -5.2716
#
#
#
# Elastic Compliance Matrix: (Units=1/GPa)
#
#
# Indices 1 2 3 4 5 6 
#
# 1 0.015708 0.001684 0.000723 0.000000 0.000000 0.000000
# 2 0.001684 0.013577 -0.006458 0.000000 0.000000 0.000000
# 3 0.000723 -0.006458 0.024717 0.000000 0.000000 0.000000
# 4 0.000000 0.000000 0.000000 -0.059653 0.000000 0.000000
# 5 0.000000 0.000000 0.000000 0.000000 -0.028353 0.000000
# 6 0.000000 0.000000 0.000000 0.000000 0.000000 -0.189694
#
#
# Mechanical properties :
#
#
# Convention : Reuss Voigt Hill
#
# Bulk Modulus (GPa) = 21.78680 23.66528 22.72604
# Shear Modulus (GPa) = -24.96338 1.15997 -11.90170
#
# Velocity S-wave (km/s) = -3.41146 0.73538 -2.35556
# Velocity P-wave (km/s) = 2.31523 3.42840 1.78796
#
# Compressibility (1/GPa) = 0.04589934
#
# Stress axis : x y z
#
# Youngs Moduli (GPa) = 63.66052 73.65211 40.45722
#
# Poissons Ratio (x) = -0.12401 -0.02924
# Poissons Ratio (y) = -0.10719 0.26129
# Poissons Ratio (z) = -0.04601 0.47568
#
# Static dielectric constant tensor:
#      x y z
#    x 1.753000 0.000000 0.000000 
#    y 0.000000 1.888480 0.000000 
#    z 0.000000 0.000000 1.824300 
# 
# From -- ./inp_files/17427.got.cif
#   From: 2010.05.17/outbox.cif.g08.bks.cpg/sg46_9_cif.got.tgz:17427.got - 2010.06.03 19:58:25.
