data_PCOD9380752
_publ_section_title
;
Structure prediction by ZEFSAII (Michael W. Deem and Ramdas Pophale) SiO2 
 PCOD9380752
Probable space group: I M A 2
;
_chemical_formula_sum "Si O2"
_cell_formula_units_Z 48
_cell_length_a 23.814462
_cell_length_b 8.207164
_cell_length_c 11.838717
_cell_angle_alpha 90.000000
_cell_angle_beta 90.000000
_cell_angle_gamma 90.000000
_cell_volume 2313.867710
_symmetry_space_group_name_H-M "I M A 2"
_symmetry_group_IT_number 46
_symmetry_cell_setting 'orthorhombic'
loop_
_space_group_symop_operation_xyz
x,y,z
-x,-y,z
1/2-x,y,z
1/2+x,-y,z
1/2+x,1/2+y,1/2+z
1/2-x,1/2-y,1/2+z
-x,1/2+y,1/2+z
x,1/2-y,1/2+z
loop_
_atom_site_type_symbol
_atom_site_label
_atom_site_fract_x
_atom_site_fract_y
_atom_site_fract_z
Si Si1 0.429906 0.177878 0.933270
Si Si2 0.000000 0.500000 0.268796
Si Si3 0.250000 0.010653 0.477857
Si Si4 0.250000 0.863265 0.951368
Si Si5 0.978876 0.313853 0.613784
Si Si6 0.250000 0.403773 0.237334
Si Si7 0.160533 0.358733 0.812140
Si Si8 0.639707 0.043780 0.090890
O O1 0.400665 0.310129 0.855291
O O2 0.447129 0.030873 0.850587
O O3 0.485724 0.226063 0.000748
O O4 0.386312 0.113290 0.026637
O O5 0.991704 0.334166 0.198342
O O6 0.250000 0.827881 0.434150
O O7 0.250000 0.024199 0.612130
O O8 0.303736 0.094499 0.421677
O O9 0.250000 0.962130 0.835123
O O10 0.305559 0.905065 0.022709
O O11 0.912325 0.330701 0.593460
O O12 0.000000 0.500000 0.646084
O O13 0.304820 0.290257 0.256159
O O14 0.156428 0.496759 0.717746
#
# Coordination Sequence:
#
# PCOD9380752 Si02
#       8
#     8   4   4   4   8   4   8   8
#     4  11  21  44  70 104 138 186 247 301 356 439
#     4  12  24  44  76 100 140 198 238 298 384 422
#     4  11  28  44  68 111 140 193 248 284 372 443
#     4  12  26  43  71 100 151 193 233 304 363 426
#     4  10  24  46  67 104 148 185 248 303 354 438
#     4  11  24  43  69 103 143 182 245 298 355 435
#     4  11  24  43  76 100 141 191 245 294 364 431
#     4  11  23  45  69 100 151 187 233 308 360 423
#
# _framework density 20.744485999999998
#
# number of rings (size 3 to 8) (size 9 to 14) (size 15 to 20)
#    0.000    1.000    4.167    4.000    4.667    4.000 
#    4.500    0.000    0.000    0.000    0.000    0.000 
#    0.000    0.000    0.000    0.000    0.000    0.000 
#
# Total GULP energy -134079.558813 kJ/mol
# GULP energy per Si atom -5586.648284 kJ/mol
# Density = 2.069727 g / cm^3
# Si number density = 20.744486 Si / 1000 Ang^3
#
#
#
# Elastic Constant Matrix: (Units=GPa)
#
#
# Indices 1 2 3 4 5 6 
#
# 1 121.8622 35.5701 49.6167 0.0000 0.0000 0.0000
# 2 35.5701 53.1603 34.7246 0.0000 0.0000 0.0000
# 3 49.6167 34.7246 100.0263 0.0000 0.0000 0.0000
# 4 0.0000 0.0000 0.0000 20.7841 0.0000 0.0000
# 5 0.0000 0.0000 0.0000 0.0000 -36.7475 0.0000
# 6 0.0000 0.0000 0.0000 0.0000 0.0000 18.6403
#
#
#
# Elastic Compliance Matrix: (Units=1/GPa)
#
#
# Indices 1 2 3 4 5 6 
#
# 1 0.011228 -0.005011 -0.003830 0.000000 0.000000 0.000000
# 2 -0.005011 0.026564 -0.006736 0.000000 0.000000 0.000000
# 3 -0.003830 -0.006736 0.014236 0.000000 0.000000 0.000000
# 4 0.000000 0.000000 0.000000 0.048114 0.000000 0.000000
# 5 0.000000 0.000000 0.000000 0.000000 -0.027213 0.000000
# 6 0.000000 0.000000 0.000000 0.000000 0.000000 0.053647
#
#
# Mechanical properties :
#
#
# Convention : Reuss Voigt Hill
#
# Bulk Modulus (GPa) = 47.90769 57.20794 52.55782
# Shear Modulus (GPa) = 30.36042 10.87787 20.61915
#
# Velocity S-wave (km/s) = 3.82978 2.29241 3.15613
# Velocity P-wave (km/s) = 6.53457 5.88593 6.21871
#
# Compressibility (1/GPa) = 0.02087347
#
# Stress axis : x y z
#
# Youngs Moduli (GPa) = 89.06293 37.64474 70.24628
#
# Poissons Ratio (x) = 0.18864 0.26903
# Poissons Ratio (y) = 0.44630 0.47319
# Poissons Ratio (z) = 0.34110 0.25358
#
# Static dielectric constant tensor:
#      x y z
#    x 1.779530 0.000000 0.000000 
#    y 0.000000 1.738100 0.000000 
#    z 0.000000 0.000000 1.732540 
# 
# From -- ./inp_files/12766.got.cif
#   From: 2010.05.17/outbox.cif.g08.bks.cpg/sg46_7_cif.got.tgz:12766.got - 2010.06.03 19:58:25.
