data_PCOD9380813
_publ_section_title
;
Structure prediction by ZEFSAII (Michael W. Deem and Ramdas Pophale) SiO2 
 PCOD9380813
Probable space group: I M A 2
;
_chemical_formula_sum "Si O2"
_cell_formula_units_Z 64
_cell_length_a 8.810777
_cell_length_b 21.036662
_cell_length_c 20.083958
_cell_angle_alpha 90.000000
_cell_angle_beta 90.000000
_cell_angle_gamma 90.000000
_cell_volume 3722.548314
_symmetry_space_group_name_H-M "I M A 2"
_symmetry_group_IT_number 46
_symmetry_cell_setting 'orthorhombic'
loop_
_space_group_symop_operation_xyz
x,y,z
-x,-y,z
1/2-x,y,z
1/2+x,-y,z
1/2+x,1/2+y,1/2+z
1/2-x,1/2-y,1/2+z
-x,1/2+y,1/2+z
x,1/2-y,1/2+z
loop_
_atom_site_type_symbol
_atom_site_label
_atom_site_fract_x
_atom_site_fract_y
_atom_site_fract_z
Si Si1 0.430698 0.767353 0.507730
Si Si2 0.065839 0.764320 0.359386
Si Si3 0.570131 0.385705 0.506553
Si Si4 0.570137 0.932869 0.140624
Si Si5 0.431092 0.065813 0.721654
Si Si6 0.068728 0.193493 0.643293
Si Si7 0.566807 0.383582 0.355534
Si Si8 0.432421 0.814503 0.219278
O O1 0.250000 0.779442 0.514138
O O2 0.482706 0.785040 0.433088
O O3 0.450048 0.690737 0.513160
O O4 0.518777 0.801414 0.566715
O O5 0.250000 0.763589 0.361138
O O6 0.020894 0.690720 0.348496
O O7 0.019866 0.805956 0.296329
O O8 0.750000 0.398384 0.515552
O O9 0.477684 0.419489 0.564233
O O10 0.527327 0.403592 0.430936
O O11 0.750000 0.934156 0.146296
O O12 0.502763 0.875524 0.184059
O O13 0.500000 0.000000 0.161353
O O14 0.250000 0.061575 0.722673
O O15 0.474903 0.126883 0.677369
O O16 0.491398 0.077995 0.796301
O O17 0.500000 0.000000 0.696267
O O18 0.250000 0.201218 0.649175
O O19 0.987184 0.251396 0.681126
O O20 0.750000 0.386884 0.349744
O O21 0.250000 0.817939 0.215559
#
# Coordination Sequence:
#
# PCOD9380813 Si02
#       8
#     8   8   8   8   8   8   8   8
#     4   9  17  32  56  83 110 142 179 219 267 323
#     4   8  16  31  55  85 110 138 178 220 264 322
#     4   9  18  33  54  80 110 145 185 222 263 321
#     4  12  25  39  55  78 111 147 187 228 272 323
#     4  11  24  38  53  76 110 147 188 230 273 325
#     4  11  22  35  53  83 113 141 181 229 274 321
#     4   9  17  33  55  79 109 145 184 222 264 320
#     4  11  20  35  60  84 109 143 181 223 272 324
#
# _framework density 17.192523999999999
#
# number of rings (size 3 to 8) (size 9 to 14) (size 15 to 20)
#    0.000    2.000    2.500    3.750    0.000    2.500 
#    0.000    3.125    0.000    0.750    0.000    1.750 
#    0.000    0.000    0.000    0.000    0.000    0.000 
#
# Total GULP energy -178642.356062 kJ/mol
# GULP energy per Si atom -5582.573627 kJ/mol
# Density = 1.715339 g / cm^3
# Si number density = 17.192524 Si / 1000 Ang^3
#
#
#
# Elastic Constant Matrix: (Units=GPa)
#
#
# Indices 1 2 3 4 5 6 
#
# 1 59.1011 49.7903 41.0922 0.0000 0.0000 0.0000
# 2 49.7903 112.5584 63.3719 0.0000 0.0000 0.0000
# 3 41.0922 63.3719 115.9608 0.0000 0.0000 0.0000
# 4 0.0000 0.0000 0.0000 17.3870 0.0000 0.0000
# 5 0.0000 0.0000 0.0000 0.0000 -17.1516 0.0000
# 6 0.0000 0.0000 0.0000 0.0000 0.0000 23.6988
#
#
#
# Elastic Compliance Matrix: (Units=1/GPa)
#
#
# Indices 1 2 3 4 5 6 
#
# 1 0.028611 -0.010036 -0.004654 0.000000 0.000000 0.000000
# 2 -0.010036 0.016353 -0.005380 0.000000 0.000000 0.000000
# 3 -0.004654 -0.005380 0.013213 0.000000 0.000000 0.000000
# 4 0.000000 0.000000 0.000000 0.057514 0.000000 0.000000
# 5 0.000000 0.000000 0.000000 0.000000 -0.058304 0.000000
# 6 0.000000 0.000000 0.000000 0.000000 0.000000 0.042196
#
#
# Mechanical properties :
#
#
# Convention : Reuss Voigt Hill
#
# Bulk Modulus (GPa) = 55.44374 66.23655 60.84014
# Shear Modulus (GPa) = 34.30852 13.67790 23.99321
#
# Velocity S-wave (km/s) = 4.47200 2.82365 3.73977
# Velocity P-wave (km/s) = 7.68009 7.01717 7.35610
#
# Compressibility (1/GPa) = 0.01803630
#
# Stress axis : x y z
#
# Youngs Moduli (GPa) = 34.95188 61.15153 75.68156
#
# Poissons Ratio (x) = 0.61369 0.35224
# Poissons Ratio (y) = 0.35076 0.40720
# Poissons Ratio (z) = 0.16267 0.32902
#
# Static dielectric constant tensor:
#      x y z
#    x 1.573490 0.000000 0.000000 
#    y 0.000000 1.569100 0.000000 
#    z 0.000000 0.000000 1.595840 
# 
# From -- ./inp_files/21277.got.cif
#   From: 2010.05.17/outbox.cif.g08.bks.cpg/sg46_11_cif.got.tgz:21277.got - 2010.06.03 19:58:25.
