data_PCOD9380691
_publ_section_title
;
Structure prediction by ZEFSAII (Michael W. Deem and Ramdas Pophale) SiO2 
 PCOD9380691
Probable space group: I M A 2
;
_chemical_formula_sum "Si O2"
_cell_formula_units_Z 28
_cell_length_a 20.890584
_cell_length_b 4.999254
_cell_length_c 9.089262
_cell_angle_alpha 90.000000
_cell_angle_beta 90.000000
_cell_angle_gamma 90.000000
_cell_volume 949.258306
_symmetry_space_group_name_H-M "I M A 2"
_symmetry_group_IT_number 46
_symmetry_cell_setting 'orthorhombic'
loop_
_space_group_symop_operation_xyz
x,y,z
-x,-y,z
1/2-x,y,z
1/2+x,-y,z
1/2+x,1/2+y,1/2+z
1/2-x,1/2-y,1/2+z
-x,1/2+y,1/2+z
x,1/2-y,1/2+z
loop_
_atom_site_type_symbol
_atom_site_label
_atom_site_fract_x
_atom_site_fract_y
_atom_site_fract_z
Si Si1 0.250000 0.128441 0.529590
Si Si2 0.609790 0.631601 0.036088
Si Si3 0.750000 0.256878 0.786511
Si Si4 0.391083 0.733874 0.790545
Si Si5 0.500000 0.500000 0.478649
O O1 0.250000 0.841754 0.617466
O O2 0.250000 0.055727 0.355906
O O3 0.180714 0.248234 0.569040
O O4 0.604695 0.353059 0.126609
O O5 0.608970 0.563921 0.860982
O O6 0.547998 0.809523 0.068646
O O7 0.679859 0.162975 0.838095
O O8 0.452288 0.846813 0.871719
#
# Coordination Sequence:
#
# PCOD9380691 Si02
#       5
#     4   8   4   8   4
#     4   8  16  37  72 102 139 180 236 302 361 430
#     4  10  23  46  72 108 144 191 244 300 367 433
#     4   8  16  37  66 100 133 180 244 294 355 426
#     4  10  23  43  71 101 143 193 241 300 360 438
#     4  12  26  38  66 108 148 194 234 298 362 440
#
# _framework density 29.496715999999999
#
# number of rings (size 3 to 8) (size 9 to 14) (size 15 to 20)
#    0.000    2.286    0.000    0.857    4.000    3.429 
#    0.000    0.000    0.000   12.000    0.000    0.000 
#    0.000    0.000    0.000    0.000    0.000    0.000 
#
# Total GULP energy -78134.011889 kJ/mol
# GULP energy per Si atom -5581.000849 kJ/mol
# Density = 2.942958 g / cm^3
# Si number density = 29.496716 Si / 1000 Ang^3
#
#
#
# Elastic Constant Matrix: (Units=GPa)
#
#
# Indices 1 2 3 4 5 6 
#
# 1 339.9134 61.0125 67.4811 0.0000 0.0000 0.0000
# 2 61.0125 81.2829 25.8464 0.0000 0.0000 0.0000
# 3 67.4811 25.8464 137.2625 0.0000 0.0000 0.0000
# 4 0.0000 0.0000 0.0000 34.4056 0.0000 0.0000
# 5 0.0000 0.0000 0.0000 0.0000 52.0461 0.0000
# 6 0.0000 0.0000 0.0000 0.0000 0.0000 43.2507
#
#
#
# Elastic Compliance Matrix: (Units=1/GPa)
#
#
# Indices 1 2 3 4 5 6 
#
# 1 0.003621 -0.002289 -0.001349 0.000000 0.000000 0.000000
# 2 -0.002289 0.014533 -0.001611 0.000000 0.000000 0.000000
# 3 -0.001349 -0.001611 0.008252 0.000000 0.000000 0.000000
# 4 0.000000 0.000000 0.000000 0.029065 0.000000 0.000000
# 5 0.000000 0.000000 0.000000 0.000000 0.019214 0.000000
# 6 0.000000 0.000000 0.000000 0.000000 0.000000 0.023121
#
#
# Mechanical properties :
#
#
# Convention : Reuss Voigt Hill
#
# Bulk Modulus (GPa) = 62.86388 96.34876 79.60632
# Shear Modulus (GPa) = 44.01183 52.88174 48.44679
#
# Velocity S-wave (km/s) = 3.86695 4.23874 4.05711
# Velocity P-wave (km/s) = 6.42621 7.52935 6.99954
#
# Compressibility (1/GPa) = 0.01590738
#
# Stress axis : x y z
#
# Youngs Moduli (GPa) = 276.20203 68.80871 121.18397
#
# Poissons Ratio (x) = 0.15748 0.16347
# Poissons Ratio (y) = 0.63214 0.19527
# Poissons Ratio (z) = 0.37259 0.11088
#
# Static dielectric constant tensor:
#      x y z
#    x 2.161280 0.000000 0.000000 
#    y 0.000000 2.408090 0.000000 
#    z 0.000000 0.000000 2.271880 
# 
# From -- ./inp_files/12144.got.cif
#   From: 2010.05.17/outbox.cif.g08.bks.cpg/sg46_7_cif.got.tgz:12144.got - 2010.06.03 19:58:25.
