data_PCOD9380938
_publ_section_title
;
Structure prediction by ZEFSAII (Michael W. Deem and Ramdas Pophale) SiO2 
 PCOD9380938
Probable space group: I M A 2
;
_chemical_formula_sum "Si O2"
_cell_formula_units_Z 40
_cell_length_a 10.172378
_cell_length_b 9.102317
_cell_length_c 22.745667
_cell_angle_alpha 90.000000
_cell_angle_beta 90.000000
_cell_angle_gamma 90.000000
_cell_volume 2106.071557
_symmetry_space_group_name_H-M "I M A 2"
_symmetry_group_IT_number 46
_symmetry_cell_setting 'orthorhombic'
loop_
_space_group_symop_operation_xyz
x,y,z
-x,-y,z
1/2-x,y,z
1/2+x,-y,z
1/2+x,1/2+y,1/2+z
1/2-x,1/2-y,1/2+z
-x,1/2+y,1/2+z
x,1/2-y,1/2+z
loop_
_atom_site_type_symbol
_atom_site_label
_atom_site_fract_x
_atom_site_fract_y
_atom_site_fract_z
Si Si1 0.911536 0.856362 0.795370
Si Si2 0.992125 0.672393 0.160179
Si Si3 0.250000 0.818575 0.106368
Si Si4 0.250000 0.333376 0.465662
Si Si5 0.750000 0.661047 0.604480
Si Si6 0.750000 0.178770 0.962587
Si Si7 0.492859 0.324404 0.905855
O O1 0.750000 0.877200 0.797540
O O2 0.957555 0.817686 0.729369
O O3 0.957677 0.730791 0.840299
O O4 0.000000 0.000000 0.811573
O O5 0.875790 0.754541 0.127612
O O6 0.000000 0.500000 0.146168
O O7 0.124737 0.744985 0.136839
O O8 0.250000 0.990758 0.121566
O O9 0.250000 0.804138 0.034427
O O10 0.250000 0.335764 0.534992
O O11 0.250000 0.504776 0.447187
O O12 0.124397 0.246129 0.443265
O O13 0.624293 0.254392 0.932902
O O14 0.500000 0.500000 0.908930
#
# Coordination Sequence:
#
# PCOD9380938 Si02
#       7
#     8   8   4   4   4   4   8
#     4  11  25  46  71  98 133 179 226 268 333 410
#     4  11  24  42  68  97 131 174 221 273 329 394
#     4  11  25  42  67 100 135 172 224 267 332 397
#     4  11  23  44  67  92 133 180 222 263 328 411
#     4  11  23  42  67  96 133 176 218 273 330 393
#     4  11  25  44  67  98 131 182 220 263 330 409
#     4  12  26  42  67 100 134 167 221 284 336 382
#
# _framework density 18.992706999999999
#
# number of rings (size 3 to 8) (size 9 to 14) (size 15 to 20)
#    0.000    0.800    2.000    4.800    5.600    9.600 
#    0.000    0.000    0.000    0.000    0.000    0.000 
#    0.000    0.000    0.000    0.000    0.000    0.000 
#
# Total GULP energy -111751.610495 kJ/mol
# GULP energy per Si atom -5587.580525 kJ/mol
# Density = 1.894948 g / cm^3
# Si number density = 18.992707 Si / 1000 Ang^3
#
#
#
# Elastic Constant Matrix: (Units=GPa)
#
#
# Indices 1 2 3 4 5 6 
#
# 1 234.4076 120.4919 71.8619 0.0000 0.0000 0.0000
# 2 120.4919 224.2364 98.5746 0.0000 0.0000 0.0000
# 3 71.8619 98.5746 73.2324 0.0000 0.0000 0.0000
# 4 0.0000 0.0000 0.0000 35.2299 0.0000 0.0000
# 5 0.0000 0.0000 0.0000 0.0000 28.8759 0.0000
# 6 0.0000 0.0000 0.0000 0.0000 0.0000 42.3905
#
#
#
# Elastic Compliance Matrix: (Units=1/GPa)
#
#
# Indices 1 2 3 4 5 6 
#
# 1 0.006340 -0.001646 -0.004006 0.000000 0.000000 0.000000
# 2 -0.001646 0.011350 -0.013663 0.000000 0.000000 0.000000
# 3 -0.004006 -0.013663 0.035978 0.000000 0.000000 0.000000
# 4 0.000000 0.000000 0.000000 0.028385 0.000000 0.000000
# 5 0.000000 0.000000 0.000000 0.000000 0.034631 0.000000
# 6 0.000000 0.000000 0.000000 0.000000 0.000000 0.023590
#
#
# Mechanical properties :
#
#
# Convention : Reuss Voigt Hill
#
# Bulk Modulus (GPa) = 66.49861 123.74814 95.12337
# Shear Modulus (GPa) = 27.18612 37.36246 32.27429
#
# Velocity S-wave (km/s) = 3.78749 4.44013 4.12673
# Velocity P-wave (km/s) = 7.36311 9.56992 8.53811
#
# Compressibility (1/GPa) = 0.01503791
#
# Stress axis : x y z
#
# Youngs Moduli (GPa) = 157.72303 88.10453 27.79485
#
# Poissons Ratio (x) = 0.14499 0.11136
# Poissons Ratio (y) = 0.25955 0.37976
# Poissons Ratio (z) = 0.63191 1.20378
#
# Static dielectric constant tensor:
#      x y z
#    x 1.705040 0.000000 0.000000 
#    y 0.000000 1.644430 0.000000 
#    z 0.000000 0.000000 1.675240 
# 
# From -- ./inp_files/22788.got.cif
#   From: 2010.05.17/outbox.cif.g08.bks.cpg/sg46_12_cif.got.tgz:22788.got - 2010.06.03 19:58:25.
