data_PCOD9380923
_publ_section_title
;
Structure prediction by ZEFSAII (Michael W. Deem and Ramdas Pophale) SiO2 
 PCOD9380923
Probable space group: I M A 2
;
_chemical_formula_sum "Si O2"
_cell_formula_units_Z 60
_cell_length_a 9.198895
_cell_length_b 26.598763
_cell_length_c 12.542044
_cell_angle_alpha 90.000000
_cell_angle_beta 90.000000
_cell_angle_gamma 90.000000
_cell_volume 3068.777643
_symmetry_space_group_name_H-M "I M A 2"
_symmetry_group_IT_number 46
_symmetry_cell_setting 'orthorhombic'
loop_
_space_group_symop_operation_xyz
x,y,z
-x,-y,z
1/2-x,y,z
1/2+x,-y,z
1/2+x,1/2+y,1/2+z
1/2-x,1/2-y,1/2+z
-x,1/2+y,1/2+z
x,1/2-y,1/2+z
loop_
_atom_site_type_symbol
_atom_site_label
_atom_site_fract_x
_atom_site_fract_y
_atom_site_fract_z
Si Si1 0.407181 0.928494 0.586580
Si Si2 0.406058 0.687685 0.024162
Si Si3 0.582620 0.920558 0.218129
Si Si4 0.082597 0.818428 0.275253
Si Si5 0.920123 0.718801 0.210358
Si Si6 0.500000 0.500000 0.893728
Si Si7 0.426356 0.880747 0.795458
Si Si8 0.924464 0.448820 0.497705
O O1 0.250000 0.949506 0.617610
O O2 0.400986 0.871650 0.545206
O O3 0.482625 0.919225 0.701774
O O4 0.444981 0.959991 0.481851
O O5 0.250000 0.708562 0.065281
O O6 0.543940 0.707071 0.087272
O O7 0.412819 0.695015 0.899724
O O8 0.750000 0.909311 0.191611
O O9 0.499714 0.871039 0.259475
O O10 0.496635 0.937508 0.112203
O O11 0.582292 0.963784 0.309407
O O12 0.250000 0.822480 0.236839
O O13 0.994153 0.772509 0.226518
O O14 0.750000 0.719260 0.233832
O O15 0.999557 0.673331 0.274716
O O16 0.250000 0.874912 0.782241
O O17 0.451533 0.904992 0.910882
O O18 0.750000 0.455039 0.508740
O O19 0.000000 0.500000 0.458314
#
# Coordination Sequence:
#
# PCOD9380923 Si02
#       8
#     8   8   8   8   8   4   8   8
#     4   9  18  36  60  88 121 159 205 252 302 368
#     4   9  19  39  63  86 119 163 207 252 305 374
#     4  12  26  41  62  94 133 169 213 263 315 379
#     4  11  23  42  67  90 121 165 214 260 315 381
#     4  11  23  39  63  95 128 160 202 262 323 376
#     4  12  22  36  62  94 132 168 204 248 320 370
#     4   9  21  43  66  91 124 168 216 259 312 380
#     4  11  24  42  66  92 128 173 219 267 316 375
#
# _framework density 19.551758
#
# number of rings (size 3 to 8) (size 9 to 14) (size 15 to 20)
#    0.000    1.600    2.000    3.600    0.933    4.267 
#    0.000    2.000    0.000    0.000    0.000    0.000 
#    0.000    0.000    0.000    0.000    0.000    0.000 
#
# Total GULP energy -167002.499939 kJ/mol
# GULP energy per Si atom -5566.749998 kJ/mol
# Density = 1.950726 g / cm^3
# Si number density = 19.551758 Si / 1000 Ang^3
#
#
#
# Elastic Constant Matrix: (Units=GPa)
#
#
# Indices 1 2 3 4 5 6 
#
# 1 118.9756 48.8222 27.6123 0.0002 0.0000 0.0000
# 2 48.8222 86.3423 27.9971 0.0001 -0.0001 0.0000
# 3 27.6123 27.9971 64.1745 -0.0001 0.0004 0.0001
# 4 0.0002 0.0001 -0.0001 14.4960 0.0002 0.0000
# 5 0.0000 -0.0001 0.0004 0.0002 26.6959 0.0000
# 6 0.0000 0.0000 0.0001 0.0000 0.0000 6.6278
#
#
#
# Elastic Compliance Matrix: (Units=1/GPa)
#
#
# Indices 1 2 3 4 5 6 
#
# 1 0.011255 -0.005584 -0.002407 0.000000 0.000000 0.000000
# 2 -0.005584 0.016260 -0.004691 0.000000 0.000000 0.000000
# 3 -0.002407 -0.004691 0.018665 0.000000 0.000000 0.000000
# 4 0.000000 0.000000 0.000000 0.068984 -0.000001 0.000000
# 5 0.000000 0.000000 0.000000 -0.000001 0.037459 0.000000
# 6 0.000000 0.000000 0.000000 0.000000 0.000000 0.150880
#
#
# Mechanical properties :
#
#
# Convention : Reuss Voigt Hill
#
# Bulk Modulus (GPa) = 48.03870 53.15062 50.59466
# Shear Modulus (GPa) = 14.88957 20.56800 17.72878
#
# Velocity S-wave (km/s) = 2.76261 3.24694 3.01451
# Velocity P-wave (km/s) = 5.89910 6.42654 6.16846
#
# Compressibility (1/GPa) = 0.02081655
#
# Stress axis : x y z
#
# Youngs Moduli (GPa) = 88.84989 61.49943 53.57709
#
# Poissons Ratio (x) = 0.34340 0.12894
# Poissons Ratio (y) = 0.49611 0.25135
# Poissons Ratio (z) = 0.21383 0.28851
#
# Static dielectric constant tensor:
#      x y z
#    x 1.621790 0.000000 0.000000 
#    y 0.000000 1.716690 0.000000 
#    z 0.000000 0.000000 1.725680 
# 
# From -- ./inp_files/9537.got.cif
#   From: 2010.05.17/outbox.cif.g08.bks.cpg/sg46_5_cif.got.tgz:9537.got - 2010.06.03 19:58:25.
