data_PCOD9380928
_publ_section_title
;
Structure prediction by ZEFSAII (Michael W. Deem and Ramdas Pophale) SiO2 
 PCOD9380928
Probable space group: I M A 2
;
_chemical_formula_sum "Si O2"
_cell_formula_units_Z 44
_cell_length_a 8.730097
_cell_length_b 17.218817
_cell_length_c 13.839056
_cell_angle_alpha 90.000000
_cell_angle_beta 90.000000
_cell_angle_gamma 90.000000
_cell_volume 2080.313782
_symmetry_space_group_name_H-M "I M A 2"
_symmetry_group_IT_number 46
_symmetry_cell_setting 'orthorhombic'
loop_
_space_group_symop_operation_xyz
x,y,z
-x,-y,z
1/2-x,y,z
1/2+x,-y,z
1/2+x,1/2+y,1/2+z
1/2-x,1/2-y,1/2+z
-x,1/2+y,1/2+z
x,1/2-y,1/2+z
loop_
_atom_site_type_symbol
_atom_site_label
_atom_site_fract_x
_atom_site_fract_y
_atom_site_fract_z
Si Si1 0.072533 0.779946 0.220940
Si Si2 0.928942 0.215485 0.433104
Si Si3 0.415950 0.120730 0.759452
Si Si4 0.424721 0.421594 0.041629
Si Si5 0.430522 0.142835 0.033938
Si Si6 0.000000 0.500000 0.426164
O O1 0.250000 0.787511 0.193215
O O2 0.045395 0.817512 0.325898
O O3 0.038179 0.689398 0.245722
O O4 0.973542 0.818147 0.136339
O O5 0.750000 0.237386 0.440716
O O6 0.973642 0.150633 0.509710
O O7 0.032985 0.289597 0.456750
O O8 0.250000 0.160718 0.765789
O O9 0.419917 0.076208 0.657685
O O10 0.425100 0.058804 0.846410
O O11 0.500000 0.500000 0.004227
O O12 0.250000 0.411143 0.007769
O O13 0.250000 0.121019 0.032070
O O14 0.535637 0.069274 0.003229
#
# Coordination Sequence:
#
# PCOD9380928 Si02
#       6
#     8   8   8   8   8   4
#     4  11  25  44  69  97 134 180 228 284 348 423
#     4  11  24  43  68  98 133 180 232 287 352 422
#     4  11  23  40  67 101 136 174 221 275 341 416
#     4  11  23  40  65  98 133 174 221 280 346 411
#     4  12  26  44  70 102 139 186 237 292 356 427
#     4  12  26  44  68 104 144 184 236 298 358 416
#
# _framework density 21.150655
#
# number of rings (size 3 to 8) (size 9 to 14) (size 15 to 20)
#    0.000    0.727    4.545    2.727    0.000    7.273 
#    1.636    0.000    0.000    0.000    0.000    0.000 
#    0.000    0.000    0.000    0.000    0.000    0.000 
#
# Total GULP energy -122562.620464 kJ/mol
# GULP energy per Si atom -5571.028203 kJ/mol
# Density = 2.110252 g / cm^3
# Si number density = 21.150655 Si / 1000 Ang^3
#
#
#
# Elastic Constant Matrix: (Units=GPa)
#
#
# Indices 1 2 3 4 5 6 
#
# 1 62.5444 6.4383 33.4788 0.0000 0.0000 0.0000
# 2 6.4383 96.2548 21.2113 0.0000 0.0000 0.0000
# 3 33.4788 21.2113 112.8088 0.0000 0.0000 0.0000
# 4 0.0000 0.0000 0.0000 33.6113 0.0000 0.0000
# 5 0.0000 0.0000 0.0000 0.0000 21.4955 0.0000
# 6 0.0000 0.0000 0.0000 0.0000 0.0000 11.3511
#
#
#
# Elastic Compliance Matrix: (Units=1/GPa)
#
#
# Indices 1 2 3 4 5 6 
#
# 1 0.019008 -0.000030 -0.005636 0.000000 0.000000 0.000000
# 2 -0.000030 0.010838 -0.002029 0.000000 0.000000 0.000000
# 3 -0.005636 -0.002029 0.010919 0.000000 0.000000 0.000000
# 4 0.000000 0.000000 0.000000 0.029752 0.000000 0.000000
# 5 0.000000 0.000000 0.000000 0.000000 0.046521 0.000000
# 6 0.000000 0.000000 0.000000 0.000000 0.000000 0.088097
#
#
# Mechanical properties :
#
#
# Convention : Reuss Voigt Hill
#
# Bulk Modulus (GPa) = 39.40644 43.76274 41.58459
# Shear Modulus (GPa) = 21.83571 27.32357 24.57964
#
# Velocity S-wave (km/s) = 3.21657 3.59814 3.41269
# Velocity P-wave (km/s) = 5.69797 6.16425 5.93569
#
# Compressibility (1/GPa) = 0.02537656
#
# Stress axis : x y z
#
# Youngs Moduli (GPa) = 52.60854 92.26611 91.58678
#
# Poissons Ratio (x) = 0.00272 0.51615
# Poissons Ratio (y) = 0.00155 0.18584
# Poissons Ratio (z) = 0.29648 0.18722
#
# Static dielectric constant tensor:
#      x y z
#    x 1.764750 0.000000 0.000000 
#    y 0.000000 1.747590 0.000000 
#    z 0.000000 0.000000 1.816030 
# 
# From -- ./inp_files/13850.got.cif
#   From: 2010.05.17/outbox.cif.g08.bks.cpg/sg46_7_cif.got.tgz:13850.got - 2010.06.03 19:58:25.
