data_PCOD9380718
_publ_section_title
;
Structure prediction by ZEFSAII (Michael W. Deem and Ramdas Pophale) SiO2 
 PCOD9380718
Probable space group: I M A 2
;
_chemical_formula_sum "Si O2"
_cell_formula_units_Z 44
_cell_length_a 16.328308
_cell_length_b 14.849757
_cell_length_c 7.685135
_cell_angle_alpha 90.000000
_cell_angle_beta 90.000000
_cell_angle_gamma 90.000000
_cell_volume 1863.425489
_symmetry_space_group_name_H-M "I M A 2"
_symmetry_group_IT_number 46
_symmetry_cell_setting 'orthorhombic'
loop_
_space_group_symop_operation_xyz
x,y,z
-x,-y,z
1/2-x,y,z
1/2+x,-y,z
1/2+x,1/2+y,1/2+z
1/2-x,1/2-y,1/2+z
-x,1/2+y,1/2+z
x,1/2-y,1/2+z
loop_
_atom_site_type_symbol
_atom_site_label
_atom_site_fract_x
_atom_site_fract_y
_atom_site_fract_z
Si Si1 0.395421 0.327681 0.675260
Si Si2 0.997578 0.672879 0.006897
Si Si3 0.250000 0.311406 0.206501
Si Si4 0.612508 0.964749 0.651473
Si Si5 0.345368 0.610710 0.863867
Si Si6 0.402078 0.987128 0.026591
O O1 0.448000 0.359059 0.837896
O O2 0.457028 0.266069 0.563630
O O3 0.321080 0.266120 0.737232
O O4 0.364574 0.414397 0.572545
O O5 0.091074 0.681283 0.948488
O O6 0.972636 0.593047 0.139885
O O7 0.179005 0.385942 0.166909
O O8 0.634219 0.023583 0.483281
O O9 0.618207 0.025323 0.824754
O O10 0.250000 0.633549 0.875539
O O11 0.369431 0.583956 0.666590
O O12 0.500000 0.000000 0.045341
#
# Coordination Sequence:
#
# PCOD9380718 Si02
#       6
#     8   8   4   8   8   8
#     4  11  23  40  69  99 145 182 224 284 353 436
#     4  11  23  44  66 102 143 190 231 288 362 422
#     4  10  24  40  64 112 140 172 214 282 370 418
#     4  11  23  42  68 102 145 179 223 288 360 436
#     4  12  25  45  70  97 142 190 241 292 342 421
#     4  12  24  43  72 102 135 186 233 286 358 430
#
# _framework density 23.612428000000001
#
# number of rings (size 3 to 8) (size 9 to 14) (size 15 to 20)
#    0.000    0.727    4.545    3.818    2.545    5.818 
#    0.000    0.909    0.000    0.000    0.000    0.000 
#    0.000    0.000    0.000    0.000    0.000    0.000 
#
# Total GULP energy -122581.097206 kJ/mol
# GULP energy per Si atom -5571.868055 kJ/mol
# Density = 2.355869 g / cm^3
# Si number density = 23.612428 Si / 1000 Ang^3
#
#
#
# Elastic Constant Matrix: (Units=GPa)
#
#
# Indices 1 2 3 4 5 6 
#
# 1 163.9710 1.0268 16.0232 0.0000 0.0000 0.0000
# 2 1.0268 24.6285 2.1897 0.0000 0.0000 0.0000
# 3 16.0232 2.1897 97.1187 0.0000 0.0000 0.0000
# 4 0.0000 0.0000 0.0000 28.8634 0.0000 0.0000
# 5 0.0000 0.0000 0.0000 0.0000 -7.8789 0.0000
# 6 0.0000 0.0000 0.0000 0.0000 0.0000 25.7580
#
#
#
# Elastic Compliance Matrix: (Units=1/GPa)
#
#
# Indices 1 2 3 4 5 6 
#
# 1 0.006199 -0.000168 -0.001019 0.000000 0.000000 0.000000
# 2 -0.000168 0.040690 -0.000890 0.000000 0.000000 0.000000
# 3 -0.001019 -0.000890 0.010485 0.000000 0.000000 0.000000
# 4 0.000000 0.000000 0.000000 0.034646 0.000000 0.000000
# 5 0.000000 0.000000 0.000000 0.000000 -0.126921 0.000000
# 6 0.000000 0.000000 0.000000 0.000000 0.000000 0.038823
#
#
# Mechanical properties :
#
#
# Convention : Reuss Voigt Hill
#
# Bulk Modulus (GPa) = 18.78974 36.02193 27.40584
# Shear Modulus (GPa) = 193.68601 27.11372 110.39986
#
# Velocity S-wave (km/s) = 9.06671 3.39231 6.84518
# Velocity P-wave (km/s) = 10.84351 5.53464 8.60854
#
# Compressibility (1/GPa) = 0.05322054
#
# Stress axis : x y z
#
# Youngs Moduli (GPa) = 161.30935 24.57635 95.37567
#
# Poissons Ratio (x) = 0.00413 0.09719
# Poissons Ratio (y) = 0.02708 0.08486
# Poissons Ratio (z) = 0.16438 0.02187
#
# Static dielectric constant tensor:
#      x y z
#    x 1.899470 0.000000 0.000000 
#    y 0.000000 1.916400 0.000000 
#    z 0.000000 0.000000 2.001140 
# 
# From -- ./inp_files/5626.got.cif
#   From: 2010.05.17/outbox.cif.g08.bks.cpg/sg46_3_cif.got.tgz:5626.got - 2010.06.03 19:58:25.
