data_PCOD9380364
_publ_section_title
;
Structure prediction by ZEFSAII (Michael W. Deem and Ramdas Pophale) SiO2 
 PCOD9380364
Probable space group: I M A 2
;
_chemical_formula_sum "Si O2"
_cell_formula_units_Z 36
_cell_length_a 10.681329
_cell_length_b 17.096696
_cell_length_c 8.928453
_cell_angle_alpha 90.000000
_cell_angle_beta 90.000000
_cell_angle_gamma 90.000000
_cell_volume 1630.473327
_symmetry_space_group_name_H-M "I M A 2"
_symmetry_group_IT_number 46
_symmetry_cell_setting 'orthorhombic'
loop_
_space_group_symop_operation_xyz
x,y,z
-x,-y,z
1/2-x,y,z
1/2+x,-y,z
1/2+x,1/2+y,1/2+z
1/2-x,1/2-y,1/2+z
-x,1/2+y,1/2+z
x,1/2-y,1/2+z
loop_
_atom_site_type_symbol
_atom_site_label
_atom_site_fract_x
_atom_site_fract_y
_atom_site_fract_z
Si Si1 0.603269 0.064331 0.123920
Si Si2 0.548494 0.375459 0.291825
Si Si3 0.114691 0.793562 0.357250
Si Si4 0.500000 0.000000 0.568870
Si Si5 0.612492 0.651353 0.040454
O O1 0.750000 0.038139 0.121812
O O2 0.598296 0.139151 0.233529
O O3 0.500000 0.000000 0.166974
O O4 0.564243 0.092137 0.957300
O O5 0.615438 0.292534 0.287913
O O6 0.584720 0.444275 0.175438
O O7 0.412011 0.356289 0.219298
O O8 0.250000 0.806973 0.431475
O O9 0.997896 0.798314 0.469094
O O10 0.414163 0.062309 0.485007
O O11 0.750000 0.678511 0.004325
#
# Coordination Sequence:
#
# PCOD9380364 Si02
#       5
#     8   8   8   4   8
#     4  11  24  42  64  97 132 170 215 269 328 390
#     4  10  21  43  67  94 127 168 219 272 319 382
#     4  11  25  42  67  99 133 173 220 270 327 395
#     4   8  22  40  66  96 128 164 224 264 324 384
#     4  10  23  43  67  97 131 169 217 273 328 385
#
# _framework density 22.079477000000001
#
# number of rings (size 3 to 8) (size 9 to 14) (size 15 to 20)
#    1.333    0.444    1.111    2.000    1.556   10.667 
#    0.000    2.222    0.000    0.000    0.000    0.000 
#    0.000    0.000    0.000    0.000    0.000    0.000 
#
# Total GULP energy -100242.919379 kJ/mol
# GULP energy per Si atom -5569.051077 kJ/mol
# Density = 2.202922 g / cm^3
# Si number density = 22.079477 Si / 1000 Ang^3
#
#
#
# Elastic Constant Matrix: (Units=GPa)
#
#
# Indices 1 2 3 4 5 6 
#
# 1 173.0092 49.1004 54.6670 0.0000 0.0000 0.0000
# 2 49.1004 129.7179 14.7977 0.0001 0.0000 0.0000
# 3 54.6670 14.7977 63.9226 0.0002 0.0000 0.0000
# 4 0.0000 0.0001 0.0002 30.3357 0.0000 0.0000
# 5 0.0000 0.0000 0.0000 0.0000 24.1914 0.0000
# 6 0.0000 0.0000 0.0000 0.0000 0.0000 7.8212
#
#
#
# Elastic Compliance Matrix: (Units=1/GPa)
#
#
# Indices 1 2 3 4 5 6 
#
# 1 0.008640 -0.002493 -0.006812 0.000000 0.000000 0.000000
# 2 -0.002493 0.008638 0.000133 0.000000 0.000000 0.000000
# 3 -0.006812 0.000133 0.021439 0.000000 0.000000 0.000000
# 4 0.000000 0.000000 0.000000 0.032965 0.000000 0.000000
# 5 0.000000 0.000000 0.000000 0.000000 0.041337 0.000000
# 6 0.000000 0.000000 0.000000 0.000000 0.000000 0.127857
#
#
# Mechanical properties :
#
#
# Convention : Reuss Voigt Hill
#
# Bulk Modulus (GPa) = 49.08799 67.08666 58.08732
# Shear Modulus (GPa) = 18.79624 29.00863 23.90243
#
# Velocity S-wave (km/s) = 2.92087 3.62861 3.29380
# Velocity P-wave (km/s) = 5.80138 6.92863 6.38991
#
# Compressibility (1/GPa) = 0.02037158
#
# Stress axis : x y z
#
# Youngs Moduli (GPa) = 115.74024 115.77207 46.64461
#
# Poissons Ratio (x) = 0.28866 0.31773
# Poissons Ratio (y) = 0.28858 -0.00619
# Poissons Ratio (z) = 0.78840 -0.01537
#
# Static dielectric constant tensor:
#      x y z
#    x 1.832160 0.000000 0.000000 
#    y 0.000000 1.838240 0.000000 
#    z 0.000000 0.000000 1.862230 
# 
# From -- ./inp_files/9128.got.cif
#   From: 2010.05.17/outbox.cif.g08.bks.cpg/sg46_5_cif.got.tgz:9128.got - 2010.06.03 19:58:25.
