data_PCOD9380221
_publ_section_title
;
Structure prediction by ZEFSAII (Michael W. Deem and Ramdas Pophale) SiO2 
 PCOD9380221
Probable space group: I M A 2
;
_chemical_formula_sum "Si O2"
_cell_formula_units_Z 48
_cell_length_a 16.938186
_cell_length_b 5.056835
_cell_length_c 27.850923
_cell_angle_alpha 90.000000
_cell_angle_beta 90.000000
_cell_angle_gamma 90.000000
_cell_volume 2385.532147
_symmetry_space_group_name_H-M "I M A 2"
_symmetry_group_IT_number 46
_symmetry_cell_setting 'orthorhombic'
loop_
_space_group_symop_operation_xyz
x,y,z
-x,-y,z
1/2-x,y,z
1/2+x,-y,z
1/2+x,1/2+y,1/2+z
1/2-x,1/2-y,1/2+z
-x,1/2+y,1/2+z
x,1/2-y,1/2+z
loop_
_atom_site_type_symbol
_atom_site_label
_atom_site_fract_x
_atom_site_fract_y
_atom_site_fract_z
Si Si1 0.557146 0.250272 0.402530
Si Si2 0.658299 0.128231 0.602522
Si Si3 0.086746 0.385826 0.763507
Si Si4 0.913254 0.885826 0.150642
Si Si5 0.841701 0.371769 0.311628
Si Si6 0.057146 0.749728 0.011620
O O1 0.500000 0.500000 0.398054
O O2 0.623651 0.273768 0.362369
O O3 0.589100 0.250000 0.457075
O O4 0.500000 0.000000 0.395839
O O5 0.750000 0.057883 0.599341
O O6 0.645162 0.373786 0.638422
O O7 0.623651 0.226231 0.551780
O O8 0.609588 0.874573 0.621121
O O9 0.087981 0.320770 0.707075
O O10 0.145163 0.626213 0.775728
O O11 0.000000 0.500000 0.775579
O O12 0.109588 0.125426 0.793029
O O13 0.000000 0.000000 0.138570
O O14 0.750000 0.442117 0.314809
O O15 0.000000 0.500000 0.016095
O O16 0.000000 0.000000 0.018311
#
# Coordination Sequence:
#
# PCOD9380221 Si02
#       6
#     8   8   8   8   8   8
#     4  10  21  39  63  87 115 157 203 243 288 350
#     4  12  24  38  61  92 125 156 191 247 306 352
#     4  11  24  42  63  86 117 161 207 245 287 350
#     4  11  24  42  63  86 117 161 207 245 287 350
#     4  12  24  38  61  92 125 156 191 247 306 352
#     4  10  21  39  63  87 115 157 203 243 288 350
#
# _framework density 20.121295
#
# number of rings (size 3 to 8) (size 9 to 14) (size 15 to 20)
#    0.000    1.000    0.000    8.000    0.000    7.333 
#    0.000    0.000    0.000   10.000    0.000    0.000 
#    0.000    0.000    0.000    0.000    0.000    0.000 
#
# Total GULP energy -134294.746079 kJ/mol
# GULP energy per Si atom -5595.614420 kJ/mol
# Density = 2.007550 g / cm^3
# Si number density = 20.121295 Si / 1000 Ang^3
#
#
#
# Elastic Constant Matrix: (Units=GPa)
#
#
# Indices 1 2 3 4 5 6 
#
# 1 102.3039 31.9613 67.4390 0.0000 0.0000 0.0000
# 2 31.9613 147.4285 41.8851 0.0000 0.0000 0.0000
# 3 67.4390 41.8851 130.0467 0.0000 0.0000 0.0000
# 4 0.0000 0.0000 0.0000 35.1208 0.0000 0.0000
# 5 0.0000 0.0000 0.0000 0.0000 1.6026 0.0000
# 6 0.0000 0.0000 0.0000 0.0000 0.0000 19.4241
#
#
#
# Elastic Compliance Matrix: (Units=1/GPa)
#
#
# Indices 1 2 3 4 5 6 
#
# 1 0.015027 -0.001149 -0.007422 0.000000 0.000000 0.000000
# 2 -0.001149 0.007554 -0.001837 0.000000 0.000000 0.000000
# 3 -0.007422 -0.001837 0.012130 0.000000 0.000000 0.000000
# 4 0.000000 0.000000 0.000000 0.028473 0.000000 0.000000
# 5 0.000000 0.000000 0.000000 0.000000 0.623996 0.000000
# 6 0.000000 0.000000 0.000000 0.000000 0.000000 0.051482
#
#
# Mechanical properties :
#
#
# Convention : Reuss Voigt Hill
#
# Bulk Modulus (GPa) = 71.97369 73.59442 72.78406
# Shear Modulus (GPa) = 6.54356 27.12908 16.83632
#
# Velocity S-wave (km/s) = 1.80530 3.67587 2.89579
# Velocity P-wave (km/s) = 6.33980 7.39397 6.88709
#
# Compressibility (1/GPa) = 0.01389397
#
# Stress axis : x y z
#
# Youngs Moduli (GPa) = 66.54862 132.38068 82.43800
#
# Poissons Ratio (x) = 0.15209 0.61189
# Poissons Ratio (y) = 0.07646 0.15145
# Poissons Ratio (z) = 0.49395 0.24320
#
# Static dielectric constant tensor:
#      x y z
#    x 1.685480 0.000000 0.000000 
#    y 0.000000 1.682500 0.000000 
#    z 0.000000 0.000000 1.741990 
# 
# From -- ./inp_files/24584.got.cif
#   From: 2010.05.17/outbox.cif.g08.bks.cpg/sg46_13_cif.got.tgz:24584.got - 2010.06.03 19:58:25.
