data_PCOD9380562
_publ_section_title
;
Structure prediction by ZEFSAII (Michael W. Deem and Ramdas Pophale) SiO2 
 PCOD9380562
Probable space group: I M A 2
;
_chemical_formula_sum "Si O2"
_cell_formula_units_Z 32
_cell_length_a 12.996796
_cell_length_b 18.118422
_cell_length_c 5.101912
_cell_angle_alpha 90.000000
_cell_angle_beta 90.000000
_cell_angle_gamma 90.000000
_cell_volume 1201.405557
_symmetry_space_group_name_H-M "I M A 2"
_symmetry_group_IT_number 46
_symmetry_cell_setting 'orthorhombic'
loop_
_space_group_symop_operation_xyz
x,y,z
-x,-y,z
1/2-x,y,z
1/2+x,-y,z
1/2+x,1/2+y,1/2+z
1/2-x,1/2-y,1/2+z
-x,1/2+y,1/2+z
x,1/2-y,1/2+z
loop_
_atom_site_type_symbol
_atom_site_label
_atom_site_fract_x
_atom_site_fract_y
_atom_site_fract_z
Si Si1 0.406622 0.412993 0.757310
Si Si2 0.134627 0.919482 0.400527
Si Si3 0.592795 0.294336 0.288516
Si Si4 0.640343 0.830011 0.763759
O O1 0.529609 0.398107 0.750653
O O2 0.378781 0.492074 0.881524
O O3 0.366620 0.398957 0.466778
O O4 0.362135 0.356533 0.966223
O O5 0.250000 0.903420 0.304399
O O6 0.122259 0.875677 0.677716
O O7 0.630123 0.261414 0.561075
O O8 0.468279 0.290561 0.304055
O O9 0.750000 0.793743 0.821338
#
# Coordination Sequence:
#
# PCOD9380562 Si02
#       4
#     8   8   8   8
#     4  10  23  41  65 102 133 162 223 290 345 416
#     4  10  22  42  68  95 132 180 224 282 352 406
#     4  11  25  43  61  92 134 176 230 278 321 404
#     4  11  22  41  68  96 131 172 217 282 352 407
#
# _framework density 26.635466999999998
#
# number of rings (size 3 to 8) (size 9 to 14) (size 15 to 20)
#    0.000    1.500    0.000    5.250    0.000   12.000 
#    0.000   17.500    0.000    0.000    0.000    0.000 
#    0.000    0.000    0.000    0.000    0.000    0.000 
#
# Total GULP energy -89456.426295 kJ/mol
# GULP energy per Si atom -5591.026643 kJ/mol
# Density = 2.657484 g / cm^3
# Si number density = 26.635467 Si / 1000 Ang^3
#
#
#
# Elastic Constant Matrix: (Units=GPa)
#
#
# Indices 1 2 3 4 5 6 
#
# 1 254.7969 29.6941 31.0235 0.0000 0.0000 0.0000
# 2 29.6941 145.9990 52.5637 0.0000 0.0000 0.0000
# 3 31.0235 52.5637 84.0523 0.0000 0.0000 0.0000
# 4 0.0000 0.0000 0.0000 35.3156 0.0000 0.0000
# 5 0.0000 0.0000 0.0000 0.0000 1.8283 0.0000
# 6 0.0000 0.0000 0.0000 0.0000 0.0000 15.1243
#
#
#
# Elastic Compliance Matrix: (Units=1/GPa)
#
#
# Indices 1 2 3 4 5 6 
#
# 1 0.004125 -0.000375 -0.001288 0.000000 0.000000 0.000000
# 2 -0.000375 0.008874 -0.005411 0.000000 0.000000 0.000000
# 3 -0.001288 -0.005411 0.015756 0.000000 0.000000 0.000000
# 4 0.000000 0.000000 0.000000 0.028316 0.000000 0.000000
# 5 0.000000 0.000000 0.000000 0.000000 0.546965 0.000000
# 6 0.000000 0.000000 0.000000 0.000000 0.000000 0.066119
#
#
# Mechanical properties :
#
#
# Convention : Reuss Voigt Hill
#
# Bulk Modulus (GPa) = 68.45869 79.04566 73.75218
# Shear Modulus (GPa) = 7.25508 35.22476 21.23992
#
# Velocity S-wave (km/s) = 1.65220 3.64053 2.82694
# Velocity P-wave (km/s) = 5.42195 6.88568 6.19718
#
# Compressibility (1/GPa) = 0.01460735
#
# Stress axis : x y z
#
# Youngs Moduli (GPa) = 242.40970 112.69186 63.46592
#
# Poissons Ratio (x) = 0.04230 0.08174
# Poissons Ratio (y) = 0.09099 0.34340
# Poissons Ratio (z) = 0.31220 0.60976
#
# Static dielectric constant tensor:
#      x y z
#    x 2.090540 0.000000 0.000000 
#    y 0.000000 2.101480 0.000000 
#    z 0.000000 0.000000 2.029170 
# 
# From -- ./inp_files/1069.got.cif
#   From: 2010.05.17/outbox.cif.g08.bks.cpg/sg46_1_cif.got.tgz:1069.got - 2010.06.03 19:58:25.
