data_PCOD9380554
_publ_section_title
;
Structure prediction by ZEFSAII (Michael W. Deem and Ramdas Pophale) SiO2 
 PCOD9380554
Probable space group: I M A 2
;
_chemical_formula_sum "Si O2"
_cell_formula_units_Z 64
_cell_length_a 17.065911
_cell_length_b 21.072963
_cell_length_c 7.927452
_cell_angle_alpha 90.000000
_cell_angle_beta 90.000000
_cell_angle_gamma 90.000000
_cell_volume 2850.944101
_symmetry_space_group_name_H-M "I M A 2"
_symmetry_group_IT_number 46
_symmetry_cell_setting 'orthorhombic'
loop_
_space_group_symop_operation_xyz
x,y,z
-x,-y,z
1/2-x,y,z
1/2+x,-y,z
1/2+x,1/2+y,1/2+z
1/2-x,1/2-y,1/2+z
-x,1/2+y,1/2+z
x,1/2-y,1/2+z
loop_
_atom_site_type_symbol
_atom_site_label
_atom_site_fract_x
_atom_site_fract_y
_atom_site_fract_z
Si Si1 0.390039 0.797899 0.237160
Si Si2 0.836063 0.164222 0.583256
Si Si3 0.456100 0.911102 0.039814
Si Si4 0.940867 0.743901 0.818037
Si Si5 0.840770 0.671564 0.574533
Si Si6 0.943389 0.555145 0.874799
Si Si7 0.495016 0.371754 0.179589
Si Si8 0.161593 0.022953 0.100350
O O1 0.337373 0.828726 0.381180
O O2 0.353013 0.733562 0.165411
O O3 0.409221 0.846572 0.085636
O O4 0.472155 0.785005 0.337640
O O5 0.750000 0.141769 0.639011
O O6 0.913029 0.124238 0.630014
O O7 0.510099 0.920938 0.206006
O O8 0.399483 0.971961 0.026608
O O9 0.503584 0.900467 0.868020
O O10 0.882731 0.689722 0.750305
O O11 0.965813 0.799371 0.687042
O O12 0.892589 0.785848 0.950134
O O13 0.750000 0.691195 0.574541
O O14 0.841720 0.596270 0.538489
O O15 0.862904 0.529562 0.797611
O O16 0.000000 0.500000 0.937737
O O17 0.940535 0.598645 0.037053
O O18 0.250000 0.000216 0.078699
#
# Coordination Sequence:
#
# PCOD9380554 Si02
#       8
#     8   8   8   8   8   8   8   8
#     4  11  21  39  64  96 130 183 224 271 348 410
#     4  11  23  37  58  97 139 170 221 285 341 414
#     4  11  23  43  71  96 130 180 228 280 337 406
#     4  11  22  39  65  95 130 172 221 277 339 411
#     4  11  24  41  64  97 134 172 223 284 346 405
#     4  10  22  42  65  96 130 170 230 279 326 402
#     4  11  23  41  68  99 129 177 229 280 344 410
#     4  10  24  44  68  98 137 183 227 281 346 411
#
# _framework density 22.448702000000001
#
# number of rings (size 3 to 8) (size 9 to 14) (size 15 to 20)
#    0.000    1.250    1.250    6.000    1.750    4.000 
#    0.000    0.625    0.000    5.250    0.000    0.000 
#    0.000    0.000    0.000    0.000    0.000    0.000 
#
# Total GULP energy -178629.319162 kJ/mol
# GULP energy per Si atom -5582.166224 kJ/mol
# Density = 2.239761 g / cm^3
# Si number density = 22.448702 Si / 1000 Ang^3
#
#
#
# Elastic Constant Matrix: (Units=GPa)
#
#
# Indices 1 2 3 4 5 6 
#
# 1 130.4215 24.4219 22.3671 0.0000 0.0000 0.0000
# 2 24.4219 67.3899 16.5861 0.0000 0.0000 0.0000
# 3 22.3671 16.5861 86.0264 0.0000 0.0000 0.0000
# 4 0.0000 0.0000 0.0000 24.0832 0.0000 0.0000
# 5 0.0000 0.0000 0.0000 0.0000 21.9238 0.0000
# 6 0.0000 0.0000 0.0000 0.0000 0.0000 30.5212
#
#
#
# Elastic Compliance Matrix: (Units=1/GPa)
#
#
# Indices 1 2 3 4 5 6 
#
# 1 0.008453 -0.002648 -0.001687 0.000000 0.000000 0.000000
# 2 -0.002648 0.016408 -0.002475 0.000000 0.000000 0.000000
# 3 -0.001687 -0.002475 0.012540 0.000000 0.000000 0.000000
# 4 0.000000 0.000000 0.000000 0.041523 0.000000 0.000000
# 5 0.000000 0.000000 0.000000 0.000000 0.045613 0.000000
# 6 0.000000 0.000000 0.000000 0.000000 0.000000 0.032764
#
#
# Mechanical properties :
#
#
# Convention : Reuss Voigt Hill
#
# Bulk Modulus (GPa) = 42.05150 45.62090 43.83620
# Shear Modulus (GPa) = 27.95685 30.00315 28.98000
#
# Velocity S-wave (km/s) = 3.53280 3.65981 3.59687
# Velocity P-wave (km/s) = 5.95095 6.18267 6.06792
#
# Compressibility (1/GPa) = 0.02378037
#
# Stress axis : x y z
#
# Youngs Moduli (GPa) = 118.30624 60.94668 79.74360
#
# Poissons Ratio (x) = 0.16138 0.13454
# Poissons Ratio (y) = 0.31327 0.19736
# Poissons Ratio (z) = 0.19960 0.15084
#
# Static dielectric constant tensor:
#      x y z
#    x 1.828600 0.000000 0.000000 
#    y 0.000000 1.887900 0.000000 
#    z 0.000000 0.000000 1.900070 
# 
# From -- ./inp_files/6104.got.cif
#   From: 2010.05.17/outbox.cif.g08.bks.cpg/sg46_4_cif.got.tgz:6104.got - 2010.06.03 19:58:25.
