data_PCOD9380905
_publ_section_title
;
Structure prediction by ZEFSAII (Michael W. Deem and Ramdas Pophale) SiO2 
 PCOD9380905
Probable space group: I M A 2
;
_chemical_formula_sum "Si O2"
_cell_formula_units_Z 64
_cell_length_a 30.115290
_cell_length_b 11.882746
_cell_length_c 8.668909
_cell_angle_alpha 90.000000
_cell_angle_beta 90.000000
_cell_angle_gamma 90.000000
_cell_volume 3102.189386
_symmetry_space_group_name_H-M "I M A 2"
_symmetry_group_IT_number 46
_symmetry_cell_setting 'orthorhombic'
loop_
_space_group_symop_operation_xyz
x,y,z
-x,-y,z
1/2-x,y,z
1/2+x,-y,z
1/2+x,1/2+y,1/2+z
1/2-x,1/2-y,1/2+z
-x,1/2+y,1/2+z
x,1/2-y,1/2+z
loop_
_atom_site_type_symbol
_atom_site_label
_atom_site_fract_x
_atom_site_fract_y
_atom_site_fract_z
Si Si1 0.521282 0.386287 0.799790
Si Si2 0.802400 0.091339 0.444112
Si Si3 0.139779 0.127796 0.338473
Si Si4 0.344863 0.759847 0.705366
Si Si5 0.503474 0.835434 0.644680
Si Si6 0.392744 0.153739 0.684933
Si Si7 0.419089 0.926153 0.812124
Si Si8 0.899842 0.056500 0.146164
O O1 0.500000 0.500000 0.741794
O O2 0.514420 0.287396 0.681715
O O3 0.573730 0.408700 0.801783
O O4 0.499776 0.359756 0.963649
O O5 0.750000 0.074683 0.455192
O O6 0.821669 0.144556 0.602404
O O7 0.813820 0.193725 0.325971
O O8 0.824251 0.971463 0.387623
O O9 0.115476 0.146789 0.501709
O O10 0.139655 0.255583 0.267587
O O11 0.117101 0.065010 0.193407
O O12 0.388646 0.818154 0.777125
O O13 0.363352 0.651259 0.612371
O O14 0.553953 0.828538 0.704431
O O15 0.465793 0.914249 0.722975
O O16 0.389084 0.030344 0.757305
O O17 0.428395 0.944077 0.992027
#
# Coordination Sequence:
#
# PCOD9380905 Si02
#       8
#     8   8   8   8   8   8   8   8
#     4  12  25  40  59  88 133 183 239 300 338 384
#     4  11  24  46  76 107 135 168 221 286 356 435
#     4  11  25  44  71  94 137 185 226 283 349 414
#     4  11  22  41  69 103 135 171 208 280 357 414
#     4  12  25  39  61  93 133 186 245 290 325 396
#     4  12  24  44  63  93 137 191 238 281 333 399
#     4  12  23  39  66  98 135 184 230 279 338 400
#     4  11  23  39  63  94 134 177 228 277 347 407
#
# _framework density 20.630592
#
# number of rings (size 3 to 8) (size 9 to 14) (size 15 to 20)
#    0.000    0.500    3.750    6.000    1.750    2.000 
#    0.000    1.250    0.000    0.000    0.000    0.000 
#    0.000    0.000    0.000    0.000    0.000    0.000 
#
# Total GULP energy -178219.812244 kJ/mol
# GULP energy per Si atom -5569.369133 kJ/mol
# Density = 2.058364 g / cm^3
# Si number density = 20.630592 Si / 1000 Ang^3
#
#
#
# Elastic Constant Matrix: (Units=GPa)
#
#
# Indices 1 2 3 4 5 6 
#
# 1 79.6263 27.7129 23.7616 0.0000 0.0000 0.0000
# 2 27.7129 140.8081 24.7235 0.0000 0.0000 0.0000
# 3 23.7616 24.7235 82.5148 0.0000 0.0000 0.0000
# 4 0.0000 0.0000 0.0000 30.8794 0.0000 0.0000
# 5 0.0000 0.0000 0.0000 0.0000 11.7534 0.0000
# 6 0.0000 0.0000 0.0000 0.0000 0.0000 21.8321
#
#
#
# Elastic Compliance Matrix: (Units=1/GPa)
#
#
# Indices 1 2 3 4 5 6 
#
# 1 0.014367 -0.002218 -0.003473 0.000000 0.000000 0.000000
# 2 -0.002218 0.007839 -0.001710 0.000000 0.000000 0.000000
# 3 -0.003473 -0.001710 0.013631 0.000000 0.000000 0.000000
# 4 0.000000 0.000000 0.000000 0.032384 0.000000 0.000000
# 5 0.000000 0.000000 0.000000 0.000000 0.085082 0.000000
# 6 0.000000 0.000000 0.000000 0.000000 0.000000 0.045804
#
#
# Mechanical properties :
#
#
# Convention : Reuss Voigt Hill
#
# Bulk Modulus (GPa) = 47.53781 50.59391 49.06586
# Shear Modulus (GPa) = 22.63261 28.00971 25.32116
#
# Velocity S-wave (km/s) = 3.31575 3.68867 3.50717
# Velocity P-wave (km/s) = 6.14422 6.53595 6.34311
#
# Compressibility (1/GPa) = 0.02103589
#
# Stress axis : x y z
#
# Youngs Moduli (GPa) = 69.60471 127.57361 73.36004
#
# Poissons Ratio (x) = 0.28294 0.25475
# Poissons Ratio (y) = 0.15437 0.12544
# Poissons Ratio (z) = 0.24171 0.21815
#
# Static dielectric constant tensor:
#      x y z
#    x 1.753990 0.000000 0.000000 
#    y 0.000000 1.785100 0.000000 
#    z 0.000000 0.000000 1.770480 
# 
# From -- ./inp_files/8507.got.cif
#   From: 2010.05.17/outbox.cif.g08.bks.cpg/sg46_5_cif.got.tgz:8507.got - 2010.06.03 19:58:25.
