data_PCOD9380984
_publ_section_title
;
Structure prediction by ZEFSAII (Michael W. Deem and Ramdas Pophale) SiO2 
 PCOD9380984
Probable space group: I M A 2
;
_chemical_formula_sum "Si O2"
_cell_formula_units_Z 52
_cell_length_a 15.114824
_cell_length_b 7.971703
_cell_length_c 20.729247
_cell_angle_alpha 90.000000
_cell_angle_beta 90.000000
_cell_angle_gamma 90.000000
_cell_volume 2497.685375
_symmetry_space_group_name_H-M "I M A 2"
_symmetry_group_IT_number 46
_symmetry_cell_setting 'orthorhombic'
loop_
_space_group_symop_operation_xyz
x,y,z
-x,-y,z
1/2-x,y,z
1/2+x,-y,z
1/2+x,1/2+y,1/2+z
1/2-x,1/2-y,1/2+z
-x,1/2+y,1/2+z
x,1/2-y,1/2+z
loop_
_atom_site_type_symbol
_atom_site_label
_atom_site_fract_x
_atom_site_fract_y
_atom_site_fract_z
Si Si1 0.651099 0.700281 0.518560
Si Si2 0.144778 0.326451 0.159641
Si Si3 0.500000 0.000000 0.738525
Si Si4 0.975676 0.306883 0.959974
Si Si5 0.850381 0.181053 0.070153
Si Si6 0.646680 0.452521 0.698548
Si Si7 0.945188 0.324602 0.817168
O O1 0.750000 0.741291 0.493289
O O2 0.633324 0.812921 0.582314
O O3 0.569634 0.713583 0.469659
O O4 0.654353 0.511258 0.545456
O O5 0.250000 0.349670 0.171777
O O6 0.084920 0.464231 0.193663
O O7 0.116326 0.144244 0.188982
O O8 0.510930 0.164267 0.783048
O O9 0.929581 0.273937 0.891214
O O10 0.000000 0.500000 0.961168
O O11 0.912454 0.270652 0.019617
O O12 0.750000 0.251058 0.071263
O O13 0.891566 0.163822 0.141612
O O14 0.750000 0.459042 0.682981
O O15 0.632729 0.377216 0.768683
O O16 0.000000 0.500000 0.818504
#
# Coordination Sequence:
#
# PCOD9380984 Si02
#       7
#     8   8   4   8   8   8   8
#     4   9  20  40  65  92 124 163 210 267 318 376
#     4   9  20  39  66 101 126 159 218 268 322 386
#     4  12  24  38  70  90 130 174 206 270 328 374
#     4  11  25  39  60  91 130 171 209 261 318 378
#     4   9  20  39  67  95 120 162 216 259 316 389
#     4   9  19  41  67  91 129 171 209 268 324 378
#     4  11  25  42  58  93 130 170 218 259 316 386
#
# _framework density 20.819275999999999
#
# number of rings (size 3 to 8) (size 9 to 14) (size 15 to 20)
#    0.000    2.154    1.538    2.308    5.385    1.846 
#    0.000    6.154    0.000    0.000    0.000    0.000 
#    0.000    0.000    0.000    0.000    0.000    0.000 
#
# Total GULP energy -145090.842171 kJ/mol
# GULP energy per Si atom -5580.417007 kJ/mol
# Density = 2.077189 g / cm^3
# Si number density = 20.819276 Si / 1000 Ang^3
#
#
#
# Elastic Constant Matrix: (Units=GPa)
#
#
# Indices 1 2 3 4 5 6 
#
# 1 67.7262 19.4782 51.7336 0.0000 0.0000 0.0000
# 2 19.4782 72.0863 32.2033 0.0000 0.0000 0.0000
# 3 51.7336 32.2033 123.2358 0.0000 0.0000 0.0000
# 4 0.0000 0.0000 0.0000 22.1566 0.0000 0.0000
# 5 0.0000 0.0000 0.0000 0.0000 18.1103 0.0000
# 6 0.0000 0.0000 0.0000 0.0000 0.0000 26.1354
#
#
#
# Elastic Compliance Matrix: (Units=1/GPa)
#
#
# Indices 1 2 3 4 5 6 
#
# 1 0.022002 -0.002059 -0.008698 0.000000 0.000000 0.000000
# 2 -0.002059 0.015898 -0.003290 0.000000 0.000000 0.000000
# 3 -0.008698 -0.003290 0.012626 0.000000 0.000000 0.000000
# 4 0.000000 0.000000 0.000000 0.045133 0.000000 0.000000
# 5 0.000000 0.000000 0.000000 0.000000 0.055217 0.000000
# 6 0.000000 0.000000 0.000000 0.000000 0.000000 0.038262
#
#
# Mechanical properties :
#
#
# Convention : Reuss Voigt Hill
#
# Bulk Modulus (GPa) = 44.58101 52.20872 48.39487
# Shear Modulus (GPa) = 22.25085 23.92266 23.08676
#
# Velocity S-wave (km/s) = 3.27274 3.39346 3.33365
# Velocity P-wave (km/s) = 5.97837 6.36283 6.17360
#
# Compressibility (1/GPa) = 0.02243108
#
# Stress axis : x y z
#
# Youngs Moduli (GPa) = 45.45093 62.89919 79.20389
#
# Poissons Ratio (x) = 0.12953 0.68892
# Poissons Ratio (y) = 0.09360 0.26058
# Poissons Ratio (z) = 0.39534 0.20694
#
# Static dielectric constant tensor:
#      x y z
#    x 1.804160 0.000000 0.000000 
#    y 0.000000 1.789380 0.000000 
#    z 0.000000 0.000000 1.770400 
# 
# From -- ./inp_files/21969.got.cif
#   From: 2010.05.17/outbox.cif.g08.bks.cpg/sg46_11_cif.got.tgz:21969.got - 2010.06.03 19:58:25.
