data_PCOD9380550
_publ_section_title
;
Structure prediction by ZEFSAII (Michael W. Deem and Ramdas Pophale) SiO2 
 PCOD9380550
Probable space group: I M A 2
;
_chemical_formula_sum "Si O2"
_cell_formula_units_Z 60
_cell_length_a 11.964987
_cell_length_b 26.431838
_cell_length_c 9.517544
_cell_angle_alpha 90.000000
_cell_angle_beta 90.000000
_cell_angle_gamma 90.000000
_cell_volume 3009.986087
_symmetry_space_group_name_H-M "I M A 2"
_symmetry_group_IT_number 46
_symmetry_cell_setting 'orthorhombic'
loop_
_space_group_symop_operation_xyz
x,y,z
-x,-y,z
1/2-x,y,z
1/2+x,-y,z
1/2+x,1/2+y,1/2+z
1/2-x,1/2-y,1/2+z
-x,1/2+y,1/2+z
x,1/2-y,1/2+z
loop_
_atom_site_type_symbol
_atom_site_label
_atom_site_fract_x
_atom_site_fract_y
_atom_site_fract_z
Si Si1 0.622166 0.660075 0.264730
Si Si2 0.250000 0.590437 0.400448
Si Si3 0.874408 0.632481 0.594143
Si Si4 0.523596 0.728286 0.715528
Si Si5 0.122778 0.526101 0.936048
Si Si6 0.875961 0.225376 0.488088
Si Si7 0.563023 0.449361 0.619103
Si Si8 0.591441 0.119881 0.641546
O O1 0.750000 0.654483 0.221226
O O2 0.613501 0.646364 0.429356
O O3 0.583286 0.717995 0.241115
O O4 0.539565 0.625016 0.176055
O O5 0.347173 0.570195 0.509018
O O6 0.154132 0.609367 0.286599
O O7 0.750000 0.611640 0.615710
O O8 0.891381 0.683790 0.681600
O O9 0.968619 0.593282 0.638017
O O10 0.440904 0.734098 0.582749
O O11 0.447179 0.716593 0.849005
O O12 0.250000 0.503237 0.961713
O O13 0.115834 0.538666 0.770821
O O14 0.000000 0.500000 0.966173
O O15 0.118905 0.576204 0.031551
O O16 0.750000 0.241906 0.454959
O O17 0.873925 0.173829 0.577007
O O18 0.500000 0.500000 0.567819
#
# Coordination Sequence:
#
# PCOD9380550 Si02
#       8
#     8   4   8   8   8   8   8   8
#     4  10  22  42  63  94 135 172 224 282 332 401
#     4  12  22  44  70  96 138 172 222 280 340 400
#     4  11  23  42  66  97 132 174 224 279 336 407
#     4  11  22  41  62  95 127 176 225 267 342 393
#     4  11  24  45  69  97 139 176 226 283 350 417
#     4  11  22  39  61  91 134 171 220 276 324 406
#     4  11  26  45  70 101 131 180 225 280 345 407
#     4  11  23  43  66  97 131 177 222 281 339 403
#
# _framework density 19.933648000000002
#
# number of rings (size 3 to 8) (size 9 to 14) (size 15 to 20)
#    0.000    1.067    4.667    1.600    0.933    1.600 
#    7.200    3.333    0.000    0.000    0.000    0.000 
#    0.000    0.000    0.000    0.000    0.000    0.000 
#
# Total GULP energy -167004.995144 kJ/mol
# GULP energy per Si atom -5566.833171 kJ/mol
# Density = 1.988828 g / cm^3
# Si number density = 19.933648 Si / 1000 Ang^3
#
#
#
# Elastic Constant Matrix: (Units=GPa)
#
#
# Indices 1 2 3 4 5 6 
#
# 1 168.0800 24.4516 25.3380 0.0000 0.0000 -0.0001
# 2 24.4516 41.5871 -4.1232 0.0001 -0.0001 -0.0001
# 3 25.3380 -4.1232 42.0590 -0.0008 0.0007 -0.0006
# 4 0.0000 0.0001 -0.0008 17.1233 0.0002 0.0000
# 5 0.0000 -0.0001 0.0007 0.0002 17.3533 0.0000
# 6 -0.0001 -0.0001 -0.0006 0.0000 0.0000 -2.9209
#
#
#
# Elastic Compliance Matrix: (Units=1/GPa)
#
#
# Indices 1 2 3 4 5 6 
#
# 1 0.007397 -0.004838 -0.004930 0.000000 0.000000 0.000001
# 2 -0.004838 0.027446 0.005605 0.000000 0.000000 -0.000002
# 3 -0.004930 0.005605 0.027296 0.000001 -0.000001 -0.000006
# 4 0.000000 0.000000 0.000001 0.058400 -0.000001 -0.000001
# 5 0.000000 0.000000 -0.000001 -0.000001 0.057626 -0.000001
# 6 0.000001 -0.000002 -0.000006 -0.000001 -0.000001 -0.342364
#
#
# Mechanical properties :
#
#
# Convention : Reuss Voigt Hill
#
# Bulk Modulus (GPa) = 18.58300 38.11764 28.35032
# Shear Modulus (GPa) = -36.24866 20.04847 -8.10010
#
# Velocity S-wave (km/s) = -4.26897 3.17481 -2.01801
# Velocity P-wave (km/s) = 3.86732 5.70991 2.97042
#
# Compressibility (1/GPa) = 0.05381261
#
# Stress axis : x y z
#
# Youngs Moduli (GPa) = 135.19827 36.43513 36.63575
#
# Poissons Ratio (x) = 0.17626 0.18062
# Poissons Ratio (y) = 0.65405 -0.20535
# Poissons Ratio (z) = 0.66656 -0.20422
#
# Static dielectric constant tensor:
#      x y z
#    x 1.681340 0.000000 0.000000 
#    y 0.000000 1.698540 0.000000 
#    z 0.000000 0.000000 1.667630 
# 
# From -- ./inp_files/4904.got.cif
#   From: 2010.05.17/outbox.cif.g08.bks.cpg/sg46_3_cif.got.tgz:4904.got - 2010.06.03 19:58:25.
