data_PCOD9380710
_publ_section_title
;
Structure prediction by ZEFSAII (Michael W. Deem and Ramdas Pophale) SiO2 
 PCOD9380710
Probable space group: I M A 2
;
_chemical_formula_sum "Si O2"
_cell_formula_units_Z 28
_cell_length_a 9.614037
_cell_length_b 7.274573
_cell_length_c 16.150553
_cell_angle_alpha 90.000000
_cell_angle_beta 90.000000
_cell_angle_gamma 90.000000
_cell_volume 1129.537602
_symmetry_space_group_name_H-M "I M A 2"
_symmetry_group_IT_number 46
_symmetry_cell_setting 'orthorhombic'
loop_
_space_group_symop_operation_xyz
x,y,z
-x,-y,z
1/2-x,y,z
1/2+x,-y,z
1/2+x,1/2+y,1/2+z
1/2-x,1/2-y,1/2+z
-x,1/2+y,1/2+z
x,1/2-y,1/2+z
loop_
_atom_site_type_symbol
_atom_site_label
_atom_site_fract_x
_atom_site_fract_y
_atom_site_fract_z
Si Si1 0.250000 0.824190 0.156340
Si Si2 0.985788 0.719840 0.241904
Si Si3 0.750000 0.698516 0.608426
Si Si4 0.913980 0.176800 0.916784
Si Si5 0.750000 0.447419 0.020091
O O1 0.118781 0.833624 0.214028
O O2 0.250000 0.627350 0.113466
O O3 0.250000 0.982462 0.087459
O O4 0.988026 0.744838 0.340980
O O5 0.000000 0.500000 0.235639
O O6 0.875722 0.768205 0.171796
O O7 0.750000 0.834870 0.530773
O O8 0.750000 0.127881 0.889585
O O9 0.881413 0.345717 0.978001
O O10 0.000000 0.000000 0.950433
#
# Coordination Sequence:
#
# PCOD9380710 Si02
#       5
#     4   8   4   8   4
#     4  12  23  45  77 107 147 192 270 312 386 460
#     4  11  21  44  77 113 146 206 259 324 378 479
#     4  12  26  41  80 107 147 201 264 323 385 454
#     4   9  21  41  78 103 156 205 259 321 398 474
#     4  10  23  46  69 106 154 191 246 329 395 448
#
# _framework density 24.788903000000001
#
# number of rings (size 3 to 8) (size 9 to 14) (size 15 to 20)
#    0.857    0.571    4.286    0.857    6.000    2.286 
#    0.000    0.000   66.000    0.000    0.000    0.000 
#    0.000    0.000    0.000    0.000    0.000    0.000 
#
# Total GULP energy -78058.580739 kJ/mol
# GULP energy per Si atom -5575.612910 kJ/mol
# Density = 2.473248 g / cm^3
# Si number density = 24.788903 Si / 1000 Ang^3
#
#
#
# Elastic Constant Matrix: (Units=GPa)
#
#
# Indices 1 2 3 4 5 6 
#
# 1 100.1730 11.2231 25.9708 0.0000 0.0000 0.0000
# 2 11.2231 131.0501 25.4296 0.0000 0.0000 0.0000
# 3 25.9708 25.4296 62.6685 0.0000 0.0000 0.0000
# 4 0.0000 0.0000 0.0000 40.6919 0.0000 0.0000
# 5 0.0000 0.0000 0.0000 0.0000 36.5143 0.0000
# 6 0.0000 0.0000 0.0000 0.0000 0.0000 28.4101
#
#
#
# Elastic Compliance Matrix: (Units=1/GPa)
#
#
# Indices 1 2 3 4 5 6 
#
# 1 0.011185 -0.000063 -0.004609 0.000000 0.000000 0.000000
# 2 -0.000063 0.008283 -0.003335 0.000000 0.000000 0.000000
# 3 -0.004609 -0.003335 0.019220 0.000000 0.000000 0.000000
# 4 0.000000 0.000000 0.000000 0.024575 0.000000 0.000000
# 5 0.000000 0.000000 0.000000 0.000000 0.027387 0.000000
# 6 0.000000 0.000000 0.000000 0.000000 0.000000 0.035199
#
#
# Mechanical properties :
#
#
# Convention : Reuss Voigt Hill
#
# Bulk Modulus (GPa) = 44.10527 46.57095 45.33811
# Shear Modulus (GPa) = 33.46229 36.54113 35.00171
#
# Velocity S-wave (km/s) = 3.67807 3.84356 3.76172
# Velocity P-wave (km/s) = 5.98904 6.20685 6.09892
#
# Compressibility (1/GPa) = 0.02267303
#
# Stress axis : x y z
#
# Youngs Moduli (GPa) = 89.40645 120.72612 52.02797
#
# Poissons Ratio (x) = 0.00766 0.23982
# Poissons Ratio (y) = 0.00567 0.17351
# Poissons Ratio (z) = 0.41211 0.40261
#
# Static dielectric constant tensor:
#      x y z
#    x 2.006160 0.000000 0.000000 
#    y 0.000000 1.971450 0.000000 
#    z 0.000000 0.000000 1.954820 
# 
# From -- ./inp_files/17896.got.cif
#   From: 2010.05.17/outbox.cif.g08.bks.cpg/sg46_9_cif.got.tgz:17896.got - 2010.06.03 19:58:25.
