data_PCOD9380819
_publ_section_title
;
Structure prediction by ZEFSAII (Michael W. Deem and Ramdas Pophale) SiO2 
 PCOD9380819
Probable space group: I M A 2
;
_chemical_formula_sum "Si O2"
_cell_formula_units_Z 48
_cell_length_a 15.740625
_cell_length_b 15.684940
_cell_length_c 9.891072
_cell_angle_alpha 90.000000
_cell_angle_beta 90.000000
_cell_angle_gamma 90.000000
_cell_volume 2442.014270
_symmetry_space_group_name_H-M "I M A 2"
_symmetry_group_IT_number 46
_symmetry_cell_setting 'orthorhombic'
loop_
_space_group_symop_operation_xyz
x,y,z
-x,-y,z
1/2-x,y,z
1/2+x,-y,z
1/2+x,1/2+y,1/2+z
1/2-x,1/2-y,1/2+z
-x,1/2+y,1/2+z
x,1/2-y,1/2+z
loop_
_atom_site_type_symbol
_atom_site_label
_atom_site_fract_x
_atom_site_fract_y
_atom_site_fract_z
Si Si1 0.750000 0.406724 0.784710
Si Si2 0.750000 0.131002 0.754752
Si Si3 0.250000 0.506952 0.505034
Si Si4 0.497063 0.744005 0.589180
Si Si5 0.750000 0.503873 0.037713
Si Si6 0.887774 0.266986 0.839776
Si Si7 0.569906 0.927212 0.639164
Si Si8 0.069870 0.072710 0.965769
O O1 0.750000 0.425980 0.626748
O O2 0.831837 0.350751 0.821704
O O3 0.750000 0.490425 0.877193
O O4 0.831764 0.188251 0.785703
O O5 0.750000 0.054377 0.861387
O O6 0.750000 0.089918 0.607539
O O7 0.336838 0.454704 0.512726
O O8 0.469118 0.728036 0.743077
O O9 0.414253 0.751655 0.493404
O O10 0.543497 0.834908 0.583064
O O11 0.546150 0.662945 0.530689
O O12 0.836667 0.547437 0.087711
O O13 0.569912 0.921725 0.802539
O O14 0.500000 0.000000 0.602515
O O15 0.000000 0.000000 0.002012
#
# Coordination Sequence:
#
# PCOD9380819 Si02
#       8
#     4   4   4   8   4   8   8   8
#     4  11  24  38  60  99 136 158 210 289 346 371
#     4  11  20  38  68  91 126 174 222 267 324 403
#     4  12  24  42  66  95 128 175 225 264 319 394
#     4  12  24  40  66  98 132 172 220 267 322 393
#     4  12  24  42  66  95 128 175 225 264 319 394
#     4  11  22  38  62  97 132 166 210 279 342 385
#     4  11  23  43  69  95 131 177 221 267 322 393
#     4  11  23  43  69  95 131 177 221 267 322 393
#
# _framework density 19.655905000000001
#
# number of rings (size 3 to 8) (size 9 to 14) (size 15 to 20)
#    0.000    0.667    3.333    6.000    0.000    4.667 
#    0.000    3.333    0.000    0.000    0.000    0.000 
#    0.000    0.000    0.000    0.000    0.000    0.000 
#
# Total GULP energy -134235.817930 kJ/mol
# GULP energy per Si atom -5593.159080 kJ/mol
# Density = 1.961117 g / cm^3
# Si number density = 19.655905 Si / 1000 Ang^3
#
#
#
# Elastic Constant Matrix: (Units=GPa)
#
#
# Indices 1 2 3 4 5 6 
#
# 1 126.5034 64.8399 1.7417 0.0000 0.0000 0.0000
# 2 64.8399 124.3701 6.6624 0.0000 0.0000 0.0000
# 3 1.7417 6.6624 32.1036 0.0000 0.0000 0.0000
# 4 0.0000 0.0000 0.0000 33.0514 0.0000 0.0000
# 5 0.0000 0.0000 0.0000 0.0000 51.1672 0.0000
# 6 0.0000 0.0000 0.0000 0.0000 0.0000 -28.9938
#
#
#
# Elastic Compliance Matrix: (Units=1/GPa)
#
#
# Indices 1 2 3 4 5 6 
#
# 1 0.010799 -0.005661 0.000589 0.000000 0.000000 0.000000
# 2 -0.005661 0.011099 -0.001996 0.000000 0.000000 0.000000
# 3 0.000589 -0.001996 0.031532 0.000000 0.000000 0.000000
# 4 0.000000 0.000000 0.000000 0.030256 0.000000 0.000000
# 5 0.000000 0.000000 0.000000 0.000000 0.019544 0.000000
# 6 0.000000 0.000000 0.000000 0.000000 0.000000 -0.034490
#
#
# Mechanical properties :
#
#
# Convention : Reuss Voigt Hill
#
# Bulk Modulus (GPa) = 25.45046 47.71834 36.58440
# Shear Modulus (GPa) = 52.09801 25.02717 38.56259
#
# Velocity S-wave (km/s) = 5.15389 3.57215 4.43412
# Velocity P-wave (km/s) = 6.95650 6.42987 6.69836
#
# Compressibility (1/GPa) = 0.03929202
#
# Stress axis : x y z
#
# Youngs Moduli (GPa) = 92.60483 90.09840 31.71431
#
# Poissons Ratio (x) = 0.51008 -0.01868
# Poissons Ratio (y) = 0.52427 0.06331
# Poissons Ratio (z) = -0.05455 0.17985
#
# Static dielectric constant tensor:
#      x y z
#    x 1.668820 0.000000 0.000000 
#    y 0.000000 1.679230 0.000000 
#    z 0.000000 0.000000 1.660270 
# 
# From -- ./inp_files/6655.got.cif
#   From: 2010.05.17/outbox.cif.g08.bks.cpg/sg46_4_cif.got.tgz:6655.got - 2010.06.03 19:58:25.
