data_PCOD9380141
_publ_section_title
;
Structure prediction by ZEFSAII (Michael W. Deem and Ramdas Pophale) SiO2 
 PCOD9380141
Probable space group: I M A 2
;
_chemical_formula_sum "Si O2"
_cell_formula_units_Z 48
_cell_length_a 15.773044
_cell_length_b 24.585053
_cell_length_c 5.688397
_cell_angle_alpha 90.000000
_cell_angle_beta 90.000000
_cell_angle_gamma 90.000000
_cell_volume 2205.852975
_symmetry_space_group_name_H-M "I M A 2"
_symmetry_group_IT_number 46
_symmetry_cell_setting 'orthorhombic'
loop_
_space_group_symop_operation_xyz
x,y,z
-x,-y,z
1/2-x,y,z
1/2+x,-y,z
1/2+x,1/2+y,1/2+z
1/2-x,1/2-y,1/2+z
-x,1/2+y,1/2+z
x,1/2-y,1/2+z
loop_
_atom_site_type_symbol
_atom_site_label
_atom_site_fract_x
_atom_site_fract_y
_atom_site_fract_z
Si Si1 0.395772 0.889967 0.536390
Si Si2 0.156746 0.993938 0.287261
Si Si3 0.975126 0.053925 0.916622
Si Si4 0.148292 0.275173 0.800003
Si Si5 0.151714 0.769586 0.440078
Si Si6 0.079683 0.104214 0.290597
O O1 0.345464 0.943951 0.466461
O O2 0.416763 0.899488 0.807302
O O3 0.352104 0.834427 0.467498
O O4 0.489446 0.890805 0.420275
O O5 0.250000 0.997459 0.177673
O O6 0.132533 0.052992 0.387512
O O7 0.083017 0.975568 0.110147
O O8 0.000000 0.000000 0.763050
O O9 0.054588 0.085443 0.026617
O O10 0.250000 0.267695 0.799783
O O11 0.116580 0.249947 0.550041
O O12 0.126417 0.338900 0.799870
O O13 0.250000 0.750450 0.432060
O O14 0.113641 0.753465 0.185484
#
# Coordination Sequence:
#
# PCOD9380141 Si02
#       6
#     8   8   8   8   8   8
#     4  11  22  38  62  89 122 160 206 259 314 377
#     4  10  21  38  61  90 121 159 204 255 316 376
#     4   9  20  38  57  87 123 157 199 257 315 377
#     4  10  23  43  65  92 128 170 215 262 311 370
#     4  10  24  43  63  89 124 165 209 257 308 366
#     4  10  22  38  62  89 124 161 205 259 314 375
#
# _framework density 21.760289
#
# number of rings (size 3 to 8) (size 9 to 14) (size 15 to 20)
#    0.000    2.000    0.000    3.500    7.000    2.667 
#    0.000    0.000    0.000    0.000    0.000    0.000 
#    0.000    0.000    0.000    0.000    0.000    0.000 
#
# Total GULP energy -133710.875757 kJ/mol
# GULP energy per Si atom -5571.286490 kJ/mol
# Density = 2.171076 g / cm^3
# Si number density = 21.760289 Si / 1000 Ang^3
#
#
#
# Elastic Constant Matrix: (Units=GPa)
#
#
# Indices 1 2 3 4 5 6 
#
# 1 35.7660 -0.3929 10.4274 0.0000 0.0000 0.0000
# 2 -0.3929 133.9308 50.8135 0.0000 0.0000 0.0000
# 3 10.4274 50.8135 93.0488 -0.0001 0.0000 0.0000
# 4 0.0000 0.0000 -0.0001 29.5833 0.0000 0.0000
# 5 0.0000 0.0000 0.0000 0.0000 5.2053 0.0000
# 6 0.0000 0.0000 0.0000 0.0000 0.0000 37.7371
#
#
#
# Elastic Compliance Matrix: (Units=1/GPa)
#
#
# Indices 1 2 3 4 5 6 
#
# 1 0.029198 0.001674 -0.004186 0.000000 0.000000 0.000000
# 2 0.001674 0.009514 -0.005383 0.000000 0.000000 0.000000
# 3 -0.004186 -0.005383 0.014156 0.000000 0.000000 0.000000
# 4 0.000000 0.000000 0.000000 0.033803 0.000000 0.000000
# 5 0.000000 0.000000 0.000000 0.000000 0.192112 0.000000
# 6 0.000000 0.000000 0.000000 0.000000 0.000000 0.026499
#
#
# Mechanical properties :
#
#
# Convention : Reuss Voigt Hill
#
# Bulk Modulus (GPa) = 26.97067 42.71574 34.84321
# Shear Modulus (GPa) = 14.99556 27.96499 21.48027
#
# Velocity S-wave (km/s) = 2.62797 3.58877 3.14527
# Velocity P-wave (km/s) = 4.65077 6.07002 5.40716
#
# Compressibility (1/GPa) = 0.03707731
#
# Stress axis : x y z
#
# Youngs Moduli (GPa) = 34.24853 105.11086 70.64246
#
# Poissons Ratio (x) = -0.17594 0.29572
# Poissons Ratio (y) = -0.05733 0.38027
# Poissons Ratio (z) = 0.14337 0.56581
#
# Static dielectric constant tensor:
#      x y z
#    x 1.798490 0.000000 0.000000 
#    y 0.000000 1.797500 0.000000 
#    z 0.000000 0.000000 1.932680 
# 
# From -- ./inp_files/1706.got.cif
#   From: 2010.05.17/outbox.cif.g08.bks.cpg/sg46_1_cif.got.tgz:1706.got - 2010.06.03 19:58:25.
