data_PCOD9380569
_publ_section_title
;
Structure prediction by ZEFSAII (Michael W. Deem and Ramdas Pophale) SiO2 
 PCOD9380569
Probable space group: I M A 2
;
_chemical_formula_sum "Si O2"
_cell_formula_units_Z 48
_cell_length_a 17.389678
_cell_length_b 7.593505
_cell_length_c 15.218032
_cell_angle_alpha 90.000000
_cell_angle_beta 90.000000
_cell_angle_gamma 90.000000
_cell_volume 2009.519924
_symmetry_space_group_name_H-M "I M A 2"
_symmetry_group_IT_number 46
_symmetry_cell_setting 'orthorhombic'
loop_
_space_group_symop_operation_xyz
x,y,z
-x,-y,z
1/2-x,y,z
1/2+x,-y,z
1/2+x,1/2+y,1/2+z
1/2-x,1/2-y,1/2+z
-x,1/2+y,1/2+z
x,1/2-y,1/2+z
loop_
_atom_site_type_symbol
_atom_site_label
_atom_site_fract_x
_atom_site_fract_y
_atom_site_fract_z
Si Si1 0.666612 0.028724 0.376110
Si Si2 0.389581 0.617398 0.403265
Si Si3 0.932678 0.869996 0.148726
Si Si4 0.159374 0.675054 0.604950
Si Si5 0.090859 0.482942 0.058023
Si Si6 0.948752 0.767405 0.832589
O O1 0.750000 0.957349 0.352343
O O2 0.660962 0.235093 0.355219
O O3 0.651614 0.019122 0.480857
O O4 0.594541 0.914237 0.347547
O O5 0.364979 0.611885 0.505370
O O6 0.392655 0.428131 0.357646
O O7 0.475936 0.695829 0.390276
O O8 0.965424 0.754519 0.229702
O O9 0.901139 0.718804 0.085936
O O10 0.000000 0.000000 0.115089
O O11 0.866072 0.012861 0.166773
O O12 0.250000 0.702661 0.608843
O O13 0.113375 0.856659 0.622949
O O14 0.000000 0.500000 0.035585
#
# Coordination Sequence:
#
# PCOD9380569 Si02
#       6
#     8   8   8   8   8   8
#     4  11  23  41  65  97 133 173 227 286 343 410
#     4  10  22  42  70  94 129 176 235 290 333 418
#     4  12  26  42  66 102 141 182 231 292 359 428
#     4  11  25  44  69 104 142 181 234 302 365 425
#     4  11  22  40  71  96 129 177 236 289 344 422
#     4  11  25  41  68  97 135 176 234 288 346 412
#
# _framework density 23.886303000000002
#
# number of rings (size 3 to 8) (size 9 to 14) (size 15 to 20)
#    0.000    1.000    1.667    6.500    4.667    6.000 
#    0.000    0.000    0.000    0.000    0.000    0.000 
#    0.000    0.000    0.000    0.000    0.000    0.000 
#
# Total GULP energy -134026.330078 kJ/mol
# GULP energy per Si atom -5584.430420 kJ/mol
# Density = 2.383194 g / cm^3
# Si number density = 23.886303 Si / 1000 Ang^3
#
#
#
# Elastic Constant Matrix: (Units=GPa)
#
#
# Indices 1 2 3 4 5 6 
#
# 1 112.0334 14.6256 6.9362 0.0000 0.0000 0.0000
# 2 14.6256 156.6327 27.1389 0.0000 0.0000 0.0000
# 3 6.9362 27.1389 31.0642 0.0000 0.0000 0.0000
# 4 0.0000 0.0000 0.0000 31.8091 0.0000 0.0000
# 5 0.0000 0.0000 0.0000 0.0000 9.6565 0.0000
# 6 0.0000 0.0000 0.0000 0.0000 0.0000 29.0941
#
#
#
# Elastic Compliance Matrix: (Units=1/GPa)
#
#
# Indices 1 2 3 4 5 6 
#
# 1 0.009096 -0.000586 -0.001519 0.000000 0.000000 0.000000
# 2 -0.000586 0.007561 -0.006475 0.000000 0.000000 0.000000
# 3 -0.001519 -0.006475 0.038187 0.000000 0.000000 0.000000
# 4 0.000000 0.000000 0.000000 0.031438 0.000000 0.000000
# 5 0.000000 0.000000 0.000000 0.000000 0.103557 0.000000
# 6 0.000000 0.000000 0.000000 0.000000 0.000000 0.034371
#
#
# Mechanical properties :
#
#
# Convention : Reuss Voigt Hill
#
# Bulk Modulus (GPa) = 26.53587 44.12573 35.33080
# Shear Modulus (GPa) = 19.69037 30.84726 25.26881
#
# Velocity S-wave (km/s) = 2.87424 3.59753 3.25603
# Velocity P-wave (km/s) = 4.70621 5.98077 5.38136
#
# Compressibility (1/GPa) = 0.03768484
#
# Stress axis : x y z
#
# Youngs Moduli (GPa) = 109.93263 132.25901 26.18689
#
# Poissons Ratio (x) = 0.07753 0.03978
# Poissons Ratio (y) = 0.06444 0.16955
# Poissons Ratio (z) = 0.16699 0.85633
#
# Static dielectric constant tensor:
#      x y z
#    x 1.890680 0.000000 0.000000 
#    y 0.000000 1.983350 0.000000 
#    z 0.000000 0.000000 2.136850 
# 
# From -- ./inp_files/19384.got.cif
#   From: 2010.05.17/outbox.cif.g08.bks.cpg/sg46_10_cif.got.tgz:19384.got - 2010.06.03 19:58:25.
