data_PCOD9380595
_publ_section_title
;
Structure prediction by ZEFSAII (Michael W. Deem and Ramdas Pophale) SiO2 
 PCOD9380595
Probable space group: I M A 2
;
_chemical_formula_sum "Si O2"
_cell_formula_units_Z 60
_cell_length_a 19.004696
_cell_length_b 5.761942
_cell_length_c 24.973537
_cell_angle_alpha 90.000000
_cell_angle_beta 90.000000
_cell_angle_gamma 90.000000
_cell_volume 2734.701099
_symmetry_space_group_name_H-M "I M A 2"
_symmetry_group_IT_number 46
_symmetry_cell_setting 'orthorhombic'
loop_
_space_group_symop_operation_xyz
x,y,z
-x,-y,z
1/2-x,y,z
1/2+x,-y,z
1/2+x,1/2+y,1/2+z
1/2-x,1/2-y,1/2+z
-x,1/2+y,1/2+z
x,1/2-y,1/2+z
loop_
_atom_site_type_symbol
_atom_site_label
_atom_site_fract_x
_atom_site_fract_y
_atom_site_fract_z
Si Si1 0.579083 0.982156 0.587950
Si Si2 0.900289 0.664832 0.368362
Si Si3 0.165992 0.649522 0.841467
Si Si4 0.173663 0.875554 0.043039
Si Si5 0.171506 0.160744 0.150407
Si Si6 0.077999 0.883488 0.233031
Si Si7 0.000000 0.000000 0.777772
Si Si8 0.568364 0.642421 0.486774
O O1 0.628153 0.888475 0.635422
O O2 0.575144 0.832431 0.532995
O O3 0.500000 0.000000 0.607932
O O4 0.614848 0.210371 0.566257
O O5 0.851109 0.896672 0.368542
O O6 0.940185 0.698742 0.424717
O O7 0.956519 0.664335 0.319151
O O8 0.865669 0.401319 0.363026
O O9 0.250000 0.677910 0.837823
O O10 0.127935 0.600098 0.784879
O O11 0.250000 0.765856 0.033127
O O12 0.180969 0.056127 0.091186
O O13 0.140672 0.996641 0.991529
O O14 0.250000 0.196498 0.173507
O O15 0.123213 0.989928 0.185138
O O16 0.056280 0.616239 0.238804
O O17 0.000000 0.000000 0.233533
O O18 0.500000 0.500000 0.502934
#
# Coordination Sequence:
#
# PCOD9380595 Si02
#       8
#     8   8   8   8   8   8   4   8
#     4  11  23  40  68  99 134 178 234 288 348 424
#     4  11  24  43  72  99 143 184 238 292 362 422
#     4  11  25  46  68 100 143 185 236 296 360 434
#     4  10  23  43  63  94 135 173 221 284 351 419
#     4  10  24  44  66  96 137 181 225 284 359 428
#     4  11  23  41  70  99 132 177 232 290 354 422
#     4  10  22  44  64 104 132 178 234 296 350 416
#     4  11  23  41  67  98 130 179 232 283 348 427
#
# _framework density 21.940239999999999
#
# number of rings (size 3 to 8) (size 9 to 14) (size 15 to 20)
#    0.000    1.333    3.333    1.200    3.733    2.667 
#    0.000    0.000    0.000    0.000    0.000    0.000 
#    0.000    0.000    0.000    0.000    0.000    0.000 
#
# Total GULP energy -167020.687088 kJ/mol
# GULP energy per Si atom -5567.356236 kJ/mol
# Density = 2.189030 g / cm^3
# Si number density = 21.940240 Si / 1000 Ang^3
#
#
#
# Elastic Constant Matrix: (Units=GPa)
#
#
# Indices 1 2 3 4 5 6 
#
# 1 140.3014 24.3886 13.6912 0.0000 0.0000 0.0000
# 2 24.3886 56.6226 17.6892 0.0000 0.0000 0.0000
# 3 13.6912 17.6892 75.8199 0.0000 0.0000 0.0000
# 4 0.0000 0.0000 0.0000 15.8341 0.0000 0.0000
# 5 0.0000 0.0000 0.0000 0.0000 20.7134 0.0000
# 6 0.0000 0.0000 0.0000 0.0000 0.0000 24.7509
#
#
#
# Elastic Compliance Matrix: (Units=1/GPa)
#
#
# Indices 1 2 3 4 5 6 
#
# 1 0.007736 -0.003123 -0.000668 0.000000 0.000000 0.000000
# 2 -0.003123 0.020310 -0.004175 0.000000 0.000000 0.000000
# 3 -0.000668 -0.004175 0.014284 0.000000 0.000000 0.000000
# 4 0.000000 0.000000 0.000000 0.063155 0.000000 0.000000
# 5 0.000000 0.000000 0.000000 0.000000 0.048278 0.000000
# 6 0.000000 0.000000 0.000000 0.000000 0.000000 0.040403
#
#
# Mechanical properties :
#
#
# Convention : Reuss Voigt Hill
#
# Bulk Modulus (GPa) = 37.88199 42.69799 40.28999
# Shear Modulus (GPa) = 22.84191 26.72467 24.78329
#
# Velocity S-wave (km/s) = 3.23010 3.49387 3.36457
# Velocity P-wave (km/s) = 5.58703 5.98159 5.78767
#
# Compressibility (1/GPa) = 0.02639777
#
# Stress axis : x y z
#
# Youngs Moduli (GPa) = 129.27215 49.23648 70.00965
#
# Poissons Ratio (x) = 0.15377 0.04678
# Poissons Ratio (y) = 0.40374 0.29226
# Poissons Ratio (z) = 0.08638 0.20554
#
# Static dielectric constant tensor:
#      x y z
#    x 1.844330 0.000000 0.000000 
#    y 0.000000 1.877470 0.000000 
#    z 0.000000 0.000000 1.770160 
# 
# From -- ./inp_files/24693.got.cif
#   From: 2010.05.17/outbox.cif.g08.bks.cpg/sg46_13_cif.got.tgz:24693.got - 2010.06.03 19:58:25.
