data_PCOD9380059
_publ_section_title
;
Structure prediction by ZEFSAII (Michael W. Deem and Ramdas Pophale) SiO2 
 PCOD9380059
Probable space group: I M A 2
;
_chemical_formula_sum "Si O2"
_cell_formula_units_Z 48
_cell_length_a 8.716804
_cell_length_b 31.468278
_cell_length_c 9.234374
_cell_angle_alpha 90.000000
_cell_angle_beta 90.000000
_cell_angle_gamma 90.000000
_cell_volume 2533.014751
_symmetry_space_group_name_H-M "I M A 2"
_symmetry_group_IT_number 46
_symmetry_cell_setting 'orthorhombic'
loop_
_space_group_symop_operation_xyz
x,y,z
-x,-y,z
1/2-x,y,z
1/2+x,-y,z
1/2+x,1/2+y,1/2+z
1/2-x,1/2-y,1/2+z
-x,1/2+y,1/2+z
x,1/2-y,1/2+z
loop_
_atom_site_type_symbol
_atom_site_label
_atom_site_fract_x
_atom_site_fract_y
_atom_site_fract_z
Si Si1 0.932816 0.045726 0.488490
Si Si2 0.434369 0.373833 0.153977
Si Si3 0.565648 0.627886 0.491174
Si Si4 0.065782 0.953918 0.148787
Si Si5 0.565130 0.788486 0.481637
Si Si6 0.066510 0.708856 0.658224
O O1 0.750000 0.044002 0.498633
O O2 0.973387 0.052816 0.318947
O O3 0.995245 0.084167 0.583666
O O4 0.000000 0.000000 0.531973
O O5 0.250000 0.377429 0.147169
O O6 0.477118 0.368959 0.322053
O O7 0.478546 0.332021 0.063615
O O8 0.750000 0.630894 0.503314
O O9 0.508266 0.583398 0.555735
O O10 0.489747 0.665989 0.580394
O O11 0.250000 0.953547 0.134625
O O12 0.000000 0.000000 0.107400
O O13 0.750000 0.785180 0.480125
O O14 0.496218 0.748691 0.567333
O O15 0.502468 0.789292 0.319087
O O16 0.250000 0.709864 0.664512
#
# Coordination Sequence:
#
# PCOD9380059 Si02
#       6
#     8   8   8   8   8   8
#     4  10  21  37  60  86 116 152 194 242 295 353
#     4  10  23  40  60  86 117 154 199 244 291 349
#     4  11  23  40  61  87 120 160 202 246 297 358
#     4  10  21  38  60  88 118 154 199 248 301 359
#     4  11  23  42  66  90 120 161 203 245 297 362
#     4  12  25  41  63  93 125 157 198 251 303 355
#
# _framework density 18.949752
#
# number of rings (size 3 to 8) (size 9 to 14) (size 15 to 20)
#    0.000    1.333    0.000    5.500    0.000    9.333 
#    0.000    0.000    0.000    0.000    0.000    0.000 
#    0.000    0.000    0.000    0.000    0.000    0.000 
#
# Total GULP energy -134266.386252 kJ/mol
# GULP energy per Si atom -5594.432761 kJ/mol
# Density = 1.890662 g / cm^3
# Si number density = 18.949752 Si / 1000 Ang^3
#
#
#
# Elastic Constant Matrix: (Units=GPa)
#
#
# Indices 1 2 3 4 5 6 
#
# 1 74.9415 60.7874 61.7500 0.0000 0.0000 0.0000
# 2 60.7874 179.8022 114.9557 -0.0002 -0.0001 0.0000
# 3 61.7500 114.9557 161.9369 -0.0001 -0.0001 0.0001
# 4 0.0000 -0.0002 -0.0001 43.2444 0.0000 0.0000
# 5 0.0000 -0.0001 -0.0001 0.0000 29.8729 -0.0001
# 6 0.0000 0.0000 0.0001 0.0000 -0.0001 39.8553
#
#
#
# Elastic Compliance Matrix: (Units=1/GPa)
#
#
# Indices 1 2 3 4 5 6 
#
# 1 0.020632 -0.003562 -0.005339 0.000000 0.000000 0.000000
# 2 -0.003562 0.010798 -0.006307 0.000000 0.000000 0.000000
# 3 -0.005339 -0.006307 0.012689 0.000000 0.000000 0.000000
# 4 0.000000 0.000000 0.000000 0.023124 0.000000 0.000000
# 5 0.000000 0.000000 0.000000 0.000000 0.033475 0.000000
# 6 0.000000 0.000000 0.000000 0.000000 0.000000 0.025091
#
#
# Mechanical properties :
#
#
# Convention : Reuss Voigt Hill
#
# Bulk Modulus (GPa) = 72.97827 99.07407 86.02617
# Shear Modulus (GPa) = 31.09584 34.54038 32.81811
#
# Velocity S-wave (km/s) = 4.05527 4.27398 4.16606
# Velocity P-wave (km/s) = 7.77959 8.76082 8.28474
#
# Compressibility (1/GPa) = 0.01370271
#
# Stress axis : x y z
#
# Youngs Moduli (GPa) = 48.46833 92.60596 78.81088
#
# Poissons Ratio (x) = 0.32984 0.42077
# Poissons Ratio (y) = 0.17263 0.49709
# Poissons Ratio (z) = 0.25877 0.58410
#
# Static dielectric constant tensor:
#      x y z
#    x 1.635570 0.000000 0.000000 
#    y 0.000000 1.619250 0.000000 
#    z 0.000000 0.000000 1.636680 
# 
# From -- ./inp_files/3924.got.cif
#   From: 2010.05.17/outbox.cif.g08.bks.cpg/sg46_2_cif.got.tgz:3924.got - 2010.06.03 19:58:25.
