data_PCOD9380720
_publ_section_title
;
Structure prediction by ZEFSAII (Michael W. Deem and Ramdas Pophale) SiO2 
 PCOD9380720
Probable space group: I M A 2
;
_chemical_formula_sum "Si O2"
_cell_formula_units_Z 64
_cell_length_a 33.272441
_cell_length_b 9.081353
_cell_length_c 11.341641
_cell_angle_alpha 90.000000
_cell_angle_beta 90.000000
_cell_angle_gamma 90.000000
_cell_volume 3426.976429
_symmetry_space_group_name_H-M "I M A 2"
_symmetry_group_IT_number 46
_symmetry_cell_setting 'orthorhombic'
loop_
_space_group_symop_operation_xyz
x,y,z
-x,-y,z
1/2-x,y,z
1/2+x,-y,z
1/2+x,1/2+y,1/2+z
1/2-x,1/2-y,1/2+z
-x,1/2+y,1/2+z
x,1/2-y,1/2+z
loop_
_atom_site_type_symbol
_atom_site_label
_atom_site_fract_x
_atom_site_fract_y
_atom_site_fract_z
Si Si1 0.915995 0.839720 0.009790
Si Si2 0.076770 0.819537 0.630675
Si Si3 0.994958 0.834424 0.151277
Si Si4 0.459454 0.429635 0.298864
Si Si5 0.203184 0.157332 0.465115
Si Si6 0.796666 0.871051 0.193162
Si Si7 0.374204 0.952611 0.198237
Si Si8 0.120941 0.027867 0.460625
O O1 0.961987 0.828065 0.049931
O O2 0.894243 0.954676 0.093654
O O3 0.920999 0.899344 0.878956
O O4 0.895431 0.681418 0.011761
O O5 0.109458 0.713607 0.692876
O O6 0.038109 0.718526 0.605339
O O7 0.057007 0.953582 0.703700
O O8 0.098835 0.892549 0.520938
O O9 0.976127 0.722379 0.245553
O O10 0.000000 0.000000 0.197463
O O11 0.500000 0.500000 0.353720
O O12 0.250000 0.112280 0.474184
O O13 0.197349 0.204321 0.325019
O O14 0.196503 0.271498 0.574813
O O15 0.169016 0.033255 0.479838
O O16 0.750000 0.914287 0.189710
O O17 0.826971 0.009173 0.190010
O O18 0.387802 0.021130 0.322206
#
# Coordination Sequence:
#
# PCOD9380720 Si02
#       8
#     8   8   8   8   8   8   8   8
#     4  12  22  39  62  87 120 155 210 254 305 360
#     4  11  25  41  59  85 124 160 210 251 309 370
#     4  11  22  41  58  84 118 160 208 254 310 362
#     4  10  24  41  58  84 119 163 203 257 306 366
#     4   9  18  35  62  92 128 161 204 255 314 376
#     4   9  18  37  62  95 128 163 204 257 315 379
#     4  11  24  39  62  95 119 166 205 252 316 369
#     4  11  24  40  63  90 124 159 206 258 310 366
#
# _framework density 18.675355
#
# number of rings (size 3 to 8) (size 9 to 14) (size 15 to 20)
#    0.000    1.500    3.750    1.125    1.750    1.000 
#    0.000    0.625    0.000    0.000    0.000    0.875 
#    0.000    0.000    0.000    0.000    0.000    0.000 
#
# Total GULP energy -178232.856056 kJ/mol
# GULP energy per Si atom -5569.776752 kJ/mol
# Density = 1.863285 g / cm^3
# Si number density = 18.675355 Si / 1000 Ang^3
#
#
#
# Elastic Constant Matrix: (Units=GPa)
#
#
# Indices 1 2 3 4 5 6 
#
# 1 106.8327 44.3373 42.7725 0.0000 0.0000 0.0000
# 2 44.3373 95.8241 28.9601 0.0000 0.0000 0.0000
# 3 42.7725 28.9601 60.1838 0.0000 0.0000 0.0000
# 4 0.0000 0.0000 0.0000 23.1362 0.0000 0.0000
# 5 0.0000 0.0000 0.0000 0.0000 29.4994 0.0000
# 6 0.0000 0.0000 0.0000 0.0000 0.0000 -7.7753
#
#
#
# Elastic Compliance Matrix: (Units=1/GPa)
#
#
# Indices 1 2 3 4 5 6 
#
# 1 0.014380 -0.004171 -0.008212 0.000000 0.000000 0.000000
# 2 -0.004171 0.013422 -0.003494 0.000000 0.000000 0.000000
# 3 -0.008212 -0.003494 0.024133 0.000000 0.000000 0.000000
# 4 0.000000 0.000000 0.000000 0.043222 0.000000 0.000000
# 5 0.000000 0.000000 0.000000 0.000000 0.033899 0.000000
# 6 0.000000 0.000000 0.000000 0.000000 0.000000 -0.128612
#
#
# Mechanical properties :
#
#
# Convention : Reuss Voigt Hill
#
# Bulk Modulus (GPa) = 49.55477 54.99781 52.27629
# Shear Modulus (GPa) = 128.45096 18.75677 73.60386
#
# Velocity S-wave (km/s) = 8.30243 3.17260 6.28473
# Velocity P-wave (km/s) = 10.88575 6.55239 8.98425
#
# Compressibility (1/GPa) = 0.02017969
#
# Stress axis : x y z
#
# Youngs Moduli (GPa) = 69.54305 74.50565 41.43628
#
# Poissons Ratio (x) = 0.31079 0.34029
# Poissons Ratio (y) = 0.29009 0.14477
# Poissons Ratio (z) = 0.57111 0.26031
#
# Static dielectric constant tensor:
#      x y z
#    x 1.655110 0.000000 0.000000 
#    y 0.000000 1.684640 0.000000 
#    z 0.000000 0.000000 1.711590 
# 
# From -- ./inp_files/13223.got.cif
#   From: 2010.05.17/outbox.cif.g08.bks.cpg/sg46_7_cif.got.tgz:13223.got - 2010.06.03 19:58:25.
