data_PCOD9380167
_publ_section_title
;
Structure prediction by ZEFSAII (Michael W. Deem and Ramdas Pophale) SiO2 
 PCOD9380167
Probable space group: I M A 2
;
_chemical_formula_sum "Si O2"
_cell_formula_units_Z 64
_cell_length_a 14.421948
_cell_length_b 9.479212
_cell_length_c 17.898359
_cell_angle_alpha 90.000000
_cell_angle_beta 90.000000
_cell_angle_gamma 90.000000
_cell_volume 2446.861437
_symmetry_space_group_name_H-M "I M A 2"
_symmetry_group_IT_number 46
_symmetry_cell_setting 'orthorhombic'
loop_
_space_group_symop_operation_xyz
x,y,z
-x,-y,z
1/2-x,y,z
1/2+x,-y,z
1/2+x,1/2+y,1/2+z
1/2-x,1/2-y,1/2+z
-x,1/2+y,1/2+z
x,1/2-y,1/2+z
loop_
_atom_site_type_symbol
_atom_site_label
_atom_site_fract_x
_atom_site_fract_y
_atom_site_fract_z
Si Si1 0.140194 0.324520 0.318910
Si Si2 0.110033 0.515219 0.062522
Si Si3 0.417802 0.609847 0.671976
Si Si4 0.855420 0.230200 0.875706
Si Si5 0.146449 0.215266 0.996415
Si Si6 0.102208 0.581397 0.224314
Si Si7 0.565881 0.320520 0.517970
Si Si8 0.646583 0.988039 0.314346
O O1 0.250000 0.339300 0.296843
O O2 0.139442 0.329294 0.409256
O O3 0.080620 0.431512 0.267665
O O4 0.104333 0.165376 0.306213
O O5 0.000000 0.500000 0.075582
O O6 0.148045 0.523883 0.147161
O O7 0.144578 0.384894 0.013055
O O8 0.113188 0.665746 0.022454
O O9 0.500000 0.500000 0.682445
O O10 0.442583 0.773993 0.687831
O O11 0.387359 0.600239 0.586337
O O12 0.346701 0.557590 0.733213
O O13 0.750000 0.240878 0.902030
O O14 0.913474 0.138576 0.933607
O O15 0.897505 0.386690 0.862735
O O16 0.851350 0.154270 0.795972
O O17 0.250000 0.168291 0.022177
O O18 0.045186 0.175444 0.030321
O O19 0.750000 0.963303 0.344836
#
# Coordination Sequence:
#
# PCOD9380167 Si02
#       8
#     8   8   8   8   8   8   8   8
#     4  10  21  38  63  98 133 168 222 288 352 420
#     4   9  20  39  62  91 127 174 228 280 343 420
#     4  10  23  43  63  90 131 178 230 285 346 420
#     4  10  21  39  64  97 136 180 229 284 352 428
#     4  10  22  40  64  96 136 179 225 282 350 418
#     4  10  22  40  65  95 131 177 228 287 348 415
#     4  10  22  40  63  93 132 178 232 288 345 417
#     4   9  20  39  64  94 128 170 222 280 346 420
#
# _framework density 26.155956
#
# number of rings (size 3 to 8) (size 9 to 14) (size 15 to 20)
#    0.000    2.250    0.000    1.125    0.000   10.500 
#    0.000    6.250    0.000    0.000    0.000    0.000 
#    0.000    0.000    0.000    0.000    0.000    0.000 
#
# Total GULP energy -178314.892369 kJ/mol
# GULP energy per Si atom -5572.340387 kJ/mol
# Density = 2.609642 g / cm^3
# Si number density = 26.155956 Si / 1000 Ang^3
#
#
#
# Elastic Constant Matrix: (Units=GPa)
#
#
# Indices 1 2 3 4 5 6 
#
# 1 83.5536 25.2082 33.2030 0.0000 0.0000 0.0000
# 2 25.2082 186.1706 51.0926 0.0000 0.0000 0.0000
# 3 33.2030 51.0926 145.6710 0.0000 0.0000 0.0000
# 4 0.0000 0.0000 0.0000 29.3995 0.0000 0.0000
# 5 0.0000 0.0000 0.0000 0.0000 820.0581 0.0000
# 6 0.0000 0.0000 0.0000 0.0000 0.0000 17.7173
#
#
#
# Elastic Compliance Matrix: (Units=1/GPa)
#
#
# Indices 1 2 3 4 5 6 
#
# 1 0.013352 -0.001076 -0.002666 0.000000 0.000000 0.000000
# 2 -0.001076 0.006030 -0.001870 0.000000 0.000000 0.000000
# 3 -0.002666 -0.001870 0.008128 0.000000 0.000000 0.000000
# 4 0.000000 0.000000 0.000000 0.034014 0.000000 0.000000
# 5 0.000000 0.000000 0.000000 0.000000 0.001219 0.000000
# 6 0.000000 0.000000 0.000000 0.000000 0.000000 0.056442
#
#
# Mechanical properties :
#
#
# Convention : Reuss Voigt Hill
#
# Bulk Modulus (GPa) = 61.39868 70.48920 65.94394
# Shear Modulus (GPa) = 36.80809 193.82773 115.31791
#
# Velocity S-wave (km/s) = 3.75541 8.61774 6.64713
# Velocity P-wave (km/s) = 6.50609 11.22625 9.17491
#
# Compressibility (1/GPa) = 0.01628700
#
# Stress axis : x y z
#
# Youngs Moduli (GPa) = 74.89236 165.82963 123.02809
#
# Poissons Ratio (x) = 0.17849 0.32798
# Poissons Ratio (y) = 0.08061 0.23003
# Poissons Ratio (z) = 0.19966 0.31006
#
# Static dielectric constant tensor:
#      x y z
#    x -5.420080 0.000000 0.000000 
#    y 0.000000 2.132510 0.000000 
#    z 0.000000 0.000000 2.051950 
# 
# From -- ./inp_files/19612.got.cif
#   From: 2010.05.17/outbox.cif.g08.bks.cpg/sg46_10_cif.got.tgz:19612.got - 2010.06.03 19:58:25.
