data_PCOD9380250
_publ_section_title
;
Structure prediction by ZEFSAII (Michael W. Deem and Ramdas Pophale) SiO2 
 PCOD9380250
Probable space group: I M A 2
;
_chemical_formula_sum "Si O2"
_cell_formula_units_Z 64
_cell_length_a 21.300947
_cell_length_b 9.831461
_cell_length_c 14.908667
_cell_angle_alpha 90.000000
_cell_angle_beta 90.000000
_cell_angle_gamma 90.000000
_cell_volume 3122.164541
_symmetry_space_group_name_H-M "I M A 2"
_symmetry_group_IT_number 46
_symmetry_cell_setting 'orthorhombic'
loop_
_space_group_symop_operation_xyz
x,y,z
-x,-y,z
1/2-x,y,z
1/2+x,-y,z
1/2+x,1/2+y,1/2+z
1/2-x,1/2-y,1/2+z
-x,1/2+y,1/2+z
x,1/2-y,1/2+z
loop_
_atom_site_type_symbol
_atom_site_label
_atom_site_fract_x
_atom_site_fract_y
_atom_site_fract_z
Si Si1 0.900675 0.396230 0.428640
Si Si2 0.324539 0.961751 0.586963
Si Si3 0.946570 0.892406 0.822442
Si Si4 0.177378 0.822865 0.411108
Si Si5 0.429981 0.175783 0.624080
Si Si6 0.572028 0.512827 0.618712
Si Si7 0.824625 0.185752 0.200820
Si Si8 0.495643 0.159397 0.433232
O O1 0.890579 0.505685 0.349039
O O2 0.834593 0.326806 0.450897
O O3 0.927341 0.474001 0.514081
O O4 0.943219 0.257315 0.417409
O O5 0.250000 0.992773 0.587518
O O6 0.348132 0.926067 0.485868
O O7 0.333600 0.830091 0.650609
O O8 0.369184 0.082233 0.616602
O O9 0.960068 0.862151 0.719448
O O10 0.946207 0.750863 0.876260
O O11 0.000000 0.000000 0.854417
O O12 0.250000 0.855918 0.410196
O O13 0.160182 0.812634 0.306905
O O14 0.410144 0.331471 0.628941
O O15 0.475695 0.160869 0.538101
O O16 0.500000 0.500000 0.652465
O O17 0.623825 0.417082 0.662412
O O18 0.750000 0.150615 0.190054
O O19 0.500000 0.000000 0.406035
#
# Coordination Sequence:
#
# PCOD9380250 Si02
#       8
#     8   8   8   8   8   8   8   8
#     4  11  20  43  62  86 134 169 209 267 328 390
#     4  10  22  42  66  95 125 164 219 277 329 388
#     4  10  23  41  60  88 125 169 212 260 319 399
#     4  10  21  39  69  97 123 166 225 275 319 390
#     4  12  24  39  64  90 128 169 213 264 331 395
#     4  12  24  41  63  95 138 176 220 272 338 405
#     4  10  23  44  69  96 128 175 230 277 331 405
#     4  11  23  39  61  91 125 166 210 262 327 391
#
# _framework density 20.4986
#
# number of rings (size 3 to 8) (size 9 to 14) (size 15 to 20)
#    0.000    1.250    3.750    2.250    0.000    6.000 
#    0.000    0.000    0.000    0.750    0.000    0.000 
#    0.000    0.000    0.000    0.000    0.000    0.000 
#
# Total GULP energy -178297.976418 kJ/mol
# GULP energy per Si atom -5571.811763 kJ/mol
# Density = 2.045194 g / cm^3
# Si number density = 20.498600 Si / 1000 Ang^3
#
#
#
# Elastic Constant Matrix: (Units=GPa)
#
#
# Indices 1 2 3 4 5 6 
#
# 1 55.4862 50.2580 41.4062 0.0000 0.0000 0.0000
# 2 50.2580 166.9735 54.9501 0.0000 0.0000 0.0000
# 3 41.4062 54.9501 118.8944 0.0000 0.0000 0.0000
# 4 0.0000 0.0000 0.0000 9.4766 0.0000 0.0000
# 5 0.0000 0.0000 0.0000 0.0000 35.7642 0.0000
# 6 0.0000 0.0000 0.0000 0.0000 0.0000 27.3191
#
#
#
# Elastic Compliance Matrix: (Units=1/GPa)
#
#
# Indices 1 2 3 4 5 6 
#
# 1 0.029218 -0.006423 -0.007207 0.000000 0.000000 0.000000
# 2 -0.006423 0.008475 -0.001680 0.000000 0.000000 0.000000
# 3 -0.007207 -0.001680 0.011697 0.000000 0.000000 0.000000
# 4 0.000000 0.000000 0.000000 0.105523 0.000000 0.000000
# 5 0.000000 0.000000 0.000000 0.000000 0.027961 0.000000
# 6 0.000000 0.000000 0.000000 0.000000 0.000000 0.036604
#
#
# Mechanical properties :
#
#
# Convention : Reuss Voigt Hill
#
# Bulk Modulus (GPa) = 53.27474 70.50918 61.89196
# Shear Modulus (GPa) = 19.50412 27.49464 23.49938
#
# Velocity S-wave (km/s) = 3.08796 3.66634 3.38951
# Velocity P-wave (km/s) = 6.22574 7.23840 6.75109
#
# Compressibility (1/GPa) = 0.01877062
#
# Stress axis : x y z
#
# Youngs Moduli (GPa) = 34.22515 117.99242 85.48944
#
# Poissons Ratio (x) = 0.75783 0.61613
# Poissons Ratio (y) = 0.21982 0.14364
# Poissons Ratio (z) = 0.24667 0.19825
#
# Static dielectric constant tensor:
#      x y z
#    x 1.939610 0.000000 0.000000 
#    y 0.000000 1.765960 0.000000 
#    z 0.000000 0.000000 1.812130 
# 
# From -- ./inp_files/17411.got.cif
#   From: 2010.05.17/outbox.cif.g08.bks.cpg/sg46_9_cif.got.tgz:17411.got - 2010.06.03 19:58:25.
