data_PCOD9380220
_publ_section_title
;
Structure prediction by ZEFSAII (Michael W. Deem and Ramdas Pophale) SiO2 
 PCOD9380220
Probable space group: I M A 2
;
_chemical_formula_sum "Si O2"
_cell_formula_units_Z 48
_cell_length_a 30.388531
_cell_length_b 7.235865
_cell_length_c 9.346604
_cell_angle_alpha 90.000000
_cell_angle_beta 90.000000
_cell_angle_gamma 90.000000
_cell_volume 2055.199591
_symmetry_space_group_name_H-M "I M A 2"
_symmetry_group_IT_number 46
_symmetry_cell_setting 'orthorhombic'
loop_
_space_group_symop_operation_xyz
x,y,z
-x,-y,z
1/2-x,y,z
1/2+x,-y,z
1/2+x,1/2+y,1/2+z
1/2-x,1/2-y,1/2+z
-x,1/2+y,1/2+z
x,1/2-y,1/2+z
loop_
_atom_site_type_symbol
_atom_site_label
_atom_site_fract_x
_atom_site_fract_y
_atom_site_fract_z
Si Si1 0.660881 0.582879 0.416900
Si Si2 0.800769 0.877188 0.234949
Si Si3 0.488124 0.218800 0.542799
Si Si4 0.567311 0.648349 0.295284
Si Si5 0.421707 0.764124 0.659238
Si Si6 0.638528 0.346364 0.891270
O O1 0.694638 0.676593 0.307301
O O2 0.674529 0.614706 0.581587
O O3 0.614241 0.676359 0.370385
O O4 0.656320 0.364095 0.389445
O O5 0.750000 0.925704 0.210987
O O6 0.822621 0.013396 0.353517
O O7 0.472438 0.289496 0.392847
O O8 0.445813 0.239485 0.645186
O O9 0.533329 0.311420 0.594193
O O10 0.500000 0.000000 0.534985
O O11 0.565820 0.430784 0.264148
O O12 0.395145 0.626083 0.759207
O O13 0.389626 0.850839 0.537724
#
# Coordination Sequence:
#
# PCOD9380220 Si02
#       6
#     8   8   8   8   8   8
#     4  11  26  48  75 107 148 194 240 304 378 438
#     4  12  28  47  74 109 143 188 249 307 375 453
#     4  10  21  39  63 102 144 188 245 303 347 432
#     4  10  22  41  66 103 140 191 243 297 358 432
#     4  10  22  43  69 102 144 187 246 292 364 426
#     4  11  24  48  74 106 142 201 236 307 369 442
#
# _framework density 23.355395000000001
#
# number of rings (size 3 to 8) (size 9 to 14) (size 15 to 20)
#    0.000    1.333    1.667    2.500    9.333    2.667 
#    0.000    2.500    0.000    0.000    0.000    0.000 
#    0.000    0.000    0.000    0.000    0.000    0.000 
#
# Total GULP energy -134259.592798 kJ/mol
# GULP energy per Si atom -5594.149700 kJ/mol
# Density = 2.330224 g / cm^3
# Si number density = 23.355395 Si / 1000 Ang^3
#
#
#
# Elastic Constant Matrix: (Units=GPa)
#
#
# Indices 1 2 3 4 5 6 
#
# 1 104.5323 28.3896 41.4361 0.0000 0.0000 0.0000
# 2 28.3896 79.7944 21.2106 0.0000 0.0000 0.0000
# 3 41.4361 21.2106 99.1659 0.0000 0.0000 0.0000
# 4 0.0000 0.0000 0.0000 28.0686 0.0000 0.0000
# 5 0.0000 0.0000 0.0000 0.0000 37.0680 0.0000
# 6 0.0000 0.0000 0.0000 0.0000 0.0000 19.2382
#
#
#
# Elastic Compliance Matrix: (Units=1/GPa)
#
#
# Indices 1 2 3 4 5 6 
#
# 1 0.012173 -0.003158 -0.004411 0.000000 0.000000 0.000000
# 2 -0.003158 0.014107 -0.001698 0.000000 0.000000 0.000000
# 3 -0.004411 -0.001698 0.012290 0.000000 0.000000 0.000000
# 4 0.000000 0.000000 0.000000 0.035627 0.000000 0.000000
# 5 0.000000 0.000000 0.000000 0.000000 0.026977 0.000000
# 6 0.000000 0.000000 0.000000 0.000000 0.000000 0.051980
#
#
# Mechanical properties :
#
#
# Convention : Reuss Voigt Hill
#
# Bulk Modulus (GPa) = 49.90902 51.72946 50.81924
# Shear Modulus (GPa) = 28.03213 29.70538 28.86875
#
# Velocity S-wave (km/s) = 3.46821 3.57022 3.51958
# Velocity P-wave (km/s) = 6.11995 6.26037 6.19055
#
# Compressibility (1/GPa) = 0.02003646
#
# Stress axis : x y z
#
# Youngs Moduli (GPa) = 82.15181 70.88587 81.36541
#
# Poissons Ratio (x) = 0.22388 0.35888
# Poissons Ratio (y) = 0.25947 0.13813
# Poissons Ratio (z) = 0.36235 0.12034
#
# Static dielectric constant tensor:
#      x y z
#    x 1.880480 0.000000 0.000000 
#    y 0.000000 1.906670 0.000000 
#    z 0.000000 0.000000 1.859970 
# 
# From -- ./inp_files/8387.got.cif
#   From: 2010.05.17/outbox.cif.g08.bks.cpg/sg46_5_cif.got.tgz:8387.got - 2010.06.03 19:58:25.
