data_PCOD9380707
_publ_section_title
;
Structure prediction by ZEFSAII (Michael W. Deem and Ramdas Pophale) SiO2 
 PCOD9380707
Probable space group: I M A 2
;
_chemical_formula_sum "Si O2"
_cell_formula_units_Z 40
_cell_length_a 19.602397
_cell_length_b 9.187405
_cell_length_c 9.918263
_cell_angle_alpha 90.000000
_cell_angle_beta 90.000000
_cell_angle_gamma 90.000000
_cell_volume 1786.231164
_symmetry_space_group_name_H-M "I M A 2"
_symmetry_group_IT_number 46
_symmetry_cell_setting 'orthorhombic'
loop_
_space_group_symop_operation_xyz
x,y,z
-x,-y,z
1/2-x,y,z
1/2+x,-y,z
1/2+x,1/2+y,1/2+z
1/2-x,1/2-y,1/2+z
-x,1/2+y,1/2+z
x,1/2-y,1/2+z
loop_
_atom_site_type_symbol
_atom_site_label
_atom_site_fract_x
_atom_site_fract_y
_atom_site_fract_z
Si Si1 0.325157 0.480691 0.875000
Si Si2 0.542377 0.237604 0.045238
Si Si3 0.877113 0.508364 0.164086
Si Si4 0.050515 0.291722 0.782457
Si Si5 0.175337 0.825843 0.905830
O O1 0.250000 0.434044 0.827819
O O2 0.388554 0.404016 0.805423
O O3 0.329361 0.655782 0.864161
O O4 0.333748 0.445211 0.034180
O O5 0.569496 0.390516 0.105256
O O6 0.500032 0.164704 0.163248
O O7 0.493905 0.267316 0.917300
O O8 0.609777 0.150752 0.999703
O O9 0.915397 0.640791 0.234457
O O10 0.832754 0.424619 0.274832
O O11 0.250000 0.847434 0.969654
#
# Coordination Sequence:
#
# PCOD9380707 Si02
#       5
#     8   8   8   8   8
#     4  10  24  45  70 103 144 191 240 297 359 428
#     4  11  24  44  70 104 142 184 237 292 355 429
#     4  11  23  46  71 102 147 188 239 294 368 422
#     4  12  24  45  74 103 142 188 239 295 361 428
#     4  10  23  45  73 103 142 191 237 289 359 427
#
# _framework density 22.393518
#
# number of rings (size 3 to 8) (size 9 to 14) (size 15 to 20)
#    0.000    1.200    4.000    1.200    2.800    2.400 
#   10.800    0.000    0.000    0.000    0.000    0.000 
#    0.000    0.000    0.000    0.000    0.000    0.000 
#
# Total GULP energy -111984.992442 kJ/mol
# GULP energy per Si atom -5599.249622 kJ/mol
# Density = 2.234255 g / cm^3
# Si number density = 22.393518 Si / 1000 Ang^3
#
#
#
# Elastic Constant Matrix: (Units=GPa)
#
#
# Indices 1 2 3 4 5 6 
#
# 1 186.2374 38.8704 74.0803 0.0000 0.0000 0.0000
# 2 38.8704 53.1464 26.3032 0.0000 0.0000 0.0000
# 3 74.0803 26.3032 104.1720 0.0000 0.0000 0.0000
# 4 0.0000 0.0000 0.0000 22.1834 0.0000 0.0000
# 5 0.0000 0.0000 0.0000 0.0000 38.2263 0.0000
# 6 0.0000 0.0000 0.0000 0.0000 0.0000 14.6256
#
#
#
# Elastic Compliance Matrix: (Units=1/GPa)
#
#
# Indices 1 2 3 4 5 6 
#
# 1 0.008012 -0.003474 -0.004820 0.000000 0.000000 0.000000
# 2 -0.003474 0.023010 -0.003339 0.000000 0.000000 0.000000
# 3 -0.004820 -0.003339 0.013871 0.000000 0.000000 0.000000
# 4 0.000000 0.000000 0.000000 0.045079 0.000000 0.000000
# 5 0.000000 0.000000 0.000000 0.000000 0.026160 0.000000
# 6 0.000000 0.000000 0.000000 0.000000 0.000000 0.068373
#
#
# Mechanical properties :
#
#
# Convention : Reuss Voigt Hill
#
# Bulk Modulus (GPa) = 46.24377 69.11817 57.68097
# Shear Modulus (GPa) = 23.25799 28.62719 25.94259
#
# Velocity S-wave (km/s) = 3.22623 3.57931 3.40735
# Velocity P-wave (km/s) = 5.87992 6.92923 6.42603
#
# Compressibility (1/GPa) = 0.02162453
#
# Stress axis : x y z
#
# Youngs Moduli (GPa) = 124.81240 43.46023 72.09476
#
# Poissons Ratio (x) = 0.15099 0.34753
# Poissons Ratio (y) = 0.43362 0.24074
# Poissons Ratio (z) = 0.60165 0.14513
#
# Static dielectric constant tensor:
#      x y z
#    x 1.801490 0.000000 0.000000 
#    y 0.000000 1.816590 0.000000 
#    z 0.000000 0.000000 1.820840 
# 
# From -- ./inp_files/7252.got.cif
#   From: 2010.05.17/outbox.cif.g08.bks.cpg/sg46_4_cif.got.tgz:7252.got - 2010.06.03 19:58:25.
