data_PCOD9380085
_publ_section_title
;
Structure prediction by ZEFSAII (Michael W. Deem and Ramdas Pophale) SiO2 
 PCOD9380085
Probable space group: I M A 2
;
_chemical_formula_sum "Si O2"
_cell_formula_units_Z 48
_cell_length_a 15.623926
_cell_length_b 11.544551
_cell_length_c 13.428348
_cell_angle_alpha 90.000000
_cell_angle_beta 90.000000
_cell_angle_gamma 90.000000
_cell_volume 2422.087384
_symmetry_space_group_name_H-M "I M A 2"
_symmetry_group_IT_number 46
_symmetry_cell_setting 'orthorhombic'
loop_
_space_group_symop_operation_xyz
x,y,z
-x,-y,z
1/2-x,y,z
1/2+x,-y,z
1/2+x,1/2+y,1/2+z
1/2-x,1/2-y,1/2+z
-x,1/2+y,1/2+z
x,1/2-y,1/2+z
loop_
_atom_site_type_symbol
_atom_site_label
_atom_site_fract_x
_atom_site_fract_y
_atom_site_fract_z
Si Si1 0.885197 0.875212 0.109460
Si Si2 0.009317 0.636726 0.874265
Si Si3 0.349209 0.225818 0.784994
Si Si4 0.933376 0.316224 0.526273
Si Si5 0.846117 0.511113 0.406061
Si Si6 0.153500 0.880721 0.211772
O O1 0.856094 0.762603 0.169565
O O2 0.985621 0.865146 0.087146
O O3 0.862570 0.985627 0.178315
O O4 0.845937 0.902612 0.001882
O O5 0.082580 0.655884 0.791064
O O6 0.000000 0.500000 0.885590
O O7 0.920408 0.695704 0.839714
O O8 0.039953 0.698635 0.974433
O O9 0.250000 0.245780 0.815732
O O10 0.369742 0.092963 0.813750
O O11 0.907805 0.407998 0.440300
O O12 0.859202 0.311927 0.608158
O O13 0.750000 0.465516 0.391951
O O14 0.250000 0.869089 0.249410
#
# Coordination Sequence:
#
# PCOD9380085 Si02
#       6
#     8   8   8   8   8   8
#     4  11  19  36  61  90 120 159 203 259 305 358
#     4  12  24  40  63  92 127 169 209 250 316 373
#     4  11  22  37  61  93 124 156 208 266 311 362
#     4  11  22  39  63  90 127 160 208 260 308 370
#     4  10  21  37  62  94 121 160 212 258 314 369
#     4  11  22  39  65  92 120 162 216 260 302 368
#
# _framework density 19.817616000000001
#
# number of rings (size 3 to 8) (size 9 to 14) (size 15 to 20)
#    0.000    1.000    5.000    5.000    0.000    1.333 
#    0.000    1.667    0.000    0.000    0.000    0.000 
#    0.000    0.000    0.000    0.000    0.000    0.000 
#
# Total GULP energy -133975.292593 kJ/mol
# GULP energy per Si atom -5582.303858 kJ/mol
# Density = 1.977251 g / cm^3
# Si number density = 19.817616 Si / 1000 Ang^3
#
#
#
# Elastic Constant Matrix: (Units=GPa)
#
#
# Indices 1 2 3 4 5 6 
#
# 1 123.5322 37.8556 7.1188 0.0000 0.0000 0.0000
# 2 37.8556 54.0287 18.8314 0.0000 0.0000 0.0000
# 3 7.1188 18.8314 41.2494 0.0000 0.0000 0.0000
# 4 0.0000 0.0000 0.0000 39.7800 0.0000 0.0000
# 5 0.0000 0.0000 0.0000 0.0000 15.1338 0.0000
# 6 0.0000 0.0000 0.0000 0.0000 0.0000 10.8487
#
#
#
# Elastic Compliance Matrix: (Units=1/GPa)
#
#
# Indices 1 2 3 4 5 6 
#
# 1 0.010423 -0.007939 0.001826 0.000000 0.000000 0.000000
# 2 -0.007939 0.028058 -0.011439 0.000000 0.000000 0.000000
# 3 0.001826 -0.011439 0.029150 0.000000 0.000000 0.000000
# 4 0.000000 0.000000 0.000000 0.025138 0.000000 0.000000
# 5 0.000000 0.000000 0.000000 0.000000 0.066077 0.000000
# 6 0.000000 0.000000 0.000000 0.000000 0.000000 0.092177
#
#
# Mechanical properties :
#
#
# Convention : Reuss Voigt Hill
#
# Bulk Modulus (GPa) = 30.74485 38.49131 34.61808
# Shear Modulus (GPa) = 16.83669 23.48614 20.16141
#
# Velocity S-wave (km/s) = 2.91792 3.44628 3.19305
# Velocity P-wave (km/s) = 5.18651 5.94144 5.57677
#
# Compressibility (1/GPa) = 0.03252577
#
# Stress axis : x y z
#
# Youngs Moduli (GPa) = 95.94421 35.64009 34.30532
#
# Poissons Ratio (x) = 0.28295 -0.06263
# Poissons Ratio (y) = 0.76171 0.39243
# Poissons Ratio (z) = -0.17516 0.40769
#
# Static dielectric constant tensor:
#      x y z
#    x 1.746170 0.000000 0.000000 
#    y 0.000000 1.687570 0.000000 
#    z 0.000000 0.000000 1.714180 
# 
# From -- ./inp_files/15864.got.cif
#   From: 2010.05.17/outbox.cif.g08.bks.cpg/sg46_8_cif.got.tgz:15864.got - 2010.06.03 19:58:25.
