data_PCOD9380687
_publ_section_title
;
Structure prediction by ZEFSAII (Michael W. Deem and Ramdas Pophale) SiO2 
 PCOD9380687
Probable space group: I M A 2
;
_chemical_formula_sum "Si O2"
_cell_formula_units_Z 48
_cell_length_a 33.640865
_cell_length_b 7.532754
_cell_length_c 9.668514
_cell_angle_alpha 90.000000
_cell_angle_beta 90.000000
_cell_angle_gamma 90.000000
_cell_volume 2450.082280
_symmetry_space_group_name_H-M "I M A 2"
_symmetry_group_IT_number 46
_symmetry_cell_setting 'orthorhombic'
loop_
_space_group_symop_operation_xyz
x,y,z
-x,-y,z
1/2-x,y,z
1/2+x,-y,z
1/2+x,1/2+y,1/2+z
1/2-x,1/2-y,1/2+z
-x,1/2+y,1/2+z
x,1/2-y,1/2+z
loop_
_atom_site_type_symbol
_atom_site_label
_atom_site_fract_x
_atom_site_fract_y
_atom_site_fract_z
Si Si1 0.202377 0.033534 0.353890
Si Si2 0.545299 0.935100 0.237341
Si Si3 0.044427 0.078259 0.563256
Si Si4 0.399541 0.775741 0.686119
Si Si5 0.297733 0.140952 0.042364
Si Si6 0.345406 0.687387 0.436681
O O1 0.250000 0.007647 0.356680
O O2 0.192195 0.117243 0.204202
O O3 0.191478 0.170523 0.475657
O O4 0.180669 0.848649 0.378035
O O5 0.550294 0.892836 0.399742
O O6 0.550938 0.760631 0.145265
O O7 0.500000 0.000000 0.216549
O O8 0.574875 0.095820 0.200652
O O9 0.073999 0.928907 0.619245
O O10 0.000000 0.000000 0.584225
O O11 0.362753 0.739628 0.585234
O O12 0.382500 0.834955 0.833837
O O13 0.250000 0.121085 0.029327
O O14 0.319432 0.987909 0.956213
#
# Coordination Sequence:
#
# PCOD9380687 Si02
#       6
#     8   8   8   8   8   8
#     4  10  23  43  68  98 131 175 223 264 322 390
#     4  11  25  44  69  96 127 168 219 270 328 393
#     4  11  25  44  69  95 127 169 217 272 329 392
#     4  12  26  44  63 101 131 173 220 270 332 389
#     4  10  23  43  68  97 131 176 221 266 323 388
#     4  12  25  44  64  95 141 171 218 268 329 388
#
# _framework density 19.591180000000001
#
# number of rings (size 3 to 8) (size 9 to 14) (size 15 to 20)
#    0.000    1.000    5.000    0.500    4.667    3.333 
#    0.000    0.000    0.000    0.000    0.000    0.000 
#    0.000    0.000    0.000    0.000    0.000    0.000 
#
# Total GULP energy -134223.699958 kJ/mol
# GULP energy per Si atom -5592.654165 kJ/mol
# Density = 1.954659 g / cm^3
# Si number density = 19.591180 Si / 1000 Ang^3
#
#
#
# Elastic Constant Matrix: (Units=GPa)
#
#
# Indices 1 2 3 4 5 6 
#
# 1 27.7254 23.5788 20.2577 0.0000 0.0000 0.0000
# 2 23.5788 75.8635 34.1822 0.0000 0.0000 0.0000
# 3 20.2577 34.1822 79.1466 0.0000 0.0000 0.0000
# 4 0.0000 0.0000 0.0000 23.9666 0.0000 0.0000
# 5 0.0000 0.0000 0.0000 0.0000 -33.5658 0.0000
# 6 0.0000 0.0000 0.0000 0.0000 0.0000**********
#
#
#
# Elastic Compliance Matrix: (Units=1/GPa)
#
#
# Indices 1 2 3 4 5 6 
#
# 1 0.052795 -0.012814 -0.007979 0.000000 0.000000 0.000000
# 2 -0.012814 0.019476 -0.005132 0.000000 0.000000 0.000000
# 3 -0.007979 -0.005132 0.016893 0.000000 0.000000 0.000000
# 4 0.000000 0.000000 0.000000 0.041725 0.000000 0.000000
# 5 0.000000 0.000000 0.000000 0.000000 -0.029792 0.000000
# 6 0.000000 0.000000 0.000000 0.000000 0.000000 -0.000085
#
#
# Mechanical properties :
#
#
# Convention : Reuss Voigt Hill
#
# Bulk Modulus (GPa) = 26.79834 37.64142 32.21988
# Shear Modulus (GPa) = 30.24790 -2354.52746 -1162.13978
#
# Velocity S-wave (km/s) = 3.93358 -34.70503 -24.38203
# Velocity P-wave (km/s) = 5.85997 39.83295 27.85969
#
# Compressibility (1/GPa) = 0.03731575
#
# Stress axis : x y z
#
# Youngs Moduli (GPa) = 18.94109 51.34403 59.19488
#
# Poissons Ratio (x) = 0.65792 0.47231
# Poissons Ratio (y) = 0.24271 0.30378
# Poissons Ratio (z) = 0.15113 0.26349
#
# Static dielectric constant tensor:
#      x y z
#    x 1.708960 0.000000 0.000000 
#    y 0.000000 1.640180 0.000000 
#    z 0.000000 0.000000 1.672210 
# 
# From -- ./inp_files/8395.got.cif
#   From: 2010.05.17/outbox.cif.g08.bks.cpg/sg46_5_cif.got.tgz:8395.got - 2010.06.03 19:58:25.
