data_PCOD9380288
_publ_section_title
;
Structure prediction by ZEFSAII (Michael W. Deem and Ramdas Pophale) SiO2 
 PCOD9380288
Probable space group: I M A 2
;
_chemical_formula_sum "Si O2"
_cell_formula_units_Z 56
_cell_length_a 14.406324
_cell_length_b 7.445717
_cell_length_c 22.914851
_cell_angle_alpha 90.000000
_cell_angle_beta 90.000000
_cell_angle_gamma 90.000000
_cell_volume 2457.970922
_symmetry_space_group_name_H-M "I M A 2"
_symmetry_group_IT_number 46
_symmetry_cell_setting 'orthorhombic'
loop_
_space_group_symop_operation_xyz
x,y,z
-x,-y,z
1/2-x,y,z
1/2+x,-y,z
1/2+x,1/2+y,1/2+z
1/2-x,1/2-y,1/2+z
-x,1/2+y,1/2+z
x,1/2-y,1/2+z
loop_
_atom_site_type_symbol
_atom_site_label
_atom_site_fract_x
_atom_site_fract_y
_atom_site_fract_z
Si Si1 0.029283 0.700379 0.369630
Si Si2 0.149332 0.014848 0.669415
Si Si3 0.401562 0.908089 0.543791
Si Si4 0.857731 0.873860 0.220516
Si Si5 0.140646 0.576748 0.482138
Si Si6 0.643838 0.821311 0.442283
Si Si7 0.944351 0.267350 0.748273
O O1 0.095858 0.656915 0.423644
O O2 0.086408 0.779809 0.315532
O O3 0.000000 0.500000 0.348859
O O4 0.939913 0.809594 0.394991
O O5 0.250000 0.984798 0.696997
O O6 0.136948 0.230488 0.667894
O O7 0.148674 0.943557 0.604242
O O8 0.081567 0.906934 0.711704
O O9 0.405129 0.696044 0.532239
O O10 0.500000 0.000000 0.552052
O O11 0.362360 0.011408 0.486612
O O12 0.750000 0.874634 0.240761
O O13 0.944703 0.796024 0.257460
O O14 0.893914 0.074721 0.212038
O O15 0.250000 0.610913 0.484796
O O16 0.127908 0.362763 0.479373
O O17 0.750000 0.812410 0.418543
#
# Coordination Sequence:
#
# PCOD9380288 Si02
#       7
#     8   8   8   8   8   8   8
#     4  10  21  40  65  94 131 172 219 274 334 405
#     4  11  24  43  66  96 132 174 224 280 340 408
#     4  12  23  39  67  95 133 175 221 273 335 402
#     4  10  23  41  61  90 126 166 221 277 332 400
#     4  10  22  40  62  92 129 169 217 272 333 402
#     4  10  22  41  63  93 133 174 217 273 339 403
#     4  11  23  42  67  92 129 177 224 276 344 403
#
# _framework density 22.783018999999999
#
# number of rings (size 3 to 8) (size 9 to 14) (size 15 to 20)
#    0.000    1.429    1.429    3.857    0.000    5.143 
#    0.000    4.286    0.000    0.000    0.000    0.000 
#    0.000    0.000    0.000    0.000    0.000    0.000 
#
# Total GULP energy -156096.302510 kJ/mol
# GULP energy per Si atom -5574.867947 kJ/mol
# Density = 2.273116 g / cm^3
# Si number density = 22.783019 Si / 1000 Ang^3
#
#
#
# Elastic Constant Matrix: (Units=GPa)
#
#
# Indices 1 2 3 4 5 6 
#
# 1 114.8543 26.8695 -8.4542 0.0000 0.0000 0.0000
# 2 26.8695 117.7693 29.7554 0.0000 0.0000 0.0000
# 3 -8.4542 29.7554 49.9700 0.0000 0.0000 0.0000
# 4 0.0000 0.0000 0.0000 16.4250 0.0000 0.0000
# 5 0.0000 0.0000 0.0000 0.0000 524.3267 0.0000
# 6 0.0000 0.0000 0.0000 0.0000 0.0000 29.5625
#
#
#
# Elastic Compliance Matrix: (Units=1/GPa)
#
#
# Indices 1 2 3 4 5 6 
#
# 1 0.009685 -0.003088 0.003478 0.000000 0.000000 0.000000
# 2 -0.003088 0.010980 -0.007061 0.000000 0.000000 0.000000
# 3 0.003478 -0.007061 0.024805 0.000000 0.000000 0.000000
# 4 0.000000 0.000000 0.000000 0.060883 0.000000 0.000000
# 5 0.000000 0.000000 0.000000 0.000000 0.001907 0.000000
# 6 0.000000 0.000000 0.000000 0.000000 0.000000 0.033827
#
#
# Mechanical properties :
#
#
# Convention : Reuss Voigt Hill
#
# Bulk Modulus (GPa) = 31.12650 42.10390 36.61520
# Shear Modulus (GPa) = 30.09547 129.69102 79.89324
#
# Velocity S-wave (km/s) = 3.63844 7.55301 5.92817
# Velocity P-wave (km/s) = 5.59847 9.72546 7.93497
#
# Compressibility (1/GPa) = 0.03212697
#
# Stress axis : x y z
#
# Youngs Moduli (GPa) = 103.25069 91.07707 40.31492
#
# Poissons Ratio (x) = 0.28128 -0.14020
# Poissons Ratio (y) = 0.31887 0.28465
# Poissons Ratio (z) = -0.35907 0.64306
#
# Static dielectric constant tensor:
#      x y z
#    x 1.723970 0.000000 0.000000 
#    y 0.000000 1.897030 0.000000 
#    z 0.000000 0.000000 1.822850 
# 
# From -- ./inp_files/22035.got.cif
#   From: 2010.05.17/outbox.cif.g08.bks.cpg/sg46_12_cif.got.tgz:22035.got - 2010.06.03 19:58:25.
