data_PCOD9380806
_publ_section_title
;
Structure prediction by ZEFSAII (Michael W. Deem and Ramdas Pophale) SiO2 
 PCOD9380806
Probable space group: I M A 2
;
_chemical_formula_sum "Si O2"
_cell_formula_units_Z 48
_cell_length_a 31.579074
_cell_length_b 8.876998
_cell_length_c 8.424148
_cell_angle_alpha 90.000000
_cell_angle_beta 90.000000
_cell_angle_gamma 90.000000
_cell_volume 2361.519310
_symmetry_space_group_name_H-M "I M A 2"
_symmetry_group_IT_number 46
_symmetry_cell_setting 'orthorhombic'
loop_
_space_group_symop_operation_xyz
x,y,z
-x,-y,z
1/2-x,y,z
1/2+x,-y,z
1/2+x,1/2+y,1/2+z
1/2-x,1/2-y,1/2+z
-x,1/2+y,1/2+z
x,1/2-y,1/2+z
loop_
_atom_site_type_symbol
_atom_site_label
_atom_site_fract_x
_atom_site_fract_y
_atom_site_fract_z
Si Si1 0.295945 0.521512 0.388750
Si Si2 0.323097 0.789942 0.596401
Si Si3 0.549377 0.466612 0.405973
Si Si4 0.376491 0.335357 0.282497
Si Si5 0.583838 0.191547 0.218838
Si Si6 0.627925 0.973670 0.431267
O O1 0.250000 0.445901 0.401044
O O2 0.302830 0.638899 0.530700
O O3 0.297713 0.625603 0.232023
O O4 0.336479 0.414698 0.368429
O O5 0.369621 0.747221 0.663737
O O6 0.332596 0.913573 0.458870
O O7 0.500000 0.500000 0.405914
O O8 0.580321 0.606284 0.364536
O O9 0.559120 0.337913 0.276176
O O10 0.563129 0.398349 0.575163
O O11 0.369138 0.158007 0.302005
O O12 0.378057 0.392000 0.100733
O O13 0.590712 0.082030 0.369475
#
# Coordination Sequence:
#
# PCOD9380806 Si02
#       6
#     8   8   8   8   8   8
#     4  11  22  38  65  99 132 170 224 272 324 395
#     4  11  19  40  68  92 125 178 216 271 324 383
#     4  12  25  42  67  95 130 174 218 271 337 396
#     4  11  23  42  62  98 132 173 216 273 337 382
#     4  12  20  45  68  93 129 172 223 273 325 391
#     4  11  22  39  72  89 129 178 214 268 332 393
#
# _framework density 20.325897999999999
#
# number of rings (size 3 to 8) (size 9 to 14) (size 15 to 20)
#    0.000    0.667    8.333    1.500    0.000    2.667 
#    0.000    5.833    0.000    0.000    0.000    0.000 
#    0.000    0.000    0.000    0.000    0.000    0.000 
#
# Total GULP energy -134084.578678 kJ/mol
# GULP energy per Si atom -5586.857445 kJ/mol
# Density = 2.027964 g / cm^3
# Si number density = 20.325898 Si / 1000 Ang^3
#
#
#
# Elastic Constant Matrix: (Units=GPa)
#
#
# Indices 1 2 3 4 5 6 
#
# 1 134.5340 16.9404 8.3763 0.0000 0.0000 0.0000
# 2 16.9404 66.6712 -1.7723 0.0000 0.0000 0.0000
# 3 8.3763 -1.7723 50.2971 0.0000 0.0000 0.0000
# 4 0.0000 0.0000 0.0000 40.1177 0.0000 0.0000
# 5 0.0000 0.0000 0.0000 0.0000 22.3972 0.0000
# 6 0.0000 0.0000 0.0000 0.0000 0.0000 7.0170
#
#
#
# Elastic Compliance Matrix: (Units=1/GPa)
#
#
# Indices 1 2 3 4 5 6 
#
# 1 0.007771 -0.002011 -0.001365 0.000000 0.000000 0.000000
# 2 -0.002011 0.015533 0.000882 0.000000 0.000000 0.000000
# 3 -0.001365 0.000882 0.020140 0.000000 0.000000 0.000000
# 4 0.000000 0.000000 0.000000 0.024927 0.000000 0.000000
# 5 0.000000 0.000000 0.000000 0.000000 0.044648 0.000000
# 6 0.000000 0.000000 0.000000 0.000000 0.000000 0.142512
#
#
# Mechanical properties :
#
#
# Convention : Reuss Voigt Hill
#
# Bulk Modulus (GPa) = 26.00275 33.17680 29.58977
# Shear Modulus (GPa) = 18.29236 29.10358 23.69797
#
# Velocity S-wave (km/s) = 3.00318 3.78808 3.41823
# Velocity P-wave (km/s) = 4.98459 5.95740 5.49257
#
# Compressibility (1/GPa) = 0.03845747
#
# Stress axis : x y z
#
# Youngs Moduli (GPa) = 128.67919 64.37756 49.65178
#
# Poissons Ratio (x) = 0.12946 0.06778
# Poissons Ratio (y) = 0.25876 -0.04380
# Poissons Ratio (z) = 0.17565 -0.05679
#
# Static dielectric constant tensor:
#      x y z
#    x 1.676530 0.000000 0.000000 
#    y 0.000000 1.731460 0.000000 
#    z 0.000000 0.000000 1.763200 
# 
# From -- ./inp_files/8382.got.cif
#   From: 2010.05.17/outbox.cif.g08.bks.cpg/sg46_5_cif.got.tgz:8382.got - 2010.06.03 19:58:25.
