data_PCOD9380347
_publ_section_title
;
Structure prediction by ZEFSAII (Michael W. Deem and Ramdas Pophale) SiO2 
 PCOD9380347
Probable space group: I M A 2
;
_chemical_formula_sum "Si O2"
_cell_formula_units_Z 36
_cell_length_a 13.931468
_cell_length_b 8.219033
_cell_length_c 15.144028
_cell_angle_alpha 90.000000
_cell_angle_beta 90.000000
_cell_angle_gamma 90.000000
_cell_volume 1734.039595
_symmetry_space_group_name_H-M "I M A 2"
_symmetry_group_IT_number 46
_symmetry_cell_setting 'orthorhombic'
loop_
_space_group_symop_operation_xyz
x,y,z
-x,-y,z
1/2-x,y,z
1/2+x,-y,z
1/2+x,1/2+y,1/2+z
1/2-x,1/2-y,1/2+z
-x,1/2+y,1/2+z
x,1/2-y,1/2+z
loop_
_atom_site_type_symbol
_atom_site_label
_atom_site_fract_x
_atom_site_fract_y
_atom_site_fract_z
Si Si1 0.533236 0.186966 0.099190
Si Si2 0.856548 0.228733 0.270358
Si Si3 0.106759 0.544890 0.423766
Si Si4 0.000000 0.000000 0.376483
Si Si5 0.141102 0.303738 0.004365
O O1 0.601627 0.259634 0.173265
O O2 0.433950 0.284018 0.085133
O O3 0.500000 0.000000 0.118740
O O4 0.590831 0.169940 0.005884
O O5 0.750000 0.152679 0.263248
O O6 0.847761 0.378263 0.337881
O O7 0.937961 0.119445 0.316069
O O8 0.147799 0.378755 0.463546
O O9 0.000000 0.500000 0.395134
O O10 0.919499 0.911485 0.435842
O O11 0.250000 0.360051 0.022318
#
# Coordination Sequence:
#
# PCOD9380347 Si02
#       5
#     8   8   8   4   8
#     4   9  20  39  63  92 127 159 204 257 299 378
#     4  12  23  38  65  94 123 166 208 258 320 366
#     4   9  19  42  65  86 125 160 203 258 303 371
#     4  12  22  42  60  92 130 154 216 270 302 372
#     4  10  21  42  68  89 121 170 208 255 322 367
#
# _framework density 20.760773
#
# number of rings (size 3 to 8) (size 9 to 14) (size 15 to 20)
#    0.000    2.222    5.556    1.333    0.000    4.444 
#    2.000    0.000    0.000    0.000    0.000    0.000 
#    0.000    0.000    0.000    0.000    0.000    0.000 
#
# Total GULP energy -100298.080174 kJ/mol
# GULP energy per Si atom -5572.115565 kJ/mol
# Density = 2.071352 g / cm^3
# Si number density = 20.760773 Si / 1000 Ang^3
#
#
#
# Elastic Constant Matrix: (Units=GPa)
#
#
# Indices 1 2 3 4 5 6 
#
# 1 170.3675 18.8014 54.7702 0.0000 0.0000 0.0000
# 2 18.8014 22.7111 25.6599 0.0000 0.0000 0.0000
# 3 54.7702 25.6599 113.4920 0.0000 0.0000 0.0000
# 4 0.0000 0.0000 0.0000 16.0929 0.0000 0.0000
# 5 0.0000 0.0000 0.0000 0.0000 2.5223 0.0000
# 6 0.0000 0.0000 0.0000 0.0000 0.0000 0.1502
#
#
#
# Elastic Compliance Matrix: (Units=1/GPa)
#
#
# Indices 1 2 3 4 5 6 
#
# 1 0.007067 -0.002682 -0.002804 0.000000 0.000000 0.000000
# 2 -0.002682 0.060156 -0.012307 0.000000 0.000000 0.000000
# 3 -0.002804 -0.012307 0.012947 0.000000 0.000000 0.000000
# 4 0.000000 0.000000 0.000000 0.062139 0.000000 0.000000
# 5 0.000000 0.000000 0.000000 0.000000 0.396467 0.000000
# 6 0.000000 0.000000 0.000000 0.000000 0.000000 6.656966
#
#
# Mechanical properties :
#
#
# Convention : Reuss Voigt Hill
#
# Bulk Modulus (GPa) = 22.42937 56.11484 39.27210
# Shear Modulus (GPa) = 0.69002 17.57568 9.13285
#
# Velocity S-wave (km/s) = 0.57714 2.91276 2.09968
# Velocity P-wave (km/s) = 3.35727 6.19679 4.98355
#
# Compressibility (1/GPa) = 0.04458440
#
# Stress axis : x y z
#
# Youngs Moduli (GPa) = 141.49981 16.62335 77.23888
#
# Poissons Ratio (x) = 0.04459 0.21658
# Poissons Ratio (y) = 0.37956 0.95054
# Poissons Ratio (z) = 0.39678 0.20458
#
# Static dielectric constant tensor:
#      x y z
#    x 1.644810 0.000000 0.000000 
#    y 0.000000 1.802010 0.000000 
#    z 0.000000 0.000000 1.763410 
# 
# From -- ./inp_files/15609.got.cif
#   From: 2010.05.17/outbox.cif.g08.bks.cpg/sg46_8_cif.got.tgz:15609.got - 2010.06.03 19:58:25.
