data_PCOD9380737
_publ_section_title
;
Structure prediction by ZEFSAII (Michael W. Deem and Ramdas Pophale) SiO2 
 PCOD9380737
Probable space group: I M A 2
;
_chemical_formula_sum "Si O2"
_cell_formula_units_Z 48
_cell_length_a 18.378535
_cell_length_b 5.573414
_cell_length_c 21.355401
_cell_angle_alpha 90.000000
_cell_angle_beta 90.000000
_cell_angle_gamma 90.000000
_cell_volume 2187.459015
_symmetry_space_group_name_H-M "I M A 2"
_symmetry_group_IT_number 46
_symmetry_cell_setting 'orthorhombic'
loop_
_space_group_symop_operation_xyz
x,y,z
-x,-y,z
1/2-x,y,z
1/2+x,-y,z
1/2+x,1/2+y,1/2+z
1/2-x,1/2-y,1/2+z
-x,1/2+y,1/2+z
x,1/2-y,1/2+z
loop_
_atom_site_type_symbol
_atom_site_label
_atom_site_fract_x
_atom_site_fract_y
_atom_site_fract_z
Si Si1 0.926328 0.588091 0.358740
Si Si2 0.334906 0.740912 0.438832
Si Si3 0.575267 0.865196 0.483436
Si Si4 0.335257 0.227862 0.250562
Si Si5 0.835770 0.225633 0.676654
Si Si6 0.412987 0.971424 0.061650
O O1 0.871970 0.374472 0.378275
O O2 0.950876 0.703094 0.424712
O O3 0.884160 0.758605 0.311924
O O4 0.000000 0.500000 0.326842
O O5 0.250000 0.693223 0.440529
O O6 0.377445 0.639517 0.499401
O O7 0.356432 0.014364 0.448459
O O8 0.606711 0.749453 0.547310
O O9 0.500000 0.000000 0.500000
O O10 0.250000 0.258781 0.265914
O O11 0.354193 0.465845 0.207768
O O12 0.343039 0.963164 0.220620
O O13 0.750000 0.211353 0.658664
O O14 0.883779 0.312809 0.617885
O O15 0.500000 0.000000 0.061784
#
# Coordination Sequence:
#
# PCOD9380737 Si02
#       6
#     8   8   8   8   8   8
#     4  11  23  40  65  93 131 170 214 274 333 402
#     4  11  23  39  63  95 129 167 213 266 331 400
#     4  11  21  40  64  96 131 170 215 274 340 396
#     4  10  24  44  65  94 132 175 225 277 330 394
#     4  10  24  44  65  94 132 175 225 277 330 394
#     4  11  23  40  65  93 131 170 214 274 333 402
#
# _framework density 21.943269999999998
#
# number of rings (size 3 to 8) (size 9 to 14) (size 15 to 20)
#    0.000    1.333    3.333    2.000    4.667    5.333 
#    0.000    0.000    0.000    0.000    0.000    0.000 
#    0.000    0.000    0.000    0.000    0.000    0.000 
#
# Total GULP energy -133630.027890 kJ/mol
# GULP energy per Si atom -5567.917829 kJ/mol
# Density = 2.189333 g / cm^3
# Si number density = 21.943270 Si / 1000 Ang^3
#
#
#
# Elastic Constant Matrix: (Units=GPa)
#
#
# Indices 1 2 3 4 5 6 
#
# 1 89.9990 -0.7779 21.4520 0.0000 0.0000 0.0000
# 2 -0.7779 43.5400 -0.1713 0.0000 0.0000 0.0000
# 3 21.4520 -0.1713 38.3261 0.0000 0.0000 0.0000
# 4 0.0000 0.0000 0.0000 24.8288 0.0000 0.0000
# 5 0.0000 0.0000 0.0000 0.0000 -34.0923 0.0000
# 6 0.0000 0.0000 0.0000 0.0000 0.0000 19.7682
#
#
#
# Elastic Compliance Matrix: (Units=1/GPa)
#
#
# Indices 1 2 3 4 5 6 
#
# 1 0.012824 0.000201 -0.007177 0.000000 0.000000 0.000000
# 2 0.000201 0.022971 -0.000010 0.000000 0.000000 0.000000
# 3 -0.007177 -0.000010 0.030109 0.000000 0.000000 0.000000
# 4 0.000000 0.000000 0.000000 0.040276 0.000000 0.000000
# 5 0.000000 0.000000 0.000000 0.000000 -0.029332 0.000000
# 6 0.000000 0.000000 0.000000 0.000000 0.000000 0.050586
#
#
# Mechanical properties :
#
#
# Convention : Reuss Voigt Hill
#
# Bulk Modulus (GPa) = 19.25592 23.65230 21.45411
# Shear Modulus (GPa) = 31.50294 12.19177 21.84735
#
# Velocity S-wave (km/s) = 3.79311 2.35968 3.15878
# Velocity P-wave (km/s) = 5.28942 4.26924 4.80647
#
# Compressibility (1/GPa) = 0.05193208
#
# Stress axis : x y z
#
# Youngs Moduli (GPa) = 77.98116 43.53326 33.21281
#
# Poissons Ratio (x) = -0.00874 0.23836
# Poissons Ratio (y) = -0.01566 0.00032
# Poissons Ratio (z) = 0.55965 0.00043
#
# Static dielectric constant tensor:
#      x y z
#    x 3.556570 0.000000 0.000000 
#    y 0.000000 2.456210 0.000000 
#    z 0.000000 0.000000 1.776260 
# 
# From -- ./inp_files/22359.got.cif
#   From: 2010.05.17/outbox.cif.g08.bks.cpg/sg46_12_cif.got.tgz:22359.got - 2010.06.03 19:58:25.
