data_PCOD9380420
_publ_section_title
;
Structure prediction by ZEFSAII (Michael W. Deem and Ramdas Pophale) SiO2 
 PCOD9380420
Probable space group: I M A 2
;
_chemical_formula_sum "Si O2"
_cell_formula_units_Z 56
_cell_length_a 14.699111
_cell_length_b 11.776441
_cell_length_c 15.340182
_cell_angle_alpha 90.000000
_cell_angle_beta 90.000000
_cell_angle_gamma 90.000000
_cell_volume 2655.434799
_symmetry_space_group_name_H-M "I M A 2"
_symmetry_group_IT_number 46
_symmetry_cell_setting 'orthorhombic'
loop_
_space_group_symop_operation_xyz
x,y,z
-x,-y,z
1/2-x,y,z
1/2+x,-y,z
1/2+x,1/2+y,1/2+z
1/2-x,1/2-y,1/2+z
-x,1/2+y,1/2+z
x,1/2-y,1/2+z
loop_
_atom_site_type_symbol
_atom_site_label
_atom_site_fract_x
_atom_site_fract_y
_atom_site_fract_z
Si Si1 0.352645 0.047695 0.873220
Si Si2 0.350414 0.757279 0.173685
Si Si3 0.538331 0.736576 0.919733
Si Si4 0.524583 0.630607 0.743169
Si Si5 0.853909 0.763991 0.602065
Si Si6 0.352908 0.825368 0.981377
Si Si7 0.608302 0.492788 0.179662
O O1 0.250000 0.095111 0.880716
O O2 0.426991 0.144918 0.879308
O O3 0.362388 0.988816 0.780082
O O4 0.366001 0.951778 0.945031
O O5 0.250000 0.773340 0.212156
O O6 0.433321 0.792873 0.234448
O O7 0.359938 0.627047 0.142299
O O8 0.359421 0.829033 0.085509
O O9 0.556951 0.646082 0.843285
O O10 0.432390 0.746855 0.943873
O O11 0.593283 0.727918 0.010300
O O12 0.500000 0.500000 0.725149
O O13 0.593671 0.683976 0.671891
O O14 0.750000 0.724969 0.590101
O O15 0.853657 0.891769 0.639868
O O16 0.250000 0.789103 0.958152
O O17 0.500000 0.500000 0.172676
#
# Coordination Sequence:
#
# PCOD9380420 Si02
#       7
#     8   8   8   8   8   8   8
#     4  11  22  37  65 102 137 180 235 292 349 423
#     4  11  23  43  69 104 140 181 232 290 363 434
#     4  12  24  44  68 100 139 188 241 294 365 433
#     4  12  28  48  71 104 147 196 240 303 371 442
#     4  12  27  47  73 105 144 192 246 304 369 443
#     4  10  22  38  64 101 140 177 230 299 356 423
#     4  12  21  42  71 102 138 180 230 295 356 430
#
# _framework density 21.088825
#
# number of rings (size 3 to 8) (size 9 to 14) (size 15 to 20)
#    0.000    0.571    4.286    3.857    2.000    4.571 
#    0.000    0.000    0.000    0.000    0.000    0.000 
#    0.000    0.000    0.000    0.000    0.000    0.000 
#
# Total GULP energy -156574.550749 kJ/mol
# GULP energy per Si atom -5591.948241 kJ/mol
# Density = 2.104083 g / cm^3
# Si number density = 21.088825 Si / 1000 Ang^3
#
#
#
# Elastic Constant Matrix: (Units=GPa)
#
#
# Indices 1 2 3 4 5 6 
#
# 1 143.1497 25.4536 31.6162 0.0000 0.0000 0.0000
# 2 25.4536 68.9677 26.2044 0.0000 0.0000 0.0000
# 3 31.6162 26.2044 72.7204 0.0000 0.0000 0.0000
# 4 0.0000 0.0000 0.0000 35.4014 0.0000 0.0000
# 5 0.0000 0.0000 0.0000 0.0000 49.8708 0.0000
# 6 0.0000 0.0000 0.0000 0.0000 0.0000 3.2559
#
#
#
# Elastic Compliance Matrix: (Units=1/GPa)
#
#
# Indices 1 2 3 4 5 6 
#
# 1 0.007931 -0.001874 -0.002773 0.000000 0.000000 0.000000
# 2 -0.001874 0.017242 -0.005399 0.000000 0.000000 0.000000
# 3 -0.002773 -0.005399 0.016902 0.000000 0.000000 0.000000
# 4 0.000000 0.000000 0.000000 0.028247 0.000000 0.000000
# 5 0.000000 0.000000 0.000000 0.000000 0.020052 0.000000
# 6 0.000000 0.000000 0.000000 0.000000 0.000000 0.307132
#
#
# Mechanical properties :
#
#
# Convention : Reuss Voigt Hill
#
# Bulk Modulus (GPa) = 45.48487 50.15401 47.81944
# Shear Modulus (GPa) = 11.76676 31.14320 21.45498
#
# Velocity S-wave (km/s) = 2.36468 3.84704 3.19307
# Velocity P-wave (km/s) = 5.39173 6.60052 6.02650
#
# Compressibility (1/GPa) = 0.02198533
#
# Stress axis : x y z
#
# Youngs Moduli (GPa) = 126.08269 57.99729 59.16349
#
# Poissons Ratio (x) = 0.10866 0.16407
# Poissons Ratio (y) = 0.23622 0.31940
# Poissons Ratio (z) = 0.34964 0.31310
#
# Static dielectric constant tensor:
#      x y z
#    x 1.777870 0.000000 0.000000 
#    y 0.000000 1.749660 0.000000 
#    z 0.000000 0.000000 1.768390 
# 
# From -- ./inp_files/15919.got.cif
#   From: 2010.05.17/outbox.cif.g08.bks.cpg/sg46_8_cif.got.tgz:15919.got - 2010.06.03 19:58:25.
