data_PCOD9380996
_publ_section_title
;
Structure prediction by ZEFSAII (Michael W. Deem and Ramdas Pophale) SiO2 
 PCOD9380996
Probable space group: I M A 2
;
_chemical_formula_sum "Si O2"
_cell_formula_units_Z 40
_cell_length_a 15.696608
_cell_length_b 5.177091
_cell_length_c 22.418660
_cell_angle_alpha 90.000000
_cell_angle_beta 90.000000
_cell_angle_gamma 90.000000
_cell_volume 1821.802367
_symmetry_space_group_name_H-M "I M A 2"
_symmetry_group_IT_number 46
_symmetry_cell_setting 'orthorhombic'
loop_
_space_group_symop_operation_xyz
x,y,z
-x,-y,z
1/2-x,y,z
1/2+x,-y,z
1/2+x,1/2+y,1/2+z
1/2-x,1/2-y,1/2+z
-x,1/2+y,1/2+z
x,1/2-y,1/2+z
loop_
_atom_site_type_symbol
_atom_site_label
_atom_site_fract_x
_atom_site_fract_y
_atom_site_fract_z
Si Si1 0.250000 0.421660 0.139350
Si Si2 0.091040 0.654230 0.209670
Si Si3 0.350492 0.802425 0.966123
Si Si4 0.604498 0.683422 0.039116
Si Si5 0.000000 0.500000 0.623935
Si Si6 0.059867 0.750016 0.343345
O O1 0.173100 0.501697 0.186775
O O2 0.322377 0.359286 0.087983
O O3 0.100377 0.749592 0.277465
O O4 0.000000 0.500000 0.207076
O O5 0.075846 0.897347 0.165635
O O6 0.250000 0.766006 0.975681
O O7 0.373847 0.778126 0.896922
O O8 0.398897 0.571592 0.999554
O O9 0.375939 0.075555 0.995201
O O10 0.527142 0.772357 0.080433
O O11 0.000000 0.500000 0.346863
O O12 0.000000 0.000000 0.350316
#
# Coordination Sequence:
#
# PCOD9380996 Si02
#       6
#     4   8   8   8   4   8
#     4  12  24  48  74 112 148 200 242 318 384 458
#     4  11  25  49  75 108 152 194 253 313 378 453
#     4  12  26  47  71 106 149 194 248 311 370 452
#     4  12  27  45  74 110 149 194 248 311 380 461
#     4  12  26  46  74 110 150 200 246 314 386 462
#     4  11  26  49  74 105 143 195 258 310 369 450
#
# _framework density 21.956278999999999
#
# number of rings (size 3 to 8) (size 9 to 14) (size 15 to 20)
#    0.000    0.400    5.000    2.400    5.600    0.800 
#    0.000    0.000    6.600    0.000    0.000    0.000 
#    0.000    0.000    0.000    0.000    0.000    0.000 
#
# Total GULP energy -111403.577316 kJ/mol
# GULP energy per Si atom -5570.178866 kJ/mol
# Density = 2.190631 g / cm^3
# Si number density = 21.956279 Si / 1000 Ang^3
#
#
#
# Elastic Constant Matrix: (Units=GPa)
#
#
# Indices 1 2 3 4 5 6 
#
# 1 78.3248 28.5562 57.5507 0.0000 0.0000 0.0000
# 2 28.5562 111.8862 48.8051 0.0000 0.0000 0.0000
# 3 57.5507 48.8051 185.5025 0.0000 0.0000 0.0000
# 4 0.0000 0.0000 0.0000 31.5392 0.0000 0.0000
# 5 0.0000 0.0000 0.0000 0.0000 46.6477 0.0000
# 6 0.0000 0.0000 0.0000 0.0000 0.0000 13.0284
#
#
#
# Elastic Compliance Matrix: (Units=1/GPa)
#
#
# Indices 1 2 3 4 5 6 
#
# 1 0.017049 -0.002309 -0.004682 0.000000 0.000000 0.000000
# 2 -0.002309 0.010409 -0.002022 0.000000 0.000000 0.000000
# 3 -0.004682 -0.002022 0.007375 0.000000 0.000000 0.000000
# 4 0.000000 0.000000 0.000000 0.031707 0.000000 0.000000
# 5 0.000000 0.000000 0.000000 0.000000 0.021437 0.000000
# 6 0.000000 0.000000 0.000000 0.000000 0.000000 0.076755
#
#
# Mechanical properties :
#
#
# Convention : Reuss Voigt Hill
#
# Bulk Modulus (GPa) = 59.49814 71.72639 65.61227
# Shear Modulus (GPa) = 26.54465 34.29651 30.42058
#
# Velocity S-wave (km/s) = 3.48081 3.95655 3.72628
# Velocity P-wave (km/s) = 6.58118 7.32196 6.96143
#
# Compressibility (1/GPa) = 0.01680725
#
# Stress axis : x y z
#
# Youngs Moduli (GPa) = 58.65328 96.06982 135.58740
#
# Poissons Ratio (x) = 0.22184 0.63481
# Poissons Ratio (y) = 0.13544 0.27419
# Poissons Ratio (z) = 0.27461 0.19427
#
# Static dielectric constant tensor:
#      x y z
#    x 1.810850 0.000000 0.000000 
#    y 0.000000 1.854680 0.000000 
#    z 0.000000 0.000000 1.776420 
# 
# From -- ./inp_files/19807.got.cif
#   From: 2010.05.17/outbox.cif.g08.bks.cpg/sg46_10_cif.got.tgz:19807.got - 2010.06.03 19:58:25.
