data_PCOD9380649
_publ_section_title
;
Structure prediction by ZEFSAII (Michael W. Deem and Ramdas Pophale) SiO2 
 PCOD9380649
Probable space group: I M A 2
;
_chemical_formula_sum "Si O2"
_cell_formula_units_Z 60
_cell_length_a 7.727514
_cell_length_b 16.408427
_cell_length_c 19.498037
_cell_angle_alpha 90.000000
_cell_angle_beta 90.000000
_cell_angle_gamma 90.000000
_cell_volume 2472.279911
_symmetry_space_group_name_H-M "I M A 2"
_symmetry_group_IT_number 46
_symmetry_cell_setting 'orthorhombic'
loop_
_space_group_symop_operation_xyz
x,y,z
-x,-y,z
1/2-x,y,z
1/2+x,-y,z
1/2+x,1/2+y,1/2+z
1/2-x,1/2-y,1/2+z
-x,1/2+y,1/2+z
x,1/2-y,1/2+z
loop_
_atom_site_type_symbol
_atom_site_label
_atom_site_fract_x
_atom_site_fract_y
_atom_site_fract_z
Si Si1 0.542969 0.905482 0.036470
Si Si2 0.957310 0.804189 0.167624
Si Si3 0.550486 0.208813 0.914527
Si Si4 0.750000 0.433468 0.040729
Si Si5 0.051025 0.914660 0.289520
Si Si6 0.042882 0.912176 0.800138
Si Si7 0.048881 0.384254 0.146079
Si Si8 0.936790 0.886499 0.440059
O O1 0.750000 0.894526 0.030780
O O2 0.483551 0.863567 0.106973
O O3 0.500000 0.000000 0.035889
O O4 0.457234 0.858270 0.973751
O O5 0.750000 0.807917 0.171819
O O6 0.024148 0.838636 0.239458
O O7 0.000688 0.711882 0.147998
O O8 0.750000 0.233898 0.902454
O O9 0.482689 0.163390 0.846703
O O10 0.451326 0.288360 0.939793
O O11 0.596464 0.426782 0.100584
O O12 0.596506 0.420549 0.982137
O O13 0.750000 0.081879 0.308526
O O14 0.947373 0.908937 0.360107
O O15 0.000000 0.000000 0.253789
O O16 0.250000 0.905534 0.793872
O O17 0.960237 0.910476 0.725251
O O18 0.000000 0.000000 0.832841
O O19 0.250000 0.392657 0.122485
O O20 0.750000 0.912585 0.469134
#
# Coordination Sequence:
#
# PCOD9380649 Si02
#       8
#     8   8   8   4   8   8   8   8
#     4  11  23  39  59  94 141 182 230 279 344 413
#     4  10  23  41  66 102 136 184 231 280 343 416
#     4  11  23  41  68 102 137 184 231 284 345 415
#     4  12  24  46  70 102 138 178 228 290 344 414
#     4  12  25  44  70 100 139 183 234 292 350 413
#     4  11  24  43  68  99 139 182 235 292 350 415
#     4  11  24  44  73 103 140 181 232 291 351 413
#     4  12  25  45  73 103 141 181 232 290 351 416
#
# _framework density 24.269095
#
# number of rings (size 3 to 8) (size 9 to 14) (size 15 to 20)
#    0.000    0.800    2.000    5.200    0.933    8.533 
#    0.000    0.667    0.000    0.000    0.000    0.000 
#    0.000    0.000    0.000    0.000    0.000    0.000 
#
# Total GULP energy -167710.908390 kJ/mol
# GULP energy per Si atom -5590.363613 kJ/mol
# Density = 2.421386 g / cm^3
# Si number density = 24.269095 Si / 1000 Ang^3
#
#
#
# Elastic Constant Matrix: (Units=GPa)
#
#
# Indices 1 2 3 4 5 6 
#
# 1 161.6544 26.1139 36.8288 0.0000 0.0000 0.0000
# 2 26.1139 138.1638 14.6509 0.0000 0.0000 0.0000
# 3 36.8288 14.6509 118.5060 0.0000 0.0000 0.0000
# 4 0.0000 0.0000 0.0000 28.2037 0.0000 0.0000
# 5 0.0000 0.0000 0.0000 0.0000 -12.2673 0.0000
# 6 0.0000 0.0000 0.0000 0.0000 0.0000 44.8645
#
#
#
# Elastic Compliance Matrix: (Units=1/GPa)
#
#
# Indices 1 2 3 4 5 6 
#
# 1 0.006812 -0.001077 -0.001984 0.000000 0.000000 0.000000
# 2 -0.001077 0.007504 -0.000593 0.000000 0.000000 0.000000
# 3 -0.001984 -0.000593 0.009128 0.000000 0.000000 0.000000
# 4 0.000000 0.000000 0.000000 0.035456 0.000000 0.000000
# 5 0.000000 0.000000 0.000000 0.000000 -0.081517 0.000000
# 6 0.000000 0.000000 0.000000 0.000000 0.000000 0.022289
#
#
# Mechanical properties :
#
#
# Convention : Reuss Voigt Hill
#
# Bulk Modulus (GPa) = 61.97124 63.72349 62.84736
# Shear Modulus (GPa) = 404.54073 34.87554 219.70813
#
# Velocity S-wave (km/s) = 12.92484 3.79494 9.52505
# Velocity P-wave (km/s) = 15.75836 6.74656 12.12110
#
# Compressibility (1/GPa) = 0.01613652
#
# Stress axis : x y z
#
# Youngs Moduli (GPa) = 146.79958 133.25769 109.55028
#
# Poissons Ratio (x) = 0.14354 0.21733
# Poissons Ratio (y) = 0.15813 0.06496
# Poissons Ratio (z) = 0.29123 0.07902
#
# Static dielectric constant tensor:
#      x y z
#    x 1.927050 0.000000 0.000000 
#    y 0.000000 1.967000 0.000000 
#    z 0.000000 0.000000 1.878670 
# 
# From -- ./inp_files/18357.got.cif
#   From: 2010.05.17/outbox.cif.g08.bks.cpg/sg46_10_cif.got.tgz:18357.got - 2010.06.03 19:58:25.
