data_PCOD9380894
_publ_section_title
;
Structure prediction by ZEFSAII (Michael W. Deem and Ramdas Pophale) SiO2 
 PCOD9380894
Probable space group: I M A 2
;
_chemical_formula_sum "Si O2"
_cell_formula_units_Z 48
_cell_length_a 24.332545
_cell_length_b 8.805421
_cell_length_c 10.266851
_cell_angle_alpha 90.000000
_cell_angle_beta 90.000000
_cell_angle_gamma 90.000000
_cell_volume 2199.758070
_symmetry_space_group_name_H-M "I M A 2"
_symmetry_group_IT_number 46
_symmetry_cell_setting 'orthorhombic'
loop_
_space_group_symop_operation_xyz
x,y,z
-x,-y,z
1/2-x,y,z
1/2+x,-y,z
1/2+x,1/2+y,1/2+z
1/2-x,1/2-y,1/2+z
-x,1/2+y,1/2+z
x,1/2-y,1/2+z
loop_
_atom_site_type_symbol
_atom_site_label
_atom_site_fract_x
_atom_site_fract_y
_atom_site_fract_z
Si Si1 0.311240 0.853051 0.157060
Si Si2 0.989042 0.319651 0.500129
Si Si3 0.157708 0.185513 0.226041
Si Si4 0.531209 0.841976 0.265935
Si Si5 0.185720 0.403941 0.996641
Si Si6 0.368000 0.718271 0.917917
O O1 0.250000 0.792986 0.178550
O O2 0.351225 0.780143 0.266293
O O3 0.311754 0.032751 0.181702
O O4 0.330825 0.820787 0.011696
O O5 0.929958 0.269953 0.445705
O O6 0.000000 0.500000 0.504815
O O7 0.031681 0.250122 0.398804
O O8 0.998356 0.263679 0.647375
O O9 0.093399 0.142304 0.218814
O O10 0.174826 0.209753 0.375761
O O11 0.171564 0.323124 0.131394
O O12 0.500000 0.000000 0.291482
O O13 0.250000 0.450105 0.993934
O O14 0.146674 0.547719 0.966695
#
# Coordination Sequence:
#
# PCOD9380894 Si02
#       6
#     8   8   8   8   8   8
#     4  11  22  40  63  92 126 166 208 259 316 374
#     4  11  24  42  63  91 125 164 209 259 311 372
#     4  11  23  40  63  92 127 167 211 263 317 374
#     4  11  23  41  62  91 126 165 209 259 313 373
#     4  11  23  42  65  96 130 168 213 263 317 380
#     4  11  23  41  63  90 126 166 210 263 316 375
#
# _framework density 21.820582000000002
#
# number of rings (size 3 to 8) (size 9 to 14) (size 15 to 20)
#    0.000    1.000    0.000   10.000    0.000    4.667 
#    0.000    3.333    0.000    0.000    0.000    0.000 
#    0.000    0.000    0.000    0.000    0.000    0.000 
#
# Total GULP energy -134222.577815 kJ/mol
# GULP energy per Si atom -5592.607409 kJ/mol
# Density = 2.177092 g / cm^3
# Si number density = 21.820582 Si / 1000 Ang^3
#
#
#
# Elastic Constant Matrix: (Units=GPa)
#
#
# Indices 1 2 3 4 5 6 
#
# 1 102.6881 14.1016 -10.5786 0.0000 0.0000 0.0000
# 2 14.1016 36.8546 21.0055 0.0000 0.0000 0.0000
# 3 -10.5786 21.0055 45.7603 0.0000 0.0000 0.0000
# 4 0.0000 0.0000 0.0000 36.3984 0.0000 0.0000
# 5 0.0000 0.0000 0.0000 0.0000 23.9917 0.0000
# 6 0.0000 0.0000 0.0000 0.0000 0.0000 25.1305
#
#
#
# Elastic Compliance Matrix: (Units=1/GPa)
#
#
# Indices 1 2 3 4 5 6 
#
# 1 0.011490 -0.008004 0.006330 0.000000 0.000000 0.000000
# 2 -0.008004 0.042324 -0.021279 0.000000 0.000000 0.000000
# 3 0.006330 -0.021279 0.033084 0.000000 0.000000 0.000000
# 4 0.000000 0.000000 0.000000 0.027474 0.000000 0.000000
# 5 0.000000 0.000000 0.000000 0.000000 0.041681 0.000000
# 6 0.000000 0.000000 0.000000 0.000000 0.000000 0.039792
#
#
# Mechanical properties :
#
#
# Convention : Reuss Voigt Hill
#
# Bulk Modulus (GPa) = 24.39461 26.04001 25.21731
# Shear Modulus (GPa) = 19.57605 27.82241 23.69923
#
# Velocity S-wave (km/s) = 2.99847 3.57466 3.29917
# Velocity P-wave (km/s) = 4.81578 5.38491 5.10827
#
# Compressibility (1/GPa) = 0.04099266
#
# Stress axis : x y z
#
# Youngs Moduli (GPa) = 87.03585 23.62718 30.22609
#
# Poissons Ratio (x) = 0.18912 -0.19134
# Poissons Ratio (y) = 0.69665 0.64317
# Poissons Ratio (z) = -0.55096 0.50275
#
# Static dielectric constant tensor:
#      x y z
#    x 1.807760 0.000000 0.000000 
#    y 0.000000 1.798000 0.000000 
#    z 0.000000 0.000000 1.794350 
# 
# From -- ./inp_files/12704.got.cif
#   From: 2010.05.17/outbox.cif.g08.bks.cpg/sg46_7_cif.got.tgz:12704.got - 2010.06.03 19:58:25.
