data_PCOD9380876
_publ_section_title
;
Structure prediction by ZEFSAII (Michael W. Deem and Ramdas Pophale) SiO2 
 PCOD9380876
Probable space group: I M A 2
;
_chemical_formula_sum "Si O2"
_cell_formula_units_Z 40
_cell_length_a 20.043809
_cell_length_b 11.445346
_cell_length_c 7.509196
_cell_angle_alpha 90.000000
_cell_angle_beta 90.000000
_cell_angle_gamma 90.000000
_cell_volume 1722.672108
_symmetry_space_group_name_H-M "I M A 2"
_symmetry_group_IT_number 46
_symmetry_cell_setting 'orthorhombic'
loop_
_space_group_symop_operation_xyz
x,y,z
-x,-y,z
1/2-x,y,z
1/2+x,-y,z
1/2+x,1/2+y,1/2+z
1/2-x,1/2-y,1/2+z
-x,1/2+y,1/2+z
x,1/2-y,1/2+z
loop_
_atom_site_type_symbol
_atom_site_label
_atom_site_fract_x
_atom_site_fract_y
_atom_site_fract_z
Si Si1 0.944018 0.151846 0.562710
Si Si2 0.674236 0.595229 0.848633
Si Si3 0.426387 0.018432 0.881133
Si Si4 0.880376 0.376225 0.701518
Si Si5 0.092572 0.244332 0.068594
O O1 0.887557 0.243613 0.630426
O O2 0.938131 0.122351 0.354076
O O3 0.016796 0.210097 0.588372
O O4 0.932757 0.041548 0.689787
O O5 0.750000 0.634396 0.822649
O O6 0.671412 0.455453 0.815858
O O7 0.622799 0.653168 0.709566
O O8 0.644595 0.651439 0.028432
O O9 0.500000 0.000000 0.964027
O O10 0.410009 0.154148 0.897298
O O11 0.381608 0.942904 0.013056
#
# Coordination Sequence:
#
# PCOD9380876 Si02
#       5
#     8   8   8   8   8
#     4  12  23  41  67 107 134 166 218 289 361 390
#     4  11  26  46  65  93 136 188 230 265 323 409
#     4  11  22  37  61 102 138 165 210 269 356 408
#     4  11  24  40  68  95 136 172 217 283 335 403
#     4  11  24  41  68 100 134 174 220 289 339 403
#
# _framework density 23.219740999999999
#
# number of rings (size 3 to 8) (size 9 to 14) (size 15 to 20)
#    0.000    0.800    4.000    3.000    8.400    0.000 
#    0.000    1.000    0.000    0.000    0.000    0.000 
#    0.000    0.000    0.000    0.000    0.000    0.000 
#
# Total GULP energy -111339.560682 kJ/mol
# GULP energy per Si atom -5566.978034 kJ/mol
# Density = 2.316689 g / cm^3
# Si number density = 23.219741 Si / 1000 Ang^3
#
#
#
# Elastic Constant Matrix: (Units=GPa)
#
#
# Indices 1 2 3 4 5 6 
#
# 1 65.2345 26.4134 2.7953 0.0000 0.0000 0.0000
# 2 26.4134 140.8088 10.1285 0.0000 0.0000 0.0000
# 3 2.7953 10.1285 84.6709 0.0000 0.0000 0.0000
# 4 0.0000 0.0000 0.0000 24.9773 0.0000 0.0000
# 5 0.0000 0.0000 0.0000 0.0000 17.5902 0.0000
# 6 0.0000 0.0000 0.0000 0.0000 0.0000 21.2124
#
#
#
# Elastic Compliance Matrix: (Units=1/GPa)
#
#
# Indices 1 2 3 4 5 6 
#
# 1 0.016592 -0.003100 -0.000177 0.000000 0.000000 0.000000
# 2 -0.003100 0.007743 -0.000824 0.000000 0.000000 0.000000
# 3 -0.000177 -0.000824 0.011915 0.000000 0.000000 0.000000
# 4 0.000000 0.000000 0.000000 0.040036 0.000000 0.000000
# 5 0.000000 0.000000 0.000000 0.000000 0.056850 0.000000
# 6 0.000000 0.000000 0.000000 0.000000 0.000000 0.047142
#
#
# Mechanical properties :
#
#
# Convention : Reuss Voigt Hill
#
# Bulk Modulus (GPa) = 35.65269 41.04317 38.34793
# Shear Modulus (GPa) = 25.27449 29.51446 27.39447
#
# Velocity S-wave (km/s) = 3.30281 3.56911 3.43854
# Velocity P-wave (km/s) = 5.47106 5.89059 5.68470
#
# Compressibility (1/GPa) = 0.02804837
#
# Stress axis : x y z
#
# Youngs Moduli (GPa) = 60.27024 129.15674 83.92906
#
# Poissons Ratio (x) = 0.40034 0.01485
# Poissons Ratio (y) = 0.18682 0.06915
# Poissons Ratio (z) = 0.01067 0.10641
#
# Static dielectric constant tensor:
#      x y z
#    x 1.641880 0.000000 0.000000 
#    y 0.000000 1.969100 0.000000 
#    z 0.000000 0.000000 2.005950 
# 
# From -- ./inp_files/7250.got.cif
#   From: 2010.05.17/outbox.cif.g08.bks.cpg/sg46_4_cif.got.tgz:7250.got - 2010.06.03 19:58:25.
