data_PCOD9380798
_publ_section_title
;
Structure prediction by ZEFSAII (Michael W. Deem and Ramdas Pophale) SiO2 
 PCOD9380798
Probable space group: I M A 2
;
_chemical_formula_sum "Si O2"
_cell_formula_units_Z 36
_cell_length_a 16.362634
_cell_length_b 23.306179
_cell_length_c 5.040764
_cell_angle_alpha 90.000000
_cell_angle_beta 90.000000
_cell_angle_gamma 90.000000
_cell_volume 1922.297755
_symmetry_space_group_name_H-M "I M A 2"
_symmetry_group_IT_number 46
_symmetry_cell_setting 'orthorhombic'
loop_
_space_group_symop_operation_xyz
x,y,z
-x,-y,z
1/2-x,y,z
1/2+x,-y,z
1/2+x,1/2+y,1/2+z
1/2-x,1/2-y,1/2+z
-x,1/2+y,1/2+z
x,1/2-y,1/2+z
loop_
_atom_site_type_symbol
_atom_site_label
_atom_site_fract_x
_atom_site_fract_y
_atom_site_fract_z
Si Si1 0.656589 0.557265 0.194480
Si Si2 0.162274 0.927522 0.494172
Si Si3 0.104991 0.622584 0.491899
Si Si4 0.750000 0.288247 0.579254
Si Si5 0.452646 0.436847 0.710233
O O1 0.750000 0.579797 0.194460
O O2 0.661251 0.491803 0.093345
O O3 0.615149 0.557498 0.481298
O O4 0.592887 0.581559 0.978939
O O5 0.250000 0.901130 0.559004
O O6 0.151188 0.923837 0.180731
O O7 0.100926 0.893454 0.682988
O O8 0.165473 0.676342 0.531652
O O9 0.015519 0.612565 0.613930
O O10 0.750000 0.235663 0.375596
O O11 0.500000 0.500000 0.738050
#
# Coordination Sequence:
#
# PCOD9380798 Si02
#       5
#     8   8   8   4   8
#     4  11  22  34  51  77 119 158 183 228 278 350
#     4  11  18  31  50  76 106 147 194 216 272 339
#     4  12  22  35  58  77 108 151 191 244 291 326
#     4  12  26  44  58  82 114 156 210 250 286 340
#     4  12  21  35  52  84 116 145 201 240 277 348
#
# _framework density 18.727587
#
# number of rings (size 3 to 8) (size 9 to 14) (size 15 to 20)
#    0.000    0.444    6.667    4.000    0.000    3.556 
#    0.000    0.000    0.000    0.000    0.000    0.000 
#    0.000   17.778    0.000    0.000    0.000    0.000 
#
# Total GULP energy -100245.976954 kJ/mol
# GULP energy per Si atom -5569.220942 kJ/mol
# Density = 1.868496 g / cm^3
# Si number density = 18.727587 Si / 1000 Ang^3
#
#
#
# Elastic Constant Matrix: (Units=GPa)
#
#
# Indices 1 2 3 4 5 6 
#
# 1 124.7097 13.8236 14.2375 0.0000 0.0000 0.0000
# 2 13.8236 36.0827 -12.1760 0.0000 0.0000 0.0000
# 3 14.2375 -12.1760 64.4683 0.0000 0.0000 0.0000
# 4 0.0000 0.0000 0.0000 19.7722 0.0000 0.0000
# 5 0.0000 0.0000 0.0000 0.0000 35.3883 0.0000
# 6 0.0000 0.0000 0.0000 0.0000 0.0000 21.3448
#
#
#
# Elastic Compliance Matrix: (Units=1/GPa)
#
#
# Indices 1 2 3 4 5 6 
#
# 1 0.008811 -0.004307 -0.002759 0.000000 0.000000 0.000000
# 2 -0.004307 0.031706 0.006939 0.000000 0.000000 0.000000
# 3 -0.002759 0.006939 0.017431 0.000000 0.000000 0.000000
# 4 0.000000 0.000000 0.000000 0.050576 0.000000 0.000000
# 5 0.000000 0.000000 0.000000 0.000000 0.028258 0.000000
# 6 0.000000 0.000000 0.000000 0.000000 0.000000 0.046850
#
#
# Mechanical properties :
#
#
# Convention : Reuss Voigt Hill
#
# Bulk Modulus (GPa) = 17.33256 28.55899 22.94578
# Shear Modulus (GPa) = 24.61638 29.25945 26.93791
#
# Velocity S-wave (km/s) = 3.62946 3.95697 3.79675
# Velocity P-wave (km/s) = 5.18065 6.01329 5.61243
#
# Compressibility (1/GPa) = 0.05769488
#
# Stress axis : x y z
#
# Youngs Moduli (GPa) = 113.49439 31.54011 57.36749
#
# Poissons Ratio (x) = 0.13583 0.15829
# Poissons Ratio (y) = 0.48878 -0.39809
# Poissons Ratio (z) = 0.31316 -0.21887
#
# Static dielectric constant tensor:
#      x y z
#    x 1.765600 0.000000 0.000000 
#    y 0.000000 1.646740 0.000000 
#    z 0.000000 0.000000 1.666830 
# 
# From -- ./inp_files/1188.got.cif
#   From: 2010.05.17/outbox.cif.g08.bks.cpg/sg46_1_cif.got.tgz:1188.got - 2010.06.03 19:58:25.
