data_PCOD9380192
_publ_section_title
;
Structure prediction by ZEFSAII (Michael W. Deem and Ramdas Pophale) SiO2 
 PCOD9380192
Probable space group: I M A 2
;
_chemical_formula_sum "Si O2"
_cell_formula_units_Z 48
_cell_length_a 20.132242
_cell_length_b 11.977533
_cell_length_c 9.638003
_cell_angle_alpha 90.000000
_cell_angle_beta 90.000000
_cell_angle_gamma 90.000000
_cell_volume 2324.055930
_symmetry_space_group_name_H-M "I M A 2"
_symmetry_group_IT_number 46
_symmetry_cell_setting 'orthorhombic'
loop_
_space_group_symop_operation_xyz
x,y,z
-x,-y,z
1/2-x,y,z
1/2+x,-y,z
1/2+x,1/2+y,1/2+z
1/2-x,1/2-y,1/2+z
-x,1/2+y,1/2+z
x,1/2-y,1/2+z
loop_
_atom_site_type_symbol
_atom_site_label
_atom_site_fract_x
_atom_site_fract_y
_atom_site_fract_z
Si Si1 0.551813 0.393469 0.317530
Si Si2 0.825706 0.667640 0.437688
Si Si3 0.325692 0.500018 0.210887
Si Si4 0.567433 0.926932 0.147761
Si Si5 0.504303 0.224470 0.557657
Si Si6 0.612784 0.912404 0.440474
O O1 0.500000 0.500000 0.317031
O O2 0.627644 0.432491 0.315898
O O3 0.532930 0.307814 0.440567
O O4 0.550095 0.334111 0.168242
O O5 0.750000 0.652956 0.488219
O O6 0.828038 0.623258 0.279951
O O7 0.878103 0.594972 0.527828
O O8 0.845452 0.797238 0.436360
O O9 0.250000 0.538335 0.208865
O O10 0.355421 0.489698 0.057438
O O11 0.540690 0.800847 0.159238
O O12 0.603258 0.963940 0.288489
O O13 0.500000 0.000000 0.124023
O O14 0.459702 0.129740 0.487860
#
# Coordination Sequence:
#
# PCOD9380192 Si02
#       6
#     8   8   8   8   8   8
#     4  12  23  42  67  94 132 170 222 277 330 395
#     4  10  21  39  60  88 126 169 212 263 334 399
#     4  11  24  40  61  90 129 176 218 267 333 397
#     4  11  23  37  60  95 130 164 210 271 328 392
#     4  11  22  39  62  96 122 168 219 270 328 385
#     4  11  21  35  58  93 125 161 208 267 328 394
#
# _framework density 20.653549000000002
#
# number of rings (size 3 to 8) (size 9 to 14) (size 15 to 20)
#    0.000    1.000    3.333    6.000    2.333    2.667 
#    0.000    0.833    0.000    1.000    0.000    0.000 
#    0.000    0.000    0.000    0.000    0.000    0.000 
#
# Total GULP energy -133826.034562 kJ/mol
# GULP energy per Si atom -5576.084773 kJ/mol
# Density = 2.060654 g / cm^3
# Si number density = 20.653549 Si / 1000 Ang^3
#
#
#
# Elastic Constant Matrix: (Units=GPa)
#
#
# Indices 1 2 3 4 5 6 
#
# 1 131.7248 37.5268 48.6973 0.0000 0.0000 0.0000
# 2 37.5268 40.0903 20.3730 0.0000 0.0000 0.0000
# 3 48.6973 20.3730 87.1793 0.0000 0.0000 0.0000
# 4 0.0000 0.0000 0.0000 -7.7501 0.0000 0.0000
# 5 0.0000 0.0000 0.0000 0.0000 12.9415 0.0000
# 6 0.0000 0.0000 0.0000 0.0000 0.0000 21.4482
#
#
#
# Elastic Compliance Matrix: (Units=1/GPa)
#
#
# Indices 1 2 3 4 5 6 
#
# 1 0.011741 -0.008689 -0.004528 0.000000 0.000000 0.000000
# 2 -0.008689 0.034736 -0.003264 0.000000 0.000000 0.000000
# 3 -0.004528 -0.003264 0.014762 0.000000 0.000000 0.000000
# 4 0.000000 0.000000 0.000000 -0.129031 0.000000 0.000000
# 5 0.000000 0.000000 0.000000 0.000000 0.077271 0.000000
# 6 0.000000 0.000000 0.000000 0.000000 0.000000 0.046624
#
#
# Mechanical properties :
#
#
# Convention : Reuss Voigt Hill
#
# Bulk Modulus (GPa) = 35.36343 52.46540 43.91442
# Shear Modulus (GPa) = 50.76669 15.48776 33.12722
#
# Velocity S-wave (km/s) = 4.96321 2.74137 4.00928
# Velocity P-wave (km/s) = 7.07135 5.95633 6.53766
#
# Compressibility (1/GPa) = 0.02827780
#
# Stress axis : x y z
#
# Youngs Moduli (GPa) = 85.17227 28.78867 67.73943
#
# Poissons Ratio (x) = 0.25015 0.30671
# Poissons Ratio (y) = 0.74008 0.22108
# Poissons Ratio (z) = 0.38564 0.09396
#
# Static dielectric constant tensor:
#      x y z
#    x 1.815840 0.000000 0.000000 
#    y 0.000000 1.775920 0.000000 
#    z 0.000000 0.000000 1.787670 
# 
# From -- ./inp_files/6615.got.cif
#   From: 2010.05.17/outbox.cif.g08.bks.cpg/sg46_4_cif.got.tgz:6615.got - 2010.06.03 19:58:25.
