data_PCOD9380701
_publ_section_title
;
Structure prediction by ZEFSAII (Michael W. Deem and Ramdas Pophale) SiO2 
 PCOD9380701
Probable space group: I M A 2
;
_chemical_formula_sum "Si O2"
_cell_formula_units_Z 60
_cell_length_a 25.022733
_cell_length_b 18.830302
_cell_length_c 5.106026
_cell_angle_alpha 90.000000
_cell_angle_beta 90.000000
_cell_angle_gamma 90.000000
_cell_volume 2405.886023
_symmetry_space_group_name_H-M "I M A 2"
_symmetry_group_IT_number 46
_symmetry_cell_setting 'orthorhombic'
loop_
_space_group_symop_operation_xyz
x,y,z
-x,-y,z
1/2-x,y,z
1/2+x,-y,z
1/2+x,1/2+y,1/2+z
1/2-x,1/2-y,1/2+z
-x,1/2+y,1/2+z
x,1/2-y,1/2+z
loop_
_atom_site_type_symbol
_atom_site_label
_atom_site_fract_x
_atom_site_fract_y
_atom_site_fract_z
Si Si1 0.645726 0.536449 0.857390
Si Si2 0.961056 0.204370 0.330063
Si Si3 0.933179 0.854450 0.073118
Si Si4 0.750000 0.605048 0.698796
Si Si5 0.610572 0.093061 0.047533
Si Si6 0.312227 0.799096 0.774558
Si Si7 0.053728 0.016501 0.727401
Si Si8 0.327933 0.292258 0.395095
O O1 0.604373 0.594338 0.743418
O O2 0.702910 0.570281 0.880049
O O3 0.648009 0.465791 0.682639
O O4 0.612925 0.514783 0.111175
O O5 0.954770 0.270380 0.127427
O O6 0.917401 0.146220 0.252035
O O7 0.019963 0.176973 0.249009
O O8 0.891290 0.801666 0.934079
O O9 0.954428 0.906338 0.848889
O O10 0.703704 0.640730 0.504936
O O11 0.646084 0.139610 0.849478
O O12 0.561286 0.046488 0.936056
O O13 0.250000 0.823356 0.794348
O O14 0.319385 0.737038 0.992210
O O15 0.000000 0.000000 0.563563
O O16 0.313200 0.270359 0.101459
#
# Coordination Sequence:
#
# PCOD9380701 Si02
#       8
#     8   8   8   4   8   8   8   8
#     4  10  26  43  72  99 141 194 238 309 351 430
#     4  12  27  42  70 104 140 184 229 293 351 428
#     4  10  24  43  66 103 144 181 243 286 358 430
#     4  10  24  50  66 108 144 182 258 294 366 422
#     4  11  25  43  66 102 136 183 241 290 359 427
#     4  10  23  44  71 100 139 181 225 290 355 423
#     4  11  24  44  71 101 143 198 239 303 363 428
#     4  11  24  44  74 103 141 190 232 293 361 426
#
# _framework density 24.938839999999999
#
# number of rings (size 3 to 8) (size 9 to 14) (size 15 to 20)
#    0.000    1.333    1.333    2.000   12.133    0.000 
#    6.000    0.000    0.000    0.000    0.000    0.000 
#    0.000    0.000    0.000    0.000    0.000    0.000 
#
# Total GULP energy -167427.292131 kJ/mol
# GULP energy per Si atom -5580.909738 kJ/mol
# Density = 2.488208 g / cm^3
# Si number density = 24.938840 Si / 1000 Ang^3
#
#
#
# Elastic Constant Matrix: (Units=GPa)
#
#
# Indices 1 2 3 4 5 6 
#
# 1 141.0221 38.2349 15.7210 0.0000 0.0000 0.0000
# 2 38.2349 72.6522 17.7923 0.0000 0.0000 0.0000
# 3 15.7210 17.7923 53.2095 0.0000 0.0000 0.0000
# 4 0.0000 0.0000 0.0000 21.2871 0.0000 0.0000
# 5 0.0000 0.0000 0.0000 0.0000 24.3238 0.0000
# 6 0.0000 0.0000 0.0000 0.0000 0.0000 13.0426
#
#
#
# Elastic Compliance Matrix: (Units=1/GPa)
#
#
# Indices 1 2 3 4 5 6 
#
# 1 0.008328 -0.004118 -0.001084 0.000000 0.000000 0.000000
# 2 -0.004118 0.017028 -0.004477 0.000000 0.000000 0.000000
# 3 -0.001084 -0.004477 0.020611 0.000000 0.000000 0.000000
# 4 0.000000 0.000000 0.000000 0.046977 0.000000 0.000000
# 5 0.000000 0.000000 0.000000 0.000000 0.041112 0.000000
# 6 0.000000 0.000000 0.000000 0.000000 0.000000 0.076672
#
#
# Mechanical properties :
#
#
# Convention : Reuss Voigt Hill
#
# Bulk Modulus (GPa) = 37.58016 45.59781 41.58899
# Shear Modulus (GPa) = 20.92448 24.73973 22.83211
#
# Velocity S-wave (km/s) = 2.89975 3.15305 3.02905
# Velocity P-wave (km/s) = 5.12962 5.61953 5.38016
#
# Compressibility (1/GPa) = 0.02660978
#
# Stress axis : x y z
#
# Youngs Moduli (GPa) = 120.07282 58.72812 48.51791
#
# Poissons Ratio (x) = 0.24181 0.05258
# Poissons Ratio (y) = 0.49440 0.21722
# Poissons Ratio (z) = 0.13014 0.26294
#
# Static dielectric constant tensor:
#      x y z
#    x 2.004820 0.000000 0.000000 
#    y 0.000000 1.988970 0.000000 
#    z 0.000000 0.000000 2.051190 
# 
# From -- ./inp_files/2588.got.cif
#   From: 2010.05.17/outbox.cif.g08.bks.cpg/sg46_2_cif.got.tgz:2588.got - 2010.06.03 19:58:25.
