data_PCOD9380212
_publ_section_title
;
Structure prediction by ZEFSAII (Michael W. Deem and Ramdas Pophale) SiO2 
 PCOD9380212
Probable space group: I M A 2
;
_chemical_formula_sum "Si O2"
_cell_formula_units_Z 64
_cell_length_a 13.597223
_cell_length_b 17.235514
_cell_length_c 13.343527
_cell_angle_alpha 90.000000
_cell_angle_beta 90.000000
_cell_angle_gamma 90.000000
_cell_volume 3127.123970
_symmetry_space_group_name_H-M "I M A 2"
_symmetry_group_IT_number 46
_symmetry_cell_setting 'orthorhombic'
loop_
_space_group_symop_operation_xyz
x,y,z
-x,-y,z
1/2-x,y,z
1/2+x,-y,z
1/2+x,1/2+y,1/2+z
1/2-x,1/2-y,1/2+z
-x,1/2+y,1/2+z
x,1/2-y,1/2+z
loop_
_atom_site_type_symbol
_atom_site_label
_atom_site_fract_x
_atom_site_fract_y
_atom_site_fract_z
Si Si1 0.063447 0.425039 0.077450
Si Si2 0.638747 0.560902 0.862321
Si Si3 0.630933 0.385877 0.817836
Si Si4 0.365380 0.543172 0.393333
Si Si5 0.132744 0.863173 0.087866
Si Si6 0.966812 0.285438 0.993830
Si Si7 0.868106 0.731603 0.851586
Si Si8 0.937768 0.896542 0.796412
O O1 0.099866 0.429194 0.190034
O O2 0.000000 0.500000 0.058356
O O3 0.134523 0.422078 0.981921
O O4 0.989418 0.352579 0.072529
O O5 0.750000 0.554690 0.826329
O O6 0.599283 0.474210 0.844598
O O7 0.603443 0.643562 0.816889
O O8 0.750000 0.380876 0.824744
O O9 0.600467 0.372696 0.702663
O O10 0.587969 0.325610 0.899229
O O11 0.250000 0.562088 0.373096
O O12 0.389176 0.569305 0.507101
O O13 0.383245 0.451519 0.376964
O O14 0.446516 0.586795 0.322082
O O15 0.250000 0.857584 0.091945
O O16 0.090794 0.785278 0.039638
O O17 0.074051 0.258535 0.956089
O O18 0.750000 0.734847 0.857976
O O19 0.909304 0.806390 0.794276
#
# Coordination Sequence:
#
# PCOD9380212 Si02
#       8
#     8   8   8   8   8   8   8   8
#     4  11  21  38  58  90 123 162 212 256 311 378
#     4   9  20  40  63  91 124 163 211 263 313 372
#     4  10  21  39  65  94 128 169 210 259 321 384
#     4  10  21  39  62  89 125 166 208 258 312 374
#     4  10  22  40  63  97 130 164 209 258 316 387
#     4  11  22  38  65  88 130 163 209 263 319 374
#     4  10  22  40  63  88 123 165 209 261 313 369
#     4  11  22  41  63  91 129 167 209 260 322 372
#
# _framework density 20.466090000000001
#
# number of rings (size 3 to 8) (size 9 to 14) (size 15 to 20)
#    0.000    1.750    3.750    0.750    1.750    1.000 
#    0.000    8.750    0.000    4.500    0.000    0.000 
#    0.000    0.000    0.000    0.000    0.000    0.000 
#
# Total GULP energy -178188.894384 kJ/mol
# GULP energy per Si atom -5568.402949 kJ/mol
# Density = 2.041951 g / cm^3
# Si number density = 20.466090 Si / 1000 Ang^3
#
#
#
# Elastic Constant Matrix: (Units=GPa)
#
#
# Indices 1 2 3 4 5 6 
#
# 1 73.5727 27.6009 33.3961 0.0000 0.0000 0.0000
# 2 27.6009 122.3343 58.2214 0.0000 0.0000 0.0000
# 3 33.3961 58.2214 91.2515 0.0000 0.0000 0.0000
# 4 0.0000 0.0000 0.0000 -16.1867 0.0000 0.0000
# 5 0.0000 0.0000 0.0000 0.0000 22.0538 0.0000
# 6 0.0000 0.0000 0.0000 0.0000 0.0000 27.4759
#
#
#
# Elastic Compliance Matrix: (Units=1/GPa)
#
#
# Indices 1 2 3 4 5 6 
#
# 1 0.016424 -0.001213 -0.005237 0.000000 0.000000 0.000000
# 2 -0.001213 0.011828 -0.007103 0.000000 0.000000 0.000000
# 3 -0.005237 -0.007103 0.017407 0.000000 0.000000 0.000000
# 4 0.000000 0.000000 0.000000 -0.061779 0.000000 0.000000
# 5 0.000000 0.000000 0.000000 0.000000 0.045344 0.000000
# 6 0.000000 0.000000 0.000000 0.000000 0.000000 0.036396
#
#
# Mechanical properties :
#
#
# Convention : Reuss Voigt Hill
#
# Bulk Modulus (GPa) = 53.89711 58.39946 56.14829
# Shear Modulus (GPa) = 50.55056 17.86459 34.20758
#
# Velocity S-wave (km/s) = 4.97527 2.95767 4.09274
# Velocity P-wave (km/s) = 7.70691 6.34511 7.05892
#
# Compressibility (1/GPa) = 0.01855387
#
# Stress axis : x y z
#
# Youngs Moduli (GPa) = 60.88552 84.54168 57.44761
#
# Poissons Ratio (x) = 0.10258 0.30084
# Poissons Ratio (y) = 0.07387 0.40804
# Poissons Ratio (z) = 0.31885 0.60049
#
# Static dielectric constant tensor:
#      x y z
#    x 1.767880 0.000000 0.000000 
#    y 0.000000 1.792430 0.000000 
#    z 0.000000 0.000000 1.732480 
# 
# From -- ./inp_files/11343.got.cif
#   From: 2010.05.17/outbox.cif.g08.bks.cpg/sg46_6_cif.got.tgz:11343.got - 2010.06.03 19:58:25.
