data_PCOD9380193
_publ_section_title
;
Structure prediction by ZEFSAII (Michael W. Deem and Ramdas Pophale) SiO2 
 PCOD9380193
Probable space group: I M A 2
;
_chemical_formula_sum "Si O2"
_cell_formula_units_Z 56
_cell_length_a 30.189023
_cell_length_b 5.233835
_cell_length_c 15.916626
_cell_angle_alpha 90.000000
_cell_angle_beta 90.000000
_cell_angle_gamma 90.000000
_cell_volume 2514.896387
_symmetry_space_group_name_H-M "I M A 2"
_symmetry_group_IT_number 46
_symmetry_cell_setting 'orthorhombic'
loop_
_space_group_symop_operation_xyz
x,y,z
-x,-y,z
1/2-x,y,z
1/2+x,-y,z
1/2+x,1/2+y,1/2+z
1/2-x,1/2-y,1/2+z
-x,1/2+y,1/2+z
x,1/2-y,1/2+z
loop_
_atom_site_type_symbol
_atom_site_label
_atom_site_fract_x
_atom_site_fract_y
_atom_site_fract_z
Si Si1 0.797552 0.965429 0.222370
Si Si2 0.870935 0.764156 0.623202
Si Si3 0.797378 0.344947 0.068349
Si Si4 0.972537 0.755646 0.384362
Si Si5 0.971520 0.747422 0.682677
Si Si6 0.876225 0.872376 0.940617
Si Si7 0.329576 0.650219 0.890477
O O1 0.750000 0.829813 0.235373
O O2 0.794581 0.122793 0.136255
O O3 0.805101 0.145769 0.302110
O O4 0.842801 0.813081 0.205527
O O5 0.922438 0.782898 0.645437
O O6 0.869233 0.585600 0.540225
O O7 0.842117 0.003820 0.590892
O O8 0.750000 0.492563 0.076422
O O9 0.800751 0.269612 0.971035
O O10 0.965921 0.779349 0.283661
O O11 0.925431 0.729594 0.427432
O O12 0.000000 0.500000 0.400116
O O13 0.000000 0.000000 0.413858
O O14 0.000000 0.500000 0.653815
O O15 0.000000 0.000000 0.665848
O O16 0.845029 0.641318 0.908290
O O17 0.868098 0.136883 0.891666
#
# Coordination Sequence:
#
# PCOD9380193 Si02
#       7
#     8   8   8   8   8   8   8
#     4  11  24  42  69 100 134 183 231 279 346 412
#     4  11  24  42  68  97 140 176 231 282 347 407
#     4  10  23  44  66  99 140 178 228 285 340 409
#     4  10  21  39  60  90 126 169 220 281 337 399
#     4  10  24  40  65  97 133 175 227 284 344 407
#     4  11  24  42  66  95 131 177 224 277 338 404
#     4  11  24  43  66  98 134 180 223 275 337 403
#
# _framework density 22.267319000000001
#
# number of rings (size 3 to 8) (size 9 to 14) (size 15 to 20)
#    0.000    1.429    1.429    2.571    6.000    2.286 
#    0.000    1.429    0.000    0.000    0.000    0.000 
#    0.000    0.000    0.000    0.000    0.000    0.000 
#
# Total GULP energy -156268.924686 kJ/mol
# GULP energy per Si atom -5581.033025 kJ/mol
# Density = 2.221664 g / cm^3
# Si number density = 22.267319 Si / 1000 Ang^3
#
#
#
# Elastic Constant Matrix: (Units=GPa)
#
#
# Indices 1 2 3 4 5 6 
#
# 1 171.0086 27.1560 41.0211 0.0000 0.0000 0.0000
# 2 27.1560 61.3638 25.5047 0.0000 0.0000 0.0000
# 3 41.0211 25.5047 91.0869 0.0000 0.0000 0.0000
# 4 0.0000 0.0000 0.0000 23.4314 0.0000 0.0000
# 5 0.0000 0.0000 0.0000 0.0000 101.1979 0.0000
# 6 0.0000 0.0000 0.0000 0.0000 0.0000 25.7560
#
#
#
# Elastic Compliance Matrix: (Units=1/GPa)
#
#
# Indices 1 2 3 4 5 6 
#
# 1 0.006756 -0.001953 -0.002496 0.000000 0.000000 0.000000
# 2 -0.001953 0.019007 -0.004443 0.000000 0.000000 0.000000
# 3 -0.002496 -0.004443 0.013347 0.000000 0.000000 0.000000
# 4 0.000000 0.000000 0.000000 0.042678 0.000000 0.000000
# 5 0.000000 0.000000 0.000000 0.000000 0.009882 0.000000
# 6 0.000000 0.000000 0.000000 0.000000 0.000000 0.038826
#
#
# Mechanical properties :
#
#
# Convention : Reuss Voigt Hill
#
# Bulk Modulus (GPa) = 46.88819 56.75812 51.82315
# Shear Modulus (GPa) = 32.17775 45.39558 38.78667
#
# Velocity S-wave (km/s) = 3.80553 4.52005 4.17809
# Velocity P-wave (km/s) = 6.35705 7.26539 6.82635
#
# Compressibility (1/GPa) = 0.02132733
#
# Stress axis : x y z
#
# Youngs Moduli (GPa) = 148.00623 52.61263 74.92552
#
# Poissons Ratio (x) = 0.10273 0.18702
# Poissons Ratio (y) = 0.28899 0.33287
# Poissons Ratio (z) = 0.36943 0.23374
#
# Static dielectric constant tensor:
#      x y z
#    x 1.827120 0.000000 0.000000 
#    y 0.000000 1.852240 0.000000 
#    z 0.000000 0.000000 1.833280 
# 
# From -- ./inp_files/17679.got.cif
#   From: 2010.05.17/outbox.cif.g08.bks.cpg/sg46_9_cif.got.tgz:17679.got - 2010.06.03 19:58:25.
