data_PCOD9380180
_publ_section_title
;
Structure prediction by ZEFSAII (Michael W. Deem and Ramdas Pophale) SiO2 
 PCOD9380180
Probable space group: I M A 2
;
_chemical_formula_sum "Si O2"
_cell_formula_units_Z 36
_cell_length_a 14.832394
_cell_length_b 9.188751
_cell_length_c 14.096466
_cell_angle_alpha 90.000000
_cell_angle_beta 90.000000
_cell_angle_gamma 90.000000
_cell_volume 1921.223917
_symmetry_space_group_name_H-M "I M A 2"
_symmetry_group_IT_number 46
_symmetry_cell_setting 'orthorhombic'
loop_
_space_group_symop_operation_xyz
x,y,z
-x,-y,z
1/2-x,y,z
1/2+x,-y,z
1/2+x,1/2+y,1/2+z
1/2-x,1/2-y,1/2+z
-x,1/2+y,1/2+z
x,1/2-y,1/2+z
loop_
_atom_site_type_symbol
_atom_site_label
_atom_site_fract_x
_atom_site_fract_y
_atom_site_fract_z
Si Si1 0.750000 0.749676 0.575060
Si Si2 0.750000 0.887383 0.281875
Si Si3 0.750000 0.913271 0.889423
Si Si4 0.150131 0.860606 0.366516
Si Si5 0.905211 0.081671 0.780226
Si Si6 0.391763 0.509821 0.069129
O O1 0.750000 0.677653 0.678020
O O2 0.750000 0.616980 0.501015
O O3 0.836573 0.857543 0.563997
O O4 0.835290 0.990397 0.307752
O O5 0.750000 0.750756 0.350334
O O6 0.837132 0.994223 0.847913
O O7 0.250000 0.790963 0.359963
O O8 0.084579 0.744794 0.319850
O O9 0.133737 0.899470 0.475643
O O10 0.868959 0.078933 0.671802
O O11 0.000000 0.000000 0.779808
O O12 0.500000 0.500000 0.066295
#
# Coordination Sequence:
#
# PCOD9380180 Si02
#       6
#     4   4   4   8   8   8
#     4  12  22  40  68  96 128 168 226 264 324 380
#     4  10  21  38  69  93 123 169 211 269 317 377
#     4  12  21  40  65  93 123 171 215 265 317 389
#     4  10  22  42  65  96 122 172 212 264 325 379
#     4  11  25  42  67  94 131 169 214 269 329 385
#     4  11  23  40  66  92 130 175 210 265 329 386
#
# _framework density 18.738054000000002
#
# number of rings (size 3 to 8) (size 9 to 14) (size 15 to 20)
#    0.667    0.444    6.667    0.000    3.111    1.778 
#    0.000    0.000    0.000    0.000    0.000    0.000 
#    0.000    0.000    0.000    0.000    0.000    0.000 
#
# Total GULP energy -100327.345173 kJ/mol
# GULP energy per Si atom -5573.741399 kJ/mol
# Density = 1.869541 g / cm^3
# Si number density = 18.738054 Si / 1000 Ang^3
#
#
#
# Elastic Constant Matrix: (Units=GPa)
#
#
# Indices 1 2 3 4 5 6 
#
# 1 65.1654 12.6056 1.2493 0.0000 0.0000 0.0000
# 2 12.6056 95.1279 18.9510 0.0000 0.0000 0.0000
# 3 1.2493 18.9510 92.1142 0.0000 0.0000 0.0000
# 4 0.0000 0.0000 0.0000 31.8107 0.0000 0.0000
# 5 0.0000 0.0000 0.0000 0.0000 22.2497 0.0000
# 6 0.0000 0.0000 0.0000 0.0000 0.0000 24.8666
#
#
#
# Elastic Compliance Matrix: (Units=1/GPa)
#
#
# Indices 1 2 3 4 5 6 
#
# 1 0.015754 -0.002132 0.000225 0.000000 0.000000 0.000000
# 2 -0.002132 0.011250 -0.002286 0.000000 0.000000 0.000000
# 3 0.000225 -0.002286 0.011323 0.000000 0.000000 0.000000
# 4 0.000000 0.000000 0.000000 0.031436 0.000000 0.000000
# 5 0.000000 0.000000 0.000000 0.000000 0.044944 0.000000
# 6 0.000000 0.000000 0.000000 0.000000 0.000000 0.040215
#
#
# Mechanical properties :
#
#
# Convention : Reuss Voigt Hill
#
# Bulk Modulus (GPa) = 33.39881 35.33546 34.36714
# Shear Modulus (GPa) = 28.85363 30.42550 29.63957
#
# Velocity S-wave (km/s) = 3.92834 4.03392 3.98148
# Velocity P-wave (km/s) = 6.19988 6.37144 6.28625
#
# Compressibility (1/GPa) = 0.02994118
#
# Stress axis : x y z
#
# Youngs Moduli (GPa) = 63.47701 88.88842 88.31378
#
# Poissons Ratio (x) = 0.18954 -0.01988
# Poissons Ratio (y) = 0.13536 0.20185
# Poissons Ratio (z) = -0.01429 0.20316
#
# Static dielectric constant tensor:
#      x y z
#    x 1.666840 0.000000 0.000000 
#    y 0.000000 1.644190 0.000000 
#    z 0.000000 0.000000 1.642750 
# 
# From -- ./inp_files/16361.got.cif
#   From: 2010.05.17/outbox.cif.g08.bks.cpg/sg46_9_cif.got.tgz:16361.got - 2010.06.03 19:58:25.
