data_PCOD9380126
_publ_section_title
;
Structure prediction by ZEFSAII (Michael W. Deem and Ramdas Pophale) SiO2 
 PCOD9380126
Probable space group: I M A 2
;
_chemical_formula_sum "Si O2"
_cell_formula_units_Z 32
_cell_length_a 15.733397
_cell_length_b 9.482862
_cell_length_c 7.904645
_cell_angle_alpha 90.000000
_cell_angle_beta 90.000000
_cell_angle_gamma 90.000000
_cell_volume 1179.354320
_symmetry_space_group_name_H-M "I M A 2"
_symmetry_group_IT_number 46
_symmetry_cell_setting 'orthorhombic'
loop_
_space_group_symop_operation_xyz
x,y,z
-x,-y,z
1/2-x,y,z
1/2+x,-y,z
1/2+x,1/2+y,1/2+z
1/2-x,1/2-y,1/2+z
-x,1/2+y,1/2+z
x,1/2-y,1/2+z
loop_
_atom_site_type_symbol
_atom_site_label
_atom_site_fract_x
_atom_site_fract_y
_atom_site_fract_z
Si Si1 0.617809 0.283112 0.995650
Si Si2 0.156958 0.514754 0.303141
Si Si3 0.897866 0.525748 0.761800
Si Si4 0.918151 0.792544 0.580927
O O1 0.641548 0.121456 0.959199
O O2 0.635461 0.374808 0.824871
O O3 0.656590 0.375312 0.145182
O O4 0.517284 0.281160 0.035679
O O5 0.250000 0.449370 0.315205
O O6 0.091016 0.394470 0.245196
O O7 0.878413 0.639677 0.616251
O O8 0.000000 0.500000 0.748247
O O9 0.878542 0.621484 0.927535
#
# Coordination Sequence:
#
# PCOD9380126 Si02
#       4
#     8   8   8   8
#     4  10  21  39  63  90 124 168 211 260 323 393
#     4  11  23  41  62  91 127 167 215 272 331 391
#     4   9  19  34  56  86 115 152 202 257 308 368
#     4  10  21  38  60  87 121 161 209 263 319 384
#
# _framework density 27.133492
#
# number of rings (size 3 to 8) (size 9 to 14) (size 15 to 20)
#    0.000    2.000    0.000    6.000    0.000    4.000 
#    0.000    6.250    0.000    0.000    0.000    0.000 
#    0.000    0.000    0.000    0.000    0.000    0.000 
#
# Total GULP energy -89463.113835 kJ/mol
# GULP energy per Si atom -5591.444615 kJ/mol
# Density = 2.707173 g / cm^3
# Si number density = 27.133492 Si / 1000 Ang^3
#
#
#
# Elastic Constant Matrix: (Units=GPa)
#
#
# Indices 1 2 3 4 5 6 
#
# 1 61.7238 21.3461 4.7813 0.0000 0.0000 0.0000
# 2 21.3461 213.7038 19.5422 0.0000 0.0000 0.0000
# 3 4.7813 19.5422 73.9112 0.0000 0.0000 0.0000
# 4 0.0000 0.0000 0.0000 65.3457 0.0000 0.0000
# 5 0.0000 0.0000 0.0000 0.0000 -19.6844 0.0000
# 6 0.0000 0.0000 0.0000 0.0000 0.0000 17.2283
#
#
#
# Elastic Compliance Matrix: (Units=1/GPa)
#
#
# Indices 1 2 3 4 5 6 
#
# 1 0.016812 -0.001619 -0.000660 0.000000 0.000000 0.000000
# 2 -0.001619 0.004951 -0.001204 0.000000 0.000000 0.000000
# 3 -0.000660 -0.001204 0.013891 0.000000 0.000000 0.000000
# 4 0.000000 0.000000 0.000000 0.015303 0.000000 0.000000
# 5 0.000000 0.000000 0.000000 0.000000 -0.050802 0.000000
# 6 0.000000 0.000000 0.000000 0.000000 0.000000 0.058044
#
#
# Mechanical properties :
#
#
# Convention : Reuss Voigt Hill
#
# Bulk Modulus (GPa) = 34.85719 48.96422 41.91071
# Shear Modulus (GPa) = 66.90882 32.82252 49.86567
#
# Velocity S-wave (km/s) = 4.97118 3.48180 4.29160
# Velocity P-wave (km/s) = 6.76939 5.85225 6.32746
#
# Compressibility (1/GPa) = 0.02868848
#
# Stress axis : x y z
#
# Youngs Moduli (GPa) = 59.48066 201.97018 71.98979
#
# Poissons Ratio (x) = 0.32699 0.04748
# Poissons Ratio (y) = 0.09630 0.08670
# Poissons Ratio (z) = 0.03923 0.24325
#
# Static dielectric constant tensor:
#      x y z
#    x 2.515070 0.000000 0.000000 
#    y 0.000000 2.104850 0.000000 
#    z 0.000000 0.000000 2.348380 
# 
# From -- ./inp_files/7105.got.cif
#   From: 2010.05.17/outbox.cif.g08.bks.cpg/sg46_4_cif.got.tgz:7105.got - 2010.06.03 19:58:25.
