data_PCOD9380494
_publ_section_title
;
Structure prediction by ZEFSAII (Michael W. Deem and Ramdas Pophale) SiO2 
 PCOD9380494
Probable space group: I M A 2
;
_chemical_formula_sum "Si O2"
_cell_formula_units_Z 32
_cell_length_a 16.764438
_cell_length_b 7.188801
_cell_length_c 11.550074
_cell_angle_alpha 90.000000
_cell_angle_beta 90.000000
_cell_angle_gamma 90.000000
_cell_volume 1391.971128
_symmetry_space_group_name_H-M "I M A 2"
_symmetry_group_IT_number 46
_symmetry_cell_setting 'orthorhombic'
loop_
_space_group_symop_operation_xyz
x,y,z
-x,-y,z
1/2-x,y,z
1/2+x,-y,z
1/2+x,1/2+y,1/2+z
1/2-x,1/2-y,1/2+z
-x,1/2+y,1/2+z
x,1/2-y,1/2+z
loop_
_atom_site_type_symbol
_atom_site_label
_atom_site_fract_x
_atom_site_fract_y
_atom_site_fract_z
Si Si1 0.841713 0.438074 0.176300
Si Si2 0.585591 0.093454 0.280126
Si Si3 0.410881 0.939043 0.907542
Si Si4 0.342869 0.163897 0.114799
O O1 0.750000 0.387061 0.147703
O O2 0.898851 0.259882 0.186313
O O3 0.847281 0.502607 0.311033
O O4 0.868021 0.620858 0.108919
O O5 0.595858 0.213679 0.397730
O O6 0.500000 0.000000 0.276323
O O7 0.644680 0.931266 0.240561
O O8 0.500000 0.000000 0.870594
O O9 0.392349 0.041840 0.025256
O O10 0.250000 0.155794 0.086613
#
# Coordination Sequence:
#
# PCOD9380494 Si02
#       4
#     8   8   8   8
#     4   9  21  41  65  94 134 174 221 273 328 396
#     4  10  22  41  65  93 133 170 223 281 334 396
#     4  10  22  40  64  95 134 170 223 277 330 399
#     4  11  22  40  65  92 131 179 223 274 331 395
#
# _framework density 22.988983000000001
#
# number of rings (size 3 to 8) (size 9 to 14) (size 15 to 20)
#    1.500    0.500    0.000    3.750    0.000    0.000 
#    9.000    0.000    0.000    0.000    0.000    0.000 
#    0.000    0.000    0.000    0.000    0.000    0.000 
#
# Total GULP energy -89074.384983 kJ/mol
# GULP energy per Si atom -5567.149061 kJ/mol
# Density = 2.293666 g / cm^3
# Si number density = 22.988983 Si / 1000 Ang^3
#
#
#
# Elastic Constant Matrix: (Units=GPa)
#
#
# Indices 1 2 3 4 5 6 
#
# 1 58.5965 40.2043 1.4863 0.0000 0.0000 0.0000
# 2 40.2043 170.9449 29.2809 0.0000 0.0000 0.0000
# 3 1.4863 29.2809 21.1551 0.0000 0.0000 0.0000
# 4 0.0000 0.0000 0.0000 21.8946 0.0000 0.0000
# 5 0.0000 0.0000 0.0000 0.0000 5.4912 0.0000
# 6 0.0000 0.0000 0.0000 0.0000 0.0000 38.1975
#
#
#
# Elastic Compliance Matrix: (Units=1/GPa)
#
#
# Indices 1 2 3 4 5 6 
#
# 1 0.021126 -0.006180 0.007069 0.000000 0.000000 0.000000
# 2 -0.006180 0.009475 -0.012681 0.000000 0.000000 0.000000
# 3 0.007069 -0.012681 0.064324 0.000000 0.000000 0.000000
# 4 0.000000 0.000000 0.000000 0.045673 0.000000 0.000000
# 5 0.000000 0.000000 0.000000 0.000000 0.182111 0.000000
# 6 0.000000 0.000000 0.000000 0.000000 0.000000 0.026180
#
#
# Mechanical properties :
#
#
# Convention : Reuss Voigt Hill
#
# Bulk Modulus (GPa) = 14.01666 43.62659 28.82162
# Shear Modulus (GPa) = 12.61818 25.09834 18.85826
#
# Velocity S-wave (km/s) = 2.34536 3.30776 2.86723
# Velocity P-wave (km/s) = 3.66669 5.79713 4.85033
#
# Compressibility (1/GPa) = 0.07134369
#
# Stress axis : x y z
#
# Youngs Moduli (GPa) = 47.33396 105.53853 15.54620
#
# Poissons Ratio (x) = 0.65218 -0.10989
# Poissons Ratio (y) = 0.29250 0.19713
# Poissons Ratio (z) = -0.33460 1.33828
#
# Static dielectric constant tensor:
#      x y z
#    x 1.838850 0.000000 0.000000 
#    y 0.000000 1.895620 0.000000 
#    z 0.000000 0.000000 1.983190 
# 
# From -- ./inp_files/16236.got.cif
#   From: 2010.05.17/outbox.cif.g08.bks.cpg/sg46_9_cif.got.tgz:16236.got - 2010.06.03 19:58:25.
