data_PCOD9380087
_publ_section_title
;
Structure prediction by ZEFSAII (Michael W. Deem and Ramdas Pophale) SiO2 
 PCOD9380087
Probable space group: I M A 2
;
_chemical_formula_sum "Si O2"
_cell_formula_units_Z 56
_cell_length_a 14.112367
_cell_length_b 21.339812
_cell_length_c 10.089597
_cell_angle_alpha 90.000000
_cell_angle_beta 90.000000
_cell_angle_gamma 90.000000
_cell_volume 3038.535194
_symmetry_space_group_name_H-M "I M A 2"
_symmetry_group_IT_number 46
_symmetry_cell_setting 'orthorhombic'
loop_
_space_group_symop_operation_xyz
x,y,z
-x,-y,z
1/2-x,y,z
1/2+x,-y,z
1/2+x,1/2+y,1/2+z
1/2-x,1/2-y,1/2+z
-x,1/2+y,1/2+z
x,1/2-y,1/2+z
loop_
_atom_site_type_symbol
_atom_site_label
_atom_site_fract_x
_atom_site_fract_y
_atom_site_fract_z
Si Si1 0.750000 0.324997 0.461841
Si Si2 0.642700 0.486587 0.755190
Si Si3 0.039990 0.662027 0.426280
Si Si4 0.468966 0.395999 0.685825
Si Si5 0.945215 0.188807 0.394823
Si Si6 0.525262 0.102988 0.643918
Si Si7 0.250000 0.786753 0.260799
Si Si8 0.641335 0.988618 0.568832
O O1 0.851080 0.358451 0.457018
O O2 0.750000 0.281076 0.330960
O O3 0.750000 0.286664 0.601515
O O4 0.750000 0.467888 0.721928
O O5 0.562660 0.439364 0.704899
O O6 0.617181 0.555871 0.702285
O O7 0.633258 0.491457 0.914606
O O8 0.975573 0.636855 0.544412
O O9 0.039489 0.737567 0.419104
O O10 0.012152 0.634838 0.284836
O O11 0.477111 0.343984 0.800966
O O12 0.943383 0.153016 0.533883
O O13 0.845182 0.181839 0.317345
O O14 0.429976 0.068198 0.595917
O O15 0.603761 0.048241 0.650432
O O16 0.750000 0.973611 0.597197
#
# Coordination Sequence:
#
# PCOD9380087 Si02
#       8
#     4   8   8   8   8   8   4   8
#     4  10  22  36  48  84 122 158 194 222 279 348
#     4  10  21  37  64  87 109 150 201 248 285 337
#     4  11  25  35  56  86 128 152 187 235 291 348
#     4  11  20  39  59  88 114 153 193 237 288 344
#     4  11  21  37  59  82 120 158 190 230 283 353
#     4  11  22  39  60  89 115 155 194 236 291 349
#     4  10  22  32  52  82 120 160 192 226 277 344
#     4  10  21  39  62  87 111 149 200 248 287 335
#
# _framework density 18.429933999999999
#
# number of rings (size 3 to 8) (size 9 to 14) (size 15 to 20)
#    0.000    1.429    4.286    1.714   10.000    2.286 
#    0.000    2.143    0.000    5.143    0.000    0.000 
#    0.000    0.000    0.000    0.000    0.000    0.000 
#
# Total GULP energy -156374.352524 kJ/mol
# GULP energy per Si atom -5584.798304 kJ/mol
# Density = 1.838799 g / cm^3
# Si number density = 18.429934 Si / 1000 Ang^3
#
#
#
# Elastic Constant Matrix: (Units=GPa)
#
#
# Indices 1 2 3 4 5 6 
#
# 1 55.4017 12.5578 -1.3707 0.0000 0.0000 0.0000
# 2 12.5578 76.2302 13.2203 0.0000 0.0000 0.0000
# 3 -1.3707 13.2203 76.1678 -0.0001 0.0000 0.0000
# 4 0.0000 0.0000 -0.0001 -10.7446 0.0000 0.0000
# 5 0.0000 0.0000 0.0000 0.0000 16.6470 0.0000
# 6 0.0000 0.0000 0.0000 0.0000 0.0000 12.2418
#
#
#
# Elastic Compliance Matrix: (Units=1/GPa)
#
#
# Indices 1 2 3 4 5 6 
#
# 1 0.018810 -0.003255 0.000904 0.000000 0.000000 0.000000
# 2 -0.003255 0.014089 -0.002504 0.000000 0.000000 0.000000
# 3 0.000904 -0.002504 0.013580 0.000000 0.000000 0.000000
# 4 0.000000 0.000000 0.000000 -0.093070 0.000000 0.000000
# 5 0.000000 0.000000 0.000000 0.000000 0.060071 0.000000
# 6 0.000000 0.000000 0.000000 0.000000 0.000000 0.081687
#
#
# Mechanical properties :
#
#
# Convention : Reuss Voigt Hill
#
# Bulk Modulus (GPa) = 27.19821 28.51272 27.85546
# Shear Modulus (GPa) = 42.68624 15.85501 29.27062
#
# Velocity S-wave (km/s) = 4.81785 2.93624 3.98956
# Velocity P-wave (km/s) = 6.76303 5.19614 6.03069
#
# Compressibility (1/GPa) = 0.03676712
#
# Stress axis : x y z
#
# Youngs Moduli (GPa) = 53.16249 70.97887 73.63891
#
# Poissons Ratio (x) = 0.23107 -0.06654
# Poissons Ratio (y) = 0.17307 0.18439
# Poissons Ratio (z) = -0.04804 0.17773
#
# Static dielectric constant tensor:
#      x y z
#    x 1.641640 0.000000 0.000000 
#    y 0.000000 1.650550 0.000000 
#    z 0.000000 0.000000 1.619230 
# 
# From -- ./inp_files/5962.got.cif
#   From: 2010.05.17/outbox.cif.g08.bks.cpg/sg46_3_cif.got.tgz:5962.got - 2010.06.03 19:58:25.
