data_PCOD9380471
_publ_section_title
;
Structure prediction by ZEFSAII (Michael W. Deem and Ramdas Pophale) SiO2 
 PCOD9380471
Probable space group: I M A 2
;
_chemical_formula_sum "Si O2"
_cell_formula_units_Z 48
_cell_length_a 25.510451
_cell_length_b 7.165560
_cell_length_c 14.500128
_cell_angle_alpha 90.000000
_cell_angle_beta 90.000000
_cell_angle_gamma 90.000000
_cell_volume 2650.575073
_symmetry_space_group_name_H-M "I M A 2"
_symmetry_group_IT_number 46
_symmetry_cell_setting 'orthorhombic'
loop_
_space_group_symop_operation_xyz
x,y,z
-x,-y,z
1/2-x,y,z
1/2+x,-y,z
1/2+x,1/2+y,1/2+z
1/2-x,1/2-y,1/2+z
-x,1/2+y,1/2+z
x,1/2-y,1/2+z
loop_
_atom_site_type_symbol
_atom_site_label
_atom_site_fract_x
_atom_site_fract_y
_atom_site_fract_z
Si Si1 0.374952 0.821937 0.895670
Si Si2 0.948789 0.631026 0.485977
Si Si3 0.309109 0.653668 0.574256
Si Si4 0.879390 0.827721 0.162146
Si Si5 0.942462 0.539327 0.839473
Si Si6 0.689963 0.020480 0.723089
O O1 0.412647 0.646932 0.873949
O O2 0.341195 0.888633 0.808420
O O3 0.409304 0.995429 0.931077
O O4 0.336040 0.780155 0.980057
O O5 0.923482 0.694512 0.582895
O O6 0.953766 0.813768 0.421856
O O7 0.000000 0.500000 0.499807
O O8 0.250000 0.586341 0.556229
O O9 0.343166 0.493504 0.622901
O O10 0.307343 0.824519 0.644223
O O11 0.906712 0.877968 0.258549
O O12 0.842872 0.651087 0.182292
O O13 0.000000 0.500000 0.799239
O O14 0.750000 0.967983 0.748621
#
# Coordination Sequence:
#
# PCOD9380471 Si02
#       6
#     8   8   8   8   8   8
#     4  11  22  40  63  90 125 161 205 257 312 370
#     4  11  23  42  62  91 124 163 209 258 311 369
#     4  10  22  40  62  87 122 162 205 255 309 369
#     4  11  23  40  63  91 125 161 206 259 310 371
#     4  12  23  40  64  92 124 165 209 255 310 375
#     4  11  22  40  64  92 125 163 207 255 315 375
#
# _framework density 18.109276999999999
#
# number of rings (size 3 to 8) (size 9 to 14) (size 15 to 20)
#    0.000    1.000    5.000    2.500    0.000    0.000 
#    0.000    0.833    0.000    0.000    0.000    0.000 
#    0.000    0.000    0.000    0.000    0.000    0.000 
#
# Total GULP energy -133961.934570 kJ/mol
# GULP energy per Si atom -5581.747274 kJ/mol
# Density = 1.806806 g / cm^3
# Si number density = 18.109277 Si / 1000 Ang^3
#
#
#
# Elastic Constant Matrix: (Units=GPa)
#
#
# Indices 1 2 3 4 5 6 
#
# 1 127.4590 40.0853 45.9416 0.0000 0.0000 0.0000
# 2 40.0853 79.4964 43.2364 0.0000 0.0000 0.0000
# 3 45.9416 43.2364 89.6155 0.0000 0.0000 0.0000
# 4 0.0000 0.0000 0.0000 20.6960 0.0000 0.0000
# 5 0.0000 0.0000 0.0000 0.0000 23.5860 0.0000
# 6 0.0000 0.0000 0.0000 0.0000 0.0000 35.2742
#
#
#
# Elastic Compliance Matrix: (Units=1/GPa)
#
#
# Indices 1 2 3 4 5 6 
#
# 1 0.010159 -0.003105 -0.003710 0.000000 0.000000 0.000000
# 2 -0.003105 0.018003 -0.007094 0.000000 0.000000 0.000000
# 3 -0.003710 -0.007094 0.016484 0.000000 0.000000 0.000000
# 4 0.000000 0.000000 0.000000 0.048318 0.000000 0.000000
# 5 0.000000 0.000000 0.000000 0.000000 0.042398 0.000000
# 6 0.000000 0.000000 0.000000 0.000000 0.000000 0.028349
#
#
# Mechanical properties :
#
#
# Convention : Reuss Voigt Hill
#
# Bulk Modulus (GPa) = 59.42647 61.67751 60.55199
# Shear Modulus (GPa) = 25.36271 27.06509 26.21390
#
# Velocity S-wave (km/s) = 3.74643 3.87013 3.80878
# Velocity P-wave (km/s) = 7.18339 7.35547 7.26994
#
# Compressibility (1/GPa) = 0.01682752
#
# Stress axis : x y z
#
# Youngs Moduli (GPa) = 98.43031 55.54579 60.66654
#
# Poissons Ratio (x) = 0.17246 0.22509
# Poissons Ratio (y) = 0.30561 0.43038
# Poissons Ratio (z) = 0.36520 0.39405
#
# Static dielectric constant tensor:
#      x y z
#    x 1.632870 0.000000 0.000000 
#    y 0.000000 1.599110 0.000000 
#    z 0.000000 0.000000 1.596150 
# 
# From -- ./inp_files/12696.got.cif
#   From: 2010.05.17/outbox.cif.g08.bks.cpg/sg46_7_cif.got.tgz:12696.got - 2010.06.03 19:58:25.
