data_PCOD9380257
_publ_section_title
;
Structure prediction by ZEFSAII (Michael W. Deem and Ramdas Pophale) SiO2 
 PCOD9380257
Probable space group: I M A 2
;
_chemical_formula_sum "Si O2"
_cell_formula_units_Z 64
_cell_length_a 26.293750
_cell_length_b 21.006695
_cell_length_c 5.067822
_cell_angle_alpha 90.000000
_cell_angle_beta 90.000000
_cell_angle_gamma 90.000000
_cell_volume 2799.185061
_symmetry_space_group_name_H-M "I M A 2"
_symmetry_group_IT_number 46
_symmetry_cell_setting 'orthorhombic'
loop_
_space_group_symop_operation_xyz
x,y,z
-x,-y,z
1/2-x,y,z
1/2+x,-y,z
1/2+x,1/2+y,1/2+z
1/2-x,1/2-y,1/2+z
-x,1/2+y,1/2+z
x,1/2-y,1/2+z
loop_
_atom_site_type_symbol
_atom_site_label
_atom_site_fract_x
_atom_site_fract_y
_atom_site_fract_z
Si Si1 0.857347 0.583899 0.794400
Si Si2 0.308143 0.025689 0.807741
Si Si3 0.552813 0.112423 0.046236
Si Si4 0.390042 0.796358 0.367763
Si Si5 0.138242 0.909830 0.639176
Si Si6 0.555187 0.996399 0.383851
Si Si7 0.973948 0.791215 0.884756
Si Si8 0.647184 0.712225 0.480645
O O1 0.840085 0.532536 0.576122
O O2 0.918024 0.571860 0.838272
O O3 0.841551 0.648518 0.646088
O O4 0.830134 0.570556 0.073165
O O5 0.250000 0.042601 0.857952
O O6 0.314447 0.952576 0.720167
O O7 0.562705 0.155882 0.306108
O O8 0.546641 0.039437 0.124181
O O9 0.504164 0.143327 0.910851
O O10 0.604347 0.118530 0.876744
O O11 0.388908 0.751125 0.114293
O O12 0.349718 0.852080 0.441751
O O13 0.099079 0.963311 0.528073
O O14 0.500000 0.000000 0.517407
O O15 0.988318 0.742080 0.114039
O O16 0.913477 0.795897 0.926434
O O17 0.663768 0.732049 0.186121
#
# Coordination Sequence:
#
# PCOD9380257 Si02
#       8
#     8   8   8   8   8   8   8   8
#     4  11  22  43  67  98 126 166 216 259 326 399
#     4  11  24  45  71  97 125 161 215 278 333 392
#     4  11  20  35  53  83 125 163 216 263 307 362
#     4  11  21  34  57  85 117 162 205 258 317 364
#     4  10  23  39  60  92 125 166 221 263 330 382
#     4  10  22  37  56  90 132 173 209 265 321 381
#     4  10  22  33  51  81 121 170 220 246 289 357
#     4  10  21  40  61  90 126 171 205 248 307 379
#
# _framework density 22.863799
#
# number of rings (size 3 to 8) (size 9 to 14) (size 15 to 20)
#    0.000    1.500    2.500    2.625    3.500    0.500 
#    6.750    0.000    0.000    8.250    0.000    0.000 
#    0.000    0.000    0.000    0.000    0.000    0.000 
#
# Total GULP energy -178418.933602 kJ/mol
# GULP energy per Si atom -5575.591675 kJ/mol
# Density = 2.281176 g / cm^3
# Si number density = 22.863799 Si / 1000 Ang^3
#
#
#
# Elastic Constant Matrix: (Units=GPa)
#
#
# Indices 1 2 3 4 5 6 
#
# 1 50.5103 -4.2097 11.3501 0.0000 0.0000 0.0000
# 2 -4.2097 60.2678 5.5618 0.0000 0.0000 0.0000
# 3 11.3501 5.5618 115.3078 0.0000 0.0000 0.0000
# 4 0.0000 0.0000 0.0000 35.7848 0.0000 0.0000
# 5 0.0000 0.0000 0.0000 0.0000 12.3672 0.0000
# 6 0.0000 0.0000 0.0000 0.0000 0.0000 16.2879
#
#
#
# Elastic Compliance Matrix: (Units=1/GPa)
#
#
# Indices 1 2 3 4 5 6 
#
# 1 0.020402 0.001618 -0.002086 0.000000 0.000000 0.000000
# 2 0.001618 0.016795 -0.000969 0.000000 0.000000 0.000000
# 3 -0.002086 -0.000969 0.008925 0.000000 0.000000 0.000000
# 4 0.000000 0.000000 0.000000 0.027945 0.000000 0.000000
# 5 0.000000 0.000000 0.000000 0.000000 0.080859 0.000000
# 6 0.000000 0.000000 0.000000 0.000000 0.000000 0.061395
#
#
# Mechanical properties :
#
#
# Convention : Reuss Voigt Hill
#
# Bulk Modulus (GPa) = 23.12393 27.94334 25.53363
# Shear Modulus (GPa) = 21.40307 27.11357 24.25832
#
# Velocity S-wave (km/s) = 3.06291 3.44739 3.26082
# Velocity P-wave (km/s) = 4.75860 5.30039 5.03679
#
# Compressibility (1/GPa) = 0.04324525
#
# Stress axis : x y z
#
# Youngs Moduli (GPa) = 49.01593 59.54133 112.05058
#
# Poissons Ratio (x) = -0.09631 0.23376
# Poissons Ratio (y) = -0.07929 0.10861
# Poissons Ratio (z) = 0.10226 0.05771
#
# Static dielectric constant tensor:
#      x y z
#    x 1.856750 0.000000 0.000000 
#    y 0.000000 1.954740 0.000000 
#    z 0.000000 0.000000 1.925810 
# 
# From -- ./inp_files/2625.got.cif
#   From: 2010.05.17/outbox.cif.g08.bks.cpg/sg46_2_cif.got.tgz:2625.got - 2010.06.03 19:58:25.
