data_PCOD9380958
_publ_section_title
;
Structure prediction by ZEFSAII (Michael W. Deem and Ramdas Pophale) SiO2 
 PCOD9380958
Probable space group: I M A 2
;
_chemical_formula_sum "Si O2"
_cell_formula_units_Z 48
_cell_length_a 18.129276
_cell_length_b 9.398071
_cell_length_c 11.903583
_cell_angle_alpha 90.000000
_cell_angle_beta 90.000000
_cell_angle_gamma 90.000000
_cell_volume 2028.135126
_symmetry_space_group_name_H-M "I M A 2"
_symmetry_group_IT_number 46
_symmetry_cell_setting 'orthorhombic'
loop_
_space_group_symop_operation_xyz
x,y,z
-x,-y,z
1/2-x,y,z
1/2+x,-y,z
1/2+x,1/2+y,1/2+z
1/2-x,1/2-y,1/2+z
-x,1/2+y,1/2+z
x,1/2-y,1/2+z
loop_
_atom_site_type_symbol
_atom_site_label
_atom_site_fract_x
_atom_site_fract_y
_atom_site_fract_z
Si Si1 0.619433 0.500000 0.153370
Si Si2 0.334631 0.863026 0.889690
Si Si3 0.000000 0.238045 0.653370
Si Si4 0.433838 0.090489 0.950997
Si Si5 0.566162 0.090489 0.355743
Si Si6 0.834631 0.636974 0.917050
O O1 0.659572 0.441954 0.266333
O O2 0.567212 0.633237 0.183405
O O3 0.567212 0.366763 0.123335
O O4 0.659572 0.558046 0.040407
O O5 0.250000 0.828344 0.911990
O O6 0.386648 0.725701 0.897031
O O7 0.370555 0.975613 0.974612
O O8 0.976435 0.339330 0.753378
O O9 0.023565 0.339331 0.553362
O O10 0.386648 0.225702 0.909709
O O11 0.500000 0.000000 0.888853
O O12 0.500000 0.000000 0.417887
O O13 0.629445 0.975613 0.332128
O O14 0.750000 0.671655 0.894750
#
# Coordination Sequence:
#
# PCOD9380958 Si02
#       6
#     8   8   8   8   8   8
#     4   9  21  38  68  94 138 184 218 268 334 404
#     4  11  24  42  66  98 139 180 221 275 340 403
#     4   9  21  40  64 102 130 170 230 282 324 386
#     4  11  24  41  67  97 131 175 229 277 328 395
#     4  11  24  41  67  97 131 175 229 277 328 395
#     4  11  24  42  66  98 139 180 221 275 340 403
#
# _framework density 23.667062000000001
#
# number of rings (size 3 to 8) (size 9 to 14) (size 15 to 20)
#    0.000    1.667    0.000    3.000   14.000    0.000 
#    0.000    0.000    0.000   10.000    0.000    0.000 
#    0.000    0.000    0.000    0.000    0.000    0.000 
#
# Total GULP energy -134025.765294 kJ/mol
# GULP energy per Si atom -5584.406887 kJ/mol
# Density = 2.361319 g / cm^3
# Si number density = 23.667062 Si / 1000 Ang^3
#
#
#
# Elastic Constant Matrix: (Units=GPa)
#
#
# Indices 1 2 3 4 5 6 
#
# 1 154.1265 67.6437 56.4721 0.0000 0.0000 0.0000
# 2 67.6437 186.7326 39.6656 0.0000 0.0000 0.0000
# 3 56.4721 39.6656 57.1266 0.0000 0.0000 0.0000
# 4 0.0000 0.0000 0.0000 39.1718 0.0000 0.0000
# 5 0.0000 0.0000 0.0000 0.0000 18.3306 0.0000
# 6 0.0000 0.0000 0.0000 0.0000 0.0000 -8.9419
#
#
#
# Elastic Compliance Matrix: (Units=1/GPa)
#
#
# Indices 1 2 3 4 5 6 
#
# 1 0.010727 -0.001916 -0.009274 0.000000 0.000000 0.000000
# 2 -0.001916 0.006624 -0.002705 0.000000 0.000000 0.000000
# 3 -0.009274 -0.002705 0.028551 0.000000 0.000000 0.000000
# 4 0.000000 0.000000 0.000000 0.025529 0.000000 0.000000
# 5 0.000000 0.000000 0.000000 0.000000 0.054554 0.000000
# 6 0.000000 0.000000 0.000000 0.000000 0.000000 -0.111833
#
#
# Mechanical properties :
#
#
# Convention : Reuss Voigt Hill
#
# Bulk Modulus (GPa) = 55.21256 80.61649 67.91452
# Shear Modulus (GPa) = 104.21480 25.32573 64.77026
#
# Velocity S-wave (km/s) = 6.64299 3.27476 5.23705
# Velocity P-wave (km/s) = 9.06744 6.95956 8.08251
#
# Compressibility (1/GPa) = 0.01811182
#
# Stress axis : x y z
#
# Youngs Moduli (GPa) = 93.22317 150.96717 35.02512
#
# Poissons Ratio (x) = 0.28924 0.32481
# Poissons Ratio (y) = 0.17861 0.09476
# Poissons Ratio (z) = 0.86453 0.40842
#
# Static dielectric constant tensor:
#      x y z
#    x 1.873400 0.000000 0.000000 
#    y 0.000000 1.896920 0.000000 
#    z 0.000000 0.000000 1.992660 
# 
# From -- ./inp_files/16503.got.cif
#   From: 2010.05.17/outbox.cif.g08.bks.cpg/sg46_9_cif.got.tgz:16503.got - 2010.06.03 19:58:25.
