data_PCOD9380400
_publ_section_title
;
Structure prediction by ZEFSAII (Michael W. Deem and Ramdas Pophale) SiO2 
 PCOD9380400
Probable space group: I M A 2
;
_chemical_formula_sum "Si O2"
_cell_formula_units_Z 56
_cell_length_a 15.334221
_cell_length_b 12.324384
_cell_length_c 14.797508
_cell_angle_alpha 90.000000
_cell_angle_beta 90.000000
_cell_angle_gamma 90.000000
_cell_volume 2796.504503
_symmetry_space_group_name_H-M "I M A 2"
_symmetry_group_IT_number 46
_symmetry_cell_setting 'orthorhombic'
loop_
_space_group_symop_operation_xyz
x,y,z
-x,-y,z
1/2-x,y,z
1/2+x,-y,z
1/2+x,1/2+y,1/2+z
1/2-x,1/2-y,1/2+z
-x,1/2+y,1/2+z
x,1/2-y,1/2+z
loop_
_atom_site_type_symbol
_atom_site_label
_atom_site_fract_x
_atom_site_fract_y
_atom_site_fract_z
Si Si1 0.148646 0.548762 0.817360
Si Si2 0.558765 0.586331 0.979975
Si Si3 0.596852 0.541018 0.627302
Si Si4 0.345471 0.223957 0.614277
Si Si5 0.035350 0.752379 0.370727
Si Si6 0.349294 0.551122 0.432432
Si Si7 0.152291 0.331849 0.315793
O O1 0.250000 0.563959 0.843807
O O2 0.097833 0.473459 0.891029
O O3 0.145870 0.491930 0.719368
O O4 0.096363 0.663784 0.815050
O O5 0.500000 0.500000 0.033061
O O6 0.488892 0.679800 0.959247
O O7 0.634243 0.641874 0.035116
O O8 0.500000 0.500000 0.640927
O O9 0.594587 0.670655 0.616223
O O10 0.632109 0.486623 0.535189
O O11 0.250000 0.273344 0.602280
O O12 0.347487 0.159415 0.707915
O O13 0.084279 0.641833 0.395889
O O14 0.937270 0.732356 0.334049
O O15 0.250000 0.592681 0.426911
O O16 0.355190 0.443843 0.370130
O O17 0.250000 0.284876 0.339451
#
# Coordination Sequence:
#
# PCOD9380400 Si02
#       7
#     8   8   8   8   8   8   8
#     4  11  23  41  62  88 123 161 200 248 302 361
#     4  10  22  38  58  85 117 155 200 246 297 355
#     4  12  23  38  62  91 121 155 200 251 298 354
#     4  11  22  38  60  87 116 153 197 244 297 352
#     4  11  22  39  61  86 119 160 198 244 303 360
#     4  11  23  40  61  90 124 159 200 248 300 358
#     4  10  22  38  59  87 120 155 198 249 301 356
#
# _framework density 20.024999000000001
#
# number of rings (size 3 to 8) (size 9 to 14) (size 15 to 20)
#    0.000    1.143    0.000    8.143    0.000    4.571 
#    0.000    1.429    0.000    3.429    0.000    0.000 
#    0.000    0.000    0.000    0.000    0.000    0.000 
#
# Total GULP energy -156196.564755 kJ/mol
# GULP energy per Si atom -5578.448741 kJ/mol
# Density = 1.997942 g / cm^3
# Si number density = 20.024999 Si / 1000 Ang^3
#
#
#
# Elastic Constant Matrix: (Units=GPa)
#
#
# Indices 1 2 3 4 5 6 
#
# 1 130.0466 43.3004 20.3111 0.0000 0.0000 0.0000
# 2 43.3004 83.5848 48.5270 0.0000 0.0000 0.0000
# 3 20.3111 48.5270 75.4466 0.0000 0.0000 0.0000
# 4 0.0000 0.0000 0.0000 19.7930 0.0000 0.0000
# 5 0.0000 0.0000 0.0000 0.0000 22.9655 0.0000
# 6 0.0000 0.0000 0.0000 0.0000 0.0000 25.0947
#
#
#
# Elastic Compliance Matrix: (Units=1/GPa)
#
#
# Indices 1 2 3 4 5 6 
#
# 1 0.009335 -0.005389 0.000953 0.000000 0.000000 0.000000
# 2 -0.005389 0.022206 -0.012832 0.000000 0.000000 0.000000
# 3 0.000953 -0.012832 0.021251 0.000000 0.000000 0.000000
# 4 0.000000 0.000000 0.000000 0.050523 0.000000 0.000000
# 5 0.000000 0.000000 0.000000 0.000000 0.043544 0.000000
# 6 0.000000 0.000000 0.000000 0.000000 0.000000 0.039849
#
#
# Mechanical properties :
#
#
# Convention : Reuss Voigt Hill
#
# Bulk Modulus (GPa) = 54.77587 57.03945 55.90766
# Shear Modulus (GPa) = 21.99463 25.36661 23.68062
#
# Velocity S-wave (km/s) = 3.31774 3.56300 3.44256
# Velocity P-wave (km/s) = 6.48766 6.74334 6.61673
#
# Compressibility (1/GPa) = 0.01825621
#
# Stress axis : x y z
#
# Youngs Moduli (GPa) = 107.12219 45.03368 47.05652
#
# Poissons Ratio (x) = 0.24271 -0.04486
# Poissons Ratio (y) = 0.57733 0.60381
# Poissons Ratio (z) = -0.10213 0.57786
#
# Static dielectric constant tensor:
#      x y z
#    x 1.633210 0.000000 0.000000 
#    y 0.000000 1.732610 0.000000 
#    z 0.000000 0.000000 1.716230 
# 
# From -- ./inp_files/15935.got.cif
#   From: 2010.05.17/outbox.cif.g08.bks.cpg/sg46_8_cif.got.tgz:15935.got - 2010.06.03 19:58:25.
