data_PCOD9380340
_publ_section_title
;
Structure prediction by ZEFSAII (Michael W. Deem and Ramdas Pophale) SiO2 
 PCOD9380340
Probable space group: I M A 2
;
_chemical_formula_sum "Si O2"
_cell_formula_units_Z 32
_cell_length_a 10.145891
_cell_length_b 7.802521
_cell_length_c 20.406129
_cell_angle_alpha 90.000000
_cell_angle_beta 90.000000
_cell_angle_gamma 90.000000
_cell_volume 1615.421156
_symmetry_space_group_name_H-M "I M A 2"
_symmetry_group_IT_number 46
_symmetry_cell_setting 'orthorhombic'
loop_
_space_group_symop_operation_xyz
x,y,z
-x,-y,z
1/2-x,y,z
1/2+x,-y,z
1/2+x,1/2+y,1/2+z
1/2-x,1/2-y,1/2+z
-x,1/2+y,1/2+z
x,1/2-y,1/2+z
loop_
_atom_site_type_symbol
_atom_site_label
_atom_site_fract_x
_atom_site_fract_y
_atom_site_fract_z
Si Si1 0.250000 0.164691 0.058370
Si Si2 0.250000 0.040274 0.918653
Si Si3 0.250000 0.718930 0.528912
Si Si4 0.480882 0.808631 0.615154
Si Si5 0.594428 0.340054 0.752159
Si Si6 0.500000 0.500000 0.329141
O O1 0.380527 0.239824 0.089691
O O2 0.250000 0.961088 0.067977
O O3 0.250000 0.173907 0.979131
O O4 0.121136 0.055573 0.875052
O O5 0.250000 0.852418 0.954974
O O6 0.379306 0.813372 0.554340
O O7 0.426425 0.696725 0.674858
O O8 0.500000 0.000000 0.640548
O O9 0.500000 0.500000 0.770398
O O10 0.750000 0.372026 0.764891
O O11 0.548320 0.165029 0.788024
#
# Coordination Sequence:
#
# PCOD9380340 Si02
#       6
#     4   4   4   8   8   4
#     4  10  23  40  69  97 130 189 227 279 351 410
#     4  10  24  44  74  96 138 198 234 282 348 426
#     4  10  21  42  65  95 134 185 231 277 347 408
#     4  12  23  40  66 105 145 175 230 294 359 418
#     4  12  28  46  71 108 144 189 238 300 361 424
#     4  12  24  50  76  98 146 192 244 282 354 436
#
# _framework density 19.809075
#
# number of rings (size 3 to 8) (size 9 to 14) (size 15 to 20)
#    0.750    0.000    3.750    4.500    3.500    0.000 
#    0.000    7.500    0.000    0.000    0.000    0.000 
#    0.000    0.000    0.000    0.000    0.000    0.000 
#
# Total GULP energy -89310.348663 kJ/mol
# GULP energy per Si atom -5581.896791 kJ/mol
# Density = 1.976399 g / cm^3
# Si number density = 19.809075 Si / 1000 Ang^3
#
#
#
# Elastic Constant Matrix: (Units=GPa)
#
#
# Indices 1 2 3 4 5 6 
#
# 1 186.9843 39.2532 53.8045 0.0000 0.0000 0.0000
# 2 39.2532 96.9190 15.7111 0.0000 0.0000 0.0000
# 3 53.8045 15.7111 92.5914 0.0000 0.0000 0.0000
# 4 0.0000 0.0000 0.0000 33.8585 0.0000 0.0000
# 5 0.0000 0.0000 0.0000 0.0000 52.0889 0.0000
# 6 0.0000 0.0000 0.0000 0.0000 0.0000 40.9381
#
#
#
# Elastic Compliance Matrix: (Units=1/GPa)
#
#
# Indices 1 2 3 4 5 6 
#
# 1 0.006845 -0.002188 -0.003606 0.000000 0.000000 0.000000
# 2 -0.002188 0.011309 -0.000648 0.000000 0.000000 0.000000
# 3 -0.003606 -0.000648 0.013006 0.000000 0.000000 0.000000
# 4 0.000000 0.000000 0.000000 0.029535 0.000000 0.000000
# 5 0.000000 0.000000 0.000000 0.000000 0.019198 0.000000
# 6 0.000000 0.000000 0.000000 0.000000 0.000000 0.024427
#
#
# Mechanical properties :
#
#
# Convention : Reuss Voigt Hill
#
# Bulk Modulus (GPa) = 54.71618 66.00362 60.35990
# Shear Modulus (GPa) = 40.55313 43.22548 41.88931
#
# Velocity S-wave (km/s) = 4.52951 4.67637 4.60352
# Velocity P-wave (km/s) = 7.41869 7.90886 7.66770
#
# Compressibility (1/GPa) = 0.01827613
#
# Stress axis : x y z
#
# Youngs Moduli (GPa) = 146.09114 88.42572 76.88931
#
# Poissons Ratio (x) = 0.19345 0.27729
# Poissons Ratio (y) = 0.31960 0.04980
# Poissons Ratio (z) = 0.52687 0.05727
#
# Static dielectric constant tensor:
#      x y z
#    x 1.648620 0.000000 0.000000 
#    y 0.000000 1.699720 0.000000 
#    z 0.000000 0.000000 1.684340 
# 
# From -- ./inp_files/20689.got.cif
#   From: 2010.05.17/outbox.cif.g08.bks.cpg/sg46_11_cif.got.tgz:20689.got - 2010.06.03 19:58:25.
