data_PCOD9380967
_publ_section_title
;
Structure prediction by ZEFSAII (Michael W. Deem and Ramdas Pophale) SiO2 
 PCOD9380967
Probable space group: I M A 2
;
_chemical_formula_sum "Si O2"
_cell_formula_units_Z 40
_cell_length_a 14.487264
_cell_length_b 15.652976
_cell_length_c 7.025052
_cell_angle_alpha 90.000000
_cell_angle_beta 90.000000
_cell_angle_gamma 90.000000
_cell_volume 1593.062582
_symmetry_space_group_name_H-M "I M A 2"
_symmetry_group_IT_number 46
_symmetry_cell_setting 'orthorhombic'
loop_
_space_group_symop_operation_xyz
x,y,z
-x,-y,z
1/2-x,y,z
1/2+x,-y,z
1/2+x,1/2+y,1/2+z
1/2-x,1/2-y,1/2+z
-x,1/2+y,1/2+z
x,1/2-y,1/2+z
loop_
_atom_site_type_symbol
_atom_site_label
_atom_site_fract_x
_atom_site_fract_y
_atom_site_fract_z
Si Si1 0.394288 0.030415 0.578800
Si Si2 0.142563 0.267100 0.078840
Si Si3 0.502703 0.750080 0.328775
Si Si4 0.650618 0.110954 0.854412
Si Si5 0.849442 0.110720 0.302953
O O1 0.370246 0.129332 0.579097
O O2 0.500000 0.000000 0.579050
O O3 0.354639 0.981752 0.761106
O O4 0.354859 0.982070 0.395852
O O5 0.250000 0.239839 0.078765
O O6 0.120204 0.249888 0.328799
O O7 0.029517 0.233747 0.078750
O O8 0.436048 0.668614 0.298561
O O9 0.436091 0.831596 0.358963
O O10 0.750000 0.149486 0.798101
O O11 0.648520 0.102800 0.078666
O O12 0.750000 0.149043 0.359605
#
# Coordination Sequence:
#
# PCOD9380967 Si02
#       5
#     8   8   8   8   8
#     4  12  24  47  73  96 141 185 229 285 336 402
#     4  12  26  45  68  98 136 187 232 276 340 412
#     4  12  22  44  68  98 142 176 222 290 342 408
#     4  11  24  43  71 106 136 175 228 286 348 404
#     4  11  24  43  71 106 136 175 228 286 348 404
#
# _framework density 25.10887
#
# number of rings (size 3 to 8) (size 9 to 14) (size 15 to 20)
#    0.000    0.400    6.000    3.000    0.000    0.800 
#    3.600    0.000    0.000    0.000    0.000    0.000 
#    0.000    0.000    0.000    0.000    0.000    0.000 
#
# Total GULP energy -111658.252453 kJ/mol
# GULP energy per Si atom -5582.912623 kJ/mol
# Density = 2.505172 g / cm^3
# Si number density = 25.108870 Si / 1000 Ang^3
#
#
#
# Elastic Constant Matrix: (Units=GPa)
#
#
# Indices 1 2 3 4 5 6 
#
# 1 225.0252 34.9837 82.7778 0.0000 0.0000 0.0000
# 2 34.9837 147.0229 37.0525 0.0000 0.0000 0.0000
# 3 82.7778 37.0525 201.1802 0.0000 0.0000 0.0000
# 4 0.0000 0.0000 0.0000 48.5092 0.0000 0.0000
# 5 0.0000 0.0000 0.0000 0.0000 117.6214 0.0000
# 6 0.0000 0.0000 0.0000 0.0000 0.0000 22.2196
#
#
#
# Elastic Compliance Matrix: (Units=1/GPa)
#
#
# Indices 1 2 3 4 5 6 
#
# 1 0.005314 -0.000748 -0.002049 0.000000 0.000000 0.000000
# 2 -0.000748 0.007238 -0.001025 0.000000 0.000000 0.000000
# 3 -0.002049 -0.001025 0.006002 0.000000 0.000000 0.000000
# 4 0.000000 0.000000 0.000000 0.020615 0.000000 0.000000
# 5 0.000000 0.000000 0.000000 0.000000 0.008502 0.000000
# 6 0.000000 0.000000 0.000000 0.000000 0.000000 0.045005
#
#
# Mechanical properties :
#
#
# Convention : Reuss Voigt Hill
#
# Bulk Modulus (GPa) = 91.65653 98.09514 94.87584
# Shear Modulus (GPa) = 48.09679 65.56432 56.83055
#
# Velocity S-wave (km/s) = 4.38142 5.11554 4.76265
# Velocity P-wave (km/s) = 7.88535 8.60490 8.25297
#
# Compressibility (1/GPa) = 0.01091030
#
# Stress axis : x y z
#
# Youngs Moduli (GPa) = 188.18657 138.15861 166.59887
#
# Poissons Ratio (x) = 0.10336 0.34131
# Poissons Ratio (y) = 0.14079 0.17081
# Poissons Ratio (z) = 0.38553 0.14165
#
# Static dielectric constant tensor:
#      x y z
#    x 1.979530 0.000000 0.000000 
#    y 0.000000 1.855380 0.000000 
#    z 0.000000 0.000000 2.614330 
# 
# From -- ./inp_files/5426.got.cif
#   From: 2010.05.17/outbox.cif.g08.bks.cpg/sg46_3_cif.got.tgz:5426.got - 2010.06.03 19:58:25.
