data_PCOD9381331
_publ_section_title
;
Structure prediction by ZEFSAII (Michael W. Deem and Ramdas Pophale) SiO2 
 PCOD9381331
Probable space group: P M M M
;
_chemical_formula_sum "Si O2"
_cell_formula_units_Z 64
_cell_length_a 20.848207
_cell_length_b 20.719783
_cell_length_c 7.471610
_cell_angle_alpha 90.000000
_cell_angle_beta 90.000000
_cell_angle_gamma 90.000000
_cell_volume 3227.513800
_symmetry_space_group_name_H-M "P M M M"
_symmetry_group_IT_number 47
_symmetry_cell_setting 'orthorhombic'
loop_
_space_group_symop_operation_xyz
x,y,z
-x,-y,z
x,-y,-z
-x,y,-z
-x,-y,-z
x,y,-z
-x,y,z
x,-y,z
loop_
_atom_site_type_symbol
_atom_site_label
_atom_site_fract_x
_atom_site_fract_y
_atom_site_fract_z
Si Si1 0.926188 0.573030 0.718325
Si Si2 0.707140 0.429316 0.718356
Si Si3 0.430826 0.900894 0.205106
Si Si4 0.184381 0.667753 0.284888
Si Si5 0.257222 0.210128 0.211098
Si Si6 0.569411 0.384495 0.281119
Si Si7 0.600214 0.241542 0.295081
Si Si8 0.711279 0.069912 0.218753
O O1 0.925298 0.573213 0.500000
O O2 0.906607 0.500000 0.771774
O O3 0.878369 0.629335 0.778947
O O4 0.000000 0.582946 0.773010
O O5 0.707033 0.427046 0.500000
O O6 0.730924 0.500000 0.770361
O O7 0.754217 0.373226 0.780257
O O8 0.633933 0.419723 0.777070
O O9 0.500000 0.917979 0.286175
O O10 0.424112 0.823197 0.203401
O O11 0.362992 0.924286 0.281372
O O12 0.431894 0.923402 0.000000
O O13 0.183544 0.664099 0.500000
O O14 0.197891 0.742203 0.240973
O O15 0.322269 0.240039 0.292397
O O16 0.253315 0.135808 0.274543
O O17 0.269530 0.207860 0.000000
O O18 0.570453 0.385203 0.500000
O O19 0.500000 0.410184 0.225541
O O20 0.576346 0.309812 0.224451
O O21 0.578824 0.236720 0.500000
O O22 0.736973 0.000000 0.274575
O O23 0.710427 0.070361 0.000000
#
# Coordination Sequence:
#
# PCOD9381331 Si02
#       8
#     8   8   8   8   8   8   8   8
#     4   8  14  25  44  73 105 132 159 191 222 253
#     4   9  16  25  38  58  82 108 142 182 219 255
#     4   9  17  27  40  61  85 107 136 176 226 284
#     4  10  17  28  47  70  93 120 151 183 219 260
#     4  10  19  30  46  67  88 111 143 185 229 269
#     4   9  16  24  35  54  78 102 133 177 225 265
#     4  10  17  28  43  59  80 108 143 183 228 275
#     4   8  15  28  44  61  82 110 145 185 227 273
#
# _framework density 19.829502999999999
#
# number of rings (size 3 to 8) (size 9 to 14) (size 15 to 20)
#    0.000    2.875    1.250    2.625    0.000    2.750 
#    0.000    2.500    0.000   11.250    0.000    4.375 
#    0.000    1.500    0.000    6.250    0.000    0.000 
#
# Total GULP energy -357013.830262 kJ/mol
# GULP energy per Si atom -5578.341098 kJ/mol
# Density = 1.978437 g / cm^3
# Si number density = 19.829503 Si / 1000 Ang^3
#
#
#
# Elastic Constant Matrix: (Units=GPa)
#
#
# Indices 1 2 3 4 5 6 
#
# 1 90.0937 62.3696 2.1138 0.0000 0.0000 0.0000
# 2 62.3696 143.1993 2.0283 0.0000 0.0000 0.0000
# 3 2.1138 2.0283 59.4040 0.0000 0.0000 0.0000
# 4 0.0000 0.0000 0.0000 5.4753 0.0000 0.0000
# 5 0.0000 0.0000 0.0000 0.0000 0.7923 0.0000
# 6 0.0000 0.0000 0.0000 0.0000 0.0000 -191.9187
#
#
#
# Elastic Compliance Matrix: (Units=1/GPa)
#
#
# Indices 1 2 3 4 5 6 
#
# 1 0.015897 -0.006919 -0.000329 0.000000 0.000000 0.000000
# 2 -0.006919 0.009998 -0.000095 0.000000 0.000000 0.000000
# 3 -0.000329 -0.000095 0.016849 0.000000 0.000000 0.000000
# 4 0.000000 0.000000 0.000000 0.182638 0.000000 0.000000
# 5 0.000000 0.000000 0.000000 0.000000 1.262156 0.000000
# 6 0.000000 0.000000 0.000000 0.000000 0.000000 -0.005211
#
#
# Mechanical properties :
#
#
# Convention : Reuss Voigt Hill
#
# Bulk Modulus (GPa) = 35.64216 47.30227 41.47221
# Shear Modulus (GPa) = 3.31924 -22.05119 -9.36598
#
# Velocity S-wave (km/s) = 1.29519 -3.33834 -2.17566
# Velocity P-wave (km/s) = 4.50000 3.00780 3.82733
#
# Compressibility (1/GPa) = 0.02805666
#
# Stress axis : x y z
#
# Youngs Moduli (GPa) = 62.90355 100.01707 59.35117
#
# Poissons Ratio (x) = 0.69205 0.01955
# Poissons Ratio (y) = 0.43525 0.00565
# Poissons Ratio (z) = 0.02072 0.00952
#
# Static dielectric constant tensor:
#      x y z
#    x 1.683560 0.000000 0.000000 
#    y 0.000000 1.723760 0.000000 
#    z 0.000000 0.000000 1.788960 
# 
# From -- ./inp_files/11857.got.cif
#   From: 2010.05.17/outbox.cif.g08.bks.cpg/sg47_6_cif.got.tgz:11857.got - 2010.06.03 20:15:42.
