data_PCOD9381958
_publ_section_title
;
Structure prediction by ZEFSAII (Michael W. Deem and Ramdas Pophale) SiO2 
 PCOD9381958
Probable space group: P M M M
;
_chemical_formula_sum "Si O2"
_cell_formula_units_Z 52
_cell_length_a 12.105929
_cell_length_b 28.981897
_cell_length_c 8.868224
_cell_angle_alpha 90.000000
_cell_angle_beta 90.000000
_cell_angle_gamma 90.000000
_cell_volume 3111.441109
_symmetry_space_group_name_H-M "P M M M"
_symmetry_group_IT_number 47
_symmetry_cell_setting 'orthorhombic'
loop_
_space_group_symop_operation_xyz
x,y,z
-x,-y,z
x,-y,-z
-x,y,-z
-x,-y,-z
x,y,-z
-x,y,z
x,-y,z
loop_
_atom_site_type_symbol
_atom_site_label
_atom_site_fract_x
_atom_site_fract_y
_atom_site_fract_z
Si Si1 0.500000 0.295037 0.824639
Si Si2 0.744634 0.591885 0.683267
Si Si3 0.500000 0.606988 0.679235
Si Si4 0.873732 0.500000 0.683690
Si Si5 0.871041 0.679725 0.182301
Si Si6 0.371262 0.853496 0.320326
Si Si7 0.633723 0.949419 0.822945
Si Si8 0.277878 0.763797 0.821558
O O1 0.500000 0.338993 0.718077
O O2 0.608686 0.264760 0.800273
O O3 0.500000 0.310519 0.000000
O O4 0.746198 0.594612 0.500000
O O5 0.617290 0.588051 0.735216
O O6 0.811865 0.546568 0.730312
O O7 0.801191 0.637941 0.747281
O O8 0.500000 0.599946 0.500000
O O9 0.874081 0.500000 0.500000
O O10 0.000000 0.500000 0.735351
O O11 0.818850 0.729011 0.228412
O O12 0.000000 0.675983 0.222694
O O13 0.861337 0.677034 0.000000
O O14 0.372915 0.852962 0.500000
O O15 0.500000 0.846821 0.267609
O O16 0.331587 0.903468 0.263133
O O17 0.296020 0.812143 0.260112
O O18 0.500000 0.950205 0.812169
O O19 0.672630 0.000000 0.768619
O O20 0.660986 0.945373 0.000000
O O21 0.264670 0.772465 0.000000
#
# Coordination Sequence:
#
# PCOD9381958 Si02
#       8
#     4   8   4   4   8   8   8   8
#     4  10  18  30  49  69  90 125 162 190 231 287
#     4  10  20  34  53  75  99 127 158 194 237 286
#     4  10  20  31  48  76 102 123 153 196 239 280
#     4   9  18  33  52  72  95 127 166 201 234 280
#     4  10  21  36  53  73  96 123 158 199 241 285
#     4  10  19  27  39  63  93 123 156 197 239 277
#     4   8  14  25  40  57  82 121 164 199 232 277
#     4  10  19  31  47  66  90 122 157 192 231 282
#
# _framework density 16.712513000000001
#
# number of rings (size 3 to 8) (size 9 to 14) (size 15 to 20)
#    0.000    2.385    2.308    1.385    0.000    3.385 
#    0.000    3.462    0.000    1.385    0.000    1.615 
#    0.000    0.615    0.000    7.077    0.000    2.308 
#
# Total GULP energy -289820.237515 kJ/mol
# GULP energy per Si atom -5573.466106 kJ/mol
# Density = 1.667447 g / cm^3
# Si number density = 16.712513 Si / 1000 Ang^3
#
#
#
# Elastic Constant Matrix: (Units=GPa)
#
#
# Indices 1 2 3 4 5 6 
#
# 1 108.2541 63.4248 24.4243 0.0000 0.0000 0.0000
# 2 63.4248 150.9699 34.3303 0.0000 0.0000 0.0000
# 3 24.4243 34.3303 11.2520 0.0000 0.0000 0.0000
# 4 0.0000 0.0000 0.0000 26.3005 0.0000 0.0000
# 5 0.0000 0.0000 0.0000 0.0000 12.4279 0.0000
# 6 0.0000 0.0000 0.0000 0.0000 0.0000 9.5197
#
#
#
# Elastic Compliance Matrix: (Units=1/GPa)
#
#
# Indices 1 2 3 4 5 6 
#
# 1 0.019021 0.004565 -0.055216 0.000000 0.000000 0.000000
# 2 0.004565 0.022728 -0.079255 0.000000 0.000000 0.000000
# 3 -0.055216 -0.079255 0.450539 0.000000 0.000000 0.000000
# 4 0.000000 0.000000 0.000000 0.038022 0.000000 0.000000
# 5 0.000000 0.000000 0.000000 0.000000 0.080464 0.000000
# 6 0.000000 0.000000 0.000000 0.000000 0.000000 0.105045
#
#
# Mechanical properties :
#
#
# Convention : Reuss Voigt Hill
#
# Bulk Modulus (GPa) = 4.30151 57.20387 30.75269
# Shear Modulus (GPa) = 4.74778 19.53607 12.14192
#
# Velocity S-wave (km/s) = 1.68731 3.42270 2.69832
# Velocity P-wave (km/s) = 2.52496 7.06557 5.30555
#
# Compressibility (1/GPa) = 0.23247663
#
# Stress axis : x y z
#
# Youngs Moduli (GPa) = 52.57423 43.99795 2.21956
#
# Poissons Ratio (x) = -0.20086 0.12256
# Poissons Ratio (y) = -0.24001 0.17591
# Poissons Ratio (z) = 2.90295 3.48705
#
# Static dielectric constant tensor:
#      x y z
#    x 1.564600 0.000000 0.000000 
#    y 0.000000 1.558590 0.000000 
#    z 0.000000 0.000000 1.569140 
# 
# From -- ./inp_files/4606.got.cif
#   From: 2010.05.17/outbox.cif.g08.bks.cpg/sg47_3_cif.got.tgz:4606.got - 2010.06.03 20:15:42.
