data_PCOD9381585
_publ_section_title
;
Structure prediction by ZEFSAII (Michael W. Deem and Ramdas Pophale) SiO2 
 PCOD9381585
Probable space group: P M M M
;
_chemical_formula_sum "Si O2"
_cell_formula_units_Z 64
_cell_length_a 24.578147
_cell_length_b 19.779446
_cell_length_c 8.342700
_cell_angle_alpha 90.000000
_cell_angle_beta 90.000000
_cell_angle_gamma 90.000000
_cell_volume 4055.737959
_symmetry_space_group_name_H-M "P M M M"
_symmetry_group_IT_number 47
_symmetry_cell_setting 'orthorhombic'
loop_
_space_group_symop_operation_xyz
x,y,z
-x,-y,z
x,-y,-z
-x,y,-z
-x,-y,-z
x,y,-z
-x,y,z
x,-y,z
loop_
_atom_site_type_symbol
_atom_site_label
_atom_site_fract_x
_atom_site_fract_y
_atom_site_fract_z
Si Si1 0.061342 0.712338 0.693667
Si Si2 0.226334 0.923579 0.193846
Si Si3 0.117112 0.574921 0.306574
Si Si4 0.561358 0.921919 0.695489
Si Si5 0.332404 0.154471 0.306174
Si Si6 0.269827 0.284895 0.308394
Si Si7 0.163350 0.207003 0.191865
Si Si8 0.241362 0.424900 0.808438
O O1 0.060919 0.710656 0.500000
O O2 0.082041 0.638473 0.750614
O O3 0.105900 0.766807 0.745861
O O4 0.000000 0.725818 0.749302
O O5 0.284473 0.895955 0.252531
O O6 0.181774 0.867984 0.245349
O O7 0.216540 0.000000 0.249473
O O8 0.227044 0.923681 0.000000
O O9 0.114953 0.575078 0.500000
O O10 0.099332 0.500000 0.251235
O O11 0.179892 0.583593 0.256688
O O12 0.561471 0.920729 0.500000
O O13 0.500000 0.904047 0.747030
O O14 0.609536 0.873116 0.751203
O O15 0.572132 0.000000 0.741953
O O16 0.333305 0.154863 0.500000
O O17 0.314008 0.229401 0.252585
O O18 0.269428 0.285280 0.500000
O O19 0.211425 0.256615 0.250558
O O20 0.276019 0.361150 0.248807
O O21 0.162833 0.208642 0.000000
O O22 0.260112 0.500000 0.757210
O O23 0.238782 0.423624 0.000000
#
# Coordination Sequence:
#
# PCOD9381585 Si02
#       8
#     8   8   8   8   8   8   8   8
#     4  10  20  32  46  64  86 111 139 173 211 255
#     4   9  18  31  46  65  88 112 139 176 221 263
#     4   9  17  29  45  63  84 111 139 167 202 246
#     4   8  13  22  38  61  90 123 155 184 212 243
#     4   9  17  27  42  66  92 117 149 184 212 248
#     4  10  18  28  43  63  88 115 142 175 216 257
#     4  10  19  31  47  64  83 109 140 173 213 259
#     4  10  19  29  43  63  86 112 142 175 211 254
#
# _framework density 15.780111
#
# number of rings (size 3 to 8) (size 9 to 14) (size 15 to 20)
#    0.000    2.625    1.250    1.875    0.000    3.000 
#    0.000    1.250    0.000    0.750    0.000    7.000 
#    0.000    0.500    0.000    6.250    0.000    1.000 
#
# Total GULP energy -356644.440417 kJ/mol
# GULP energy per Si atom -5572.569382 kJ/mol
# Density = 1.574419 g / cm^3
# Si number density = 15.780111 Si / 1000 Ang^3
#
#
#
# Elastic Constant Matrix: (Units=GPa)
#
#
# Indices 1 2 3 4 5 6 
#
# 1 112.0795 79.5862 9.9851 0.0000 0.0000 0.0000
# 2 79.5862 150.0589 14.7732 0.0000 0.0000 0.0000
# 3 9.9851 14.7732 5.1236 0.0000 0.0000 0.0000
# 4 0.0000 0.0000 0.0000 18.2132 0.0000 0.0000
# 5 0.0000 0.0000 0.0000 0.0000 -18.2521 0.0000
# 6 0.0000 0.0000 0.0000 0.0000 0.0000 23.8290
#
#
#
# Elastic Compliance Matrix: (Units=1/GPa)
#
#
# Indices 1 2 3 4 5 6 
#
# 1 0.014575 -0.006889 -0.008540 0.000000 0.000000 0.000000
# 2 -0.006889 0.012562 -0.022794 0.000000 0.000000 0.000000
# 3 -0.008540 -0.022794 0.277540 0.000000 0.000000 0.000000
# 4 0.000000 0.000000 0.000000 0.054905 0.000000 0.000000
# 5 0.000000 0.000000 0.000000 0.000000 -0.054788 0.000000
# 6 0.000000 0.000000 0.000000 0.000000 0.000000 0.041966
#
#
# Mechanical properties :
#
#
# Convention : Reuss Voigt Hill
#
# Bulk Modulus (GPa) = 4.38154 52.88343 28.63249
# Shear Modulus (GPa) = 10.01435 15.61920 12.81677
#
# Velocity S-wave (km/s) = 2.52190 3.14953 2.85302
# Velocity P-wave (km/s) = 3.35598 6.84189 5.38860
#
# Compressibility (1/GPa) = 0.22823004
#
# Stress axis : x y z
#
# Youngs Moduli (GPa) = 68.61006 79.60485 3.60308
#
# Poissons Ratio (x) = 0.54843 0.03077
# Poissons Ratio (y) = 0.47268 0.08213
# Poissons Ratio (z) = 0.58592 1.81454
#
# Static dielectric constant tensor:
#      x y z
#    x 1.505030 0.000000 0.000000 
#    y 0.000000 1.559980 0.000000 
#    z 0.000000 0.000000 1.545540 
# 
# From -- ./inp_files/10192.got.cif
#   From: 2010.05.17/outbox.cif.g08.bks.cpg/sg47_6_cif.got.tgz:10192.got - 2010.06.03 20:15:42.
