data_PCOD9381481
_publ_section_title
;
Structure prediction by ZEFSAII (Michael W. Deem and Ramdas Pophale) SiO2 
 PCOD9381481
Probable space group: P M M M
;
_chemical_formula_sum "Si O2"
_cell_formula_units_Z 56
_cell_length_a 17.322504
_cell_length_b 14.235730
_cell_length_c 16.378314
_cell_angle_alpha 90.000000
_cell_angle_beta 90.000000
_cell_angle_gamma 90.000000
_cell_volume 4038.867499
_symmetry_space_group_name_H-M "P M M M"
_symmetry_group_IT_number 47
_symmetry_cell_setting 'orthorhombic'
loop_
_space_group_symop_operation_xyz
x,y,z
-x,-y,z
x,-y,-z
-x,y,-z
-x,-y,-z
x,y,-z
-x,y,z
x,-y,z
loop_
_atom_site_type_symbol
_atom_site_label
_atom_site_fract_x
_atom_site_fract_y
_atom_site_fract_z
Si Si1 0.911058 0.114340 0.246881
Si Si2 0.178055 0.113174 0.590495
Si Si3 0.337809 0.887425 0.672999
Si Si4 0.500000 0.113750 0.407158
Si Si5 0.658008 0.205442 0.154827
Si Si6 0.591061 0.391051 0.902336
Si Si7 0.500000 0.891408 0.902027
Si Si8 0.807700 0.112060 0.091263
O O1 0.870664 0.146636 0.331115
O O2 0.863530 0.140736 0.165649
O O3 0.000000 0.144267 0.242959
O O4 0.910110 0.000000 0.248393
O O5 0.157201 0.148887 0.500000
O O6 0.268337 0.129226 0.609914
O O7 0.167945 0.000000 0.588509
O O8 0.421277 0.860282 0.638136
O O9 0.322779 0.829630 0.754628
O O10 0.337780 0.000000 0.691266
O O11 0.500000 0.148304 0.500000
O O12 0.500000 0.000000 0.410053
O O13 0.643026 0.315739 0.143914
O O14 0.577261 0.157225 0.129816
O O15 0.727457 0.166989 0.099813
O O16 0.500000 0.375993 0.883733
O O17 0.608894 0.500000 0.885183
O O18 0.599436 0.375985 0.000000
O O19 0.500000 0.000000 0.875946
O O20 0.500000 0.886607 0.000000
O O21 0.792212 0.000000 0.100279
O O22 0.840273 0.126241 0.000000
#
# Coordination Sequence:
#
# PCOD9381481 Si02
#       8
#     8   8   8   4   8   8   4   8
#     4   9  17  29  42  57  80 112 151 188 216 249
#     4   9  16  27  42  58  80 113 149 184 220 252
#     4  10  18  27  39  58  86 117 145 175 212 253
#     4   9  17  27  37  52  78 115 152 176 201 246
#     4  12  19  28  43  60  84 113 145 177 218 254
#     4   9  18  32  46  59  78 107 145 185 221 255
#     4  11  21  27  34  55  84 114 147 176 202 242
#     4  10  19  29  41  59  86 119 149 177 210 254
#
# _framework density 13.865271999999999
#
# number of rings (size 3 to 8) (size 9 to 14) (size 15 to 20)
#    0.000    2.143    2.143    3.857    0.000    4.000 
#    0.000    2.857    0.000    0.000    0.000    0.000 
#    0.000    3.429    0.000    3.000    0.000    1.857 
#
# Total GULP energy -312057.158797 kJ/mol
# GULP energy per Si atom -5572.449264 kJ/mol
# Density = 1.383371 g / cm^3
# Si number density = 13.865272 Si / 1000 Ang^3
#
#
#
# Elastic Constant Matrix: (Units=GPa)
#
#
# Indices 1 2 3 4 5 6 
#
# 1 81.3148 14.2938 39.9906 0.0000 0.0000 0.0000
# 2 14.2938 39.8498 23.2484 0.0000 0.0000 0.0000
# 3 39.9906 23.2484 101.0841 0.0000 0.0000 0.0000
# 4 0.0000 0.0000 0.0000 2.0369 0.0000 0.0000
# 5 0.0000 0.0000 0.0000 0.0000 9.3855 0.0000
# 6 0.0000 0.0000 0.0000 0.0000 0.0000 5.2234
#
#
#
# Elastic Compliance Matrix: (Units=1/GPa)
#
#
# Indices 1 2 3 4 5 6 
#
# 1 0.015446 -0.002282 -0.005586 0.000000 0.000000 0.000000
# 2 -0.002282 0.029320 -0.005841 0.000000 0.000000 0.000000
# 3 -0.005586 -0.005841 0.013446 0.000000 0.000000 0.000000
# 4 0.000000 0.000000 0.000000 0.490942 0.000000 0.000000
# 5 0.000000 0.000000 0.000000 0.000000 0.106547 0.000000
# 6 0.000000 0.000000 0.000000 0.000000 0.000000 0.191446
#
#
# Mechanical properties :
#
#
# Convention : Reuss Voigt Hill
#
# Bulk Modulus (GPa) = 32.47215 41.92383 37.19799
# Shear Modulus (GPa) = 5.65081 12.97690 9.31385
#
# Velocity S-wave (km/s) = 2.02098 3.06261 2.59461
# Velocity P-wave (km/s) = 5.37740 6.54281 5.98852
#
# Compressibility (1/GPa) = 0.03079562
#
# Stress axis : x y z
#
# Youngs Moduli (GPa) = 64.74106 34.10634 74.37153
#
# Poissons Ratio (x) = 0.07781 0.41544
# Poissons Ratio (y) = 0.14771 0.43439
# Poissons Ratio (z) = 0.36165 0.19921
#
# Static dielectric constant tensor:
#      x y z
#    x 1.465590 0.000000 0.000000 
#    y 0.000000 1.425370 0.000000 
#    z 0.000000 0.000000 1.485950 
# 
# From -- ./inp_files/24026.got.cif
#   From: 2010.05.17/outbox.cif.g08.bks.cpg/sg47_13_cif.got.tgz:24026.got - 2010.06.03 20:15:42.
