data_PCOD9381922
_publ_section_title
;
Structure prediction by ZEFSAII (Michael W. Deem and Ramdas Pophale) SiO2 
 PCOD9381922
Probable space group: P M M M
;
_chemical_formula_sum "Si O2"
_cell_formula_units_Z 60
_cell_length_a 26.671678
_cell_length_b 15.703052
_cell_length_c 7.338775
_cell_angle_alpha 90.000000
_cell_angle_beta 90.000000
_cell_angle_gamma 90.000000
_cell_volume 3073.675257
_symmetry_space_group_name_H-M "P M M M"
_symmetry_group_IT_number 47
_symmetry_cell_setting 'orthorhombic'
loop_
_space_group_symop_operation_xyz
x,y,z
-x,-y,z
x,-y,-z
-x,y,-z
-x,-y,-z
x,y,-z
-x,y,z
x,-y,z
loop_
_atom_site_type_symbol
_atom_site_label
_atom_site_fract_x
_atom_site_fract_y
_atom_site_fract_z
Si Si1 0.883691 0.663173 0.720741
Si Si2 0.944584 0.500000 0.278484
Si Si3 0.245727 0.779270 0.223179
Si Si4 0.160617 0.907457 0.217128
Si Si5 0.663761 0.901366 0.777756
Si Si6 0.057479 0.830333 0.717420
Si Si7 0.553890 0.101667 0.780611
Si Si8 0.772853 0.402276 0.790590
O O1 0.880337 0.668192 0.500000
O O2 0.917096 0.584188 0.776626
O O3 0.913437 0.746172 0.786142
O O4 0.829145 0.635954 0.787816
O O5 0.945044 0.500000 0.500000
O O6 0.000000 0.500000 0.210873
O O7 0.194081 0.827325 0.283402
O O8 0.290977 0.840948 0.277523
O O9 0.254109 0.682044 0.288491
O O10 0.244287 0.775599 0.000000
O O11 0.101078 0.899307 0.251083
O O12 0.178299 0.000000 0.285311
O O13 0.167512 0.907484 0.000000
O O14 0.608663 0.869144 0.717589
O O15 0.670608 0.000000 0.721841
O O16 0.663576 0.902257 0.000000
O O17 0.052826 0.821253 0.500000
O O18 0.000000 0.842459 0.784919
O O19 0.500000 0.135479 0.713242
O O20 0.553896 0.000000 0.745907
O O21 0.553487 0.111926 0.000000
O O22 0.771715 0.500000 0.715012
O O23 0.756596 0.410424 0.000000
#
# Coordination Sequence:
#
# PCOD9381922 Si02
#       8
#     8   4   8   8   8   8   8   8
#     4  10  18  30  48  66  81 101 130 160 194 243
#     4   9  16  26  43  65  83  97 119 155 192 231
#     4   9  16  27  41  57  79 104 132 169 205 238
#     4  10  20  33  49  66  82 105 138 171 203 240
#     4   8  12  18  31  51  74 103 138 171 202 236
#     4  10  21  35  49  65  84 105 131 164 203 247
#     4   7   9  13  22  40  69 102 133 166 202 235
#     4  10  19  30  45  63  84 107 130 160 202 246
#
# _framework density 19.520605
#
# number of rings (size 3 to 8) (size 9 to 14) (size 15 to 20)
#    0.000    2.867    2.000    2.000    0.000    4.000 
#    0.000    1.333    0.000    1.600    0.000    0.000 
#    0.000    0.533    0.000    7.467    0.000    2.933 
#
# Total GULP energy -334092.372093 kJ/mol
# GULP energy per Si atom -5568.206202 kJ/mol
# Density = 1.947618 g / cm^3
# Si number density = 19.520605 Si / 1000 Ang^3
#
#
#
# Elastic Constant Matrix: (Units=GPa)
#
#
# Indices 1 2 3 4 5 6 
#
# 1 131.6196 54.1118 -1.5018 0.0000 0.0000 0.0000
# 2 54.1118 139.9246 5.6094 0.0000 0.0000 0.0000
# 3 -1.5018 5.6094 74.5462 0.0000 0.0000 0.0000
# 4 0.0000 0.0000 0.0000 -8.6888 0.0000 0.0000
# 5 0.0000 0.0000 0.0000 0.0000 2.9882 0.0000
# 6 0.0000 0.0000 0.0000 0.0000 0.0000 31.1862
#
#
#
# Elastic Compliance Matrix: (Units=1/GPa)
#
#
# Indices 1 2 3 4 5 6 
#
# 1 0.009049 -0.003517 0.000447 0.000000 0.000000 0.000000
# 2 -0.003517 0.008536 -0.000713 0.000000 0.000000 0.000000
# 3 0.000447 -0.000713 0.013477 0.000000 0.000000 0.000000
# 4 0.000000 0.000000 0.000000 -0.115090 0.000000 0.000000
# 5 0.000000 0.000000 0.000000 0.000000 0.334654 0.000000
# 6 0.000000 0.000000 0.000000 0.000000 0.000000 0.032065
#
#
# Mechanical properties :
#
#
# Convention : Reuss Voigt Hill
#
# Bulk Modulus (GPa) = 42.56303 51.39213 46.97758
# Shear Modulus (GPa) = 16.77352 24.28851 20.53101
#
# Velocity S-wave (km/s) = 2.93452 3.53122 3.24661
# Velocity P-wave (km/s) = 5.77350 6.55822 6.17833
#
# Compressibility (1/GPa) = 0.02349457
#
# Stress axis : x y z
#
# Youngs Moduli (GPa) = 110.51210 117.15771 74.19955
#
# Poissons Ratio (x) = 0.41208 -0.03316
# Poissons Ratio (y) = 0.38870 0.05291
# Poissons Ratio (z) = -0.04939 0.08355
#
# Static dielectric constant tensor:
#      x y z
#    x 1.724930 0.000000 0.000000 
#    y 0.000000 1.713610 0.000000 
#    z 0.000000 0.000000 1.765500 
# 
# From -- ./inp_files/19730.got.cif
#   From: 2010.05.17/outbox.cif.g08.bks.cpg/sg47_10_cif.got.tgz:19730.got - 2010.06.03 20:15:42.
