data_PCOD9381681
_publ_section_title
;
Structure prediction by ZEFSAII (Michael W. Deem and Ramdas Pophale) SiO2 
 PCOD9381681
Probable space group: P M M M
;
_chemical_formula_sum "Si O2"
_cell_formula_units_Z 44
_cell_length_a 13.222541
_cell_length_b 21.689911
_cell_length_c 7.450245
_cell_angle_alpha 90.000000
_cell_angle_beta 90.000000
_cell_angle_gamma 90.000000
_cell_volume 2136.698509
_symmetry_space_group_name_H-M "P M M M"
_symmetry_group_IT_number 47
_symmetry_cell_setting 'orthorhombic'
loop_
_space_group_symop_operation_xyz
x,y,z
-x,-y,z
x,-y,-z
-x,y,-z
-x,-y,-z
x,y,-z
-x,y,z
x,-y,z
loop_
_atom_site_type_symbol
_atom_site_label
_atom_site_fract_x
_atom_site_fract_y
_atom_site_fract_z
Si Si1 0.386213 0.149118 0.715931
Si Si2 0.117649 0.500000 0.281172
Si Si3 0.194975 0.632577 0.719770
Si Si4 0.809409 0.069504 0.787369
Si Si5 0.000000 0.292486 0.712247
Si Si6 0.614655 0.289784 0.281120
Si Si7 0.000000 0.147804 0.216762
O O1 0.389385 0.150505 0.500000
O O2 0.500000 0.133177 0.778321
O O3 0.298495 0.102155 0.765413
O O4 0.362647 0.219246 0.775083
O O5 0.116543 0.500000 0.500000
O O6 0.172527 0.437301 0.224286
O O7 0.000000 0.500000 0.225131
O O8 0.196312 0.632905 0.500000
O O9 0.299928 0.662893 0.779094
O O10 0.101598 0.675206 0.781005
O O11 0.899738 0.112574 0.716775
O O12 0.810856 0.000000 0.713792
O O13 0.827287 0.064652 0.000000
O O14 0.000000 0.219512 0.736000
O O15 0.000000 0.305044 0.500000
O O16 0.615461 0.289758 0.500000
O O17 0.500000 0.304581 0.225615
O O18 0.000000 0.145726 0.000000
#
# Coordination Sequence:
#
# PCOD9381681 Si02
#       7
#     8   4   8   8   4   8   4
#     4   9  18  33  52  73  97 124 155 195 241 283
#     4   9  14  22  33  53  89 121 146 182 228 268
#     4   9  15  23  38  61  87 115 148 187 227 266
#     4  10  21  36  52  69  93 126 159 191 233 287
#     4  10  18  28  47  71  90 113 152 196 232 273
#     4   8  14  25  40  58  83 115 148 182 224 272
#     4  10  21  36  51  69  95 125 156 194 240 284
#
# _framework density 20.592517000000001
#
# number of rings (size 3 to 8) (size 9 to 14) (size 15 to 20)
#    0.000    2.818    0.909    2.455    0.000    4.364 
#    0.000    2.273    0.000    4.364    0.000    1.273 
#    0.000    0.000    0.000    0.000    0.000   30.364 
#
# Total GULP energy -245632.050338 kJ/mol
# GULP energy per Si atom -5582.546599 kJ/mol
# Density = 2.054565 g / cm^3
# Si number density = 20.592517 Si / 1000 Ang^3
#
#
#
# Elastic Constant Matrix: (Units=GPa)
#
#
# Indices 1 2 3 4 5 6 
#
# 1 145.9519 117.9103 -5.9666 0.0000 0.0000 0.0000
# 2 117.9103 191.0211 -6.1903 0.0000 0.0000 0.0000
# 3 -5.9666 -6.1903 57.5025 0.0000 0.0000 0.0000
# 4 0.0000 0.0000 0.0000 18.6842 0.0000 0.0000
# 5 0.0000 0.0000 0.0000 0.0000 7.1702 0.0000
# 6 0.0000 0.0000 0.0000 0.0000 0.0000 -13.5384
#
#
#
# Elastic Compliance Matrix: (Units=1/GPa)
#
#
# Indices 1 2 3 4 5 6 
#
# 1 0.013682 -0.008429 0.000512 0.000000 0.000000 0.000000
# 2 -0.008429 0.010446 0.000250 0.000000 0.000000 0.000000
# 3 0.000512 0.000250 0.017471 0.000000 0.000000 0.000000
# 4 0.000000 0.000000 0.000000 0.053521 0.000000 0.000000
# 5 0.000000 0.000000 0.000000 0.000000 0.139467 0.000000
# 6 0.000000 0.000000 0.000000 0.000000 0.000000 -0.073864
#
#
# Mechanical properties :
#
#
# Convention : Reuss Voigt Hill
#
# Bulk Modulus (GPa) = 38.07294 67.33135 52.70214
# Shear Modulus (GPa) = 27.05480 21.71133 24.38306
#
# Velocity S-wave (km/s) = 3.62859 3.25057 3.44477
# Velocity P-wave (km/s) = 6.00703 6.84516 6.43975
#
# Compressibility (1/GPa) = 0.02626538
#
# Stress axis : x y z
#
# Youngs Moduli (GPa) = 73.08985 95.73199 57.23896
#
# Poissons Ratio (x) = 0.80689 -0.02932
# Poissons Ratio (y) = 0.61605 -0.01431
# Poissons Ratio (z) = -0.03744 -0.02393
#
# Static dielectric constant tensor:
#      x y z
#    x 1.711270 0.000000 0.000000 
#    y 0.000000 1.694680 0.000000 
#    z 0.000000 0.000000 1.821820 
# 
# From -- ./inp_files/6301.got.cif
#   From: 2010.05.17/outbox.cif.g08.bks.cpg/sg47_4_cif.got.tgz:6301.got - 2010.06.03 20:15:42.
