data_PCOD9381120
_publ_section_title
;
Structure prediction by ZEFSAII (Michael W. Deem and Ramdas Pophale) SiO2 
 PCOD9381120
Probable space group: I M A 2
;
_chemical_formula_sum "Si O2"
_cell_formula_units_Z 32
_cell_length_a 9.000000
_cell_length_b 21.000000
_cell_length_c 18.000000
_cell_angle_alpha 90.000000
_cell_angle_beta 90.000000
_cell_angle_gamma 90.000000
_cell_volume 3402.000000
_symmetry_space_group_name_H-M "I M A 2"
_symmetry_group_IT_number 46
_symmetry_cell_setting 'orthorhombic'
loop_
_space_group_symop_operation_xyz
x,y,z
-x,-y,z
1/2-x,y,z
1/2+x,-y,z
1/2+x,1/2+y,1/2+z
1/2-x,1/2-y,1/2+z
-x,1/2+y,1/2+z
x,1/2-y,1/2+z
loop_
_atom_site_type_symbol
_atom_site_label
_atom_site_fract_x
_atom_site_fract_y
_atom_site_fract_z
Si Si1 0.579365 0.309725 0.508790
Si Si2 0.420801 0.564681 0.748914
Si Si3 0.573117 0.818171 0.325706
Si Si4 0.573663 0.175494 0.483880
Si Si5 0.073035 0.065740 0.758062
Si Si6 0.579949 0.437048 0.570225
Si Si7 0.920749 0.314775 0.330305
Si Si8 0.923849 0.438018 0.098380
O O1 0.750000 0.308926 0.537111
O O2 0.517261 0.240004 0.523285
O O3 0.506487 0.371808 0.542976
O O4 0.580937 0.315135 0.419845
O O5 0.500000 0.500000 0.775187
O O6 0.250000 0.568072 0.775068
O O7 0.511876 0.625582 0.774806
O O8 0.418845 0.562876 0.659422
O O9 0.750000 0.812898 0.322500
O O10 0.517834 0.833986 0.409094
O O11 0.495972 0.751165 0.305847
O O12 0.750000 0.184592 0.464177
O O13 0.564304 0.118717 0.540920
O O14 0.250000 0.061269 0.759061
O O15 0.013956 0.125484 0.803395
O O16 0.011662 0.074326 0.674369
O O17 0.000000 0.000000 0.785877
O O18 0.500000 0.500000 0.543157
O O19 0.750000 0.439060 0.543376
O O20 0.750000 0.318492 0.304129
O O21 0.750000 0.449173 0.115506
O O22 0.000000 0.500000 0.064120
#
# Coordination Sequence:
#
# PCOD9381120 Si02
#       8
#     8   8   8   8   8   8   8   8
#     4   8  16  33  55  77 101 133 174 216 258 309
#     4  10  20  35  55  78 107 142 179 221 268 320
#     4  11  22  36  55  80 110 142 180 225 272 324
#     4   9  19  36  56  77 104 140 181 221 264 317
#     4  11  22  37  56  80 111 144 182 225 271 324
#     4   9  18  33  53  77 104 135 171 213 261 311
#     4  10  20  37  58  79 108 144 182 224 270 321
#     4  10  20  35  56  80 107 140 178 221 270 322
#
# _framework density 9.4062319999999993
#
# number of rings (size 3 to 8) (size 9 to 14) (size 15 to 20)
#    0.000    2.250    0.000    4.875    0.000    3.500 
#    0.000    8.125    0.000    0.000    0.000    0.000 
#    0.000    0.000    0.000    0.000    0.000    0.000 
#
# Total GULP energy -178440.213138 kJ/mol
# GULP energy per Si atom -5576.256661 kJ/mol
# Density = 0.938482 g / cm^3
# Si number density = 9.406232 Si / 1000 Ang^3
#
#
#
# Elastic Constant Matrix: (Units=GPa)
#
#
# Indices 1 2 3 4 5 6 
#
# 1 129.5703 64.7602 18.3661 0.0000 0.0000 0.0000
# 2 64.7602 135.0318 36.5740 0.0000 0.0000 0.0000
# 3 18.3661 36.5740 1.6481 0.0000 0.0000 0.0000
# 4 0.0000 0.0000 0.0000 30.2198 0.0000 0.0000
# 5 0.0000 0.0000 0.0000 0.0000 19.7320 0.0000
# 6 0.0000 0.0000 0.0000 0.0000 0.0000 29.0700
#
#
#
# Elastic Compliance Matrix: (Units=1/GPa)
#
#
# Indices 1 2 3 4 5 6 
#
# 1 0.010143 -0.005139 0.001014 0.000000 0.000000 0.000000
# 2 -0.005139 0.001126 0.032285 0.000000 0.000000 0.000000
# 3 0.001014 0.032285 -0.120991 0.000000 0.000000 0.000000
# 4 0.000000 0.000000 0.000000 0.033091 0.000000 0.000000
# 5 0.000000 0.000000 0.000000 0.000000 0.050679 0.000000
# 6 0.000000 0.000000 0.000000 0.000000 0.000000 0.034400
#
#
# Mechanical properties :
#
#
# Convention : Reuss Voigt Hill
#
# Bulk Modulus (GPa) = -18.72551 56.18341 18.72895
# Shear Modulus (GPa) = -76.13507 25.57434 -25.28037
#
# Velocity S-wave (km/s) = -6.36855 3.69105 -3.66978
# Velocity P-wave (km/s) = 8.00333 6.93506 2.82474
#
# Compressibility (1/GPa) = -0.05340309
#
# Stress axis : x y z
#
# Youngs Moduli (GPa) = 98.59439 888.26545 -8.26510
#
# Poissons Ratio (x) = 4.56471 0.00838
# Poissons Ratio (y) = 0.50667 0.26684
# Poissons Ratio (z) = -0.09996 -28.67735
#
# Static dielectric constant tensor:
#      x y z
#    x 1.646810 0.000000 0.000000 
#    y 0.000000 1.692060 0.000000 
#    z 0.000000 0.000000 1.634120 
# 
# From -- ./inp_files/18543.got.cif
#   From: 2010.05.17/outbox.ucp.g08.bks.cvg/sg46_10_cif.got.tgz:18543.got - 2010.06.11 16:34:52.
