data_PCOD9381258
_publ_section_title
;
Structure prediction by ZEFSAII (Michael W. Deem and Ramdas Pophale) SiO2 
 PCOD9381258
Probable space group: P M M M
;
_chemical_formula_sum "Si O2"
_cell_formula_units_Z 58
_cell_length_a 29.289387
_cell_length_b 14.501865
_cell_length_c 7.383610
_cell_angle_alpha 90.000000
_cell_angle_beta 90.000000
_cell_angle_gamma 90.000000
_cell_volume 3136.193783
_symmetry_space_group_name_H-M "P M M M"
_symmetry_group_IT_number 47
_symmetry_cell_setting 'orthorhombic'
loop_
_space_group_symop_operation_xyz
x,y,z
-x,-y,z
x,-y,-z
-x,y,-z
-x,-y,-z
x,y,-z
-x,y,z
x,-y,z
loop_
_atom_site_type_symbol
_atom_site_label
_atom_site_fract_x
_atom_site_fract_y
_atom_site_fract_z
Si Si1 0.417577 0.609716 0.285132
Si Si2 0.324791 0.703220 0.289231
Si Si3 0.818194 0.896603 0.218053
Si Si4 0.500000 0.637960 0.000000
Si Si5 0.713733 0.103866 0.781711
Si Si6 0.858997 0.294316 0.288038
Si Si7 0.050915 0.392772 0.720590
Si Si8 0.767318 0.607281 0.278692
O O1 0.426073 0.629625 0.500000
O O2 0.408788 0.500000 0.271128
O O3 0.372539 0.664433 0.220332
O O4 0.460123 0.632933 0.158641
O O5 0.325297 0.676874 0.500000
O O6 0.318486 0.812991 0.275691
O O7 0.278631 0.657493 0.213015
O O8 0.765994 0.877319 0.279353
O O9 0.851211 0.814699 0.273582
O O10 0.830395 0.000000 0.278384
O O11 0.817119 0.897514 0.000000
O O12 0.701454 0.000000 0.722589
O O13 0.714234 0.103321 0.000000
O O14 0.859689 0.318748 0.500000
O O15 0.906747 0.331838 0.213965
O O16 0.813374 0.342861 0.213282
O O17 0.050080 0.389218 0.500000
O O18 0.058248 0.500000 0.769189
O O19 0.000000 0.365211 0.781049
O O20 0.767412 0.612770 0.500000
O O21 0.767241 0.500000 0.230209
#
# Coordination Sequence:
#
# PCOD9381258 Si02
#       8
#     8   8   8   2   8   8   8   8
#     4  10  21  36  54  79 111 142 177 221 263 307
#     4  10  19  31  49  75 104 135 163 200 255 303
#     4   9  18  32  47  64  92 129 162 197 248 302
#     4  12  23  38  60  82 103 144 195 226 258 298
#     4   9  18  32  49  69  97 133 168 203 245 297
#     4  10  17  26  45  71  92 119 162 204 241 285
#     4   8  14  25  42  66  95 124 157 201 249 293
#     4   9  16  26  41  65  99 132 158 187 234 299
#
# _framework density 18.493756000000001
#
# number of rings (size 3 to 8) (size 9 to 14) (size 15 to 20)
#    0.000    2.621    1.379    2.897    0.966    4.414 
#    0.000    1.379    0.000    3.310    0.000    4.828 
#    0.000    2.207    0.000    0.000    0.000    0.000 
#
# Total GULP energy -323024.881049 kJ/mol
# GULP energy per Si atom -5569.394501 kJ/mol
# Density = 1.845166 g / cm^3
# Si number density = 18.493756 Si / 1000 Ang^3
#
#
#
# Elastic Constant Matrix: (Units=GPa)
#
#
# Indices 1 2 3 4 5 6 
#
# 1 194.0599 103.0543 31.2102 0.0000 0.0000 0.0000
# 2 103.0543 102.6345 6.6127 0.0000 0.0000 0.0000
# 3 31.2102 6.6127 76.0295 0.0000 0.0000 0.0000
# 4 0.0000 0.0000 0.0000 27.3523 0.0000 0.0000
# 5 0.0000 0.0000 0.0000 0.0000 -5.5042 0.0000
# 6 0.0000 0.0000 0.0000 0.0000 0.0000 -113.0211
#
#
#
# Elastic Compliance Matrix: (Units=1/GPa)
#
#
# Indices 1 2 3 4 5 6 
#
# 1 0.012107 -0.011903 -0.003935 0.000000 0.000000 0.000000
# 2 -0.011903 0.021500 0.003016 0.000000 0.000000 0.000000
# 3 -0.003935 0.003016 0.014506 0.000000 0.000000 0.000000
# 4 0.000000 0.000000 0.000000 0.036560 0.000000 0.000000
# 5 0.000000 0.000000 0.000000 0.000000 -0.181678 0.000000
# 6 0.000000 0.000000 0.000000 0.000000 0.000000 -0.008848
#
#
# Mechanical properties :
#
#
# Convention : Reuss Voigt Hill
#
# Bulk Modulus (GPa) = 44.50327 72.71981 58.61154
# Shear Modulus (GPa) = -68.75596 -2.77816 -35.76706
#
# Velocity S-wave (km/s) = -6.10399 -1.22698 -4.40251
# Velocity P-wave (km/s) = 5.05589 6.11550 2.43283
#
# Compressibility (1/GPa) = 0.02247026
#
# Stress axis : x y z
#
# Youngs Moduli (GPa) = 82.59897 46.51086 68.93882
#
# Poissons Ratio (x) = 0.55360 0.27124
# Poissons Ratio (y) = 0.98315 -0.20792
# Poissons Ratio (z) = 0.32499 -0.14028
#
# Static dielectric constant tensor:
#      x y z
#    x 1.627840 0.000000 0.000000 
#    y 0.000000 1.625300 0.000000 
#    z 0.000000 0.000000 1.710840 
# 
# From -- ./inp_files/8106.got.cif
#   From: 2010.05.17/outbox.cif.g08.bks.cpg/sg47_5_cif.got.tgz:8106.got - 2010.06.03 20:15:42.
