data_PCOD9381995
_publ_section_title
;
Structure prediction by ZEFSAII (Michael W. Deem and Ramdas Pophale) SiO2 
 PCOD9381995
Probable space group: P M M M
;
_chemical_formula_sum "Si O2"
_cell_formula_units_Z 64
_cell_length_a 9.270971
_cell_length_b 14.816745
_cell_length_c 32.109431
_cell_angle_alpha 90.000000
_cell_angle_beta 90.000000
_cell_angle_gamma 90.000000
_cell_volume 4410.731679
_symmetry_space_group_name_H-M "P M M M"
_symmetry_group_IT_number 47
_symmetry_cell_setting 'orthorhombic'
loop_
_space_group_symop_operation_xyz
x,y,z
-x,-y,z
x,-y,-z
-x,y,-z
-x,-y,-z
x,y,-z
-x,y,z
x,-y,z
loop_
_atom_site_type_symbol
_atom_site_label
_atom_site_fract_x
_atom_site_fract_y
_atom_site_fract_z
Si Si1 0.825217 0.292356 0.297020
Si Si2 0.326993 0.279003 0.453963
Si Si3 0.825586 0.099078 0.673751
Si Si4 0.831629 0.390333 0.953794
Si Si5 0.172927 0.897884 0.575239
Si Si6 0.172634 0.393984 0.787551
Si Si7 0.334164 0.609916 0.871657
Si Si8 0.326628 0.606220 0.373081
O O1 0.778396 0.187992 0.301816
O O2 0.786339 0.336340 0.252842
O O3 0.754249 0.347846 0.334557
O O4 0.000000 0.296565 0.300958
O O5 0.290833 0.314916 0.500000
O O6 0.500000 0.268629 0.451846
O O7 0.253662 0.181979 0.447835
O O8 0.284151 0.343823 0.415931
O O9 0.792726 0.109969 0.624627
O O10 0.000000 0.096760 0.676490
O O11 0.771999 0.000000 0.687264
O O12 0.825589 0.500000 0.953684
O O13 0.741078 0.358553 0.914255
O O14 0.000000 0.366302 0.949081
O O15 0.782163 0.361245 0.000000
O O16 0.000000 0.888211 0.570742
O O17 0.210983 0.000000 0.561992
O O18 0.207160 0.500000 0.780222
O O19 0.249909 0.363813 0.829882
O O20 0.000000 0.387894 0.793155
O O21 0.500000 0.637893 0.869975
O O22 0.330315 0.500000 0.872505
O O23 0.500000 0.616293 0.367995
O O24 0.294450 0.500000 0.375033
#
# Coordination Sequence:
#
# PCOD9381995 Si02
#       8
#     8   8   8   8   8   8   8   8
#     4  10  18  30  50  70  86 107 137 171 205 246
#     4  10  21  35  49  66  88 113 140 168 200 241
#     4   8  14  26  46  70  91 108 128 159 200 243
#     4   8  13  21  33  48  67  95 132 174 218 257
#     4   9  17  31  51  72  92 113 135 161 198 243
#     4   9  17  27  38  55  79 106 136 169 205 243
#     4   9  16  24  34  49  71 101 136 174 213 248
#     4  10  21  35  49  65  85 109 137 171 209 244
#
# _framework density 14.510065000000001
#
# number of rings (size 3 to 8) (size 9 to 14) (size 15 to 20)
#    0.000    2.875    1.250    1.875    0.000    4.000 
#    0.000    5.000    0.000    0.375    0.000    1.750 
#    0.000    0.000    0.000    0.000    0.000    0.625 
#
# Total GULP energy -356403.409593 kJ/mol
# GULP energy per Si atom -5568.803275 kJ/mol
# Density = 1.447704 g / cm^3
# Si number density = 14.510065 Si / 1000 Ang^3
#
#
#
# Elastic Constant Matrix: (Units=GPa)
#
#
# Indices 1 2 3 4 5 6 
#
# 1 22.9080 23.4914 46.5105 0.0000 0.0000 0.0000
# 2 23.4914 71.7657 55.8456 0.0000 0.0000 0.0000
# 3 46.5105 55.8456 139.4917 0.0000 0.0000 0.0000
# 4 0.0000 0.0000 0.0000 5.0279 0.0000 0.0000
# 5 0.0000 0.0000 0.0000 0.0000 19.0037 0.0000
# 6 0.0000 0.0000 0.0000 0.0000 0.0000 13.9956
#
#
#
# Elastic Compliance Matrix: (Units=1/GPa)
#
#
# Indices 1 2 3 4 5 6 
#
# 1 0.144511 -0.014247 -0.042481 0.000000 0.000000 0.000000
# 2 -0.014247 0.021644 -0.003915 0.000000 0.000000 0.000000
# 3 -0.042481 -0.003915 0.022900 0.000000 0.000000 0.000000
# 4 0.000000 0.000000 0.000000 0.198890 0.000000 0.000000
# 5 0.000000 0.000000 0.000000 0.000000 0.052621 0.000000
# 6 0.000000 0.000000 0.000000 0.000000 0.000000 0.071451
#
#
# Mechanical properties :
#
#
# Convention : Reuss Voigt Hill
#
# Bulk Modulus (GPa) = 14.75545 53.98448 34.36997
# Shear Modulus (GPa) = 7.62319 14.82663 11.22491
#
# Velocity S-wave (km/s) = 2.29459 3.20006 2.78437
# Velocity P-wave (km/s) = 4.14866 7.13719 5.83741
#
# Compressibility (1/GPa) = 0.06777155
#
# Stress axis : x y z
#
# Youngs Moduli (GPa) = 6.91988 46.20174 43.66719
#
# Poissons Ratio (x) = 0.65822 1.85500
# Poissons Ratio (y) = 0.09859 0.17096
# Poissons Ratio (z) = 0.29396 0.18088
#
# Static dielectric constant tensor:
#      x y z
#    x 1.480660 0.000000 0.000000 
#    y 0.000000 1.468710 0.000000 
#    z 0.000000 0.000000 1.480250 
# 
# From -- ./inp_files/8280.got.cif
#   From: 2010.05.17/outbox.cif.g08.bks.cpg/sg47_5_cif.got.tgz:8280.got - 2010.06.03 20:15:42.
