data_PCOD9381895
_publ_section_title
;
Structure prediction by ZEFSAII (Michael W. Deem and Ramdas Pophale) SiO2 
 PCOD9381895
Probable space group: P M M M
;
_chemical_formula_sum "Si O2"
_cell_formula_units_Z 64
_cell_length_a 8.978124
_cell_length_b 14.671102
_cell_length_c 31.836217
_cell_angle_alpha 90.000000
_cell_angle_beta 90.000000
_cell_angle_gamma 90.000000
_cell_volume 4193.433807
_symmetry_space_group_name_H-M "P M M M"
_symmetry_group_IT_number 47
_symmetry_cell_setting 'orthorhombic'
loop_
_space_group_symop_operation_xyz
x,y,z
-x,-y,z
x,-y,-z
-x,y,-z
-x,-y,-z
x,y,-z
-x,y,z
x,-y,z
loop_
_atom_site_type_symbol
_atom_site_label
_atom_site_fract_x
_atom_site_fract_y
_atom_site_fract_z
Si Si1 0.822365 0.395343 0.657731
Si Si2 0.821372 0.106190 0.548820
Si Si3 0.678279 0.396701 0.749287
Si Si4 0.318948 0.104598 0.704216
Si Si5 0.320556 0.790387 0.210746
Si Si6 0.678653 0.779391 0.377606
Si Si7 0.177765 0.106936 0.132839
Si Si8 0.325672 0.110431 0.046290
O O1 0.788607 0.500000 0.645709
O O2 0.759584 0.382511 0.704909
O O3 0.745960 0.320674 0.628551
O O4 0.000000 0.383551 0.657800
O O5 0.785247 0.124806 0.500000
O O6 0.738144 0.170862 0.581109
O O7 0.000000 0.115776 0.553561
O O8 0.784245 0.000000 0.557303
O O9 0.500000 0.389851 0.741607
O O10 0.710152 0.500000 0.763830
O O11 0.717913 0.315322 0.780758
O O12 0.500000 0.103617 0.704023
O O13 0.274551 0.154168 0.747312
O O14 0.273064 0.161306 0.663238
O O15 0.267484 0.000000 0.702736
O O16 0.500000 0.797420 0.206996
O O17 0.247078 0.834295 0.170116
O O18 0.500000 0.775346 0.377791
O O19 0.235664 0.139144 0.087275
O O20 0.000000 0.111188 0.134051
O O21 0.222083 0.000000 0.138118
O O22 0.500000 0.134261 0.050839
O O23 0.317522 0.000000 0.045540
O O24 0.274048 0.142027 0.000000
#
# Coordination Sequence:
#
# PCOD9381895 Si02
#       8
#     8   8   8   8   8   8   8   8
#     4  10  20  33  50  72  97 125 157 194 239 290
#     4   9  19  36  55  75 102 134 163 192 232 282
#     4   9  17  31  50  70  91 116 153 200 244 282
#     4   9  17  28  42  64  93 123 155 189 224 265
#     4  10  18  30  46  63  88 125 159 188 228 276
#     4  11  20  32  51  75 100 126 160 201 240 277
#     4  10  20  30  40  60  91 125 159 194 232 271
#     4   8  14  26  44  63  82 110 152 196 234 275
#
# _framework density 15.261956
#
# number of rings (size 3 to 8) (size 9 to 14) (size 15 to 20)
#    0.000    2.500    1.250    2.625    0.000    3.750 
#    0.000    1.875    0.000    2.625    0.000    2.625 
#    0.000    0.500    0.000    5.750    0.000    1.875 
#
# Total GULP energy -356772.627152 kJ/mol
# GULP energy per Si atom -5574.572299 kJ/mol
# Density = 1.522722 g / cm^3
# Si number density = 15.261956 Si / 1000 Ang^3
#
#
#
# Elastic Constant Matrix: (Units=GPa)
#
#
# Indices 1 2 3 4 5 6 
#
# 1 35.0861 47.0760 49.1926 0.0000 0.0000 0.0000
# 2 47.0760 112.2080 77.8821 0.0000 0.0000 0.0000
# 3 49.1926 77.8821 122.7329 0.0000 0.0000 0.0000
# 4 0.0000 0.0000 0.0000 9.1154 0.0000 0.0000
# 5 0.0000 0.0000 0.0000 0.0000 10.2239 0.0000
# 6 0.0000 0.0000 0.0000 0.0000 0.0000 18.5204
#
#
#
# Elastic Compliance Matrix: (Units=1/GPa)
#
#
# Indices 1 2 3 4 5 6 
#
# 1 0.088006 -0.022230 -0.021167 0.000000 0.000000 0.000000
# 2 -0.022230 0.021542 -0.004760 0.000000 0.000000 0.000000
# 3 -0.021167 -0.004760 0.019652 0.000000 0.000000 0.000000
# 4 0.000000 0.000000 0.000000 0.109705 0.000000 0.000000
# 5 0.000000 0.000000 0.000000 0.000000 0.097810 0.000000
# 6 0.000000 0.000000 0.000000 0.000000 0.000000 0.053994
#
#
# Mechanical properties :
#
#
# Convention : Reuss Voigt Hill
#
# Bulk Modulus (GPa) = 30.40828 68.70316 49.55572
# Shear Modulus (GPa) = 10.04043 13.96368 12.00206
#
# Velocity S-wave (km/s) = 2.56769 3.02807 2.80733
# Velocity P-wave (km/s) = 5.36267 7.57227 6.56115
#
# Compressibility (1/GPa) = 0.03288578
#
# Stress axis : x y z
#
# Youngs Moduli (GPa) = 11.36290 46.42002 50.88507
#
# Poissons Ratio (x) = 1.03194 1.07708
# Poissons Ratio (y) = 0.25260 0.24221
# Poissons Ratio (z) = 0.24052 0.22095
#
# Static dielectric constant tensor:
#      x y z
#    x 1.507750 0.000000 0.000000 
#    y 0.000000 1.507980 0.000000 
#    z 0.000000 0.000000 1.490670 
# 
# From -- ./inp_files/8326.got.cif
#   From: 2010.05.17/outbox.cif.g08.bks.cpg/sg47_5_cif.got.tgz:8326.got - 2010.06.03 20:15:42.
