data_PCOD9381846
_publ_section_title
;
Structure prediction by ZEFSAII (Michael W. Deem and Ramdas Pophale) SiO2 
 PCOD9381846
Probable space group: P M M M
;
_chemical_formula_sum "Si O2"
_cell_formula_units_Z 64
_cell_length_a 21.033033
_cell_length_b 8.112786
_cell_length_c 20.571086
_cell_angle_alpha 90.000000
_cell_angle_beta 90.000000
_cell_angle_gamma 90.000000
_cell_volume 3510.178027
_symmetry_space_group_name_H-M "P M M M"
_symmetry_group_IT_number 47
_symmetry_cell_setting 'orthorhombic'
loop_
_space_group_symop_operation_xyz
x,y,z
-x,-y,z
x,-y,-z
-x,y,-z
-x,-y,-z
x,y,-z
-x,y,z
x,-y,z
loop_
_atom_site_type_symbol
_atom_site_label
_atom_site_fract_x
_atom_site_fract_y
_atom_site_fract_z
Si Si1 0.812772 0.692507 0.840194
Si Si2 0.304396 0.805860 0.074758
Si Si3 0.569421 0.694829 0.854415
Si Si4 0.249792 0.299736 0.710468
Si Si5 0.928443 0.802388 0.926852
Si Si6 0.397316 0.196858 0.287259
Si Si7 0.403712 0.195715 0.570442
Si Si8 0.742901 0.699046 0.569543
O O1 0.824024 0.500000 0.831320
O O2 0.751577 0.717863 0.886083
O O3 0.792903 0.762366 0.769777
O O4 0.874679 0.760966 0.875335
O O5 0.371363 0.778610 0.110400
O O6 0.289450 0.000000 0.075253
O O7 0.307762 0.749869 0.000000
O O8 0.500000 0.754113 0.876895
O O9 0.574103 0.500000 0.866684
O O10 0.573996 0.724290 0.777083
O O11 0.254058 0.500000 0.714870
O O12 0.321673 0.233098 0.716157
O O13 0.225899 0.255573 0.638091
O O14 0.000000 0.742622 0.911350
O O15 0.931340 0.000000 0.930212
O O16 0.911705 0.742499 0.000000
O O17 0.422577 0.258267 0.357789
O O18 0.407320 0.000000 0.284617
O O19 0.426413 0.262419 0.500000
O O20 0.327584 0.223594 0.570051
O O21 0.417130 0.000000 0.570247
O O22 0.773040 0.744067 0.500000
O O23 0.735150 0.500000 0.570271
#
# Coordination Sequence:
#
# PCOD9381846 Si02
#       8
#     8   8   8   8   8   8   8   8
#     4  11  21  32  51  79 110 140 167 201 245 294
#     4  11  24  40  58  79 101 126 160 203 248 298
#     4  11  24  40  56  73  95 125 161 205 257 309
#     4   9  17  28  43  67 100 132 162 200 245 290
#     4   9  19  36  55  74 100 136 175 213 251 291
#     4  10  18  29  49  72  94 125 163 202 246 297
#     4   8  14  24  39  63  93 121 152 193 240 288
#     4   8  13  22  37  58  87 125 164 197 233 281
#
# _framework density 18.232693999999999
#
# number of rings (size 3 to 8) (size 9 to 14) (size 15 to 20)
#    0.000    2.375    1.250    2.250    0.000    5.250 
#    0.000    1.875    0.000    0.375    0.000    2.625 
#    0.000    0.500    0.000    6.250    0.000    1.000 
#
# Total GULP energy -356756.029504 kJ/mol
# GULP energy per Si atom -5574.312961 kJ/mol
# Density = 1.819120 g / cm^3
# Si number density = 18.232694 Si / 1000 Ang^3
#
#
#
# Elastic Constant Matrix: (Units=GPa)
#
#
# Indices 1 2 3 4 5 6 
#
# 1 80.6760 1.0579 53.4461 0.0000 0.0000 0.0000
# 2 1.0579 13.2123 -1.4346 0.0000 0.0000 0.0000
# 3 53.4461 -1.4346 143.9406 0.0000 0.0000 0.0000
# 4 0.0000 0.0000 0.0000 19.5145 0.0000 0.0000
# 5 0.0000 0.0000 0.0000 0.0000 53.5184 0.0000
# 6 0.0000 0.0000 0.0000 0.0000 0.0000 13.9202
#
#
#
# Elastic Compliance Matrix: (Units=1/GPa)
#
#
# Indices 1 2 3 4 5 6 
#
# 1 0.016491 -0.001987 -0.006143 0.000000 0.000000 0.000000
# 2 -0.001987 0.076009 0.001495 0.000000 0.000000 0.000000
# 3 -0.006143 0.001495 0.009243 0.000000 0.000000 0.000000
# 4 0.000000 0.000000 0.000000 0.051244 0.000000 0.000000
# 5 0.000000 0.000000 0.000000 0.000000 0.018685 0.000000
# 6 0.000000 0.000000 0.000000 0.000000 0.000000 0.071838
#
#
# Mechanical properties :
#
#
# Convention : Reuss Voigt Hill
#
# Bulk Modulus (GPa) = 11.30290 38.21863 24.76077
# Shear Modulus (GPa) = 17.46597 29.70789 23.58693
#
# Velocity S-wave (km/s) = 3.09843 4.04093 3.60065
# Velocity P-wave (km/s) = 4.36040 6.54059 5.55843
#
# Compressibility (1/GPa) = 0.08847285
#
# Stress axis : x y z
#
# Youngs Moduli (GPa) = 60.63939 13.15641 108.18816
#
# Poissons Ratio (x) = 0.02615 0.66460
# Poissons Ratio (y) = 0.12051 -0.16179
# Poissons Ratio (z) = 0.37251 -0.01968
#
# Static dielectric constant tensor:
#      x y z
#    x 1.603330 0.000000 0.000000 
#    y 0.000000 1.640700 0.000000 
#    z 0.000000 0.000000 1.695820 
# 
# From -- ./inp_files/11650.got.cif
#   From: 2010.05.17/outbox.cif.g08.bks.cpg/sg47_6_cif.got.tgz:11650.got - 2010.06.03 20:15:42.
