data_PCOD9381102
_publ_section_title
;
Structure prediction by ZEFSAII (Michael W. Deem and Ramdas Pophale) SiO2 
 PCOD9381102
Probable space group: I M A 2
;
_chemical_formula_sum "Si O2"
_cell_formula_units_Z 32
_cell_length_a 9.000000
_cell_length_b 30.000000
_cell_length_c 12.000000
_cell_angle_alpha 90.000000
_cell_angle_beta 90.000000
_cell_angle_gamma 90.000000
_cell_volume 3240.000000
_symmetry_space_group_name_H-M "I M A 2"
_symmetry_group_IT_number 46
_symmetry_cell_setting 'orthorhombic'
loop_
_space_group_symop_operation_xyz
x,y,z
-x,-y,z
1/2-x,y,z
1/2+x,-y,z
1/2+x,1/2+y,1/2+z
1/2-x,1/2-y,1/2+z
-x,1/2+y,1/2+z
x,1/2-y,1/2+z
loop_
_atom_site_type_symbol
_atom_site_label
_atom_site_fract_x
_atom_site_fract_y
_atom_site_fract_z
Si Si1 0.580443 0.900750 0.043140
Si Si2 0.074184 0.548098 0.117950
Si Si3 0.582278 0.683046 0.194807
Si Si4 0.075182 0.547231 0.358061
Si Si5 0.921102 0.881295 0.484090
Si Si6 0.418741 0.674567 0.419728
Si Si7 0.581035 0.266412 0.618445
Si Si8 0.072952 0.345611 0.745654
O O1 0.750000 0.914099 0.026469
O O2 0.553646 0.890472 0.172106
O O3 0.476664 0.932680 0.973750
O O4 0.542950 0.854456 0.981603
O O5 0.250000 0.543377 0.117236
O O6 0.031802 0.569817 0.239344
O O7 0.000000 0.500000 0.112307
O O8 0.021393 0.577204 0.015140
O O9 0.750000 0.681183 0.239993
O O10 0.570544 0.649670 0.092280
O O11 0.464563 0.676554 0.292776
O O12 0.542637 0.730584 0.143887
O O13 0.250000 0.543588 0.358542
O O14 0.000000 0.500000 0.350108
O O15 0.750000 0.895737 0.469649
O O16 0.962802 0.854945 0.373274
O O17 0.250000 0.656155 0.432223
O O18 0.419870 0.720349 0.488231
O O19 0.750000 0.252413 0.646317
O O20 0.534391 0.309144 0.691611
O O21 0.250000 0.333594 0.735366
#
# Coordination Sequence:
#
# PCOD9381102 Si02
#       8
#     8   8   8   8   8   8   8   8
#     4  10  19  34  57  81 108 143 183 227 276 333
#     4  10  21  37  59  86 116 151 186 232 286 340
#     4  11  23  36  56  83 112 146 186 234 284 339
#     4  10  20  34  55  84 116 146 181 229 283 338
#     4  10  22  39  58  84 114 149 192 238 283 339
#     4  10  21  37  55  78 108 142 181 226 277 330
#     4  10  22  38  56  80 110 145 186 235 286 336
#     4   9  20  39  59  80 110 150 192 233 282 339
#
# _framework density 9.8765429999999999
#
# number of rings (size 3 to 8) (size 9 to 14) (size 15 to 20)
#    0.000    2.000    0.000    3.000    1.750    7.000 
#    0.000    0.625    0.000    0.000    0.000    0.000 
#    0.000    0.000    0.000    0.000    0.000    0.000 
#
# Total GULP energy -178244.457251 kJ/mol
# GULP energy per Si atom -5570.139289 kJ/mol
# Density = 0.985406 g / cm^3
# Si number density = 9.876543 Si / 1000 Ang^3
#
#
#
# Elastic Constant Matrix: (Units=GPa)
#
#
# Indices 1 2 3 4 5 6 
#
# 1 18.1625 11.9044 39.6299 0.0005 -0.0001 0.0000
# 2 11.9044 36.8748 12.5684 0.0001 0.0000 0.0000
# 3 39.6299 12.5684 45.0896 -0.0005 -0.0001 -0.0001
# 4 0.0005 0.0001 -0.0005 1.1092 -0.0001 0.0000
# 5 -0.0001 0.0000 -0.0001 -0.0001 28.1068 -0.0001
# 6 0.0000 0.0000 -0.0001 0.0000 -0.0001 23.9841
#
#
#
# Elastic Compliance Matrix: (Units=1/GPa)
#
#
# Indices 1 2 3 4 5 6 
#
# 1 -0.059913 0.001540 0.052229 0.000053 0.000000 0.000000
# 2 0.001540 0.029926 -0.009695 -0.000008 0.000000 0.000000
# 3 0.052229 -0.009695 -0.021024 -0.000034 0.000000 0.000000
# 4 0.000053 -0.000008 -0.000034 0.901543 0.000002 0.000000
# 5 0.000000 0.000000 0.000000 0.000002 0.035579 0.000000
# 6 0.000000 0.000000 0.000000 0.000000 0.000000 0.041694
#
#
# Mechanical properties :
#
#
# Convention : Reuss Voigt Hill
#
# Bulk Modulus (GPa) = 26.92763 25.37026 26.14895
# Shear Modulus (GPa) = 5.86830 13.04165 9.45497
#
# Velocity S-wave (km/s) = 1.72548 2.57229 2.19020
# Velocity P-wave (km/s) = 4.19898 4.65766 4.43425
#
# Compressibility (1/GPa) = 0.03713657
#
# Stress axis : x y z
#
# Youngs Moduli (GPa) = -16.69084 33.41554 -47.56389
#
# Poissons Ratio (x) = -0.05146 2.48422
# Poissons Ratio (y) = 0.02571 -0.46115
# Poissons Ratio (z) = 0.87175 0.32398
#
# Static dielectric constant tensor:
#      x y z
#    x 1.660130 0.000000 0.000000 
#    y 0.000000 1.668190 0.000000 
#    z 0.000000 0.000000 1.740240 
# 
# From -- ./inp_files/9705.got.cif
#   From: 2010.05.17/outbox.ucp.g08.bks.cvg/sg46_5_cif.got.tgz:9705.got - 2010.06.11 16:34:52.
