data_PCOD9381890
_publ_section_title
;
Structure prediction by ZEFSAII (Michael W. Deem and Ramdas Pophale) SiO2 
 PCOD9381890
Probable space group: P M M M
;
_chemical_formula_sum "Si O2"
_cell_formula_units_Z 52
_cell_length_a 13.069113
_cell_length_b 7.440773
_cell_length_c 29.020794
_cell_angle_alpha 90.000000
_cell_angle_beta 90.000000
_cell_angle_gamma 90.000000
_cell_volume 2822.106889
_symmetry_space_group_name_H-M "P M M M"
_symmetry_group_IT_number 47
_symmetry_cell_setting 'orthorhombic'
loop_
_space_group_symop_operation_xyz
x,y,z
-x,-y,z
x,-y,-z
-x,y,-z
-x,-y,-z
x,y,-z
-x,y,z
x,-y,z
loop_
_atom_site_type_symbol
_atom_site_label
_atom_site_fract_x
_atom_site_fract_y
_atom_site_fract_z
Si Si1 0.881061 0.780685 0.051381
Si Si2 0.384891 0.285795 0.316934
Si Si3 0.000000 0.284514 0.798163
Si Si4 0.123263 0.000000 0.446394
Si Si5 0.206074 0.211554 0.854301
Si Si6 0.000000 0.717300 0.307068
Si Si7 0.384025 0.784174 0.210961
Si Si8 0.811431 0.282279 0.373062
O O1 0.815604 0.715219 0.094632
O O2 0.000000 0.728488 0.057843
O O3 0.880003 0.000000 0.052020
O O4 0.848729 0.724977 0.000000
O O5 0.500000 0.212944 0.323573
O O6 0.390259 0.500000 0.322656
O O7 0.354465 0.253506 0.263844
O O8 0.297111 0.224824 0.351515
O O9 0.898360 0.227555 0.825215
O O10 0.000000 0.500000 0.797123
O O11 0.000000 0.217340 0.745466
O O12 0.164351 0.825587 0.419314
O O13 0.151908 0.000000 0.500000
O O14 0.000000 0.000000 0.443232
O O15 0.300099 0.286749 0.824693
O O16 0.226854 0.000000 0.860224
O O17 0.100389 0.767035 0.336056
O O18 0.000000 0.500000 0.304759
O O19 0.500000 0.716750 0.203900
O O20 0.387137 0.000000 0.206660
O O21 0.813647 0.500000 0.379095
#
# Coordination Sequence:
#
# PCOD9381890 Si02
#       8
#     8   8   4   4   8   4   8   8
#     4   8  13  23  42  63  83 113 159 209 248 295
#     4   9  18  33  54  78 104 138 177 210 246 305
#     4  11  21  31  44  68 102 128 154 197 252 308
#     4  11  24  40  59  87 113 141 188 227 261 318
#     4  10  18  30  45  65  93 125 163 200 246 309
#     4   9  18  32  48  70 102 139 167 198 250 306
#     4   9  18  30  45  70 101 132 164 203 249 295
#     4  10  20  37  57  80 112 143 176 222 270 310
#
# _framework density 18.42595
#
# number of rings (size 3 to 8) (size 9 to 14) (size 15 to 20)
#    0.000    2.538    1.538    1.615    1.077    2.154 
#    2.769    0.769    0.000    2.308    0.000    5.385 
#    0.000    0.000    0.000    5.231    0.000    5.538 
#
# Total GULP energy -290124.052324 kJ/mol
# GULP energy per Si atom -5579.308699 kJ/mol
# Density = 1.838401 g / cm^3
# Si number density = 18.425950 Si / 1000 Ang^3
#
#
#
# Elastic Constant Matrix: (Units=GPa)
#
#
# Indices 1 2 3 4 5 6 
#
# 1 105.3245 15.0835 89.9363 0.0000 0.0000 0.0000
# 2 15.0835 64.7325 23.1946 0.0000 0.0000 0.0000
# 3 89.9363 23.1946 179.8449 0.0000 0.0000 0.0000
# 4 0.0000 0.0000 0.0000 43.4398 0.0000 0.0000
# 5 0.0000 0.0000 0.0000 0.0000 16.4660 0.0000
# 6 0.0000 0.0000 0.0000 0.0000 0.0000 -82.1563
#
#
#
# Elastic Compliance Matrix: (Units=1/GPa)
#
#
# Indices 1 2 3 4 5 6 
#
# 1 0.016624 -0.000938 -0.008192 0.000000 0.000000 0.000000
# 2 -0.000938 0.016250 -0.001627 0.000000 0.000000 0.000000
# 3 -0.008192 -0.001627 0.009867 0.000000 0.000000 0.000000
# 4 0.000000 0.000000 0.000000 0.023020 0.000000 0.000000
# 5 0.000000 0.000000 0.000000 0.000000 0.060731 0.000000
# 6 0.000000 0.000000 0.000000 0.000000 0.000000 -0.012172
#
#
# Mechanical properties :
#
#
# Convention : Reuss Voigt Hill
#
# Bulk Modulus (GPa) = 47.11086 67.37008 57.24047
# Shear Modulus (GPa) = 34.98694 10.32905 22.65799
#
# Velocity S-wave (km/s) = 4.36223 2.37021 3.51048
# Velocity P-wave (km/s) = 7.14110 6.64323 6.89666
#
# Compressibility (1/GPa) = 0.02122653
#
# Stress axis : x y z
#
# Youngs Moduli (GPa) = 60.15284 61.53995 101.34824
#
# Poissons Ratio (x) = 0.05774 0.83029
# Poissons Ratio (y) = 0.05644 0.16485
# Poissons Ratio (z) = 0.49280 0.10010
#
# Static dielectric constant tensor:
#      x y z
#    x 1.633270 0.000000 0.000000 
#    y 0.000000 1.764120 0.000000 
#    z 0.000000 0.000000 1.616160 
# 
# From -- ./inp_files/33640.got.cif
#   From: 2010.05.17/outbox.cif.g08.bks.cpg/sg47_17_cif.got.tgz:33640.got - 2010.06.03 20:15:42.
