data_PCOD9381777
_publ_section_title
;
Structure prediction by ZEFSAII (Michael W. Deem and Ramdas Pophale) SiO2 
 PCOD9381777
Probable space group: P M M M
;
_chemical_formula_sum "Si O2"
_cell_formula_units_Z 36
_cell_length_a 7.989173
_cell_length_b 22.812400
_cell_length_c 12.116471
_cell_angle_alpha 90.000000
_cell_angle_beta 90.000000
_cell_angle_gamma 90.000000
_cell_volume 2208.253619
_symmetry_space_group_name_H-M "P M M M"
_symmetry_group_IT_number 47
_symmetry_cell_setting 'orthorhombic'
loop_
_space_group_symop_operation_xyz
x,y,z
-x,-y,z
x,-y,-z
-x,y,-z
-x,-y,-z
x,y,-z
-x,y,z
x,-y,z
loop_
_atom_site_type_symbol
_atom_site_label
_atom_site_fract_x
_atom_site_fract_y
_atom_site_fract_z
Si Si1 0.000000 0.932314 0.634800
Si Si2 0.295566 0.500000 0.373912
Si Si3 0.315231 0.144385 0.365932
Si Si4 0.704531 0.568446 0.000000
Si Si5 0.198704 0.273040 0.626934
Si Si6 0.297313 0.613776 0.763266
O O1 0.834887 0.897279 0.671551
O O2 0.000000 0.931642 0.500000
O O3 0.000000 0.000000 0.668964
O O4 0.500000 0.500000 0.373555
O O5 0.239261 0.500000 0.500000
O O6 0.242213 0.441687 0.310183
O O7 0.312053 0.143014 0.500000
O O8 0.500000 0.125709 0.329654
O O9 0.283171 0.212240 0.337104
O O10 0.757935 0.601010 0.888405
O O11 0.756703 0.500000 0.000000
O O12 0.500000 0.567473 0.000000
O O13 0.252345 0.286659 0.500000
O O14 0.237464 0.326684 0.707062
O O15 0.000000 0.262566 0.624320
O O16 0.500000 0.614601 0.762899
#
# Coordination Sequence:
#
# PCOD9381777 Si02
#       6
#     4   4   8   4   8   8
#     4   9  16  26  40  62  94 128 163 200 232 270
#     4   9  16  25  40  64  89 109 142 193 238 283
#     4   9  16  27  43  62  88 125 164 199 237 281
#     4   9  16  30  49  67  87 115 151 194 243 297
#     4  10  19  31  45  63  90 121 155 199 249 293
#     4  10  18  29  47  67  86 114 153 195 241 293
#
# _framework density 16.302475000000001
#
# number of rings (size 3 to 8) (size 9 to 14) (size 15 to 20)
#    0.000    2.556    2.222    1.333    0.000    2.667 
#    0.000    3.333    0.000    2.667    0.000    0.000 
#    0.000    0.000    0.000    2.000    0.000   12.889 
#
# Total GULP energy -200716.297401 kJ/mol
# GULP energy per Si atom -5575.452706 kJ/mol
# Density = 1.626537 g / cm^3
# Si number density = 16.302475 Si / 1000 Ang^3
#
#
#
# Elastic Constant Matrix: (Units=GPa)
#
#
# Indices 1 2 3 4 5 6 
#
# 1 76.4221 54.4818 20.1376 0.0000 0.0000 0.0000
# 2 54.4818 130.2354 43.4959 0.0000 0.0000 0.0000
# 3 20.1376 43.4959 80.0956 0.0000 0.0000 0.0000
# 4 0.0000 0.0000 0.0000 0.9541 0.0000 0.0000
# 5 0.0000 0.0000 0.0000 0.0000 7.8531 0.0000
# 6 0.0000 0.0000 0.0000 0.0000 0.0000 25.9209
#
#
#
# Elastic Compliance Matrix: (Units=1/GPa)
#
#
# Indices 1 2 3 4 5 6 
#
# 1 0.018666 -0.007624 -0.000553 0.000000 0.000000 0.000000
# 2 -0.007624 0.012494 -0.004868 0.000000 0.000000 0.000000
# 3 -0.000553 -0.004868 0.015268 0.000000 0.000000 0.000000
# 4 0.000000 0.000000 0.000000 1.048095 0.000000 0.000000
# 5 0.000000 0.000000 0.000000 0.000000 0.127338 0.000000
# 6 0.000000 0.000000 0.000000 0.000000 0.000000 0.038579
#
#
# Mechanical properties :
#
#
# Convention : Reuss Voigt Hill
#
# Bulk Modulus (GPa) = 49.16919 58.10929 53.63924
# Shear Modulus (GPa) = 3.86606 18.18814 11.02710
#
# Velocity S-wave (km/s) = 1.54162 3.34378 2.60360
# Velocity P-wave (km/s) = 5.77883 7.11545 6.48169
#
# Compressibility (1/GPa) = 0.02033794
#
# Stress axis : x y z
#
# Youngs Moduli (GPa) = 53.57307 80.04150 65.49858
#
# Poissons Ratio (x) = 0.61024 0.03621
# Poissons Ratio (y) = 0.40844 0.31883
# Poissons Ratio (z) = 0.02961 0.38962
#
# Static dielectric constant tensor:
#      x y z
#    x 1.589500 0.000000 0.000000 
#    y 0.000000 1.525530 0.000000 
#    z 0.000000 0.000000 1.519290 
# 
# From -- ./inp_files/15021.got.cif
#   From: 2010.05.17/outbox.cif.g08.bks.cpg/sg47_8_cif.got.tgz:15021.got - 2010.06.03 20:15:42.
