data_PCOD9381790
_publ_section_title
;
Structure prediction by ZEFSAII (Michael W. Deem and Ramdas Pophale) SiO2 
 PCOD9381790
Probable space group: P M M M
;
_chemical_formula_sum "Si O2"
_cell_formula_units_Z 56
_cell_length_a 16.228711
_cell_length_b 20.877682
_cell_length_c 7.419361
_cell_angle_alpha 90.000000
_cell_angle_beta 90.000000
_cell_angle_gamma 90.000000
_cell_volume 2513.812072
_symmetry_space_group_name_H-M "P M M M"
_symmetry_group_IT_number 47
_symmetry_cell_setting 'orthorhombic'
loop_
_space_group_symop_operation_xyz
x,y,z
-x,-y,z
x,-y,-z
-x,y,-z
-x,-y,-z
x,y,-z
-x,y,z
x,-y,z
loop_
_atom_site_type_symbol
_atom_site_label
_atom_site_fract_x
_atom_site_fract_y
_atom_site_fract_z
Si Si1 0.231095 0.427729 0.280229
Si Si2 0.588891 0.107235 0.781472
Si Si3 0.809867 0.208824 0.281982
Si Si4 0.626074 0.249926 0.209490
Si Si5 0.411001 0.607905 0.706086
Si Si6 0.907975 0.671927 0.279926
Si Si7 0.227526 0.068966 0.289893
O O1 0.234209 0.422512 0.500000
O O2 0.206898 0.500000 0.235008
O O3 0.324176 0.414737 0.213747
O O4 0.163235 0.376708 0.219435
O O5 0.500000 0.080299 0.726908
O O6 0.593021 0.181722 0.723200
O O7 0.672988 0.075163 0.718430
O O8 0.592265 0.106117 0.000000
O O9 0.809235 0.205915 0.500000
O O10 0.724407 0.242735 0.227916
O O11 0.882580 0.256033 0.226369
O O12 0.807306 0.135743 0.213652
O O13 0.595740 0.314835 0.297601
O O14 0.603687 0.254847 0.000000
O O15 0.412058 0.584285 0.500000
O O16 0.500000 0.590538 0.787210
O O17 0.907503 0.670406 0.500000
O O18 0.000000 0.655175 0.221226
O O19 0.204071 0.067865 0.500000
O O20 0.204012 0.000000 0.210510
#
# Coordination Sequence:
#
# PCOD9381790 Si02
#       7
#     8   8   8   8   8   8   8
#     4   9  17  29  45  69 102 131 157 195 237 279
#     4   9  18  30  42  60  88 120 155 197 241 281
#     4   9  16  30  50  69  95 124 155 195 237 283
#     4  10  18  29  47  69  94 124 161 202 244 282
#     4  10  19  30  46  68  95 129 166 200 238 281
#     4   9  16  27  48  76 100 123 154 193 240 289
#     4   9  18  30  44  63  87 120 157 191 232 279
#
# _framework density 22.276924999999999
#
# number of rings (size 3 to 8) (size 9 to 14) (size 15 to 20)
#    0.000    2.714    1.429    0.857    0.000    2.857 
#    0.000    4.286    0.000    1.286    0.000    4.000 
#    0.000    1.143    0.000    7.143    0.000    7.429 
#
# Total GULP energy -312553.229315 kJ/mol
# GULP energy per Si atom -5581.307666 kJ/mol
# Density = 2.222622 g / cm^3
# Si number density = 22.276925 Si / 1000 Ang^3
#
#
#
# Elastic Constant Matrix: (Units=GPa)
#
#
# Indices 1 2 3 4 5 6 
#
# 1 139.7987 66.6817 1.9521 0.0000 0.0000 0.0000
# 2 66.6817 141.5510 4.2722 0.0000 0.0000 0.0000
# 3 1.9521 4.2722 74.8443 0.0000 0.0000 0.0000
# 4 0.0000 0.0000 0.0000 -26.4115 0.0000 0.0000
# 5 0.0000 0.0000 0.0000 0.0000 14.6286 0.0000
# 6 0.0000 0.0000 0.0000 0.0000 0.0000 -17.9176
#
#
#
# Elastic Compliance Matrix: (Units=1/GPa)
#
#
# Indices 1 2 3 4 5 6 
#
# 1 0.009226 -0.004347 0.000007 0.000000 0.000000 0.000000
# 2 -0.004347 0.009124 -0.000407 0.000000 0.000000 0.000000
# 3 0.000007 -0.000407 0.013384 0.000000 0.000000 0.000000
# 4 0.000000 0.000000 0.000000 -0.037862 0.000000 0.000000
# 5 0.000000 0.000000 0.000000 0.000000 0.068359 0.000000
# 6 0.000000 0.000000 0.000000 0.000000 0.000000 -0.055811
#
#
# Mechanical properties :
#
#
# Convention : Reuss Voigt Hill
#
# Bulk Modulus (GPa) = 44.96041 55.77845 50.36943
# Shear Modulus (GPa) = 214.33582 12.94576 113.64079
#
# Velocity S-wave (km/s) = 9.81953 2.41328 7.15007
# Velocity P-wave (km/s) = 12.19797 5.73221 9.53018
#
# Compressibility (1/GPa) = 0.02224179
#
# Stress axis : x y z
#
# Youngs Moduli (GPa) = 108.38635 109.59572 74.71531
#
# Poissons Ratio (x) = 0.47636 -0.00056
# Poissons Ratio (y) = 0.47110 0.03044
# Poissons Ratio (z) = -0.00081 0.04466
#
# Static dielectric constant tensor:
#      x y z
#    x 1.796840 0.000000 0.000000 
#    y 0.000000 1.824330 0.000000 
#    z 0.000000 0.000000 1.863490 
# 
# From -- ./inp_files/7368.got.cif
#   From: 2010.05.17/outbox.cif.g08.bks.cpg/sg47_4_cif.got.tgz:7368.got - 2010.06.03 20:15:42.
