data_PCOD9381528
_publ_section_title
;
Structure prediction by ZEFSAII (Michael W. Deem and Ramdas Pophale) SiO2 
 PCOD9381528
Probable space group: P M M M
;
_chemical_formula_sum "Si O2"
_cell_formula_units_Z 48
_cell_length_a 23.166711
_cell_length_b 7.631877
_cell_length_c 19.312522
_cell_angle_alpha 90.000000
_cell_angle_beta 90.000000
_cell_angle_gamma 90.000000
_cell_volume 3414.559893
_symmetry_space_group_name_H-M "P M M M"
_symmetry_group_IT_number 47
_symmetry_cell_setting 'orthorhombic'
loop_
_space_group_symop_operation_xyz
x,y,z
-x,-y,z
x,-y,-z
-x,y,-z
-x,-y,-z
x,y,-z
-x,y,z
x,-y,z
loop_
_atom_site_type_symbol
_atom_site_label
_atom_site_fract_x
_atom_site_fract_y
_atom_site_fract_z
Si Si1 0.000000 0.697068 0.583298
Si Si2 0.565604 0.000000 0.083937
Si Si3 0.931896 0.500000 0.785894
Si Si4 0.139536 0.500000 0.078992
Si Si5 0.870894 0.203688 0.577463
Si Si6 0.344396 0.704234 0.082418
Si Si7 0.779750 0.795365 0.859747
Si Si8 0.849612 0.790066 0.724493
O O1 0.938723 0.783675 0.598636
O O2 0.000000 0.500000 0.611529
O O3 0.000000 0.688526 0.500000
O O4 0.603119 0.830018 0.103316
O O5 0.500000 0.000000 0.109988
O O6 0.562603 0.000000 0.000000
O O7 0.912087 0.500000 0.865953
O O8 0.902039 0.671027 0.752083
O O9 0.000000 0.500000 0.778074
O O10 0.179686 0.668138 0.095446
O O11 0.120876 0.500000 0.000000
O O12 0.864078 0.282975 0.500000
O O13 0.837731 0.269017 0.645409
O O14 0.856385 0.000000 0.570849
O O15 0.358062 0.500000 0.091709
O O16 0.286210 0.751608 0.123099
O O17 0.333190 0.733057 0.000000
O O18 0.798398 0.763477 0.779912
O O19 0.790284 0.000000 0.874939
O O20 0.862453 0.000000 0.724128
#
# Coordination Sequence:
#
# PCOD9381528 Si02
#       8
#     4   4   4   4   8   8   8   8
#     4   9  17  25  35  55  77  95 123 162 195 238
#     4   9  18  30  42  62  92 122 148 172 205 244
#     4  10  22  35  47  62  80 106 134 166 221 279
#     4  10  20  33  48  65  82 100 132 182 223 261
#     4   9  17  29  42  56  76 103 133 163 201 248
#     4  10  18  27  43  65  86 113 146 180 210 239
#     4  10  18  30  46  65  87 107 138 178 218 256
#     4   9  20  33  45  63  84 107 134 174 216 257
#
# _framework density 14.057449
#
# number of rings (size 3 to 8) (size 9 to 14) (size 15 to 20)
#    0.000    2.500    1.667    0.750    2.333    2.833 
#    0.000    1.667    0.000    0.000    0.000    4.667 
#    0.000    0.000    0.000    0.000    0.000    1.667 
#
# Total GULP energy -267263.027024 kJ/mol
# GULP energy per Si atom -5567.979730 kJ/mol
# Density = 1.402545 g / cm^3
# Si number density = 14.057449 Si / 1000 Ang^3
#
#
#
# Elastic Constant Matrix: (Units=GPa)
#
#
# Indices 1 2 3 4 5 6 
#
# 1 85.7167 37.6833 36.0906 0.0000 0.0000 0.0000
# 2 37.6833 75.0313 32.0007 0.0000 0.0000 0.0000
# 3 36.0906 32.0007 104.3184 0.0000 0.0000 0.0000
# 4 0.0000 0.0000 0.0000 12.1109 0.0000 0.0000
# 5 0.0000 0.0000 0.0000 0.0000 59.8534 0.0000
# 6 0.0000 0.0000 0.0000 0.0000 0.0000 12.6379
#
#
#
# Elastic Compliance Matrix: (Units=1/GPa)
#
#
# Indices 1 2 3 4 5 6 
#
# 1 0.016033 -0.006543 -0.003540 0.000000 0.000000 0.000000
# 2 -0.006543 0.018004 -0.003259 0.000000 0.000000 0.000000
# 3 -0.003540 -0.003259 0.011811 0.000000 0.000000 0.000000
# 4 0.000000 0.000000 0.000000 0.082570 0.000000 0.000000
# 5 0.000000 0.000000 0.000000 0.000000 0.016708 0.000000
# 6 0.000000 0.000000 0.000000 0.000000 0.000000 0.079127
#
#
# Mechanical properties :
#
#
# Convention : Reuss Voigt Hill
#
# Bulk Modulus (GPa) = 52.18176 52.95727 52.56951
# Shear Modulus (GPa) = 19.43078 27.53989 23.48534
#
# Velocity S-wave (km/s) = 3.72188 4.43097 4.09182
# Velocity P-wave (km/s) = 7.46129 7.99574 7.73313
#
# Compressibility (1/GPa) = 0.01916379
#
# Stress axis : x y z
#
# Youngs Moduli (GPa) = 62.37090 55.54380 84.67012
#
# Poissons Ratio (x) = 0.36340 0.29972
# Poissons Ratio (y) = 0.40807 0.27597
# Poissons Ratio (z) = 0.22079 0.18103
#
# Static dielectric constant tensor:
#      x y z
#    x 1.432900 0.000000 0.000000 
#    y 0.000000 1.493330 0.000000 
#    z 0.000000 0.000000 1.496150 
# 
# From -- ./inp_files/28699.got.cif
#   From: 2010.05.17/outbox.cif.g08.bks.cpg/sg47_15_cif.got.tgz:28699.got - 2010.06.03 20:15:42.
