data_PCOD9381428
_publ_section_title
;
Structure prediction by ZEFSAII (Michael W. Deem and Ramdas Pophale) SiO2 
 PCOD9381428
Probable space group: P M M M
;
_chemical_formula_sum "Si O2"
_cell_formula_units_Z 52
_cell_length_a 22.540207
_cell_length_b 8.179451
_cell_length_c 15.652618
_cell_angle_alpha 90.000000
_cell_angle_beta 90.000000
_cell_angle_gamma 90.000000
_cell_volume 2885.818689
_symmetry_space_group_name_H-M "P M M M"
_symmetry_group_IT_number 47
_symmetry_cell_setting 'orthorhombic'
loop_
_space_group_symop_operation_xyz
x,y,z
-x,-y,z
x,-y,-z
-x,y,-z
-x,-y,-z
x,y,-z
-x,y,z
x,-y,z
loop_
_atom_site_type_symbol
_atom_site_label
_atom_site_fract_x
_atom_site_fract_y
_atom_site_fract_z
Si Si1 0.428951 0.500000 0.409167
Si Si2 0.889358 0.304295 0.217240
Si Si3 0.569016 0.181032 0.697569
Si Si4 0.781899 0.699093 0.098254
Si Si5 0.069176 0.197138 0.596579
Si Si6 0.350738 0.698419 0.157330
Si Si7 0.000000 0.803900 0.100005
Si Si8 0.434224 0.302971 0.000000
O O1 0.500000 0.500000 0.416670
O O2 0.398855 0.500000 0.500000
O O3 0.416755 0.331185 0.363280
O O4 0.887747 0.500000 0.219417
O O5 0.830515 0.244718 0.167147
O O6 0.898006 0.249043 0.315889
O O7 0.943565 0.252295 0.155677
O O8 0.500000 0.204581 0.729504
O O9 0.620102 0.200525 0.767088
O O10 0.570518 0.000000 0.659019
O O11 0.784549 0.500000 0.095584
O O12 0.715833 0.740324 0.129856
O O13 0.792153 0.754988 0.000000
O O14 0.089183 0.250617 0.500000
O O15 0.000000 0.249029 0.605202
O O16 0.070092 0.000000 0.595512
O O17 0.353144 0.500000 0.173878
O O18 0.395293 0.737247 0.080936
O O19 0.000000 0.000000 0.097338
O O20 0.000000 0.745833 0.000000
O O21 0.439444 0.500000 0.000000
O O22 0.500000 0.232275 0.000000
#
# Coordination Sequence:
#
# PCOD9381428 Si02
#       8
#     4   8   8   8   8   8   4   4
#     4   9  18  34  56  81 109 143 183 227 282 347
#     4  11  21  33  54  83 112 141 180 230 284 331
#     4  10  20  33  52  82 116 145 179 229 286 342
#     4   9  18  33  52  77 109 148 190 229 271 329
#     4   9  18  34  56  80 108 141 175 216 271 335
#     4  10  17  31  53  75 106 147 191 229 270 327
#     4  11  23  37  52  73 106 147 189 228 272 327
#     4   9  16  24  45  79 105 135 185 234 271 313
#
# _framework density 18.019151000000001
#
# number of rings (size 3 to 8) (size 9 to 14) (size 15 to 20)
#    0.000    2.231    2.308    2.077    0.000    2.462 
#    0.000    4.231    0.000    4.154    0.000    0.000 
#    0.000    0.000    0.000    0.000    0.000    0.000 
#
# Total GULP energy -289517.026069 kJ/mol
# GULP energy per Si atom -5567.635117 kJ/mol
# Density = 1.797814 g / cm^3
# Si number density = 18.019151 Si / 1000 Ang^3
#
#
#
# Elastic Constant Matrix: (Units=GPa)
#
#
# Indices 1 2 3 4 5 6 
#
# 1 127.7799 21.5816 72.7394 0.0000 0.0000 0.0000
# 2 21.5816 60.4642 47.3933 0.0000 0.0000 0.0000
# 3 72.7394 47.3933 156.6191 0.0000 0.0000 0.0000
# 4 0.0000 0.0000 0.0000 -98.0563 0.0000 0.0000
# 5 0.0000 0.0000 0.0000 0.0000 18.6821 0.0000
# 6 0.0000 0.0000 0.0000 0.0000 0.0000 7.5306
#
#
#
# Elastic Compliance Matrix: (Units=1/GPa)
#
#
# Indices 1 2 3 4 5 6 
#
# 1 0.010639 0.000099 -0.004971 0.000000 0.000000 0.000000
# 2 0.000099 0.021682 -0.006607 0.000000 0.000000 0.000000
# 3 -0.004971 -0.006607 0.010693 0.000000 0.000000 0.000000
# 4 0.000000 0.000000 0.000000 -0.010198 0.000000 0.000000
# 5 0.000000 0.000000 0.000000 0.000000 0.053527 0.000000
# 6 0.000000 0.000000 0.000000 0.000000 0.000000 0.132791
#
#
# Mechanical properties :
#
#
# Convention : Reuss Voigt Hill
#
# Bulk Modulus (GPa) = 49.86057 69.81022 59.83539
# Shear Modulus (GPa) = 20.09824 -0.82545 9.63640
#
# Velocity S-wave (km/s) = 3.34336 -0.67756 2.31505
# Velocity P-wave (km/s) = 6.52955 6.18177 6.35803
#
# Compressibility (1/GPa) = 0.02005593
#
# Stress axis : x y z
#
# Youngs Moduli (GPa) = 93.99317 46.12092 93.51908
#
# Poissons Ratio (x) = -0.00457 0.46490
# Poissons Ratio (y) = -0.00931 0.61789
# Poissons Ratio (z) = 0.46725 0.30472
#
# Static dielectric constant tensor:
#      x y z
#    x 1.608360 0.000000 0.000000 
#    y 0.000000 1.621600 0.000000 
#    z 0.000000 0.000000 1.745980 
# 
# From -- ./inp_files/25114.got.cif
#   From: 2010.05.17/outbox.cif.g08.bks.cpg/sg47_13_cif.got.tgz:25114.got - 2010.06.03 20:15:42.
