data_PCOD9381107
_publ_section_title
;
Structure prediction by ZEFSAII (Michael W. Deem and Ramdas Pophale) SiO2 
 PCOD9381107
Probable space group: I M A 2
;
_chemical_formula_sum "Si O2"
_cell_formula_units_Z 24
_cell_length_a 9.000000
_cell_length_b 30.000000
_cell_length_c 9.000000
_cell_angle_alpha 90.000000
_cell_angle_beta 90.000000
_cell_angle_gamma 90.000000
_cell_volume 2430.000000
_symmetry_space_group_name_H-M "I M A 2"
_symmetry_group_IT_number 46
_symmetry_cell_setting 'orthorhombic'
loop_
_space_group_symop_operation_xyz
x,y,z
-x,-y,z
1/2-x,y,z
1/2+x,-y,z
1/2+x,1/2+y,1/2+z
1/2-x,1/2-y,1/2+z
-x,1/2+y,1/2+z
x,1/2-y,1/2+z
loop_
_atom_site_type_symbol
_atom_site_label
_atom_site_fract_x
_atom_site_fract_y
_atom_site_fract_z
Si Si1 0.927391 0.627391 0.764000
Si Si2 0.923526 0.788317 0.086839
Si Si3 0.925416 0.372956 0.068975
Si Si4 0.427669 0.548458 0.598273
Si Si5 0.424377 0.200306 0.738988
Si Si6 0.572497 0.047589 0.765977
O O1 0.750000 0.622490 0.752470
O O2 0.983814 0.666540 0.656276
O O3 0.005750 0.581990 0.716823
O O4 0.977552 0.640035 0.928265
O O5 0.750000 0.787413 0.134319
O O6 0.985180 0.742792 0.150521
O O7 0.928724 0.789087 0.911585
O O8 0.750000 0.371780 0.036775
O O9 0.969816 0.421110 0.130577
O O10 0.970254 0.340276 0.200743
O O11 0.500000 0.500000 0.614107
O O12 0.250000 0.545608 0.610781
O O13 0.467467 0.565030 0.431005
O O14 0.250000 0.191016 0.699463
O O15 0.750000 0.043591 0.764991
O O16 0.500000 0.000000 0.750308
#
# Coordination Sequence:
#
# PCOD9381107 Si02
#       6
#     8   8   8   8   8   8
#     4  11  22  37  57  83 113 150 190 231 278 331
#     4   9  19  35  59  86 112 142 184 232 279 331
#     4  11  23  38  54  80 115 149 184 230 281 331
#     4  10  20  37  59  84 112 145 184 231 281 335
#     4  10  19  36  60  84 109 143 184 228 275 333
#     4   9  20  37  58  81 109 143 183 228 278 331
#
# _framework density 9.8765429999999999
#
# number of rings (size 3 to 8) (size 9 to 14) (size 15 to 20)
#    0.000    2.000    0.000    3.500    0.000    5.333 
#    0.000    6.667    0.000    0.000    0.000    0.000 
#    0.000    0.000    0.000    0.000    0.000    0.000 
#
# Total GULP energy -133854.603080 kJ/mol
# GULP energy per Si atom -5577.275128 kJ/mol
# Density = 0.985406 g / cm^3
# Si number density = 9.876543 Si / 1000 Ang^3
#
#
#
# Elastic Constant Matrix: (Units=GPa)
#
#
# Indices 1 2 3 4 5 6 
#
# 1 19.8301 2.8053 8.2220 0.0001 0.0000 0.0000
# 2 2.8053 36.9943 9.4633 0.0002 0.0002 0.0000
# 3 8.2220 9.4633 17.7534 0.0005 0.0000 0.0004
# 4 0.0001 0.0002 0.0005 38.1478 0.0000 0.0000
# 5 0.0000 0.0002 0.0000 0.0000 15.3002 0.0000
# 6 0.0000 0.0000 0.0004 0.0000 0.0000 10.8697
#
#
#
# Elastic Compliance Matrix: (Units=1/GPa)
#
#
# Indices 1 2 3 4 5 6 
#
# 1 0.062718 0.003096 -0.030697 0.000000 0.000000 0.000001
# 2 0.003096 0.031452 -0.018199 0.000000 0.000000 0.000001
# 3 -0.030697 -0.018199 0.080245 -0.000001 0.000000 -0.000003
# 4 0.000000 0.000000 -0.000001 0.026214 0.000000 0.000000
# 5 0.000000 0.000000 0.000000 0.000000 0.065359 0.000000
# 6 0.000001 0.000001 -0.000003 0.000000 0.000000 0.091999
#
#
# Mechanical properties :
#
#
# Convention : Reuss Voigt Hill
#
# Bulk Modulus (GPa) = 12.07506 12.83990 12.45748
# Shear Modulus (GPa) = 10.47800 16.46934 13.47367
#
# Velocity S-wave (km/s) = 2.30565 2.89062 2.61455
# Velocity P-wave (km/s) = 3.63514 4.20181 3.92871
#
# Compressibility (1/GPa) = 0.08281530
#
# Stress axis : x y z
#
# Youngs Moduli (GPa) = 15.94442 31.79464 12.46189
#
# Poissons Ratio (x) = -0.09845 0.38254
# Poissons Ratio (y) = -0.04937 0.22680
# Poissons Ratio (z) = 0.48944 0.57864
#
# Static dielectric constant tensor:
#      x y z
#    x 1.675770 0.000000 0.000000 
#    y 0.000000 1.718780 0.000000 
#    z 0.000000 0.000000 1.710600 
# 
# From -- ./inp_files/3881.got.cif
#   From: 2010.05.17/outbox.ucp.g08.bks.cvg/sg46_2_cif.got.tgz:3881.got - 2010.06.11 16:34:52.
