data_PCOD9381115
_publ_section_title
;
Structure prediction by ZEFSAII (Michael W. Deem and Ramdas Pophale) SiO2 
 PCOD9381115
Probable space group: I M A 2
;
_chemical_formula_sum "Si O2"
_cell_formula_units_Z 24
_cell_length_a 12.000000
_cell_length_b 24.000000
_cell_length_c 9.000000
_cell_angle_alpha 90.000000
_cell_angle_beta 90.000000
_cell_angle_gamma 90.000000
_cell_volume 2592.000000
_symmetry_space_group_name_H-M "I M A 2"
_symmetry_group_IT_number 46
_symmetry_cell_setting 'orthorhombic'
loop_
_space_group_symop_operation_xyz
x,y,z
-x,-y,z
1/2-x,y,z
1/2+x,-y,z
1/2+x,1/2+y,1/2+z
1/2-x,1/2-y,1/2+z
-x,1/2+y,1/2+z
x,1/2-y,1/2+z
loop_
_atom_site_type_symbol
_atom_site_label
_atom_site_fract_x
_atom_site_fract_y
_atom_site_fract_z
Si Si1 0.621194 0.863180 0.668440
Si Si2 0.122895 0.364959 0.602654
Si Si3 0.012277 0.708597 0.397401
Si Si4 0.750000 0.172625 0.392636
Si Si5 0.750000 0.289912 0.542903
Si Si6 0.380761 0.466027 0.367925
Si Si7 0.007491 0.842037 0.380414
O O1 0.750000 0.845464 0.697653
O O2 0.529696 0.825863 0.755439
O O3 0.613095 0.927001 0.721934
O O4 0.584613 0.856595 0.500777
O O5 0.250000 0.357777 0.653165
O O6 0.081432 0.309971 0.515376
O O7 0.117848 0.418749 0.496767
O O8 0.034245 0.370397 0.731827
O O9 0.012810 0.774434 0.366182
O O10 0.134257 0.691572 0.462643
O O11 0.750000 0.223616 0.510336
O O12 0.634166 0.140956 0.415981
O O13 0.750000 0.195025 0.218904
O O14 0.500000 0.500000 0.377658
O O15 0.250000 0.490397 0.372438
#
# Coordination Sequence:
#
# PCOD9381115 Si02
#       7
#     8   8   8   4   4   8   8
#     4  10  22  37  56  85 117 148 187 234 282 334
#     4  10  20  35  56  82 114 148 186 234 285 329
#     4  10  20  33  53  78 118 159 195 223 265 331
#     4  10  22  34  50  74 118 158 204 238 266 314
#     4  10  20  34  50  72 110 166 196 238 272 306
#     4   9  20  43  64  84 110 141 187 243 297 352
#     4  11  21  34  53  82 121 154 189 228 275 336
#
# _framework density 9.2592590000000001
#
# number of rings (size 3 to 8) (size 9 to 14) (size 15 to 20)
#    0.000    2.000    1.667    3.000    7.000    4.000 
#    9.000    0.833    0.000    0.000    0.000    0.000 
#    0.000    0.000    0.000    0.000    0.000    0.000 
#
# Total GULP energy -133602.448918 kJ/mol
# GULP energy per Si atom -5566.768705 kJ/mol
# Density = 0.923818 g / cm^3
# Si number density = 9.259259 Si / 1000 Ang^3
#
#
#
# Elastic Constant Matrix: (Units=GPa)
#
#
# Indices 1 2 3 4 5 6 
#
# 1 138.7518 35.1159 -7.6825 -0.0002 0.0000 0.0000
# 2 35.1159 31.9265 2.1520 -0.0001 0.0000 0.0000
# 3 -7.6825 2.1520 34.0575 -0.0007 0.0000 -0.0001
# 4 -0.0002 -0.0001 -0.0007 -5.6421 0.0000 -0.0001
# 5 0.0000 0.0000 0.0000 0.0000 33.1074 0.0000
# 6 0.0000 0.0000 -0.0001 -0.0001 0.0000 31.3487
#
#
#
# Elastic Compliance Matrix: (Units=1/GPa)
#
#
# Indices 1 2 3 4 5 6 
#
# 1 0.010293 -0.011527 0.003050 0.000000 0.000000 0.000000
# 2 -0.011527 0.044365 -0.005403 0.000000 0.000000 0.000000
# 3 0.003050 -0.005403 0.030392 -0.000004 0.000000 0.000000
# 4 0.000000 0.000000 -0.000004 -0.177240 0.000000 -0.000001
# 5 0.000000 0.000000 0.000000 0.000000 0.030205 0.000000
# 6 0.000000 0.000000 0.000000 -0.000001 0.000000 0.031899
#
#
# Mechanical properties :
#
#
# Convention : Reuss Voigt Hill
#
# Bulk Modulus (GPa) = 17.45537 29.32295 23.38916
# Shear Modulus (GPa) = 298.13227 23.43950 160.78588
#
# Velocity S-wave (km/s) = 12.70200 3.56157 9.32807
# Velocity P-wave (km/s) = 14.98558 5.72554 11.34349
#
# Compressibility (1/GPa) = 0.05728897
#
# Stress axis : x y z
#
# Youngs Moduli (GPa) = 97.15005 22.54035 32.90381
#
# Poissons Ratio (x) = 0.25983 -0.10037
# Poissons Ratio (y) = 1.11987 0.17780
# Poissons Ratio (z) = -0.29633 0.12180
#
# Static dielectric constant tensor:
#      x y z
#    x 1.653470 0.000000 0.000000 
#    y 0.000000 1.617240 0.000000 
#    z 0.000000 0.000000 1.709920 
# 
# From -- ./inp_files/4728.got.cif
#   From: 2010.05.17/outbox.ucp.g08.bks.cvg/sg46_3_cif.got.tgz:4728.got - 2010.06.11 16:34:52.
