data_PCOD9381880
_publ_section_title
;
Structure prediction by ZEFSAII (Michael W. Deem and Ramdas Pophale) SiO2 
 PCOD9381880
Probable space group: P M M M
;
_chemical_formula_sum "Si O2"
_cell_formula_units_Z 56
_cell_length_a 7.992892
_cell_length_b 16.014655
_cell_length_c 21.319184
_cell_angle_alpha 90.000000
_cell_angle_beta 90.000000
_cell_angle_gamma 90.000000
_cell_volume 2728.928204
_symmetry_space_group_name_H-M "P M M M"
_symmetry_group_IT_number 47
_symmetry_cell_setting 'orthorhombic'
loop_
_space_group_symop_operation_xyz
x,y,z
-x,-y,z
x,-y,-z
-x,y,-z
-x,-y,-z
x,y,-z
-x,y,z
x,-y,z
loop_
_atom_site_type_symbol
_atom_site_label
_atom_site_fract_x
_atom_site_fract_y
_atom_site_fract_z
Si Si1 0.295703 0.404495 0.928801
Si Si2 0.193627 0.201994 0.567123
Si Si3 0.307029 0.384469 0.431247
Si Si4 0.689078 0.905111 0.318725
Si Si5 0.296011 0.593131 0.289881
Si Si6 0.299346 0.282741 0.819189
Si Si7 0.191473 0.906831 0.180602
O O1 0.500000 0.403432 0.927887
O O2 0.245385 0.500000 0.915374
O O3 0.237174 0.340198 0.876387
O O4 0.244406 0.383637 0.000000
O O5 0.221410 0.158255 0.500000
O O6 0.302056 0.284706 0.568544
O O7 0.235961 0.148332 0.626538
O O8 0.000000 0.227982 0.569338
O O9 0.233577 0.408877 0.500000
O O10 0.500000 0.411714 0.431343
O O11 0.234838 0.405792 0.362484
O O12 0.500000 0.876663 0.302535
O O13 0.795735 0.904602 0.255958
O O14 0.679971 0.000000 0.340717
O O15 0.500000 0.598509 0.292872
O O16 0.256700 0.500000 0.263700
O O17 0.239902 0.670735 0.245584
O O18 0.500000 0.288830 0.816511
O O19 0.261883 0.185477 0.833964
O O20 0.000000 0.908035 0.159661
O O21 0.265412 0.000000 0.163045
#
# Coordination Sequence:
#
# PCOD9381880 Si02
#       7
#     8   8   8   8   8   8   8
#     4   8  14  26  47  78 114 147 178 213 254 301
#     4  10  20  32  46  64  88 120 157 199 250 309
#     4   9  17  29  45  63  85 119 163 207 248 292
#     4  10  20  33  49  68  90 117 153 201 255 308
#     4   9  17  28  44  70 100 126 158 203 252 301
#     4  10  18  29  51  79 104 133 170 213 257 299
#     4  10  21  36  53  73  99 132 168 207 254 307
#
# _framework density 20.520876999999999
#
# number of rings (size 3 to 8) (size 9 to 14) (size 15 to 20)
#    0.000    2.571    0.000    3.000    0.000    6.000 
#    0.000    2.857    0.000    3.857    0.000    6.000 
#    0.000    0.000    0.000    0.000    0.000    0.000 
#
# Total GULP energy -311771.730294 kJ/mol
# GULP energy per Si atom -5567.352327 kJ/mol
# Density = 2.047417 g / cm^3
# Si number density = 20.520877 Si / 1000 Ang^3
#
#
#
# Elastic Constant Matrix: (Units=GPa)
#
#
# Indices 1 2 3 4 5 6 
#
# 1 25.3827 8.7300 4.1798 0.0000 0.0000 0.0000
# 2 8.7300 125.9275 72.8187 0.0000 0.0000 0.0000
# 3 4.1798 72.8187 100.4313 0.0000 0.0000 0.0000
# 4 0.0000 0.0000 0.0000 60.4687 0.0000 0.0000
# 5 0.0000 0.0000 0.0000 0.0000 4.6516 0.0000
# 6 0.0000 0.0000 0.0000 0.0000 0.0000 -41.6821
#
#
#
# Elastic Compliance Matrix: (Units=1/GPa)
#
#
# Indices 1 2 3 4 5 6 
#
# 1 0.040380 -0.003147 0.000601 0.000000 0.000000 0.000000
# 2 -0.003147 0.013920 -0.009962 0.000000 0.000000 0.000000
# 3 0.000601 -0.009962 0.017155 0.000000 0.000000 0.000000
# 4 0.000000 0.000000 0.000000 0.016537 0.000000 0.000000
# 5 0.000000 0.000000 0.000000 0.000000 0.214982 0.000000
# 6 0.000000 0.000000 0.000000 0.000000 0.000000 -0.023991
#
#
# Mechanical properties :
#
#
# Convention : Reuss Voigt Hill
#
# Bulk Modulus (GPa) = 21.53322 47.02206 34.27764
# Shear Modulus (GPa) = 15.65054 15.75516 15.70285
#
# Velocity S-wave (km/s) = 2.76463 2.77386 2.76925
# Velocity P-wave (km/s) = 4.55050 5.76394 5.19279
#
# Compressibility (1/GPa) = 0.04643986
#
# Stress axis : x y z
#
# Youngs Moduli (GPa) = 24.76456 71.84110 58.29284
#
# Poissons Ratio (x) = 0.22609 -0.03505
# Poissons Ratio (y) = 0.07794 0.58069
# Poissons Ratio (z) = -0.01489 0.71565
#
# Static dielectric constant tensor:
#      x y z
#    x 1.767330 0.000000 0.000000 
#    y 0.000000 1.764110 0.000000 
#    z 0.000000 0.000000 1.738750 
# 
# From -- ./inp_files/21562.got.cif
#   From: 2010.05.17/outbox.cif.g08.bks.cpg/sg47_11_cif.got.tgz:21562.got - 2010.06.03 20:15:42.
