data_PCOD9381921
_publ_section_title
;
Structure prediction by ZEFSAII (Michael W. Deem and Ramdas Pophale) SiO2 
 PCOD9381921
Probable space group: P M M M
;
_chemical_formula_sum "Si O2"
_cell_formula_units_Z 64
_cell_length_a 19.191279
_cell_length_b 23.886503
_cell_length_c 7.582275
_cell_angle_alpha 90.000000
_cell_angle_beta 90.000000
_cell_angle_gamma 90.000000
_cell_volume 3475.809968
_symmetry_space_group_name_H-M "P M M M"
_symmetry_group_IT_number 47
_symmetry_cell_setting 'orthorhombic'
loop_
_space_group_symop_operation_xyz
x,y,z
-x,-y,z
x,-y,-z
-x,y,-z
-x,-y,-z
x,y,-z
-x,y,z
x,-y,z
loop_
_atom_site_type_symbol
_atom_site_label
_atom_site_fract_x
_atom_site_fract_y
_atom_site_fract_z
Si Si1 0.385915 0.062444 0.203030
Si Si2 0.577722 0.813975 0.215386
Si Si3 0.711702 0.744850 0.215707
Si Si4 0.162088 0.174806 0.791492
Si Si5 0.806036 0.351272 0.198459
Si Si6 0.921819 0.434353 0.785096
Si Si7 0.076304 0.270347 0.703148
Si Si8 0.773614 0.938997 0.291447
O O1 0.412230 0.121578 0.278853
O O2 0.302038 0.068350 0.204277
O O3 0.401794 0.000000 0.279302
O O4 0.410156 0.060669 0.000000
O O5 0.500000 0.795413 0.261967
O O6 0.637927 0.770817 0.272537
O O7 0.582757 0.816458 0.000000
O O8 0.769443 0.790788 0.270010
O O9 0.740331 0.683657 0.275874
O O10 0.711516 0.742327 0.000000
O O11 0.096169 0.205324 0.709203
O O12 0.174906 0.110721 0.751293
O O13 0.157250 0.181645 0.000000
O O14 0.853377 0.400920 0.279689
O O15 0.864862 0.302951 0.192242
O O16 0.786223 0.368933 0.000000
O O17 0.916721 0.500000 0.742365
O O18 0.000000 0.415079 0.727347
O O19 0.921527 0.429280 0.000000
O O20 0.079660 0.288969 0.500000
O O21 0.000000 0.280581 0.774671
O O22 0.760117 0.938455 0.500000
O O23 0.800676 0.000000 0.240144
#
# Coordination Sequence:
#
# PCOD9381921 Si02
#       8
#     8   8   8   8   8   8   8   8
#     4   9  16  26  40  57  77 102 135 172 207 249
#     4   9  15  23  37  57  82 107 132 171 219 258
#     4   8  14  24  37  58  81 100 131 172 210 247
#     4  10  18  30  48  64  81 105 137 178 213 247
#     4   9  16  26  43  62  83 112 145 181 212 245
#     4   8  13  21  35  58  86 113 143 179 217 254
#     4  10  20  31  43  63  90 114 137 168 207 253
#     4  10  19  29  43  63  84 106 133 166 209 261
#
# _framework density 18.412974999999999
#
# number of rings (size 3 to 8) (size 9 to 14) (size 15 to 20)
#    0.000    2.875    1.250    2.625    0.000    2.500 
#    0.000    1.250    0.000    1.125    0.000    6.125 
#    0.000    0.500    0.000    7.000    0.000    0.000 
#
# Total GULP energy -356360.656771 kJ/mol
# GULP energy per Si atom -5568.135262 kJ/mol
# Density = 1.837107 g / cm^3
# Si number density = 18.412975 Si / 1000 Ang^3
#
#
#
# Elastic Constant Matrix: (Units=GPa)
#
#
# Indices 1 2 3 4 5 6 
#
# 1 80.4924 50.0897 1.3178 0.0000 0.0000 0.0000
# 2 50.0897 105.6482 -1.0169 0.0000 0.0000 0.0000
# 3 1.3178 -1.0169 46.3809 0.0000 0.0000 0.0000
# 4 0.0000 0.0000 0.0000 -4.0706 0.0000 0.0000
# 5 0.0000 0.0000 0.0000 0.0000 13.1168 0.0000
# 6 0.0000 0.0000 0.0000 0.0000 0.0000 22.8000
#
#
#
# Elastic Compliance Matrix: (Units=1/GPa)
#
#
# Indices 1 2 3 4 5 6 
#
# 1 0.017645 -0.008372 -0.000685 0.000000 0.000000 0.000000
# 2 -0.008372 0.013440 0.000533 0.000000 0.000000 0.000000
# 3 -0.000685 0.000533 0.021592 0.000000 0.000000 0.000000
# 4 0.000000 0.000000 0.000000 -0.245665 0.000000 0.000000
# 5 0.000000 0.000000 0.000000 0.000000 0.076238 0.000000
# 6 0.000000 0.000000 0.000000 0.000000 0.000000 0.043860
#
#
# Mechanical properties :
#
#
# Convention : Reuss Voigt Hill
#
# Bulk Modulus (GPa) = 28.06847 37.03365 32.55106
# Shear Modulus (GPa) = -113.72505 18.51130 -47.60687
#
# Velocity S-wave (km/s) = -7.86750 3.17415 -5.09030
# Velocity P-wave (km/s) = 8.20081 5.79570 4.10263
#
# Compressibility (1/GPa) = 0.03562716
#
# Stress axis : x y z
#
# Youngs Moduli (GPa) = 56.67404 74.40497 46.31402
#
# Poissons Ratio (x) = 0.62294 0.03172
# Poissons Ratio (y) = 0.47449 -0.02466
# Poissons Ratio (z) = 0.03882 -0.03963
#
# Static dielectric constant tensor:
#      x y z
#    x 1.631520 0.000000 0.000000 
#    y 0.000000 1.684500 0.000000 
#    z 0.000000 0.000000 1.708140 
# 
# From -- ./inp_files/10231.got.cif
#   From: 2010.05.17/outbox.cif.g08.bks.cpg/sg47_6_cif.got.tgz:10231.got - 2010.06.03 20:15:42.
