data_PCOD9381266
_publ_section_title
;
Structure prediction by ZEFSAII (Michael W. Deem and Ramdas Pophale) SiO2 
 PCOD9381266
Probable space group: P M M M
;
_chemical_formula_sum "Si O2"
_cell_formula_units_Z 60
_cell_length_a 16.026400
_cell_length_b 12.738309
_cell_length_c 19.327500
_cell_angle_alpha 90.000000
_cell_angle_beta 90.000000
_cell_angle_gamma 90.000000
_cell_volume 3945.694346
_symmetry_space_group_name_H-M "P M M M"
_symmetry_group_IT_number 47
_symmetry_cell_setting 'orthorhombic'
loop_
_space_group_symop_operation_xyz
x,y,z
-x,-y,z
x,-y,-z
-x,y,-z
-x,-y,-z
x,y,-z
-x,y,z
x,-y,z
loop_
_atom_site_type_symbol
_atom_site_label
_atom_site_fract_x
_atom_site_fract_y
_atom_site_fract_z
Si Si1 0.408368 0.627299 0.349027
Si Si2 0.591424 0.792396 0.080044
Si Si3 0.237859 0.372273 0.578951
Si Si4 0.099859 0.500000 0.920333
Si Si5 0.636811 0.376820 0.807820
Si Si6 0.227676 0.879671 0.081399
Si Si7 0.827648 0.313803 0.829298
Si Si8 0.096205 0.625932 0.689029
O O1 0.500000 0.663180 0.373124
O O2 0.407833 0.500000 0.353327
O O3 0.327318 0.663752 0.391122
O O4 0.396971 0.652442 0.267973
O O5 0.500000 0.842435 0.089495
O O6 0.599635 0.695150 0.132118
O O7 0.672349 0.864504 0.091177
O O8 0.596371 0.756633 0.000000
O O9 0.225721 0.337647 0.500000
O O10 0.239617 0.500000 0.578623
O O11 0.162271 0.343506 0.629949
O O12 0.133921 0.602150 0.881827
O O13 0.000000 0.500000 0.917044
O O14 0.126757 0.500000 0.000000
O O15 0.620485 0.500000 0.819220
O O16 0.735977 0.355983 0.808293
O O17 0.183790 0.796189 0.131369
O O18 0.204816 0.000000 0.095161
O O19 0.210468 0.856877 0.000000
O O20 0.882059 0.314703 0.759874
O O21 0.106732 0.500000 0.702552
O O22 0.000000 0.642195 0.668777
#
# Coordination Sequence:
#
# PCOD9381266 Si02
#       8
#     8   8   8   4   8   8   8   8
#     4   9  16  25  38  56  82 121 163 194 226 269
#     4   9  18  29  41  62  89 119 159 203 244 283
#     4   9  17  28  41  60  90 125 161 195 226 268
#     4  11  22  32  46  72  98 120 153 198 244 292
#     4  10  17  27  41  60  90 127 161 195 233 285
#     4   9  19  34  50  67  89 123 164 203 244 286
#     4  11  18  31  49  69  92 123 159 196 239 289
#     4  10  18  29  47  69  94 123 156 191 235 286
#
# _framework density 15.20645
#
# number of rings (size 3 to 8) (size 9 to 14) (size 15 to 20)
#    0.000    2.333    2.667    1.200    0.000    2.400 
#    0.000    4.667    0.000    1.600    0.000    4.667 
#    0.000    0.533    0.000    1.200    0.000    7.733 
#
# Total GULP energy -334323.739614 kJ/mol
# GULP energy per Si atom -5572.062327 kJ/mol
# Density = 1.517184 g / cm^3
# Si number density = 15.206450 Si / 1000 Ang^3
#
#
#
# Elastic Constant Matrix: (Units=GPa)
#
#
# Indices 1 2 3 4 5 6 
#
# 1 101.1221 20.2824 56.2927 0.0000 0.0000 0.0000
# 2 20.2824 51.4458 37.3572 0.0000 0.0000 0.0000
# 3 56.2927 37.3572 102.7657 0.0000 0.0000 0.0000
# 4 0.0000 0.0000 0.0000 7.1312 0.0000 0.0000
# 5 0.0000 0.0000 0.0000 0.0000 17.6386 0.0000
# 6 0.0000 0.0000 0.0000 0.0000 0.0000 4.5438
#
#
#
# Elastic Compliance Matrix: (Units=1/GPa)
#
#
# Indices 1 2 3 4 5 6 
#
# 1 0.014228 0.000068 -0.007818 0.000000 0.000000 0.000000
# 2 0.000068 0.026409 -0.009638 0.000000 0.000000 0.000000
# 3 -0.007818 -0.009638 0.017517 0.000000 0.000000 0.000000
# 4 0.000000 0.000000 0.000000 0.140228 0.000000 0.000000
# 5 0.000000 0.000000 0.000000 0.000000 0.056694 0.000000
# 6 0.000000 0.000000 0.000000 0.000000 0.000000 0.220078
#
#
# Mechanical properties :
#
#
# Convention : Reuss Voigt Hill
#
# Bulk Modulus (GPa) = 42.77459 53.68868 48.23164
# Shear Modulus (GPa) = 9.65768 15.28949 12.47359
#
# Velocity S-wave (km/s) = 2.52286 3.17434 2.86716
# Velocity P-wave (km/s) = 6.05613 6.98702 6.53816
#
# Compressibility (1/GPa) = 0.02337837
#
# Stress axis : x y z
#
# Youngs Moduli (GPa) = 70.28536 37.86532 57.08734
#
# Poissons Ratio (x) = -0.00258 0.44633
# Poissons Ratio (y) = -0.00478 0.55018
# Poissons Ratio (z) = 0.54952 0.36493
#
# Static dielectric constant tensor:
#      x y z
#    x 1.541930 0.000000 0.000000 
#    y 0.000000 1.466550 0.000000 
#    z 0.000000 0.000000 1.502160 
# 
# From -- ./inp_files/31201.got.cif
#   From: 2010.05.17/outbox.cif.g08.bks.cpg/sg47_16_cif.got.tgz:31201.got - 2010.06.03 20:15:42.
