data_PCOD9381291
_publ_section_title
;
Structure prediction by ZEFSAII (Michael W. Deem and Ramdas Pophale) SiO2 
 PCOD9381291
Probable space group: P M M M
;
_chemical_formula_sum "Si O2"
_cell_formula_units_Z 56
_cell_length_a 26.800553
_cell_length_b 14.866931
_cell_length_c 7.431341
_cell_angle_alpha 90.000000
_cell_angle_beta 90.000000
_cell_angle_gamma 90.000000
_cell_volume 2960.958164
_symmetry_space_group_name_H-M "P M M M"
_symmetry_group_IT_number 47
_symmetry_cell_setting 'orthorhombic'
loop_
_space_group_symop_operation_xyz
x,y,z
-x,-y,z
x,-y,-z
-x,y,-z
-x,-y,-z
x,y,-z
-x,y,z
x,-y,z
loop_
_atom_site_type_symbol
_atom_site_label
_atom_site_fract_x
_atom_site_fract_y
_atom_site_fract_z
Si Si1 0.943814 0.896127 0.719407
Si Si2 0.750795 0.896069 0.280175
Si Si3 0.652256 0.212504 0.279398
Si Si4 0.309727 0.400343 0.710846
Si Si5 0.806232 0.600173 0.214609
Si Si6 0.848387 0.789565 0.287090
Si Si7 0.443889 0.103642 0.280776
O O1 0.944463 0.893828 0.500000
O O2 0.899730 0.831449 0.783732
O O3 0.000000 0.872672 0.778347
O O4 0.933649 0.000000 0.769447
O O5 0.750993 0.894928 0.500000
O O6 0.699704 0.847639 0.224735
O O7 0.799154 0.840684 0.216953
O O8 0.752805 0.000000 0.224937
O O9 0.652404 0.213463 0.500000
O O10 0.661374 0.314298 0.215756
O O11 0.600607 0.167823 0.220935
O O12 0.322250 0.405329 0.500000
O O13 0.318269 0.500000 0.789140
O O14 0.250360 0.381776 0.721851
O O15 0.820609 0.500000 0.279714
O O16 0.841066 0.683229 0.264447
O O17 0.804266 0.597251 0.000000
O O18 0.848743 0.807438 0.500000
O O19 0.443626 0.104508 0.500000
O O20 0.500000 0.128854 0.224092
O O21 0.434714 0.000000 0.227351
#
# Coordination Sequence:
#
# PCOD9381291 Si02
#       7
#     8   8   8   8   8   8   8
#     4   8  14  25  43  69  97 120 144 177 213 248
#     4   9  15  21  33  58  86 108 134 169 206 246
#     4   9  14  21  34  54  79 108 139 173 210 246
#     4   9  16  27  43  62  83 107 140 178 214 257
#     4  10  20  32  45  62  86 115 145 178 218 262
#     4  10  17  27  45  68  90 114 144 176 211 252
#     4   8  13  20  30  47  75 111 145 173 203 243
#
# _framework density 18.912797000000001
#
# number of rings (size 3 to 8) (size 9 to 14) (size 15 to 20)
#    0.000    3.000    1.429    2.143    0.000    4.286 
#    0.000    0.000    0.000    3.000    0.000    7.000 
#    0.000    0.571    0.000    5.143    0.000    5.143 
#
# Total GULP energy -312345.919381 kJ/mol
# GULP energy per Si atom -5577.605703 kJ/mol
# Density = 1.886975 g / cm^3
# Si number density = 18.912797 Si / 1000 Ang^3
#
#
#
# Elastic Constant Matrix: (Units=GPa)
#
#
# Indices 1 2 3 4 5 6 
#
# 1 163.7507 123.6960 5.3531 0.0000 0.0000 0.0000
# 2 123.6960 171.7269 -0.0102 0.0000 0.0000 0.0000
# 3 5.3531 -0.0102 57.6002 0.0000 0.0000 0.0000
# 4 0.0000 0.0000 0.0000 -62.4226 0.0000 0.0000
# 5 0.0000 0.0000 0.0000 0.0000 -33.2545 0.0000
# 6 0.0000 0.0000 0.0000 0.0000 0.0000 29.3582
#
#
#
# Elastic Compliance Matrix: (Units=1/GPa)
#
#
# Indices 1 2 3 4 5 6 
#
# 1 0.013486 -0.009714 -0.001255 0.000000 0.000000 0.000000
# 2 -0.009714 0.012820 0.000905 0.000000 0.000000 0.000000
# 3 -0.001255 0.000905 0.017478 0.000000 0.000000 0.000000
# 4 0.000000 0.000000 0.000000 -0.016020 0.000000 0.000000
# 5 0.000000 0.000000 0.000000 0.000000 -0.030071 0.000000
# 6 0.000000 0.000000 0.000000 0.000000 0.000000 0.034062
#
#
# Mechanical properties :
#
#
# Convention : Reuss Voigt Hill
#
# Bulk Modulus (GPa) = 42.27257 72.35064 57.31161
# Shear Modulus (GPa) = 83.65695 4.33882 43.99788
#
# Velocity S-wave (km/s) = 6.65800 1.51628 4.82846
# Velocity P-wave (km/s) = 9.02802 6.43455 7.83928
#
# Compressibility (1/GPa) = 0.02365600
#
# Stress axis : x y z
#
# Youngs Moduli (GPa) = 74.15280 78.00171 57.21527
#
# Poissons Ratio (x) = 0.75770 0.07181
# Poissons Ratio (y) = 0.72031 -0.05178
# Poissons Ratio (z) = 0.09306 -0.07059
#
# Static dielectric constant tensor:
#      x y z
#    x 1.629220 0.000000 0.000000 
#    y 0.000000 1.643460 0.000000 
#    z 0.000000 0.000000 1.725140 
# 
# From -- ./inp_files/14208.got.cif
#   From: 2010.05.17/outbox.cif.g08.bks.cpg/sg47_8_cif.got.tgz:14208.got - 2010.06.03 20:15:42.
