data_PCOD9381550
_publ_section_title
;
Structure prediction by ZEFSAII (Michael W. Deem and Ramdas Pophale) SiO2 
 PCOD9381550
Probable space group: P M M M
;
_chemical_formula_sum "Si O2"
_cell_formula_units_Z 44
_cell_length_a 7.521987
_cell_length_b 21.999592
_cell_length_c 14.151163
_cell_angle_alpha 90.000000
_cell_angle_beta 90.000000
_cell_angle_gamma 90.000000
_cell_volume 2341.743581
_symmetry_space_group_name_H-M "P M M M"
_symmetry_group_IT_number 47
_symmetry_cell_setting 'orthorhombic'
loop_
_space_group_symop_operation_xyz
x,y,z
-x,-y,z
x,-y,-z
-x,y,-z
-x,-y,-z
x,y,-z
-x,y,z
x,-y,z
loop_
_atom_site_type_symbol
_atom_site_label
_atom_site_fract_x
_atom_site_fract_y
_atom_site_fract_z
Si Si1 0.291435 0.190942 0.299806
Si Si2 0.782336 0.374484 0.796267
Si Si3 0.792586 0.317282 0.394934
Si Si4 0.283434 0.067304 0.610260
Si Si5 0.214564 0.250201 0.894630
Si Si6 0.217348 0.500000 0.109362
O O1 0.500000 0.191787 0.321679
O O2 0.214470 0.247849 0.357855
O O3 0.220342 0.125496 0.331362
O O4 0.268097 0.205151 0.189256
O O5 0.718803 0.358167 0.690555
O O6 0.728929 0.317850 0.862386
O O7 0.725182 0.438807 0.837591
O O8 0.000000 0.374444 0.795009
O O9 0.714568 0.322596 0.500000
O O10 0.000000 0.333544 0.401830
O O11 0.235923 0.074972 0.500000
O O12 0.500000 0.066652 0.614515
O O13 0.223702 0.000000 0.641151
O O14 0.000000 0.250568 0.896151
O O15 0.277965 0.235806 0.000000
O O16 0.000000 0.500000 0.109521
O O17 0.272713 0.500000 0.000000
#
# Coordination Sequence:
#
# PCOD9381550 Si02
#       6
#     8   8   8   8   8   4
#     4  10  18  27  44  69  90 108 138 180 217 249
#     4   8  14  24  38  59  84 109 139 173 211 255
#     4   9  17  29  43  59  85 119 147 172 208 255
#     4   8  14  25  41  62  88 114 137 165 207 256
#     4   9  17  30  46  62  85 117 146 172 210 259
#     4   9  14  20  35  59  84 107 135 177 222 257
#
# _framework density 18.789417
#
# number of rings (size 3 to 8) (size 9 to 14) (size 15 to 20)
#    0.000    3.182    0.000    3.273    0.000    3.636 
#    0.000    0.455    0.000    5.455    0.000   20.364 
#    0.000   23.273    0.000    0.000    0.000    0.000 
#
# Total GULP energy -245278.849249 kJ/mol
# GULP energy per Si atom -5574.519301 kJ/mol
# Density = 1.874665 g / cm^3
# Si number density = 18.789417 Si / 1000 Ang^3
#
#
#
# Elastic Constant Matrix: (Units=GPa)
#
#
# Indices 1 2 3 4 5 6 
#
# 1 46.0078 -3.0688 -3.5012 0.0000 0.0000 0.0000
# 2 -3.0688 168.2257 92.0668 0.0000 0.0000 0.0000
# 3 -3.5012 92.0668 148.3809 0.0000 0.0000 0.0000
# 4 0.0000 0.0000 0.0000 20.8206 0.0000 0.0000
# 5 0.0000 0.0000 0.0000 0.0000 7.0661 0.0000
# 6 0.0000 0.0000 0.0000 0.0000 0.0000 13.3690
#
#
#
# Elastic Compliance Matrix: (Units=1/GPa)
#
#
# Indices 1 2 3 4 5 6 
#
# 1 0.021778 0.000176 0.000405 0.000000 0.000000 0.000000
# 2 0.000176 0.009002 -0.005582 0.000000 0.000000 0.000000
# 3 0.000405 -0.005582 0.010212 0.000000 0.000000 0.000000
# 4 0.000000 0.000000 0.000000 0.048029 0.000000 0.000000
# 5 0.000000 0.000000 0.000000 0.000000 0.141522 0.000000
# 6 0.000000 0.000000 0.000000 0.000000 0.000000 0.074800
#
#
# Mechanical properties :
#
#
# Convention : Reuss Voigt Hill
#
# Bulk Modulus (GPa) = 32.26799 59.28979 45.77889
# Shear Modulus (GPa) = 15.35270 26.72563 21.03917
#
# Velocity S-wave (km/s) = 2.86159 3.77553 3.34987
# Velocity P-wave (km/s) = 5.30368 7.11545 6.27529
#
# Compressibility (1/GPa) = 0.03099046
#
# Stress axis : x y z
#
# Youngs Moduli (GPa) = 45.91792 111.08293 97.92220
#
# Poissons Ratio (x) = -0.01952 -0.03964
# Poissons Ratio (y) = -0.00807 0.54656
# Poissons Ratio (z) = -0.01859 0.62002
#
# Static dielectric constant tensor:
#      x y z
#    x 1.739960 0.000000 0.000000 
#    y 0.000000 1.632650 0.000000 
#    z 0.000000 0.000000 1.651740 
# 
# From -- ./inp_files/21299.got.cif
#   From: 2010.05.17/outbox.cif.g08.bks.cpg/sg47_11_cif.got.tgz:21299.got - 2010.06.03 20:15:42.
