data_PCOD9381831
_publ_section_title
;
Structure prediction by ZEFSAII (Michael W. Deem and Ramdas Pophale) SiO2 
 PCOD9381831
Probable space group: P M M M
;
_chemical_formula_sum "Si O2"
_cell_formula_units_Z 52
_cell_length_a 15.532191
_cell_length_b 19.164398
_cell_length_c 11.137239
_cell_angle_alpha 90.000000
_cell_angle_beta 90.000000
_cell_angle_gamma 90.000000
_cell_volume 3315.167251
_symmetry_space_group_name_H-M "P M M M"
_symmetry_group_IT_number 47
_symmetry_cell_setting 'orthorhombic'
loop_
_space_group_symop_operation_xyz
x,y,z
-x,-y,z
x,-y,-z
-x,y,-z
-x,-y,-z
x,y,-z
-x,y,z
x,-y,z
loop_
_atom_site_type_symbol
_atom_site_label
_atom_site_fract_x
_atom_site_fract_y
_atom_site_fract_z
Si Si1 0.398121 0.696643 0.858031
Si Si2 0.000000 0.079202 0.145803
Si Si3 0.901668 0.670348 0.145775
Si Si4 0.838425 0.826624 0.144886
Si Si5 0.653151 0.159564 0.745123
Si Si6 0.258977 0.420837 0.854460
Si Si7 0.395551 0.083555 0.500000
Si Si8 0.500000 0.923894 0.859027
O O1 0.500000 0.682379 0.849714
O O2 0.373344 0.760125 0.770376
O O3 0.338621 0.630407 0.827846
O O4 0.380352 0.715569 0.000000
O O5 0.914995 0.121483 0.180226
O O6 0.000000 0.000000 0.189212
O O7 0.000000 0.077941 0.000000
O O8 0.867649 0.747815 0.175181
O O9 0.830488 0.614581 0.186591
O O10 0.000000 0.659823 0.187594
O O11 0.904064 0.667215 0.000000
O O12 0.750015 0.846510 0.208114
O O13 0.827210 0.829406 0.000000
O O14 0.640085 0.125680 0.614832
O O15 0.585069 0.116807 0.823762
O O16 0.269360 0.500000 0.810909
O O17 0.254989 0.423475 0.000000
O O18 0.500000 0.088360 0.500000
O O19 0.374268 0.000000 0.500000
O O20 0.500000 0.000000 0.798897
O O21 0.500000 0.930858 0.000000
#
# Coordination Sequence:
#
# PCOD9381831 Si02
#       8
#     8   4   8   8   8   8   4   4
#     4  10  18  29  48  73 100 131 167 209 257 307
#     4   9  18  30  44  69 104 134 162 202 257 319
#     4   9  15  25  43  67  99 139 173 200 242 302
#     4  10  18  30  51  77 103 132 168 212 262 310
#     4  12  21  34  55  74  97 133 176 213 253 305
#     4   9  17  27  40  66 105 141 170 201 242 299
#     4  11  24  42  56  69  98 138 175 215 262 309
#     4  11  22  33  49  77 106 127 155 206 265 308
#
# _framework density 15.685483
#
# number of rings (size 3 to 8) (size 9 to 14) (size 15 to 20)
#    0.000    1.923    3.846    1.846    0.000    1.846 
#    0.000    4.615    0.000    0.462    0.000    1.615 
#    0.000    1.846    0.000    1.385    0.000    0.615 
#
# Total GULP energy -289749.350106 kJ/mol
# GULP energy per Si atom -5572.102887 kJ/mol
# Density = 1.564978 g / cm^3
# Si number density = 15.685483 Si / 1000 Ang^3
#
#
#
# Elastic Constant Matrix: (Units=GPa)
#
#
# Indices 1 2 3 4 5 6 
#
# 1 162.1104 86.0917 35.8165 0.0000 0.0000 0.0000
# 2 86.0917 159.8977 37.2067 0.0000 0.0000 0.0000
# 3 35.8165 37.2067 50.0951 0.0000 0.0000 0.0000
# 4 0.0000 0.0000 0.0000 22.9287 0.0000 0.0000
# 5 0.0000 0.0000 0.0000 0.0000 18.0106 0.0000
# 6 0.0000 0.0000 0.0000 0.0000 0.0000 25.6005
#
#
#
# Elastic Compliance Matrix: (Units=1/GPa)
#
#
# Indices 1 2 3 4 5 6 
#
# 1 0.009112 -0.004098 -0.003471 0.000000 0.000000 0.000000
# 2 -0.004098 0.009404 -0.004054 0.000000 0.000000 0.000000
# 3 -0.003471 -0.004054 0.025455 0.000000 0.000000 0.000000
# 4 0.000000 0.000000 0.000000 0.043614 0.000000 0.000000
# 5 0.000000 0.000000 0.000000 0.000000 0.055523 0.000000
# 6 0.000000 0.000000 0.000000 0.000000 0.000000 0.039062
#
#
# Mechanical properties :
#
#
# Convention : Reuss Voigt Hill
#
# Bulk Modulus (GPa) = 48.25391 76.70365 62.47878
# Shear Modulus (GPa) = 23.54891 27.50719 25.52805
#
# Velocity S-wave (km/s) = 3.87889 4.19223 4.03860
# Velocity P-wave (km/s) = 7.13381 8.51118 7.85275
#
# Compressibility (1/GPa) = 0.02072371
#
# Stress axis : x y z
#
# Youngs Moduli (GPa) = 109.74507 106.33685 39.28528
#
# Poissons Ratio (x) = 0.43582 0.13635
# Poissons Ratio (y) = 0.44978 0.15928
# Poissons Ratio (z) = 0.38091 0.43113
#
# Static dielectric constant tensor:
#      x y z
#    x 1.508480 0.000000 0.000000 
#    y 0.000000 1.538030 0.000000 
#    z 0.000000 0.000000 1.515680 
# 
# From -- ./inp_files/17835.got.cif
#   From: 2010.05.17/outbox.cif.g08.bks.cpg/sg47_9_cif.got.tgz:17835.got - 2010.06.03 20:15:42.
