data_PCOD9381095
_publ_section_title
;
Structure prediction by ZEFSAII (Michael W. Deem and Ramdas Pophale) SiO2 
 PCOD9381095
Probable space group: I M A 2
;
_chemical_formula_sum "Si O2"
_cell_formula_units_Z 32
_cell_length_a 15.000000
_cell_length_b 12.000000
_cell_length_c 18.000000
_cell_angle_alpha 90.000000
_cell_angle_beta 90.000000
_cell_angle_gamma 90.000000
_cell_volume 3240.000000
_symmetry_space_group_name_H-M "I M A 2"
_symmetry_group_IT_number 46
_symmetry_cell_setting 'orthorhombic'
loop_
_space_group_symop_operation_xyz
x,y,z
-x,-y,z
1/2-x,y,z
1/2+x,-y,z
1/2+x,1/2+y,1/2+z
1/2-x,1/2-y,1/2+z
-x,1/2+y,1/2+z
x,1/2-y,1/2+z
loop_
_atom_site_type_symbol
_atom_site_label
_atom_site_fract_x
_atom_site_fract_y
_atom_site_fract_z
Si Si1 0.145787 0.330891 0.617190
Si Si2 0.152093 0.390856 0.030085
Si Si3 0.645752 0.935981 0.793246
Si Si4 0.142941 0.831443 0.704666
Si Si5 0.418820 0.082071 0.959187
Si Si6 0.006539 0.173865 0.421872
Si Si7 0.350119 0.645326 0.037136
Si Si8 0.970619 0.785575 0.256622
O O1 0.250000 0.344826 0.638678
O O2 0.131591 0.202076 0.591147
O O3 0.129704 0.398025 0.539078
O O4 0.078972 0.346614 0.687204
O O5 0.250000 0.360107 0.999055
O O6 0.156048 0.515036 0.059029
O O7 0.078049 0.395819 0.967776
O O8 0.750000 0.908567 0.781906
O O9 0.631094 0.956305 0.882707
O O10 0.585736 0.829757 0.769974
O O11 0.626248 0.046081 0.742797
O O12 0.250000 0.812291 0.713156
O O13 0.120457 0.809884 0.617257
O O14 0.072698 0.749831 0.742721
O O15 0.460782 0.200185 0.936210
O O16 0.500000 0.000000 0.973142
O O17 0.021345 0.150515 0.335211
O O18 0.913739 0.162384 0.466544
O O19 0.250000 0.684756 0.019562
#
# Coordination Sequence:
#
# PCOD9381095 Si02
#       8
#     8   8   8   8   8   8   8   8
#     4  10  20  35  57  84 111 144 184 229 278 329
#     4   9  18  33  56  83 107 131 168 219 277 333
#     4  10  19  32  53  83 114 142 177 230 292 344
#     4  10  20  33  53  81 110 139 176 227 288 344
#     4  10  20  36  54  76 111 152 192 229 272 325
#     4  10  21  34  53  78 107 145 181 221 271 324
#     4  10  20  36  57  82 109 138 174 221 280 342
#     4  11  21  33  51  77 110 145 184 228 272 327
#
# _framework density 9.8765429999999999
#
# number of rings (size 3 to 8) (size 9 to 14) (size 15 to 20)
#    0.000    2.000    0.000    5.250    0.000    7.000 
#    0.000    2.500    0.000    1.500    0.000    0.000 
#    0.000    0.000    0.000    0.000    0.000    0.000 
#
# Total GULP energy -178255.318824 kJ/mol
# GULP energy per Si atom -5570.478713 kJ/mol
# Density = 0.985406 g / cm^3
# Si number density = 9.876543 Si / 1000 Ang^3
#
#
#
# Elastic Constant Matrix: (Units=GPa)
#
#
# Indices 1 2 3 4 5 6 
#
# 1 68.6821 1.8637 38.0753 0.0000 0.0000 0.0000
# 2 1.8637 0.5559 -3.1501 0.0000 0.0000 0.0000
# 3 38.0753 -3.1501 129.6745 0.0000 0.0000 0.0000
# 4 0.0000 0.0000 0.0000 17.6226 0.0000 0.0000
# 5 0.0000 0.0000 0.0000 0.0000 35.1552 0.0000
# 6 0.0000 0.0000 0.0000 0.0000 0.0000 18.5604
#
#
#
# Elastic Compliance Matrix: (Units=1/GPa)
#
#
# Indices 1 2 3 4 5 6 
#
# 1 0.024225 -0.140922 -0.010536 0.000000 0.000000 0.000000
# 2 -0.140922 2.905819 0.111967 0.000000 0.000000 0.000000
# 3 -0.010536 0.111967 0.013525 0.000000 0.000000 0.000000
# 4 0.000000 0.000000 0.000000 0.056745 0.000000 0.000000
# 5 0.000000 0.000000 0.000000 0.000000 0.028445 0.000000
# 6 0.000000 0.000000 0.000000 0.000000 0.000000 0.053878
#
#
# Mechanical properties :
#
#
# Convention : Reuss Voigt Hill
#
# Bulk Modulus (GPa) = 0.34909 30.27672 15.31290
# Shear Modulus (GPa) = 1.21463 25.07587 13.14525
#
# Velocity S-wave (km/s) = 0.78501 3.56682 2.58249
# Velocity P-wave (km/s) = 0.99938 5.68540 4.08182
#
# Compressibility (1/GPa) = 2.86458484
#
# Stress axis : x y z
#
# Youngs Moduli (GPa) = 41.27996 0.34414 73.93603
#
# Poissons Ratio (x) = 0.04850 0.77901
# Poissons Ratio (y) = 5.81726 -8.27836
# Poissons Ratio (z) = 0.43494 -0.03853
#
# Static dielectric constant tensor:
#      x y z
#    x 1.658090 0.000000 0.000000 
#    y 0.000000 0.843190 0.000000 
#    z 0.000000 0.000000 1.712030 
# 
# From -- ./inp_files/19627.got.cif
#   From: 2010.05.17/outbox.ucp.g08.bks.cvg/sg46_10_cif.got.tgz:19627.got - 2010.06.11 16:34:52.
