data_PCOD9381513
_publ_section_title
;
Structure prediction by ZEFSAII (Michael W. Deem and Ramdas Pophale) SiO2 
 PCOD9381513
Probable space group: P M M M
;
_chemical_formula_sum "Si O2"
_cell_formula_units_Z 52
_cell_length_a 7.575221
_cell_length_b 29.332373
_cell_length_c 14.183970
_cell_angle_alpha 90.000000
_cell_angle_beta 90.000000
_cell_angle_gamma 90.000000
_cell_volume 3151.666899
_symmetry_space_group_name_H-M "P M M M"
_symmetry_group_IT_number 47
_symmetry_cell_setting 'orthorhombic'
loop_
_space_group_symop_operation_xyz
x,y,z
-x,-y,z
x,-y,-z
-x,y,-z
-x,-y,-z
x,y,-z
-x,y,z
x,-y,z
loop_
_atom_site_type_symbol
_atom_site_label
_atom_site_fract_x
_atom_site_fract_y
_atom_site_fract_z
Si Si1 0.500000 0.448174 0.385667
Si Si2 0.715153 0.949374 0.109839
Si Si3 0.215786 0.719043 0.294513
Si Si4 0.793262 0.763053 0.104852
Si Si5 0.292046 0.857199 0.797794
Si Si6 0.208306 0.624160 0.612757
Si Si7 0.213087 0.811458 0.394802
O O1 0.500000 0.500000 0.350302
O O2 0.500000 0.450413 0.500000
O O3 0.328253 0.418654 0.359323
O O4 0.500000 0.949848 0.113599
O O5 0.777628 0.906258 0.169811
O O6 0.774269 0.000000 0.139680
O O7 0.762991 0.943037 0.000000
O O8 0.279300 0.731796 0.189457
O O9 0.266983 0.670050 0.334091
O O10 0.271060 0.760996 0.361457
O O11 0.000000 0.719613 0.294158
O O12 0.783288 0.814933 0.142573
O O13 0.000000 0.751622 0.098222
O O14 0.716121 0.759026 0.000000
O O15 0.500000 0.856622 0.817206
O O16 0.264783 0.845915 0.688043
O O17 0.228620 0.631476 0.500000
O O18 0.000000 0.616454 0.630459
O O19 0.276369 0.821979 0.500000
O O20 0.000000 0.810754 0.396660
#
# Coordination Sequence:
#
# PCOD9381513 Si02
#       7
#     4   8   8   8   8   8   8
#     4   9  18  30  42  62  91 119 151 187 223 268
#     4   8  14  25  41  60  81 106 136 170 211 258
#     4   8  14  26  43  62  83 109 144 178 208 249
#     4   9  17  29  44  61  86 120 148 170 206 260
#     4  10  18  27  42  64  87 108 135 176 219 257
#     4   9  16  27  44  63  86 118 151 185 224 264
#     4   9  17  30  46  61  82 114 146 174 208 254
#
# _framework density 16.499206000000001
#
# number of rings (size 3 to 8) (size 9 to 14) (size 15 to 20)
#    0.000    3.154    0.000    2.769    0.000    3.385 
#    5.538    1.538    0.000    2.308    0.000    8.615 
#    0.000    1.231    0.000    6.000    0.000    0.154 
#
# Total GULP energy -289703.830923 kJ/mol
# GULP energy per Si atom -5571.227518 kJ/mol
# Density = 1.646165 g / cm^3
# Si number density = 16.499206 Si / 1000 Ang^3
#
#
#
# Elastic Constant Matrix: (Units=GPa)
#
#
# Indices 1 2 3 4 5 6 
#
# 1 45.2088 25.4023 12.1634 0.0000 0.0000 0.0000
# 2 25.4023 154.4713 61.5597 0.0000 0.0000 0.0000
# 3 12.1634 61.5597 86.6855 0.0000 0.0000 0.0000
# 4 0.0000 0.0000 0.0000 19.9578 0.0000 0.0000
# 5 0.0000 0.0000 0.0000 0.0000 9.3071 0.0000
# 6 0.0000 0.0000 0.0000 0.0000 0.0000 19.0263
#
#
#
# Elastic Compliance Matrix: (Units=1/GPa)
#
#
# Indices 1 2 3 4 5 6 
#
# 1 0.024411 -0.003695 -0.000801 0.000000 0.000000 0.000000
# 2 -0.003695 0.009588 -0.006291 0.000000 0.000000 0.000000
# 3 -0.000801 -0.006291 0.016116 0.000000 0.000000 0.000000
# 4 0.000000 0.000000 0.000000 0.050106 0.000000 0.000000
# 5 0.000000 0.000000 0.000000 0.000000 0.107444 0.000000
# 6 0.000000 0.000000 0.000000 0.000000 0.000000 0.052559
#
#
# Mechanical properties :
#
#
# Convention : Reuss Voigt Hill
#
# Bulk Modulus (GPa) = 35.03684 53.84628 44.44156
# Shear Modulus (GPa) = 17.16373 22.14093 19.65233
#
# Velocity S-wave (km/s) = 3.22883 3.66722 3.45499
# Velocity P-wave (km/s) = 5.93144 7.11603 6.55057
#
# Compressibility (1/GPa) = 0.02854139
#
# Stress axis : x y z
#
# Youngs Moduli (GPa) = 40.96455 104.29411 62.05134
#
# Poissons Ratio (x) = 0.38537 0.04972
# Poissons Ratio (y) = 0.15137 0.39034
# Poissons Ratio (z) = 0.03282 0.65608
#
# Static dielectric constant tensor:
#      x y z
#    x 1.634110 0.000000 0.000000 
#    y 0.000000 1.540890 0.000000 
#    z 0.000000 0.000000 1.557420 
# 
# From -- ./inp_files/21811.got.cif
#   From: 2010.05.17/outbox.cif.g08.bks.cpg/sg47_11_cif.got.tgz:21811.got - 2010.06.03 20:15:42.
