data_PCOD9381416
_publ_section_title
;
Structure prediction by ZEFSAII (Michael W. Deem and Ramdas Pophale) SiO2 
 PCOD9381416
Probable space group: P M M M
;
_chemical_formula_sum "Si O2"
_cell_formula_units_Z 52
_cell_length_a 7.808363
_cell_length_b 14.829340
_cell_length_c 25.707866
_cell_angle_alpha 90.000000
_cell_angle_beta 90.000000
_cell_angle_gamma 90.000000
_cell_volume 2976.787580
_symmetry_space_group_name_H-M "P M M M"
_symmetry_group_IT_number 47
_symmetry_cell_setting 'orthorhombic'
loop_
_space_group_symop_operation_xyz
x,y,z
-x,-y,z
x,-y,-z
-x,y,-z
-x,-y,-z
x,y,-z
-x,y,z
x,-y,z
loop_
_atom_site_type_symbol
_atom_site_label
_atom_site_fract_x
_atom_site_fract_y
_atom_site_fract_z
Si Si1 0.292805 0.399347 0.597370
Si Si2 0.500000 0.890688 0.940821
Si Si3 0.196044 0.893419 0.135940
Si Si4 0.703348 0.898664 0.340839
Si Si5 0.708805 0.789050 0.239808
Si Si6 0.799124 0.791712 0.556568
Si Si7 0.291447 0.400198 0.281183
O O1 0.500000 0.396422 0.595241
O O2 0.239292 0.500000 0.580614
O O3 0.225378 0.314968 0.565603
O O4 0.243067 0.387949 0.658131
O O5 0.667720 0.865278 0.907804
O O6 0.500000 0.000000 0.943310
O O7 0.500000 0.856971 0.000000
O O8 0.225295 0.836631 0.188102
O O9 0.000000 0.884097 0.118302
O O10 0.225979 0.000000 0.147589
O O11 0.500000 0.905609 0.332707
O O12 0.768486 0.843538 0.291012
O O13 0.726734 0.844423 0.394128
O O14 0.774517 0.000000 0.343880
O O15 0.500000 0.790880 0.238242
O O16 0.763850 0.685394 0.247794
O O17 0.725452 0.816601 0.500000
O O18 0.000000 0.811283 0.555887
O O19 0.500000 0.400440 0.280774
O O20 0.234204 0.500000 0.264495
#
# Coordination Sequence:
#
# PCOD9381416 Si02
#       7
#     8   4   8   8   8   8   8
#     4   9  17  33  56  76  93 117 155 202 251 306
#     4   9  18  34  54  76 109 151 190 228 264 299
#     4  10  20  32  49  77 111 147 186 224 262 305
#     4  10  21  36  55  76  94 121 164 212 261 310
#     4  10  17  30  53  76 105 137 165 209 263 312
#     4  11  24  38  50  67  95 128 161 203 255 314
#     4   8  14  26  48  76 101 127 160 199 251 313
#
# _framework density 17.468495999999998
#
# number of rings (size 3 to 8) (size 9 to 14) (size 15 to 20)
#    0.000    2.385    2.308    1.846    0.000    4.000 
#    0.000    4.615    0.000    0.462    0.000    0.000 
#    0.000    1.231    0.000    1.385    0.000    0.154 
#
# Total GULP energy -290078.706512 kJ/mol
# GULP energy per Si atom -5578.436664 kJ/mol
# Density = 1.742874 g / cm^3
# Si number density = 17.468496 Si / 1000 Ang^3
#
#
#
# Elastic Constant Matrix: (Units=GPa)
#
#
# Indices 1 2 3 4 5 6 
#
# 1 43.9083 19.4299 29.9430 0.0000 0.0000 0.0000
# 2 19.4299 97.7351 57.3386 0.0000 0.0000 0.0000
# 3 29.9430 57.3386 128.8143 0.0000 0.0000 0.0000
# 4 0.0000 0.0000 0.0000 11.9163 0.0000 0.0000
# 5 0.0000 0.0000 0.0000 0.0000 44.1299 0.0000
# 6 0.0000 0.0000 0.0000 0.0000 0.0000 2.4226
#
#
#
# Elastic Compliance Matrix: (Units=1/GPa)
#
#
# Indices 1 2 3 4 5 6 
#
# 1 0.027448 -0.002319 -0.005348 0.000000 0.000000 0.000000
# 2 -0.002319 0.014044 -0.005712 0.000000 0.000000 0.000000
# 3 -0.005348 -0.005712 0.011549 0.000000 0.000000 0.000000
# 4 0.000000 0.000000 0.000000 0.083919 0.000000 0.000000
# 5 0.000000 0.000000 0.000000 0.000000 0.022660 0.000000
# 6 0.000000 0.000000 0.000000 0.000000 0.000000 0.412784
#
#
# Mechanical properties :
#
#
# Convention : Reuss Voigt Hill
#
# Bulk Modulus (GPa) = 38.04867 53.76452 45.90660
# Shear Modulus (GPa) = 8.22471 22.61015 15.41743
#
# Velocity S-wave (km/s) = 2.17222 3.60159 2.97406
# Velocity P-wave (km/s) = 5.30283 6.93831 6.17495
#
# Compressibility (1/GPa) = 0.02628212
#
# Stress axis : x y z
#
# Youngs Moduli (GPa) = 36.43245 71.20452 86.58796
#
# Poissons Ratio (x) = 0.16514 0.46307
# Poissons Ratio (y) = 0.08449 0.49461
# Poissons Ratio (z) = 0.19484 0.40674
#
# Static dielectric constant tensor:
#      x y z
#    x 1.633870 0.000000 0.000000 
#    y 0.000000 1.604620 0.000000 
#    z 0.000000 0.000000 1.568920 
# 
# From -- ./inp_files/29586.got.cif
#   From: 2010.05.17/outbox.cif.g08.bks.cpg/sg47_15_cif.got.tgz:29586.got - 2010.06.03 20:15:42.
