data_PCOD9381570
_publ_section_title
;
Structure prediction by ZEFSAII (Michael W. Deem and Ramdas Pophale) SiO2 
 PCOD9381570
Probable space group: P M M M
;
_chemical_formula_sum "Si O2"
_cell_formula_units_Z 60
_cell_length_a 9.287464
_cell_length_b 18.235098
_cell_length_c 23.697119
_cell_angle_alpha 90.000000
_cell_angle_beta 90.000000
_cell_angle_gamma 90.000000
_cell_volume 4013.292324
_symmetry_space_group_name_H-M "P M M M"
_symmetry_group_IT_number 47
_symmetry_cell_setting 'orthorhombic'
loop_
_space_group_symop_operation_xyz
x,y,z
-x,-y,z
x,-y,-z
-x,y,-z
-x,-y,-z
x,y,-z
-x,y,z
x,-y,z
loop_
_atom_site_type_symbol
_atom_site_label
_atom_site_fract_x
_atom_site_fract_y
_atom_site_fract_z
Si Si1 0.337248 0.718512 0.709826
Si Si2 0.173150 0.915154 0.204549
Si Si3 0.334110 0.911886 0.437464
Si Si4 0.668132 0.500000 0.067565
Si Si5 0.831247 0.634416 0.126064
Si Si6 0.828906 0.144140 0.328679
Si Si7 0.333891 0.775795 0.839445
Si Si8 0.834732 0.585407 0.257198
O O1 0.500000 0.723110 0.688686
O O2 0.232712 0.774498 0.678841
O O3 0.337450 0.744652 0.775288
O O4 0.274011 0.637343 0.710034
O O5 0.209801 0.898974 0.270566
O O6 0.254485 0.854210 0.167023
O O7 0.000000 0.905153 0.199003
O O8 0.207714 0.000000 0.191455
O O9 0.285368 0.886902 0.500000
O O10 0.500000 0.887803 0.429635
O O11 0.239813 0.888324 0.384783
O O12 0.334788 0.000000 0.438535
O O13 0.500000 0.500000 0.085810
O O14 0.748034 0.572679 0.090495
O O15 0.672432 0.500000 0.000000
O O16 0.753753 0.713939 0.125895
O O17 0.826532 0.605876 0.190864
O O18 0.000000 0.639785 0.110117
O O19 0.000000 0.143670 0.332431
O O20 0.500000 0.782788 0.858365
O O21 0.803800 0.500000 0.263769
O O22 0.000000 0.599947 0.274483
#
# Coordination Sequence:
#
# PCOD9381570 Si02
#       8
#     8   8   8   4   8   8   8   8
#     4   9  17  27  39  58  82 110 142 174 210 254
#     4   9  17  28  41  60  87 118 150 183 220 263
#     4   9  18  31  44  58  78 105 137 174 215 257
#     4  11  23  35  47  67  95 123 153 191 226 255
#     4  10  18  31  48  65  86 118 154 184 219 261
#     4  10  18  28  42  59  81 111 143 178 218 257
#     4   9  17  28  42  62  86 114 147 183 221 261
#     4   9  16  27  42  62  86 112 143 176 211 250
#
# _framework density 14.95032
#
# number of rings (size 3 to 8) (size 9 to 14) (size 15 to 20)
#    0.000    2.600    0.667    2.600    0.000    6.400 
#    0.000    0.667    0.000    0.000    0.000    0.000 
#    0.000    1.067    0.000   11.200    0.000    4.800 
#
# Total GULP energy -334192.943766 kJ/mol
# GULP energy per Si atom -5569.882396 kJ/mol
# Density = 1.491629 g / cm^3
# Si number density = 14.950320 Si / 1000 Ang^3
#
#
#
# Elastic Constant Matrix: (Units=GPa)
#
#
# Indices 1 2 3 4 5 6 
#
# 1 88.4716 62.0175 31.1126 0.0000 0.0000 0.0000
# 2 62.0175 107.2455 25.8648 0.0000 0.0000 0.0000
# 3 31.1126 25.8648 31.0259 0.0000 0.0000 0.0000
# 4 0.0000 0.0000 0.0000 11.5502 0.0000 0.0000
# 5 0.0000 0.0000 0.0000 0.0000 16.8102 0.0000
# 6 0.0000 0.0000 0.0000 0.0000 0.0000 27.5858
#
#
#
# Elastic Compliance Matrix: (Units=1/GPa)
#
#
# Indices 1 2 3 4 5 6 
#
# 1 0.023765 -0.010007 -0.015489 0.000000 0.000000 0.000000
# 2 -0.010007 0.015885 -0.003207 0.000000 0.000000 0.000000
# 3 -0.015489 -0.003207 0.050437 0.000000 0.000000 0.000000
# 4 0.000000 0.000000 0.000000 0.086579 0.000000 0.000000
# 5 0.000000 0.000000 0.000000 0.000000 0.059488 0.000000
# 6 0.000000 0.000000 0.000000 0.000000 0.000000 0.036251
#
#
# Mechanical properties :
#
#
# Convention : Reuss Voigt Hill
#
# Bulk Modulus (GPa) = 30.59956 51.63696 41.11826
# Shear Modulus (GPa) = 14.67553 18.37246 16.52400
#
# Velocity S-wave (km/s) = 3.13648 3.50937 3.32815
# Velocity P-wave (km/s) = 5.79902 7.14387 6.50629
#
# Compressibility (1/GPa) = 0.03268021
#
# Stress axis : x y z
#
# Youngs Moduli (GPa) = 42.07897 62.95328 19.82672
#
# Poissons Ratio (x) = 0.62998 0.30709
# Poissons Ratio (y) = 0.42109 0.06359
# Poissons Ratio (z) = 0.65175 0.20191
#
# Static dielectric constant tensor:
#      x y z
#    x 1.508570 0.000000 0.000000 
#    y 0.000000 1.492970 0.000000 
#    z 0.000000 0.000000 1.472100 
# 
# From -- ./inp_files/10219.got.cif
#   From: 2010.05.17/outbox.cif.g08.bks.cpg/sg47_6_cif.got.tgz:10219.got - 2010.06.03 20:15:42.
