data_PCOD9381014
_publ_section_title
;
Structure prediction by ZEFSAII (Michael W. Deem and Ramdas Pophale) SiO2 
 PCOD9381014
Probable space group: I M A 2
;
_chemical_formula_sum "Si O2"
_cell_formula_units_Z 44
_cell_length_a 14.198102
_cell_length_b 24.020862
_cell_length_c 7.304432
_cell_angle_alpha 90.000000
_cell_angle_beta 90.000000
_cell_angle_gamma 90.000000
_cell_volume 2491.181273
_symmetry_space_group_name_H-M "I M A 2"
_symmetry_group_IT_number 46
_symmetry_cell_setting 'orthorhombic'
loop_
_space_group_symop_operation_xyz
x,y,z
-x,-y,z
1/2-x,y,z
1/2+x,-y,z
1/2+x,1/2+y,1/2+z
1/2-x,1/2-y,1/2+z
-x,1/2+y,1/2+z
x,1/2-y,1/2+z
loop_
_atom_site_type_symbol
_atom_site_label
_atom_site_fract_x
_atom_site_fract_y
_atom_site_fract_z
Si Si1 0.750000 0.998658 0.510830
Si Si2 0.463089 0.562461 0.567282
Si Si3 0.250000 0.460348 0.387889
Si Si4 0.250000 0.205369 0.739962
Si Si5 0.250000 0.168363 0.318169
Si Si6 0.750000 0.450767 0.655936
Si Si7 0.412473 0.126788 0.803622
Si Si8 0.909388 0.910400 0.400428
O O1 0.841531 0.961297 0.460706
O O2 0.750000 0.007039 0.728582
O O3 0.750000 0.050399 0.375215
O O4 0.500000 0.500000 0.507599
O O5 0.350589 0.567939 0.580092
O O6 0.502309 0.610892 0.435314
O O7 0.507996 0.570400 0.768500
O O8 0.250000 0.484679 0.588876
O O9 0.161385 0.422012 0.350763
O O10 0.250000 0.178872 0.537521
O O11 0.250000 0.271501 0.728616
O O12 0.347002 0.181664 0.827695
O O13 0.157371 0.131844 0.286084
O O14 0.439662 0.119097 0.590025
#
# Coordination Sequence:
#
# PCOD9381014 Si02
#       8
#     4   8   4   4   4   4   8   8
#     4   9  16  29  48  67  99 137 171 213 251 303
#     4  12  22  32  52  72 104 152 184 222 262 313
#     4   9  16  29  48  67  99 137 171 213 251 303
#     4   9  19  33  56  88 112 136 172 222 282 336
#     4   9  19  33  56  88 112 136 172 222 282 336
#     4  12  22  32  42  78  96 132 202 204 250 310
#     4   9  19  34  49  73 110 142 171 217 272 322
#     4   9  19  34  49  73 110 142 171 217 272 322
#
# _framework density 17.662303000000001
#
# number of rings (size 3 to 8) (size 9 to 14) (size 15 to 20)
#    0.000    2.182    3.636    2.182    2.545    3.636 
#    0.000    0.000    0.000    0.000    0.000    1.273 
#    0.000    0.000    0.000    0.000    0.000    0.000 
#
# Total GULP energy -122597.337269 kJ/mol
# GULP energy per Si atom -5572.606240 kJ/mol
# Density = 1.762210 g / cm^3
# Si number density = 17.662303 Si / 1000 Ang^3
#
#
#
# Elastic Constant Matrix: (Units=GPa)
#
#
# Indices 1 2 3 4 5 6 
#
# 1 116.8923 20.3719 22.8482 0.0006 -0.0008 0.0002
# 2 20.3719 42.5867 6.5924 0.0003 -0.0004 0.0000
# 3 22.8482 6.5924 57.7501 0.0000 0.0030 -0.0007
# 4 0.0006 0.0003 0.0000 19.9433 -0.0001 -0.0002
# 5 -0.0008 -0.0004 0.0030 -0.0001 -4.9971 0.0008
# 6 0.0002 0.0000 -0.0007 -0.0002 0.0008 8.0045
#
#
#
# Elastic Compliance Matrix: (Units=1/GPa)
#
#
# Indices 1 2 3 4 5 6 
#
# 1 0.009969 -0.004233 -0.003461 0.000000 -0.000003 -0.000001
# 2 -0.004233 0.025701 -0.001259 0.000000 -0.000002 0.000000
# 3 -0.003461 -0.001259 0.018829 0.000000 0.000012 0.000002
# 4 0.000000 0.000000 0.000000 0.050142 -0.000001 0.000001
# 5 -0.000003 -0.000002 0.000012 -0.000001 -0.200115 0.000019
# 6 -0.000001 0.000000 0.000002 0.000001 0.000019 0.124930
#
#
# Mechanical properties :
#
#
# Convention : Reuss Voigt Hill
#
# Bulk Modulus (GPa) = 27.32751 35.20602 31.26677
# Shear Modulus (GPa) = 83.94735 15.75123 49.84929
#
# Velocity S-wave (km/s) = 6.90162 2.98954 5.31835
# Velocity P-wave (km/s) = 8.88907 5.64735 7.44675
#
# Compressibility (1/GPa) = 0.03659316
#
# Stress axis : x y z
#
# Youngs Moduli (GPa) = 100.30974 38.90840 53.10958
#
# Poissons Ratio (x) = 0.16470 0.18381
# Poissons Ratio (y) = 0.42462 0.06687
# Poissons Ratio (z) = 0.34717 0.04899
#
# Static dielectric constant tensor:
#      x y z
#    x 1.629680 0.000000 0.000000 
#    y 0.000000 1.604190 0.000000 
#    z 0.000000 0.000000 1.670950 
# 
# From -- ./inp_files/4692.got.cif
#   From: 2010.05.17/outbox.cif.g08.bks.cpg/sg46_3_cif.got.tgz:4692.got - 2010.06.03 19:58:25.
