data_PCOD9381395
_publ_section_title
;
Structure prediction by ZEFSAII (Michael W. Deem and Ramdas Pophale) SiO2 
 PCOD9381395
Probable space group: P M M M
;
_chemical_formula_sum "Si O2"
_cell_formula_units_Z 44
_cell_length_a 19.959725
_cell_length_b 14.028491
_cell_length_c 7.509878
_cell_angle_alpha 90.000000
_cell_angle_beta 90.000000
_cell_angle_gamma 90.000000
_cell_volume 2102.802057
_symmetry_space_group_name_H-M "P M M M"
_symmetry_group_IT_number 47
_symmetry_cell_setting 'orthorhombic'
loop_
_space_group_symop_operation_xyz
x,y,z
-x,-y,z
x,-y,-z
-x,y,-z
-x,-y,-z
x,y,-z
-x,y,z
x,-y,z
loop_
_atom_site_type_symbol
_atom_site_label
_atom_site_fract_x
_atom_site_fract_y
_atom_site_fract_z
Si Si1 0.684227 0.606338 0.286653
Si Si2 0.838072 0.392863 0.714940
Si Si3 0.925244 0.212770 0.208153
Si Si4 0.577347 0.000000 0.217962
Si Si5 0.203413 0.891074 0.782660
Si Si6 0.657965 0.187683 0.787285
O O1 0.687440 0.601305 0.500000
O O2 0.662503 0.500000 0.224635
O O3 0.761207 0.621384 0.221977
O O4 0.641803 0.701271 0.245920
O O5 0.837107 0.386823 0.500000
O O6 0.857553 0.500000 0.764848
O O7 0.890585 0.315886 0.781103
O O8 0.868169 0.144016 0.285363
O O9 0.000000 0.210195 0.284876
O O10 0.931256 0.187727 0.000000
O O11 0.613050 0.098658 0.277033
O O12 0.500000 0.000000 0.271132
O O13 0.579686 0.000000 0.000000
O O14 0.266453 0.830038 0.718944
O O15 0.216074 0.000000 0.737043
O O16 0.202119 0.884361 0.000000
O O17 0.659212 0.177349 0.000000
#
# Coordination Sequence:
#
# PCOD9381395 Si02
#       6
#     8   8   8   4   8   8
#     4   9  18  32  50  74 103 132 166 212 259 297
#     4   9  18  32  48  65  88 122 161 200 247 300
#     4  10  20  31  44  65  92 122 158 204 252 290
#     4   9  18  32  53  85 118 140 161 198 249 296
#     4   9  16  28  46  68  93 121 158 199 239 290
#     4  10  17  29  53  79 102 133 169 203 242 292
#
# _framework density 20.924461000000001
#
# number of rings (size 3 to 8) (size 9 to 14) (size 15 to 20)
#    0.000    2.636    2.727    1.091    0.000    1.818 
#    0.000    5.909    0.000    3.273    0.000    5.091 
#    0.000    0.000    0.000    0.000    0.000    0.000 
#
# Total GULP energy -245281.569868 kJ/mol
# GULP energy per Si atom -5574.581133 kJ/mol
# Density = 2.087684 g / cm^3
# Si number density = 20.924461 Si / 1000 Ang^3
#
#
#
# Elastic Constant Matrix: (Units=GPa)
#
#
# Indices 1 2 3 4 5 6 
#
# 1 71.7451 65.2844 7.7750 0.0000 0.0000 0.0000
# 2 65.2844 169.1847 -3.4731 0.0000 0.0000 0.0000
# 3 7.7750 -3.4731 54.9839 0.0000 0.0000 0.0000
# 4 0.0000 0.0000 0.0000 33.4287 0.0000 0.0000
# 5 0.0000 0.0000 0.0000 0.0000 1.3543 0.0000
# 6 0.0000 0.0000 0.0000 0.0000 0.0000 19.0739
#
#
#
# Elastic Compliance Matrix: (Units=1/GPa)
#
#
# Indices 1 2 3 4 5 6 
#
# 1 0.022202 -0.008643 -0.003685 0.000000 0.000000 0.000000
# 2 -0.008643 0.009283 0.001809 0.000000 0.000000 0.000000
# 3 -0.003685 0.001809 0.018823 0.000000 0.000000 0.000000
# 4 0.000000 0.000000 0.000000 0.029914 0.000000 0.000000
# 5 0.000000 0.000000 0.000000 0.000000 0.738401 0.000000
# 6 0.000000 0.000000 0.000000 0.000000 0.000000 0.052428
#
#
# Mechanical properties :
#
#
# Convention : Reuss Voigt Hill
#
# Bulk Modulus (GPa) = 34.16712 48.34293 41.25502
# Shear Modulus (GPa) = 5.54418 25.85987 15.70202
#
# Velocity S-wave (km/s) = 1.62953 3.51930 2.74234
# Velocity P-wave (km/s) = 4.46147 6.29823 5.45768
#
# Compressibility (1/GPa) = 0.02926790
#
# Stress axis : x y z
#
# Youngs Moduli (GPa) = 45.04030 107.72425 53.12784
#
# Poissons Ratio (x) = 0.93106 0.19580
# Poissons Ratio (y) = 0.38928 -0.09608
# Poissons Ratio (z) = 0.16600 -0.19482
#
# Static dielectric constant tensor:
#      x y z
#    x 1.731510 0.000000 0.000000 
#    y 0.000000 1.783440 0.000000 
#    z 0.000000 0.000000 1.783060 
# 
# From -- ./inp_files/18423.got.cif
#   From: 2010.05.17/outbox.cif.g08.bks.cpg/sg47_10_cif.got.tgz:18423.got - 2010.06.03 20:15:42.
