data_PCOD9381837
_publ_section_title
;
Structure prediction by ZEFSAII (Michael W. Deem and Ramdas Pophale) SiO2 
 PCOD9381837
Probable space group: P M M M
;
_chemical_formula_sum "Si O2"
_cell_formula_units_Z 52
_cell_length_a 7.929909
_cell_length_b 13.158718
_cell_length_c 27.430339
_cell_angle_alpha 90.000000
_cell_angle_beta 90.000000
_cell_angle_gamma 90.000000
_cell_volume 2862.285551
_symmetry_space_group_name_H-M "P M M M"
_symmetry_group_IT_number 47
_symmetry_cell_setting 'orthorhombic'
loop_
_space_group_symop_operation_xyz
x,y,z
-x,-y,z
x,-y,-z
-x,y,-z
-x,-y,-z
x,y,-z
-x,y,z
x,-y,z
loop_
_atom_site_type_symbol
_atom_site_label
_atom_site_fract_x
_atom_site_fract_y
_atom_site_fract_z
Si Si1 0.296367 0.384419 0.881444
Si Si2 0.797289 0.805762 0.707643
Si Si3 0.703022 0.385286 0.770787
Si Si4 0.206468 0.000000 0.770146
Si Si5 0.299671 0.115945 0.500000
Si Si6 0.202547 0.882684 0.395128
Si Si7 0.797970 0.806915 0.944783
Si Si8 0.793221 0.000000 0.117602
O O1 0.500000 0.384348 0.881377
O O2 0.241545 0.500000 0.892796
O O3 0.239296 0.359963 0.826038
O O4 0.238220 0.299847 0.919023
O O5 0.753901 0.699699 0.732536
O O6 0.735523 0.822727 0.652370
O O7 0.000000 0.812911 0.706302
O O8 0.737612 0.899426 0.741316
O O9 0.500000 0.387768 0.772256
O O10 0.761667 0.500000 0.759321
O O11 0.261527 0.000000 0.826226
O O12 0.000000 0.000000 0.770014
O O13 0.500000 0.110204 0.500000
O O14 0.246784 0.161335 0.551835
O O15 0.228081 0.000000 0.500000
O O16 0.000000 0.887066 0.392549
O O17 0.265266 0.000000 0.392527
O O18 0.736119 0.899676 0.911242
O O19 0.000000 0.818356 0.947478
O O20 0.731375 0.811330 0.000000
O O21 0.000000 0.000000 0.118118
#
# Coordination Sequence:
#
# PCOD9381837 Si02
#       8
#     8   8   8   4   4   8   8   4
#     4   9  19  36  54  70  92 123 157 193 238 291
#     4  10  18  29  48  74 101 127 159 198 237 283
#     4   9  19  35  51  68  94 127 160 196 239 285
#     4   9  16  27  45  71  99 124 153 190 233 280
#     4   9  17  27  41  63  92 129 172 209 235 271
#     4   9  16  28  44  65  97 133 163 194 238 285
#     4  10  20  33  50  73  97 121 154 195 237 282
#     4   9  17  30  48  68  95 129 156 184 229 282
#
# _framework density 18.167300999999998
#
# number of rings (size 3 to 8) (size 9 to 14) (size 15 to 20)
#    0.000    2.692    0.769    2.308    0.000    5.538 
#    0.000    3.846    0.000    3.692    0.000    0.538 
#    0.000    4.308    0.000    0.000    0.000    0.000 
#
# Total GULP energy -289975.645384 kJ/mol
# GULP energy per Si atom -5576.454719 kJ/mol
# Density = 1.812595 g / cm^3
# Si number density = 18.167301 Si / 1000 Ang^3
#
#
#
# Elastic Constant Matrix: (Units=GPa)
#
#
# Indices 1 2 3 4 5 6 
#
# 1 14.4250 3.6187 12.5382 0.0000 0.0000 0.0000
# 2 3.6187 95.2141 92.3987 0.0000 0.0000 0.0000
# 3 12.5382 92.3987 198.3943 0.0000 0.0000 0.0000
# 4 0.0000 0.0000 0.0000 2.2880 0.0000 0.0000
# 5 0.0000 0.0000 0.0000 0.0000 12.9477 0.0000
# 6 0.0000 0.0000 0.0000 0.0000 0.0000 36.6861
#
#
#
# Elastic Compliance Matrix: (Units=1/GPa)
#
#
# Indices 1 2 3 4 5 6 
#
# 1 0.073866 0.003144 -0.006132 0.000000 0.000000 0.000000
# 2 0.003144 0.019298 -0.009186 0.000000 0.000000 0.000000
# 3 -0.006132 -0.009186 0.009706 0.000000 0.000000 0.000000
# 4 0.000000 0.000000 0.000000 0.437068 0.000000 0.000000
# 5 0.000000 0.000000 0.000000 0.000000 0.077234 0.000000
# 6 0.000000 0.000000 0.000000 0.000000 0.000000 0.027258
#
#
# Mechanical properties :
#
#
# Convention : Reuss Voigt Hill
#
# Bulk Modulus (GPa) = 12.73559 58.34938 35.54249
# Shear Modulus (GPa) = 7.19473 23.68288 15.43881
#
# Velocity S-wave (km/s) = 1.99220 3.61446 2.91832
# Velocity P-wave (km/s) = 3.50959 7.04319 5.56434
#
# Compressibility (1/GPa) = 0.07852012
#
# Stress axis : x y z
#
# Youngs Moduli (GPa) = 13.53806 51.81931 103.02516
#
# Poissons Ratio (x) = -0.16290 0.63178
# Poissons Ratio (y) = -0.04256 0.94642
# Poissons Ratio (z) = 0.08302 0.47603
#
# Static dielectric constant tensor:
#      x y z
#    x 1.659420 0.000000 0.000000 
#    y 0.000000 1.599560 0.000000 
#    z 0.000000 0.000000 1.639960 
# 
# From -- ./inp_files/15536.got.cif
#   From: 2010.05.17/outbox.cif.g08.bks.cpg/sg47_8_cif.got.tgz:15536.got - 2010.06.03 20:15:42.
