data_PCOD9381379
_publ_section_title
;
Structure prediction by ZEFSAII (Michael W. Deem and Ramdas Pophale) SiO2 
 PCOD9381379
Probable space group: P M M M
;
_chemical_formula_sum "Si O2"
_cell_formula_units_Z 56
_cell_length_a 7.969993
_cell_length_b 16.032282
_cell_length_c 20.853861
_cell_angle_alpha 90.000000
_cell_angle_beta 90.000000
_cell_angle_gamma 90.000000
_cell_volume 2664.647453
_symmetry_space_group_name_H-M "P M M M"
_symmetry_group_IT_number 47
_symmetry_cell_setting 'orthorhombic'
loop_
_space_group_symop_operation_xyz
x,y,z
-x,-y,z
x,-y,-z
-x,y,-z
-x,-y,-z
x,y,-z
-x,y,z
x,-y,z
loop_
_atom_site_type_symbol
_atom_site_label
_atom_site_fract_x
_atom_site_fract_y
_atom_site_fract_z
Si Si1 0.205113 0.270607 0.428244
Si Si2 0.692774 0.304704 0.209295
Si Si3 0.204960 0.090517 0.381067
Si Si4 0.196512 0.725004 0.069771
Si Si5 0.694668 0.090663 0.097953
Si Si6 0.797256 0.593269 0.324696
Si Si7 0.806986 0.125377 0.763296
O O1 0.254270 0.295670 0.500000
O O2 0.261129 0.175718 0.414447
O O3 0.262359 0.335820 0.374341
O O4 0.000000 0.269895 0.425921
O O5 0.500000 0.282141 0.219983
O O6 0.720883 0.312773 0.133288
O O7 0.739565 0.382095 0.253487
O O8 0.800205 0.225791 0.233354
O O9 0.252675 0.096927 0.306122
O O10 0.000000 0.091663 0.383029
O O11 0.258659 0.000000 0.406819
O O12 0.215702 0.825638 0.074901
O O13 0.000000 0.705294 0.072416
O O14 0.264173 0.699472 0.000000
O O15 0.500000 0.096624 0.079142
O O16 0.706768 0.094386 0.175238
O O17 0.760449 0.000000 0.077291
O O18 0.741920 0.500000 0.341979
O O19 0.000000 0.594559 0.325731
O O20 0.000000 0.098897 0.771224
#
# Coordination Sequence:
#
# PCOD9381379 Si02
#       7
#     8   8   8   8   8   8   8
#     4   9  17  30  49  77 114 149 183 228 279 330
#     4  11  21  34  56  82 110 142 178 223 277 331
#     4   9  16  25  42  71 106 143 182 227 277 324
#     4  10  21  36  55  78 105 142 186 228 274 331
#     4  10  20  31  44  68 104 143 185 234 285 334
#     4  10  20  36  59  85 112 143 181 226 277 332
#     4  10  17  29  49  71 101 139 185 234 280 329
#
# _framework density 21.015912
#
# number of rings (size 3 to 8) (size 9 to 14) (size 15 to 20)
#    0.000    2.143    1.429    4.714    0.000    4.000 
#    0.000    4.286    0.000    0.857    0.000    4.000 
#    0.000    1.143    0.000    0.000    0.000    0.000 
#
# Total GULP energy -312647.766134 kJ/mol
# GULP energy per Si atom -5582.995824 kJ/mol
# Density = 2.096808 g / cm^3
# Si number density = 21.015912 Si / 1000 Ang^3
#
#
#
# Elastic Constant Matrix: (Units=GPa)
#
#
# Indices 1 2 3 4 5 6 
#
# 1 33.8930 7.3699 5.3187 0.0000 0.0000 0.0000
# 2 7.3699 111.1022 56.5349 0.0000 0.0000 0.0000
# 3 5.3187 56.5349 116.5933 0.0000 0.0000 0.0000
# 4 0.0000 0.0000 0.0000 -13.5772 0.0000 0.0000
# 5 0.0000 0.0000 0.0000 0.0000-1607.6445 0.0000
# 6 0.0000 0.0000 0.0000 0.0000 0.0000 -96.8384
#
#
#
# Elastic Compliance Matrix: (Units=1/GPa)
#
#
# Indices 1 2 3 4 5 6 
#
# 1 0.029962 -0.001715 -0.000535 0.000000 0.000000 0.000000
# 2 -0.001715 0.012047 -0.005763 0.000000 0.000000 0.000000
# 3 -0.000535 -0.005763 0.011396 0.000000 0.000000 0.000000
# 4 0.000000 0.000000 0.000000 -0.073653 0.000000 0.000000
# 5 0.000000 0.000000 0.000000 0.000000 -0.000622 0.000000
# 6 0.000000 0.000000 0.000000 0.000000 0.000000 -0.010326
#
#
# Mechanical properties :
#
#
# Convention : Reuss Voigt Hill
#
# Bulk Modulus (GPa) = 26.75422 44.44841 35.60131
# Shear Modulus (GPa) = -1844.71079 -330.78770 -1087.74925
#
# Velocity S-wave (km/s) = -29.65930 -12.55947 -22.77515
# Velocity P-wave (km/s) = 34.06084 13.75226 25.97369
#
# Compressibility (1/GPa) = 0.03737728
#
# Stress axis : x y z
#
# Youngs Moduli (GPa) = 33.37615 83.00689 87.75162
#
# Poissons Ratio (x) = 0.14237 0.04696
# Poissons Ratio (y) = 0.05725 0.50574
# Poissons Ratio (z) = 0.01786 0.47839
#
# Static dielectric constant tensor:
#      x y z
#    x 1.730370 0.000000 0.000000 
#    y 0.000000 1.761290 0.000000 
#    z 0.000000 0.000000 1.763130 
# 
# From -- ./inp_files/29701.got.cif
#   From: 2010.05.17/outbox.cif.g08.bks.cpg/sg47_15_cif.got.tgz:29701.got - 2010.06.03 20:15:42.
