data_PCOD9381222
_publ_section_title
;
Structure prediction by ZEFSAII (Michael W. Deem and Ramdas Pophale) SiO2 
 PCOD9381222
Probable space group: P M M M
;
_chemical_formula_sum "Si O2"
_cell_formula_units_Z 60
_cell_length_a 7.310067
_cell_length_b 15.339789
_cell_length_c 25.617740
_cell_angle_alpha 90.000000
_cell_angle_beta 90.000000
_cell_angle_gamma 90.000000
_cell_volume 2872.642338
_symmetry_space_group_name_H-M "P M M M"
_symmetry_group_IT_number 47
_symmetry_cell_setting 'orthorhombic'
loop_
_space_group_symop_operation_xyz
x,y,z
-x,-y,z
x,-y,-z
-x,y,-z
-x,-y,-z
x,y,-z
-x,y,z
x,-y,z
loop_
_atom_site_type_symbol
_atom_site_label
_atom_site_fract_x
_atom_site_fract_y
_atom_site_fract_z
Si Si1 0.723191 0.898934 0.500000
Si Si2 0.722722 0.903667 0.813559
Si Si3 0.715617 0.721281 0.844278
Si Si4 0.276806 0.782989 0.401469
Si Si5 0.722667 0.401465 0.247798
Si Si6 0.780484 0.598073 0.058854
Si Si7 0.722638 0.402007 0.368413
Si Si8 0.277994 0.901888 0.692994
O O1 0.500000 0.901005 0.500000
O O2 0.780197 0.843957 0.550703
O O3 0.782200 0.000000 0.500000
O O4 0.500000 0.906984 0.814746
O O5 0.785761 0.819975 0.845677
O O6 0.775616 0.888625 0.752994
O O7 0.785707 0.000000 0.829469
O O8 0.500000 0.728919 0.833976
O O9 0.789448 0.666698 0.795017
O O10 0.734299 0.667066 0.897028
O O11 0.500000 0.782538 0.401939
O O12 0.218944 0.681948 0.401544
O O13 0.218208 0.829456 0.347792
O O14 0.500000 0.399260 0.247761
O O15 0.776320 0.500000 0.233179
O O16 0.776353 0.386445 0.307850
O O17 0.716231 0.500000 0.072297
O O18 0.000000 0.594711 0.057011
O O19 0.717094 0.618958 0.000000
O O20 0.500000 0.403321 0.369328
O O21 0.781948 0.500000 0.383461
O O22 0.500000 0.900374 0.692643
O O23 0.223383 0.000000 0.676987
#
# Coordination Sequence:
#
# PCOD9381222 Si02
#       8
#     4   8   8   8   8   8   8   8
#     4   9  16  22  25  31  43  61  96 152 204 229
#     4   8  14  23  35  56  85 109 127 155 201 250
#     4  10  17  25  43  68  88 107 135 172 209 241
#     4   9  14  19  26  34  47  72 108 148 188 228
#     4   8  13  20  31  52  79  97 111 143 193 240
#     4   9  19  35  50  63  84 114 141 164 197 243
#     4   8  13  20  28  38  56  82 106 130 172 231
#     4   8  12  18  29  44  63  89 117 143 181 238
#
# _framework density 20.886693999999999
#
# number of rings (size 3 to 8) (size 9 to 14) (size 15 to 20)
#    0.000    3.400    0.000    3.600    0.000    5.867 
#    0.000    1.000    0.000    2.800    0.000    2.800 
#    0.000    0.000    0.000    0.000    0.000    0.000 
#
# Total GULP energy -334726.179417 kJ/mol
# GULP energy per Si atom -5578.769657 kJ/mol
# Density = 2.083915 g / cm^3
# Si number density = 20.886694 Si / 1000 Ang^3
#
#
#
# Elastic Constant Matrix: (Units=GPa)
#
#
# Indices 1 2 3 4 5 6 
#
# 1 82.0360 4.9226 -3.1479 0.0000 0.0000 0.0000
# 2 4.9226 229.2933 102.3209 0.0000 0.0000 0.0000
# 3 -3.1479 102.3209 69.8464 0.0000 0.0000 0.0000
# 4 0.0000 0.0000 0.0000 32.6330 0.0000 0.0000
# 5 0.0000 0.0000 0.0000 0.0000 17.6554 0.0000
# 6 0.0000 0.0000 0.0000 0.0000 0.0000 20.6603
#
#
#
# Elastic Compliance Matrix: (Units=1/GPa)
#
#
# Indices 1 2 3 4 5 6 
#
# 1 0.012384 -0.001487 0.002737 0.000000 0.000000 0.000000
# 2 -0.001487 0.012773 -0.018779 0.000000 0.000000 0.000000
# 3 0.002737 -0.018779 0.041951 0.000000 0.000000 0.000000
# 4 0.000000 0.000000 0.000000 0.030644 0.000000 0.000000
# 5 0.000000 0.000000 0.000000 0.000000 0.056640 0.000000
# 6 0.000000 0.000000 0.000000 0.000000 0.000000 0.048402
#
#
# Mechanical properties :
#
#
# Convention : Reuss Voigt Hill
#
# Bulk Modulus (GPa) = 31.20235 65.48521 48.34378
# Shear Modulus (GPa) = 20.11788 32.66176 26.38982
#
# Velocity S-wave (km/s) = 3.10690 3.95873 3.55840
# Velocity P-wave (km/s) = 5.27653 7.23298 6.33079
#
# Compressibility (1/GPa) = 0.03204887
#
# Stress axis : x y z
#
# Youngs Moduli (GPa) = 80.74931 78.28917 23.83760
#
# Poissons Ratio (x) = 0.11642 -0.06523
# Poissons Ratio (y) = 0.12008 0.44765
# Poissons Ratio (z) = -0.22098 1.47019
#
# Static dielectric constant tensor:
#      x y z
#    x 1.752700 0.000000 0.000000 
#    y 0.000000 1.763110 0.000000 
#    z 0.000000 0.000000 1.699700 
# 
# From -- ./inp_files/32586.got.cif
#   From: 2010.05.17/outbox.cif.g08.bks.cpg/sg47_17_cif.got.tgz:32586.got - 2010.06.03 20:15:42.
