data_PCOD9381663
_publ_section_title
;
Structure prediction by ZEFSAII (Michael W. Deem and Ramdas Pophale) SiO2 
 PCOD9381663
Probable space group: P M M M
;
_chemical_formula_sum "Si O2"
_cell_formula_units_Z 64
_cell_length_a 14.849382
_cell_length_b 7.682724
_cell_length_c 32.577242
_cell_angle_alpha 90.000000
_cell_angle_beta 90.000000
_cell_angle_gamma 90.000000
_cell_volume 3716.532416
_symmetry_space_group_name_H-M "P M M M"
_symmetry_group_IT_number 47
_symmetry_cell_setting 'orthorhombic'
loop_
_space_group_symop_operation_xyz
x,y,z
-x,-y,z
x,-y,-z
-x,y,-z
-x,-y,-z
x,y,-z
-x,y,z
x,-y,z
loop_
_atom_site_type_symbol
_atom_site_label
_atom_site_fract_x
_atom_site_fract_y
_atom_site_fract_z
Si Si1 0.899351 0.787246 0.247934
Si Si2 0.714296 0.206300 0.213100
Si Si3 0.290360 0.292835 0.625127
Si Si4 0.395688 0.712481 0.453970
Si Si5 0.099918 0.790410 0.342910
Si Si6 0.602348 0.708153 0.867047
Si Si7 0.602994 0.290209 0.705127
Si Si8 0.390937 0.706450 0.955818
O O1 0.814941 0.723756 0.221526
O O2 0.885536 0.734350 0.295528
O O3 0.000000 0.732348 0.235320
O O4 0.899123 0.000000 0.247589
O O5 0.666036 0.261969 0.171465
O O6 0.653304 0.248508 0.252621
O O7 0.722127 0.000000 0.211077
O O8 0.305879 0.500000 0.624931
O O9 0.333324 0.224492 0.583050
O O10 0.184282 0.264612 0.630172
O O11 0.341122 0.223712 0.665793
O O12 0.370370 0.769762 0.500000
O O13 0.500000 0.760505 0.446547
O O14 0.393027 0.500000 0.454317
O O15 0.000000 0.730385 0.355662
O O16 0.098653 0.000000 0.342539
O O17 0.500000 0.773633 0.859294
O O18 0.595142 0.500000 0.871875
O O19 0.637145 0.776991 0.911234
O O20 0.500000 0.226642 0.704996
O O21 0.599866 0.500000 0.702351
O O22 0.500000 0.719519 0.955143
O O23 0.369399 0.500000 0.956775
O O24 0.360567 0.780369 0.000000
#
# Coordination Sequence:
#
# PCOD9381663 Si02
#       8
#     8   8   8   8   8   8   8   8
#     4   8  15  29  46  60  76 103 140 178 213 250
#     4  11  20  29  43  61  82 110 145 178 206 245
#     4  10  18  28  46  70  90 108 139 182 217 245
#     4   8  14  26  45  68  92 117 144 173 209 256
#     4   9  17  31  49  65  84 112 143 174 214 262
#     4   9  17  28  41  58  85 119 146 171 209 251
#     4  10  20  31  41  57  86 119 143 166 202 246
#     4   7  10  19  37  58  76 100 141 183 208 235
#
# _framework density 17.220351000000001
#
# number of rings (size 3 to 8) (size 9 to 14) (size 15 to 20)
#    0.000    3.000    1.250    3.375    0.000    3.750 
#    0.000    0.000    0.000    3.750    0.000    5.250 
#    0.000    0.500    0.000    6.250    0.000    0.250 
#
# Total GULP energy -356527.545269 kJ/mol
# GULP energy per Si atom -5570.742895 kJ/mol
# Density = 1.718116 g / cm^3
# Si number density = 17.220351 Si / 1000 Ang^3
#
#
#
# Elastic Constant Matrix: (Units=GPa)
#
#
# Indices 1 2 3 4 5 6 
#
# 1 121.6747 0.9484 96.7861 0.0000 0.0000 0.0000
# 2 0.9484 28.0497 6.9293 0.0000 0.0000 0.0000
# 3 96.7861 6.9293 171.8572 0.0000 0.0000 0.0000
# 4 0.0000 0.0000 0.0000 -16.5505 0.0000 0.0000
# 5 0.0000 0.0000 0.0000 0.0000 -6.1158 0.0000
# 6 0.0000 0.0000 0.0000 0.0000 0.0000 15.1450
#
#
#
# Elastic Compliance Matrix: (Units=1/GPa)
#
#
# Indices 1 2 3 4 5 6 
#
# 1 0.014958 0.001591 -0.008488 0.000000 0.000000 0.000000
# 2 0.001591 0.036179 -0.002355 0.000000 0.000000 0.000000
# 3 -0.008488 -0.002355 0.010694 0.000000 0.000000 0.000000
# 4 0.000000 0.000000 0.000000 -0.060421 0.000000 0.000000
# 5 0.000000 0.000000 0.000000 0.000000 -0.163510 0.000000
# 6 0.000000 0.000000 0.000000 0.000000 0.000000 0.066029
#
#
# Mechanical properties :
#
#
# Convention : Reuss Voigt Hill
#
# Bulk Modulus (GPa) = 23.08012 58.98989 41.03500
# Shear Modulus (GPa) = -79.20760 12.95693 -33.12534
#
# Velocity S-wave (km/s) = -6.78943 2.74600 -4.39066
# Velocity P-wave (km/s) = 6.93036 6.66216 1.35011
#
# Compressibility (1/GPa) = 0.04332734
#
# Stress axis : x y z
#
# Youngs Moduli (GPa) = 66.85273 27.64043 93.50907
#
# Poissons Ratio (x) = -0.04398 0.79373
# Poissons Ratio (y) = -0.10637 0.22020
# Poissons Ratio (z) = 0.56747 0.06509
#
# Static dielectric constant tensor:
#      x y z
#    x 1.615180 0.000000 0.000000 
#    y 0.000000 1.649420 0.000000 
#    z 0.000000 0.000000 1.621000 
# 
# From -- ./inp_files/34676.got.cif
#   From: 2010.05.17/outbox.cif.g08.bks.cpg/sg47_18_cif.got.tgz:34676.got - 2010.06.03 20:15:42.
