data_PCOD9381857
_publ_section_title
;
Structure prediction by ZEFSAII (Michael W. Deem and Ramdas Pophale) SiO2 
 PCOD9381857
Probable space group: P M M M
;
_chemical_formula_sum "Si O2"
_cell_formula_units_Z 52
_cell_length_a 7.805711
_cell_length_b 24.072748
_cell_length_c 14.764216
_cell_angle_alpha 90.000000
_cell_angle_beta 90.000000
_cell_angle_gamma 90.000000
_cell_volume 2774.268736
_symmetry_space_group_name_H-M "P M M M"
_symmetry_group_IT_number 47
_symmetry_cell_setting 'orthorhombic'
loop_
_space_group_symop_operation_xyz
x,y,z
-x,-y,z
x,-y,-z
-x,y,-z
-x,-y,-z
x,y,-z
-x,y,z
x,-y,z
loop_
_atom_site_type_symbol
_atom_site_label
_atom_site_fract_x
_atom_site_fract_y
_atom_site_fract_z
Si Si1 0.789114 0.378474 0.604916
Si Si2 0.800577 0.275489 0.720612
Si Si3 0.198498 0.500000 0.610008
Si Si4 0.792078 0.219528 0.899336
Si Si5 0.299942 0.828104 0.603403
Si Si6 0.800379 0.939744 0.298123
Si Si7 0.298966 0.909603 0.899473
O O1 0.739552 0.369286 0.500000
O O2 0.727789 0.328409 0.667899
O O3 0.728859 0.439818 0.635427
O O4 0.000000 0.379290 0.605068
O O5 0.726945 0.257304 0.817470
O O6 0.791089 0.221075 0.657512
O O7 0.000000 0.288708 0.736621
O O8 0.198163 0.500000 0.500000
O O9 0.000000 0.500000 0.639745
O O10 0.722070 0.157011 0.891333
O O11 0.000000 0.214975 0.892632
O O12 0.750137 0.240233 0.000000
O O13 0.237791 0.832824 0.500000
O O14 0.500000 0.813356 0.601739
O O15 0.282101 0.886456 0.655151
O O16 0.785688 0.934634 0.189427
O O17 0.000000 0.938081 0.322479
O O18 0.728737 0.000000 0.325405
O O19 0.500000 0.923506 0.896442
O O20 0.232977 0.925237 0.000000
#
# Coordination Sequence:
#
# PCOD9381857 Si02
#       7
#     8   8   4   8   8   8   8
#     4   8  13  21  36  62  94 126 161 201 243 286
#     4  10  18  29  49  74  97 125 161 201 244 289
#     4   7  10  18  32  54  90 128 158 197 245 283
#     4   9  17  29  46  69  97 127 158 194 239 290
#     4  11  24  39  54  73  98 127 158 197 247 297
#     4  11  24  40  57  76  97 125 162 201 241 288
#     4  10  20  34  54  78 102 128 157 193 240 292
#
# _framework density 18.743679
#
# number of rings (size 3 to 8) (size 9 to 14) (size 15 to 20)
#    0.000    2.385    1.538    2.769    0.000    4.615 
#    0.000    3.077    0.000    0.000    0.000    1.077 
#    0.000    7.385    0.000    0.000    0.000    8.846 
#
# Total GULP energy -290044.669172 kJ/mol
# GULP energy per Si atom -5577.782099 kJ/mol
# Density = 1.870102 g / cm^3
# Si number density = 18.743679 Si / 1000 Ang^3
#
#
#
# Elastic Constant Matrix: (Units=GPa)
#
#
# Indices 1 2 3 4 5 6 
#
# 1 26.5116 -7.1879 -3.9328 0.0000 0.0000 0.0000
# 2 -7.1879 124.9494 50.0644 0.0000 0.0000 0.0000
# 3 -3.9328 50.0644 97.2711 0.0000 0.0000 0.0000
# 4 0.0000 0.0000 0.0000 32.4399 0.0000 0.0000
# 5 0.0000 0.0000 0.0000 0.0000 14.6854 0.0000
# 6 0.0000 0.0000 0.0000 0.0000 0.0000 -61.1685
#
#
#
# Elastic Compliance Matrix: (Units=1/GPa)
#
#
# Indices 1 2 3 4 5 6 
#
# 1 0.038338 0.001996 0.000523 0.000000 0.000000 0.000000
# 2 0.001996 0.010186 -0.005162 0.000000 0.000000 0.000000
# 3 0.000523 -0.005162 0.012959 0.000000 0.000000 0.000000
# 4 0.000000 0.000000 0.000000 0.030826 0.000000 0.000000
# 5 0.000000 0.000000 0.000000 0.000000 0.068095 0.000000
# 6 0.000000 0.000000 0.000000 0.000000 0.000000 -0.016348
#
#
# Mechanical properties :
#
#
# Convention : Reuss Voigt Hill
#
# Bulk Modulus (GPa) = 17.79478 36.29106 27.04292
# Shear Modulus (GPa) = 29.74864 11.17726 20.46295
#
# Velocity S-wave (km/s) = 3.98820 2.44462 3.30771
# Velocity P-wave (km/s) = 5.54274 5.23183 5.38953
#
# Compressibility (1/GPa) = 0.05619627
#
# Stress axis : x y z
#
# Youngs Moduli (GPa) = 26.08373 98.16999 77.16901
#
# Poissons Ratio (x) = -0.19595 -0.04034
# Poissons Ratio (y) = -0.05206 0.39836
# Poissons Ratio (z) = -0.01363 0.50677
#
# Static dielectric constant tensor:
#      x y z
#    x 1.678260 0.000000 0.000000 
#    y 0.000000 1.657220 0.000000 
#    z 0.000000 0.000000 1.656910 
# 
# From -- ./inp_files/21751.got.cif
#   From: 2010.05.17/outbox.cif.g08.bks.cpg/sg47_11_cif.got.tgz:21751.got - 2010.06.03 20:15:42.
