data_PCOD9381600
_publ_section_title
;
Structure prediction by ZEFSAII (Michael W. Deem and Ramdas Pophale) SiO2 
 PCOD9381600
Probable space group: P M M M
;
_chemical_formula_sum "Si O2"
_cell_formula_units_Z 64
_cell_length_a 19.779207
_cell_length_b 24.485989
_cell_length_c 7.575593
_cell_angle_alpha 90.000000
_cell_angle_beta 90.000000
_cell_angle_gamma 90.000000
_cell_volume 3668.961544
_symmetry_space_group_name_H-M "P M M M"
_symmetry_group_IT_number 47
_symmetry_cell_setting 'orthorhombic'
loop_
_space_group_symop_operation_xyz
x,y,z
-x,-y,z
x,-y,-z
-x,y,-z
-x,-y,-z
x,y,-z
-x,y,z
x,-y,z
loop_
_atom_site_type_symbol
_atom_site_label
_atom_site_fract_x
_atom_site_fract_y
_atom_site_fract_z
Si Si1 0.710373 0.777623 0.702346
Si Si2 0.923667 0.727643 0.286723
Si Si3 0.209851 0.330245 0.208254
Si Si4 0.076398 0.061558 0.787743
Si Si5 0.159406 0.167612 0.710603
Si Si6 0.281495 0.439886 0.216103
Si Si7 0.575515 0.727950 0.285740
Si Si8 0.425457 0.400145 0.791380
O O1 0.698332 0.794799 0.500000
O O2 0.749154 0.719282 0.703272
O O3 0.765664 0.818901 0.782284
O O4 0.636992 0.765068 0.781522
O O5 0.925771 0.729182 0.500000
O O6 0.869135 0.681967 0.235404
O O7 0.892186 0.785510 0.223978
O O8 0.000000 0.719761 0.222858
O O9 0.235697 0.388860 0.272011
O O10 0.224815 0.326238 0.000000
O O11 0.129132 0.108215 0.740299
O O12 0.000000 0.075299 0.725511
O O13 0.092604 0.000000 0.726110
O O14 0.073955 0.059833 0.000000
O O15 0.163947 0.175662 0.500000
O O16 0.258609 0.500000 0.271195
O O17 0.358555 0.429412 0.277399
O O18 0.282034 0.439138 0.000000
O O19 0.577806 0.727832 0.500000
O O20 0.500000 0.744810 0.231135
O O21 0.584899 0.665004 0.229292
O O22 0.500000 0.413466 0.717051
O O23 0.428126 0.412265 0.000000
#
# Coordination Sequence:
#
# PCOD9381600 Si02
#       8
#     8   8   8   8   8   8   8   8
#     4   9  17  29  43  60  87 116 140 173 216 255
#     4   9  18  32  48  65  87 112 134 166 214 258
#     4  10  18  28  44  64  83 105 137 173 209 254
#     4   9  18  31  44  60  87 121 150 175 204 236
#     4   9  17  28  43  64  87 112 142 173 204 242
#     4   9  17  28  41  59  83 108 136 173 213 252
#     4   9  16  26  42  61  82 112 144 171 206 254
#     4   9  16  26  41  60  81 106 138 174 208 245
#
# _framework density 17.443628
#
# number of rings (size 3 to 8) (size 9 to 14) (size 15 to 20)
#    0.000    2.875    1.250    1.875    0.000    3.500 
#    0.000    1.875    0.000    3.750    0.000    4.375 
#    0.000    0.500    0.000    6.250    0.000    1.000 
#
# Total GULP energy -356667.413828 kJ/mol
# GULP energy per Si atom -5572.928341 kJ/mol
# Density = 1.740393 g / cm^3
# Si number density = 17.443628 Si / 1000 Ang^3
#
#
#
# Elastic Constant Matrix: (Units=GPa)
#
#
# Indices 1 2 3 4 5 6 
#
# 1 115.8018 57.4421 -4.5499 0.0000 0.0000 0.0000
# 2 57.4421 96.0574 -5.7298 0.0000 0.0000 0.0000
# 3 -4.5499 -5.7298 40.7870 0.0000 0.0000 0.0000
# 4 0.0000 0.0000 0.0000 15.2234 0.0000 0.0000
# 5 0.0000 0.0000 0.0000 0.0000 10.2854 0.0000
# 6 0.0000 0.0000 0.0000 0.0000 0.0000 28.3283
#
#
#
# Elastic Compliance Matrix: (Units=1/GPa)
#
#
# Indices 1 2 3 4 5 6 
#
# 1 0.012282 -0.007324 0.000341 0.000000 0.000000 0.000000
# 2 -0.007324 0.014866 0.001271 0.000000 0.000000 0.000000
# 3 0.000341 0.001271 0.024734 0.000000 0.000000 0.000000
# 4 0.000000 0.000000 0.000000 0.065688 0.000000 0.000000
# 5 0.000000 0.000000 0.000000 0.000000 0.097225 0.000000
# 6 0.000000 0.000000 0.000000 0.000000 0.000000 0.035300
#
#
# Mechanical properties :
#
#
# Convention : Reuss Voigt Hill
#
# Bulk Modulus (GPa) = 24.71639 38.55233 31.63436
# Shear Modulus (GPa) = 18.18144 24.46636 21.32390
#
# Velocity S-wave (km/s) = 3.23196 3.74919 3.50014
# Velocity P-wave (km/s) = 5.30354 6.39460 5.87446
#
# Compressibility (1/GPa) = 0.04045899
#
# Stress axis : x y z
#
# Youngs Moduli (GPa) = 81.42038 67.26700 40.42976
#
# Poissons Ratio (x) = 0.49268 -0.01379
# Poissons Ratio (y) = 0.59634 -0.05140
# Poissons Ratio (z) = -0.02778 -0.08552
#
# Static dielectric constant tensor:
#      x y z
#    x 1.627870 0.000000 0.000000 
#    y 0.000000 1.570180 0.000000 
#    z 0.000000 0.000000 1.682180 
# 
# From -- ./inp_files/11833.got.cif
#   From: 2010.05.17/outbox.cif.g08.bks.cpg/sg47_6_cif.got.tgz:11833.got - 2010.06.03 20:15:42.
