data_PCOD9381332
_publ_section_title
;
Structure prediction by ZEFSAII (Michael W. Deem and Ramdas Pophale) SiO2 
 PCOD9381332
Probable space group: P M M M
;
_chemical_formula_sum "Si O2"
_cell_formula_units_Z 52
_cell_length_a 20.679231
_cell_length_b 12.034241
_cell_length_c 14.397090
_cell_angle_alpha 90.000000
_cell_angle_beta 90.000000
_cell_angle_gamma 90.000000
_cell_volume 3582.843254
_symmetry_space_group_name_H-M "P M M M"
_symmetry_group_IT_number 47
_symmetry_cell_setting 'orthorhombic'
loop_
_space_group_symop_operation_xyz
x,y,z
-x,-y,z
x,-y,-z
-x,y,-z
-x,-y,-z
x,y,-z
-x,y,z
x,-y,z
loop_
_atom_site_type_symbol
_atom_site_label
_atom_site_fract_x
_atom_site_fract_y
_atom_site_fract_z
Si Si1 0.576912 0.630746 0.783134
Si Si2 0.337772 0.000000 0.393668
Si Si3 0.073014 0.233193 0.112705
Si Si4 0.576098 0.779222 0.394503
Si Si5 0.860393 0.000000 0.111755
Si Si6 0.718319 0.000000 0.199874
Si Si7 0.194890 0.626353 0.887039
Si Si8 0.680099 0.228489 0.889017
O O1 0.500000 0.641523 0.800924
O O2 0.592863 0.500000 0.783934
O O3 0.590442 0.687454 0.683240
O O4 0.619368 0.698745 0.856552
O O5 0.381950 0.890231 0.381947
O O6 0.286138 0.000000 0.311149
O O7 0.313101 0.000000 0.500000
O O8 0.099250 0.110283 0.134655
O O9 0.127056 0.320781 0.144182
O O10 0.000000 0.251548 0.146347
O O11 0.071108 0.239474 0.000000
O O12 0.586737 0.738344 0.500000
O O13 0.500000 0.807916 0.386176
O O14 0.791347 0.000000 0.161559
O O15 0.848599 0.000000 0.000000
O O16 0.683358 0.109533 0.160262
O O17 0.203347 0.500000 0.855289
O O18 0.254952 0.704223 0.861347
O O19 0.193915 0.625066 0.000000
O O20 0.680565 0.213930 0.000000
#
# Coordination Sequence:
#
# PCOD9381332 Si02
#       8
#     8   4   8   8   4   4   8   8
#     4  10  21  35  50  69  92 122 161 200 238 280
#     4  10  19  32  51  74  95 114 143 184 241 296
#     4   9  16  25  39  61  90 122 156 193 229 265
#     4   9  17  31  51  72  93 116 144 186 241 298
#     4  10  17  28  43  63  92 125 158 188 222 268
#     4  12  20  32  52  72  90 119 152 194 237 276
#     4   9  17  28  42  60  85 122 163 194 224 266
#     4  11  21  34  49  67  91 124 164 201 232 270
#
# _framework density 14.513612999999999
#
# number of rings (size 3 to 8) (size 9 to 14) (size 15 to 20)
#    0.000    2.154    3.077    1.615    0.000    3.692 
#    0.000    4.231    0.000    0.923    0.000    0.000 
#    0.000    1.231    0.000    0.000    0.000    2.308 
#
# Total GULP energy -289798.294069 kJ/mol
# GULP energy per Si atom -5573.044117 kJ/mol
# Density = 1.448058 g / cm^3
# Si number density = 14.513613 Si / 1000 Ang^3
#
#
#
# Elastic Constant Matrix: (Units=GPa)
#
#
# Indices 1 2 3 4 5 6 
#
# 1 60.2835 40.6707 27.7565 0.0000 0.0000 0.0000
# 2 40.6707 112.7389 29.4909 0.0000 0.0000 0.0000
# 3 27.7565 29.4909 54.9050 0.0000 0.0000 0.0000
# 4 0.0000 0.0000 0.0000 14.2596 0.0000 0.0000
# 5 0.0000 0.0000 0.0000 0.0000 7.8467 0.0000
# 6 0.0000 0.0000 0.0000 0.0000 0.0000 17.8640
#
#
#
# Elastic Compliance Matrix: (Units=1/GPa)
#
#
# Indices 1 2 3 4 5 6 
#
# 1 0.025379 -0.006747 -0.009206 0.000000 0.000000 0.000000
# 2 -0.006747 0.012114 -0.003096 0.000000 0.000000 0.000000
# 3 -0.009206 -0.003096 0.024530 0.000000 0.000000 0.000000
# 4 0.000000 0.000000 0.000000 0.070128 0.000000 0.000000
# 5 0.000000 0.000000 0.000000 0.000000 0.127443 0.000000
# 6 0.000000 0.000000 0.000000 0.000000 0.000000 0.055978
#
#
# Mechanical properties :
#
#
# Convention : Reuss Voigt Hill
#
# Bulk Modulus (GPa) = 41.79703 47.08487 44.44095
# Shear Modulus (GPa) = 13.82569 16.66135 15.24352
#
# Velocity S-wave (km/s) = 3.08977 3.39186 3.24434
# Velocity P-wave (km/s) = 6.44903 6.91751 6.68737
#
# Compressibility (1/GPa) = 0.02392514
#
# Stress axis : x y z
#
# Youngs Moduli (GPa) = 39.40230 82.54921 40.76652
#
# Poissons Ratio (x) = 0.55700 0.37529
# Poissons Ratio (y) = 0.26587 0.12620
# Poissons Ratio (z) = 0.36273 0.25554
#
# Static dielectric constant tensor:
#      x y z
#    x 1.474750 0.000000 0.000000 
#    y 0.000000 1.479340 0.000000 
#    z 0.000000 0.000000 1.463400 
# 
# From -- ./inp_files/24638.got.cif
#   From: 2010.05.17/outbox.cif.g08.bks.cpg/sg47_13_cif.got.tgz:24638.got - 2010.06.03 20:15:42.
