data_PCOD9381137
_publ_section_title
;
Structure prediction by ZEFSAII (Michael W. Deem and Ramdas Pophale) SiO2 
 PCOD9381137
Probable space group: I M A 2
;
_chemical_formula_sum "Si O2"
_cell_formula_units_Z 32
_cell_length_a 9.000000
_cell_length_b 30.000000
_cell_length_c 12.000000
_cell_angle_alpha 90.000000
_cell_angle_beta 90.000000
_cell_angle_gamma 90.000000
_cell_volume 3240.000000
_symmetry_space_group_name_H-M "I M A 2"
_symmetry_group_IT_number 46
_symmetry_cell_setting 'orthorhombic'
loop_
_space_group_symop_operation_xyz
x,y,z
-x,-y,z
1/2-x,y,z
1/2+x,-y,z
1/2+x,1/2+y,1/2+z
1/2-x,1/2-y,1/2+z
-x,1/2+y,1/2+z
x,1/2-y,1/2+z
loop_
_atom_site_type_symbol
_atom_site_label
_atom_site_fract_x
_atom_site_fract_y
_atom_site_fract_z
Si Si1 0.427964 0.044951 0.938510
Si Si2 0.573537 0.126051 0.547920
Si Si3 0.588712 0.785313 0.574964
Si Si4 0.912134 0.256333 0.747315
Si Si5 0.081320 0.292093 0.410705
Si Si6 0.427253 0.370941 0.574322
Si Si7 0.573050 0.545924 0.177520
Si Si8 0.080965 0.642282 0.803794
O O1 0.250000 0.042414 0.946593
O O2 0.464456 0.050016 0.808387
O O3 0.500000 0.000000 0.981150
O O4 0.483496 0.086752 0.007009
O O5 0.750000 0.120388 0.553373
O O6 0.530166 0.175999 0.582573
O O7 0.491888 0.088790 0.617612
O O8 0.522681 0.123709 0.419464
O O9 0.750000 0.805293 0.595262
O O10 0.548540 0.747314 0.663518
O O11 0.592913 0.757158 0.462672
O O12 0.750000 0.252651 0.693010
O O13 0.913451 0.303891 0.806977
O O14 0.948754 0.214276 0.824634
O O15 0.250000 0.303751 0.370213
O O16 0.035906 0.327597 0.502351
O O17 0.250000 0.372650 0.578893
O O18 0.488825 0.370020 0.697019
O O19 0.500000 0.500000 0.136098
O O20 0.750000 0.543629 0.165875
O O21 0.250000 0.626852 0.789575
#
# Coordination Sequence:
#
# PCOD9381137 Si02
#       8
#     8   8   8   8   8   8   8   8
#     4   9  20  39  63  89 118 146 181 233 289 346
#     4  11  23  40  59  86 120 155 198 245 293 347
#     4  11  22  36  55  81 113 154 199 241 285 342
#     4  11  22  36  53  77 113 155 195 241 292 341
#     4  10  21  35  54  80 112 151 195 239 285 339
#     4  10  21  38  59  85 115 151 194 240 286 343
#     4  10  21  40  65  92 119 151 188 236 297 354
#     4  10  22  38  56  80 117 157 194 240 287 341
#
# _framework density 9.8765429999999999
#
# number of rings (size 3 to 8) (size 9 to 14) (size 15 to 20)
#    0.000    1.750    2.500    1.500    1.750    3.500 
#    0.000    0.625    0.000    1.500    0.000    0.000 
#    0.000    0.000    0.000    0.000    0.000    0.000 
#
# Total GULP energy -178230.393040 kJ/mol
# GULP energy per Si atom -5569.699783 kJ/mol
# Density = 0.985406 g / cm^3
# Si number density = 9.876543 Si / 1000 Ang^3
#
#
#
# Elastic Constant Matrix: (Units=GPa)
#
#
# Indices 1 2 3 4 5 6 
#
# 1 19.2955 24.9332 27.9856 0.0000 0.0001 0.0000
# 2 24.9332 104.2366 44.3023 0.0000 -0.0002 0.0001
# 3 27.9856 44.3023 55.9433 0.0002 -0.0024 0.0005
# 4 0.0000 0.0000 0.0002 25.9443 -0.0003 -0.0001
# 5 0.0001 -0.0002 -0.0024 -0.0003 42.0136 -0.0008
# 6 0.0000 0.0001 0.0005 -0.0001 -0.0008 16.2076
#
#
#
# Elastic Compliance Matrix: (Units=1/GPa)
#
#
# Indices 1 2 3 4 5 6 
#
# 1 0.192877 -0.007729 -0.090366 0.000001 -0.000005 0.000003
# 2 -0.007729 0.014770 -0.007831 0.000000 0.000000 0.000000
# 3 -0.090366 -0.007831 0.069282 0.000000 0.000004 -0.000002
# 4 0.000001 0.000000 0.000000 0.038544 0.000000 0.000000
# 5 -0.000005 0.000000 0.000004 0.000000 0.023802 0.000001
# 6 0.000003 0.000000 -0.000002 0.000000 0.000001 0.061699
#
#
# Mechanical properties :
#
#
# Convention : Reuss Voigt Hill
#
# Bulk Modulus (GPa) = 15.36605 41.54639 28.45622
# Shear Modulus (GPa) = 7.87998 22.31671 15.09834
#
# Velocity S-wave (km/s) = 1.99947 3.36487 2.76769
# Velocity P-wave (km/s) = 3.62305 6.01457 4.96495
#
# Compressibility (1/GPa) = 0.06507853
#
# Stress axis : x y z
#
# Youngs Moduli (GPa) = 5.18464 67.70305 14.43370
#
# Poissons Ratio (x) = 0.52325 1.30432
# Poissons Ratio (y) = 0.04007 0.11303
# Poissons Ratio (z) = 0.46852 0.53016
#
# Static dielectric constant tensor:
#      x y z
#    x 1.638740 0.000000 0.000000 
#    y 0.000000 1.691860 0.000000 
#    z 0.000000 0.000000 1.791070 
# 
# From -- ./inp_files/9716.got.cif
#   From: 2010.05.17/outbox.ucp.g08.bks.cvg/sg46_5_cif.got.tgz:9716.got - 2010.06.11 16:34:52.
