data_PCOD9381755
_publ_section_title
;
Structure prediction by ZEFSAII (Michael W. Deem and Ramdas Pophale) SiO2 
 PCOD9381755
Probable space group: P M M M
;
_chemical_formula_sum "Si O2"
_cell_formula_units_Z 64
_cell_length_a 8.071448
_cell_length_b 22.164203
_cell_length_c 19.367097
_cell_angle_alpha 90.000000
_cell_angle_beta 90.000000
_cell_angle_gamma 90.000000
_cell_volume 3464.719657
_symmetry_space_group_name_H-M "P M M M"
_symmetry_group_IT_number 47
_symmetry_cell_setting 'orthorhombic'
loop_
_space_group_symop_operation_xyz
x,y,z
-x,-y,z
x,-y,-z
-x,y,-z
-x,-y,-z
x,y,-z
-x,y,z
x,-y,z
loop_
_atom_site_type_symbol
_atom_site_label
_atom_site_fract_x
_atom_site_fract_y
_atom_site_fract_z
Si Si1 0.691364 0.269964 0.578183
Si Si2 0.187280 0.171629 0.320576
Si Si3 0.802905 0.407724 0.575446
Si Si4 0.699486 0.930544 0.577353
Si Si5 0.694256 0.269009 0.776458
Si Si6 0.303228 0.435132 0.876440
Si Si7 0.196767 0.397627 0.726148
Si Si8 0.702755 0.305868 0.924997
O O1 0.683734 0.247307 0.500000
O O2 0.500000 0.273334 0.603917
O O3 0.795836 0.224037 0.622310
O O4 0.769473 0.336048 0.575764
O O5 0.249689 0.112620 0.360238
O O6 0.280550 0.203811 0.257401
O O7 0.000000 0.162150 0.299095
O O8 0.737501 0.429385 0.500000
O O9 0.740562 0.423822 0.652480
O O10 0.000000 0.419845 0.575058
O O11 0.757560 0.911463 0.500000
O O12 0.500000 0.929762 0.575159
O O13 0.752700 0.000000 0.587494
O O14 0.500000 0.283437 0.776935
O O15 0.774474 0.325042 0.734169
O O16 0.755890 0.271970 0.855401
O O17 0.500000 0.436426 0.889245
O O18 0.232734 0.500000 0.897252
O O19 0.276236 0.425686 0.794488
O O20 0.240908 0.375146 0.913852
O O21 0.000000 0.408217 0.728683
O O22 0.500000 0.305289 0.925255
O O23 0.757672 0.283572 0.000000
#
# Coordination Sequence:
#
# PCOD9381755 Si02
#       8
#     8   8   8   8   8   8   8   8
#     4  10  19  28  40  60  86 117 153 192 235 280
#     4  12  22  30  44  67  96 129 164 203 241 281
#     4   9  17  28  41  59  84 112 144 186 236 284
#     4   9  19  36  54  70  93 130 175 218 256 291
#     4  10  19  31  48  69  95 125 156 192 235 288
#     4   9  18  31  48  70  94 123 157 191 229 279
#     4  10  18  29  46  66  90 119 150 192 243 290
#     4   8  15  29  50  75  99 122 151 191 238 284
#
# _framework density 18.471913000000001
#
# number of rings (size 3 to 8) (size 9 to 14) (size 15 to 20)
#    0.000    2.375    1.250    3.750    0.000    3.750 
#    0.000    1.875    0.000    9.750    0.000    6.125 
#    0.000    0.500    0.000    5.750    0.000    1.625 
#
# Total GULP energy -356632.396136 kJ/mol
# GULP energy per Si atom -5572.381190 kJ/mol
# Density = 1.842987 g / cm^3
# Si number density = 18.471913 Si / 1000 Ang^3
#
#
#
# Elastic Constant Matrix: (Units=GPa)
#
#
# Indices 1 2 3 4 5 6 
#
# 1 20.0391 0.6515 -2.1277 0.0000 0.0000 0.0000
# 2 0.6515 72.0241 23.5064 0.0000 0.0000 0.0000
# 3 -2.1277 23.5064 122.9907 0.0000 0.0000 0.0000
# 4 0.0000 0.0000 0.0000 114.2917 0.0000 0.0000
# 5 0.0000 0.0000 0.0000 0.0000 -69.5021 0.0000
# 6 0.0000 0.0000 0.0000 0.0000 0.0000 57.1246
#
#
#
# Elastic Compliance Matrix: (Units=1/GPa)
#
#
# Indices 1 2 3 4 5 6 
#
# 1 0.050036 -0.000784 0.001015 0.000000 0.000000 0.000000
# 2 -0.000784 0.014820 -0.002846 0.000000 0.000000 0.000000
# 3 0.001015 -0.002846 0.008692 0.000000 0.000000 0.000000
# 4 0.000000 0.000000 0.000000 0.008750 0.000000 0.000000
# 5 0.000000 0.000000 0.000000 0.000000 -0.014388 0.000000
# 6 0.000000 0.000000 0.000000 0.000000 0.000000 0.017506
#
#
# Mechanical properties :
#
#
# Convention : Reuss Voigt Hill
#
# Bulk Modulus (GPa) = 14.63725 28.79048 21.71386
# Shear Modulus (GPa) = 44.08500 33.25110 38.66805
#
# Velocity S-wave (km/s) = 4.89058 4.24735 4.58027
# Velocity P-wave (km/s) = 6.31123 6.29867 6.30495
#
# Compressibility (1/GPa) = 0.06831885
#
# Stress axis : x y z
#
# Youngs Moduli (GPa) = 19.98575 67.47547 115.04555
#
# Poissons Ratio (x) = 0.05290 -0.11682
# Poissons Ratio (y) = 0.01567 0.32743
# Poissons Ratio (z) = -0.02029 0.19204
#
# Static dielectric constant tensor:
#      x y z
#    x 1.664110 0.000000 0.000000 
#    y 0.000000 1.642450 0.000000 
#    z 0.000000 0.000000 1.697570 
# 
# From -- ./inp_files/30214.got.cif
#   From: 2010.05.17/outbox.cif.g08.bks.cpg/sg47_16_cif.got.tgz:30214.got - 2010.06.03 20:15:42.
