data_PCOD9381786
_publ_section_title
;
Structure prediction by ZEFSAII (Michael W. Deem and Ramdas Pophale) SiO2 
 PCOD9381786
Probable space group: P M M M
;
_chemical_formula_sum "Si O2"
_cell_formula_units_Z 64
_cell_length_a 20.920589
_cell_length_b 20.641019
_cell_length_c 8.150973
_cell_angle_alpha 90.000000
_cell_angle_beta 90.000000
_cell_angle_gamma 90.000000
_cell_volume 3519.771705
_symmetry_space_group_name_H-M "P M M M"
_symmetry_group_IT_number 47
_symmetry_cell_setting 'orthorhombic'
loop_
_space_group_symop_operation_xyz
x,y,z
-x,-y,z
x,-y,-z
-x,y,-z
-x,-y,-z
x,y,-z
-x,y,z
x,-y,z
loop_
_atom_site_type_symbol
_atom_site_label
_atom_site_fract_x
_atom_site_fract_y
_atom_site_fract_z
Si Si1 0.259799 0.704215 0.805225
Si Si2 0.757573 0.570052 0.307254
Si Si3 0.573432 0.926920 0.197988
Si Si4 0.804209 0.073457 0.302686
Si Si5 0.888685 0.289791 0.200675
Si Si6 0.930100 0.148106 0.801560
Si Si7 0.687890 0.837867 0.304673
Si Si8 0.098231 0.429659 0.807799
O O1 0.280387 0.634582 0.736179
O O2 0.185994 0.714609 0.747699
O O3 0.302332 0.765132 0.757364
O O4 0.257516 0.699561 0.000000
O O5 0.774091 0.572267 0.500000
O O6 0.726821 0.500000 0.273956
O O7 0.824446 0.571499 0.208579
O O8 0.500000 0.915768 0.250163
O O9 0.622660 0.873469 0.258045
O O10 0.592150 0.000000 0.252390
O O11 0.574119 0.926881 0.000000
O O12 0.798614 0.071209 0.500000
O O13 0.871640 0.105619 0.260413
O O14 0.746837 0.118556 0.238851
O O15 0.799565 0.000000 0.240024
O O16 0.921376 0.223047 0.250937
O O17 0.918870 0.358218 0.258576
O O18 0.890080 0.292131 0.000000
O O19 0.000000 0.124471 0.749307
O O20 0.927804 0.147659 0.000000
O O21 0.692713 0.835946 0.500000
O O22 0.077825 0.500000 0.737114
O O23 0.080671 0.430629 0.000000
#
# Coordination Sequence:
#
# PCOD9381786 Si02
#       8
#     8   8   8   8   8   8   8   8
#     4  10  18  29  47  68  95 131 168 205 248 298
#     4   9  16  25  38  61  95 129 161 201 248 294
#     4   9  19  36  56  78 106 141 177 208 241 288
#     4  10  22  38  53  71  96 124 155 198 253 308
#     4   8  14  26  43  63  87 116 152 196 244 291
#     4  10  20  34  51  69  90 119 160 208 254 302
#     4  11  21  33  52  78 106 133 165 207 253 300
#     4   8  13  22  38  59  83 115 154 192 233 287
#
# _framework density 18.182997
#
# number of rings (size 3 to 8) (size 9 to 14) (size 15 to 20)
#    0.000    2.625    1.250    2.625    0.000    3.000 
#    0.000    1.875    0.000    0.375    0.000    2.625 
#    0.000    0.500    0.000   22.125    0.000   18.375 
#
# Total GULP energy -356745.687620 kJ/mol
# GULP energy per Si atom -5574.151369 kJ/mol
# Density = 1.814161 g / cm^3
# Si number density = 18.182997 Si / 1000 Ang^3
#
#
#
# Elastic Constant Matrix: (Units=GPa)
#
#
# Indices 1 2 3 4 5 6 
#
# 1 59.8592 50.5199 8.6442 0.0000 0.0000 0.0000
# 2 50.5199 158.0275 18.3313 0.0000 0.0000 0.0000
# 3 8.6442 18.3313 22.2933 0.0000 0.0000 0.0000
# 4 0.0000 0.0000 0.0000 19.2635 0.0000 0.0000
# 5 0.0000 0.0000 0.0000 0.0000 5.7861 0.0000
# 6 0.0000 0.0000 0.0000 0.0000 0.0000 44.3876
#
#
#
# Elastic Compliance Matrix: (Units=1/GPa)
#
#
# Indices 1 2 3 4 5 6 
#
# 1 0.023082 -0.007009 -0.003186 0.000000 0.000000 0.000000
# 2 -0.007009 0.009124 -0.004784 0.000000 0.000000 0.000000
# 3 -0.003186 -0.004784 0.050026 0.000000 0.000000 0.000000
# 4 0.000000 0.000000 0.000000 0.051912 0.000000 0.000000
# 5 0.000000 0.000000 0.000000 0.000000 0.172827 0.000000
# 6 0.000000 0.000000 0.000000 0.000000 0.000000 0.022529
#
#
# Mechanical properties :
#
#
# Convention : Reuss Voigt Hill
#
# Bulk Modulus (GPa) = 19.13085 43.90786 31.51936
# Shear Modulus (GPa) = 13.26669 24.73309 18.99989
#
# Velocity S-wave (km/s) = 2.70408 3.69213 3.23604
# Velocity P-wave (km/s) = 4.50483 6.50968 5.59774
#
# Compressibility (1/GPa) = 0.05227159
#
# Stress axis : x y z
#
# Youngs Moduli (GPa) = 43.32414 109.60274 19.98954
#
# Poissons Ratio (x) = 0.76825 0.06369
# Poissons Ratio (y) = 0.30368 0.09564
# Poissons Ratio (z) = 0.13804 0.52439
#
# Static dielectric constant tensor:
#      x y z
#    x 1.599530 0.000000 0.000000 
#    y 0.000000 1.674860 0.000000 
#    z 0.000000 0.000000 1.653090 
# 
# From -- ./inp_files/10072.got.cif
#   From: 2010.05.17/outbox.cif.g08.bks.cpg/sg47_6_cif.got.tgz:10072.got - 2010.06.03 20:15:42.
