data_PCOD9381604
_publ_section_title
;
Structure prediction by ZEFSAII (Michael W. Deem and Ramdas Pophale) SiO2 
 PCOD9381604
Probable space group: P M M M
;
_chemical_formula_sum "Si O2"
_cell_formula_units_Z 64
_cell_length_a 7.457290
_cell_length_b 29.741010
_cell_length_c 15.279546
_cell_angle_alpha 90.000000
_cell_angle_beta 90.000000
_cell_angle_gamma 90.000000
_cell_volume 3388.809810
_symmetry_space_group_name_H-M "P M M M"
_symmetry_group_IT_number 47
_symmetry_cell_setting 'orthorhombic'
loop_
_space_group_symop_operation_xyz
x,y,z
-x,-y,z
x,-y,-z
-x,y,-z
-x,-y,-z
x,y,-z
-x,y,z
x,-y,z
loop_
_atom_site_type_symbol
_atom_site_label
_atom_site_fract_x
_atom_site_fract_y
_atom_site_fract_z
Si Si1 0.206508 0.777217 0.228542
Si Si2 0.780380 0.449932 0.726813
Si Si3 0.785901 0.406522 0.097363
Si Si4 0.781810 0.370600 0.600196
Si Si5 0.210986 0.852150 0.099994
Si Si6 0.715841 0.951675 0.897826
Si Si7 0.286397 0.302056 0.099801
Si Si8 0.219332 0.731490 0.600303
O O1 0.288649 0.816094 0.167700
O O2 0.208230 0.732177 0.169750
O O3 0.283716 0.764508 0.323297
O O4 0.000000 0.790397 0.244980
O O5 0.724987 0.500000 0.700785
O O6 0.720372 0.437827 0.824860
O O7 0.719958 0.409890 0.663726
O O8 0.000000 0.449331 0.726067
O O9 0.754236 0.354098 0.119432
O O10 0.000000 0.412657 0.093177
O O11 0.712846 0.414732 0.000000
O O12 0.729708 0.379389 0.500000
O O13 0.725348 0.319779 0.622448
O O14 0.000000 0.370423 0.603073
O O15 0.226598 0.903057 0.135543
O O16 0.000000 0.842000 0.091863
O O17 0.285171 0.849985 0.000000
O O18 0.500000 0.951772 0.895940
O O19 0.776179 0.000000 0.860009
O O20 0.771913 0.951675 0.000000
O O21 0.500000 0.296246 0.100726
O O22 0.222779 0.292952 0.000000
O O23 0.272873 0.741302 0.500000
O O24 0.000000 0.731795 0.601424
#
# Coordination Sequence:
#
# PCOD9381604 Si02
#       8
#     8   8   8   8   8   8   8   8
#     4  10  18  28  44  64  88 116 143 173 211 254
#     4   9  16  24  36  57  81 101 124 157 197 240
#     4   9  17  29  44  59  76 102 134 165 198 237
#     4   8  13  21  33  51  77 105 128 153 192 241
#     4   9  17  26  36  56  86 116 144 173 207 248
#     4   8  14  25  40  56  76 108 149 185 213 243
#     4  10  20  31  43  61  84 110 141 174 206 244
#     4   8  14  25  42  63  84 108 140 174 206 245
#
# _framework density 18.885686
#
# number of rings (size 3 to 8) (size 9 to 14) (size 15 to 20)
#    0.000    3.125    0.000    2.625    0.000    4.500 
#    0.000    5.000    0.000    0.750    0.000    1.750 
#    0.000    0.500    0.000   10.750    0.000    5.250 
#
# Total GULP energy -356795.853717 kJ/mol
# GULP energy per Si atom -5574.935214 kJ/mol
# Density = 1.884270 g / cm^3
# Si number density = 18.885686 Si / 1000 Ang^3
#
#
#
# Elastic Constant Matrix: (Units=GPa)
#
#
# Indices 1 2 3 4 5 6 
#
# 1 56.6395 2.4236 4.9497 0.0000 0.0000 0.0000
# 2 2.4236 103.8299 85.4628 0.0000 0.0000 0.0000
# 3 4.9497 85.4628 97.9324 0.0000 0.0000 0.0000
# 4 0.0000 0.0000 0.0000 20.8276 0.0000 0.0000
# 5 0.0000 0.0000 0.0000 0.0000 -6.6260 0.0000
# 6 0.0000 0.0000 0.0000 0.0000 0.0000 22.9011
#
#
#
# Elastic Compliance Matrix: (Units=1/GPa)
#
#
# Indices 1 2 3 4 5 6 
#
# 1 0.017773 0.001152 -0.001904 0.000000 0.000000 0.000000
# 2 0.001152 0.034264 -0.029959 0.000000 0.000000 0.000000
# 3 -0.001904 -0.029959 0.036452 0.000000 0.000000 0.000000
# 4 0.000000 0.000000 0.000000 0.048013 0.000000 0.000000
# 5 0.000000 0.000000 0.000000 0.000000 -0.150921 0.000000
# 6 0.000000 0.000000 0.000000 0.000000 0.000000 0.043666
#
#
# Mechanical properties :
#
#
# Convention : Reuss Voigt Hill
#
# Bulk Modulus (GPa) = 36.94589 49.34156 43.14373
# Shear Modulus (GPa) = 50.15493 18.45826 34.30659
#
# Velocity S-wave (km/s) = 5.15895 3.12968 4.26671
# Velocity P-wave (km/s) = 7.42238 6.26442 6.86785
#
# Compressibility (1/GPa) = 0.02706661
#
# Stress axis : x y z
#
# Youngs Moduli (GPa) = 56.26649 29.18514 27.43325
#
# Poissons Ratio (x) = -0.03362 0.05222
# Poissons Ratio (y) = -0.06482 0.82189
# Poissons Ratio (z) = 0.10711 0.87437
#
# Static dielectric constant tensor:
#      x y z
#    x 1.725600 0.000000 0.000000 
#    y 0.000000 1.659130 0.000000 
#    z 0.000000 0.000000 1.656910 
# 
# From -- ./inp_files/22155.got.cif
#   From: 2010.05.17/outbox.cif.g08.bks.cpg/sg47_12_cif.got.tgz:22155.got - 2010.06.03 20:15:42.
