data_PCOD9381446
_publ_section_title
;
Structure prediction by ZEFSAII (Michael W. Deem and Ramdas Pophale) SiO2 
 PCOD9381446
Probable space group: P M M M
;
_chemical_formula_sum "Si O2"
_cell_formula_units_Z 56
_cell_length_a 16.103552
_cell_length_b 21.646217
_cell_length_c 7.652310
_cell_angle_alpha 90.000000
_cell_angle_beta 90.000000
_cell_angle_gamma 90.000000
_cell_volume 2667.449727
_symmetry_space_group_name_H-M "P M M M"
_symmetry_group_IT_number 47
_symmetry_cell_setting 'orthorhombic'
loop_
_space_group_symop_operation_xyz
x,y,z
-x,-y,z
x,-y,-z
-x,y,-z
-x,-y,-z
x,y,-z
-x,y,z
x,-y,z
loop_
_atom_site_type_symbol
_atom_site_label
_atom_site_fract_x
_atom_site_fract_y
_atom_site_fract_z
Si Si1 0.092335 0.632035 0.713746
Si Si2 0.406374 0.071105 0.288834
Si Si3 0.164310 0.500000 0.288460
Si Si4 0.247556 0.846756 0.794443
Si Si5 0.409593 0.636077 0.294784
Si Si6 0.642063 0.500000 0.797547
Si Si7 0.093725 0.071335 0.213236
Si Si8 0.250120 0.294501 0.295512
O O1 0.090317 0.633408 0.500000
O O2 0.117745 0.562455 0.764239
O O3 0.164416 0.677879 0.776385
O O4 0.000000 0.647626 0.774562
O O5 0.406403 0.071476 0.500000
O O6 0.500000 0.089204 0.232341
O O7 0.331963 0.114649 0.230137
O O8 0.392176 0.000000 0.232478
O O9 0.168960 0.500000 0.500000
O O10 0.258417 0.500000 0.222040
O O11 0.168378 0.885278 0.724936
O O12 0.254382 0.778816 0.716263
O O13 0.234113 0.838214 0.000000
O O14 0.413661 0.652437 0.500000
O O15 0.500000 0.649897 0.217339
O O16 0.392054 0.563120 0.282808
O O17 0.331570 0.672874 0.217290
O O18 0.619014 0.500000 0.000000
O O19 0.000000 0.089753 0.266304
O O20 0.107146 0.000000 0.266533
O O21 0.095019 0.071668 0.000000
O O22 0.249459 0.312326 0.500000
#
# Coordination Sequence:
#
# PCOD9381446 Si02
#       8
#     8   8   4   8   8   4   8   8
#     4   9  17  31  56  85 107 133 178 233 278 316
#     4   9  19  37  60  84 110 142 180 222 272 330
#     4  10  17  33  59  83 108 139 180 223 269 325
#     4  11  22  34  53  82 114 147 185 225 272 322
#     4  10  21  39  61  80 100 136 185 227 266 320
#     4  12  23  34  55  85 116 140 166 214 280 332
#     4   8  15  30  52  77 106 142 183 222 261 313
#     4  10  21  37  54  76 108 146 187 226 265 315
#
# _framework density 20.993835000000001
#
# number of rings (size 3 to 8) (size 9 to 14) (size 15 to 20)
#    0.000    2.286    1.429    2.786    0.000    4.857 
#    0.000    2.143    0.000    3.000    0.000    5.000 
#    0.000    0.000    0.000    0.000    0.000    0.000 
#
# Total GULP energy -312717.978084 kJ/mol
# GULP energy per Si atom -5584.249609 kJ/mol
# Density = 2.094605 g / cm^3
# Si number density = 20.993835 Si / 1000 Ang^3
#
#
#
# Elastic Constant Matrix: (Units=GPa)
#
#
# Indices 1 2 3 4 5 6 
#
# 1 216.2217 96.2285 -0.5448 0.0000 0.0000 0.0000
# 2 96.2285 107.7478 -13.8038 0.0000 0.0000 0.0000
# 3 -0.5448 -13.8038 37.7006 0.0000 0.0000 0.0000
# 4 0.0000 0.0000 0.0000 1.8642 0.0000 0.0000
# 5 0.0000 0.0000 0.0000 0.0000 1.7193 0.0000
# 6 0.0000 0.0000 0.0000 0.0000 0.0000 15.6160
#
#
#
# Elastic Compliance Matrix: (Units=1/GPa)
#
#
# Indices 1 2 3 4 5 6 
#
# 1 0.007910 -0.007397 -0.002594 0.000000 0.000000 0.000000
# 2 -0.007397 0.016655 0.005991 0.000000 0.000000 0.000000
# 3 -0.002594 0.005991 0.028681 0.000000 0.000000 0.000000
# 4 0.000000 0.000000 0.000000 0.536433 0.000000 0.000000
# 5 0.000000 0.000000 0.000000 0.000000 0.581627 0.000000
# 6 0.000000 0.000000 0.000000 0.000000 0.000000 0.064037
#
#
# Mechanical properties :
#
#
# Convention : Reuss Voigt Hill
#
# Bulk Modulus (GPa) = 22.10143 58.38110 40.24126
# Shear Modulus (GPa) = 3.97322 22.49259 13.23290
#
# Velocity S-wave (km/s) = 1.37720 3.27676 2.51335
# Velocity P-wave (km/s) = 3.61654 6.49502 5.25664
#
# Compressibility (1/GPa) = 0.04524595
#
# Stress axis : x y z
#
# Youngs Moduli (GPa) = 126.41685 60.04339 34.86647
#
# Poissons Ratio (x) = 0.44414 0.09045
# Poissons Ratio (y) = 0.93510 -0.20889
# Poissons Ratio (z) = 0.32793 -0.35972
#
# Static dielectric constant tensor:
#      x y z
#    x 1.767810 0.000000 0.000000 
#    y 0.000000 1.699310 0.000000 
#    z 0.000000 0.000000 1.780260 
# 
# From -- ./inp_files/7421.got.cif
#   From: 2010.05.17/outbox.cif.g08.bks.cpg/sg47_4_cif.got.tgz:7421.got - 2010.06.03 20:15:42.
