data_PCOD9381449
_publ_section_title
;
Structure prediction by ZEFSAII (Michael W. Deem and Ramdas Pophale) SiO2 
 PCOD9381449
Probable space group: P M M M
;
_chemical_formula_sum "Si O2"
_cell_formula_units_Z 52
_cell_length_a 13.232484
_cell_length_b 7.384186
_cell_length_c 28.811758
_cell_angle_alpha 90.000000
_cell_angle_beta 90.000000
_cell_angle_gamma 90.000000
_cell_volume 2815.229233
_symmetry_space_group_name_H-M "P M M M"
_symmetry_group_IT_number 47
_symmetry_cell_setting 'orthorhombic'
loop_
_space_group_symop_operation_xyz
x,y,z
-x,-y,z
x,-y,-z
-x,y,-z
-x,-y,-z
x,y,-z
-x,y,z
x,-y,z
loop_
_atom_site_type_symbol
_atom_site_label
_atom_site_fract_x
_atom_site_fract_y
_atom_site_fract_z
Si Si1 0.117177 0.779833 0.051827
Si Si2 0.385903 0.284028 0.316533
Si Si3 0.000000 0.210127 0.801044
Si Si4 0.121768 0.000000 0.554269
Si Si5 0.201259 0.222035 0.851722
Si Si6 0.000000 0.282890 0.307147
Si Si7 0.386457 0.783550 0.209198
Si Si8 0.811002 0.280754 0.371824
O O1 0.184859 0.721958 0.095060
O O2 0.000000 0.727098 0.059808
O O3 0.117932 0.000000 0.051613
O O4 0.146735 0.720636 0.000000
O O5 0.500000 0.212484 0.324286
O O6 0.390740 0.500000 0.322123
O O7 0.358129 0.249539 0.262852
O O8 0.296490 0.223034 0.350195
O O9 0.896932 0.284068 0.822795
O O10 0.000000 0.219303 0.745662
O O11 0.000000 0.000000 0.815160
O O12 0.164713 0.174844 0.581161
O O13 0.147237 0.000000 0.500000
O O14 0.000000 0.000000 0.558650
O O15 0.302173 0.284940 0.826070
O O16 0.203373 0.000000 0.850911
O O17 0.899948 0.229824 0.335532
O O18 0.000000 0.500000 0.305209
O O19 0.500000 0.712022 0.202200
O O20 0.390915 0.000000 0.203570
O O21 0.812876 0.500000 0.377446
#
# Coordination Sequence:
#
# PCOD9381449 Si02
#       8
#     8   8   4   4   8   4   8   8
#     4   8  12  19  33  51  75 107 145 193 244 295
#     4   9  18  33  53  76 103 137 174 209 249 303
#     4  10  18  24  39  64  89 117 147 187 241 296
#     4  11  24  40  61  87 111 143 186 221 259 316
#     4   9  15  24  35  55  85 114 148 191 242 294
#     4  10  20  32  46  70 103 136 163 199 250 302
#     4   9  17  27  40  62  92 127 160 191 233 290
#     4  10  21  37  56  81 112 141 175 222 268 307
#
# _framework density 18.470963999999999
#
# number of rings (size 3 to 8) (size 9 to 14) (size 15 to 20)
#    0.000    2.692    1.538    1.385    2.154    0.308 
#    0.000    0.769    0.000    1.385    0.000    5.385 
#    0.000    3.077    0.000    3.846    0.000    4.000 
#
# Total GULP energy -290105.678287 kJ/mol
# GULP energy per Si atom -5578.955352 kJ/mol
# Density = 1.842892 g / cm^3
# Si number density = 18.470964 Si / 1000 Ang^3
#
#
#
# Elastic Constant Matrix: (Units=GPa)
#
#
# Indices 1 2 3 4 5 6 
#
# 1 125.5700 21.8520 102.0319 0.0000 0.0000 0.0000
# 2 21.8520 68.6052 20.8876 0.0000 0.0000 0.0000
# 3 102.0319 20.8876 167.2871 0.0000 0.0000 0.0000
# 4 0.0000 0.0000 0.0000 84.4004 0.0000 0.0000
# 5 0.0000 0.0000 0.0000 0.0000 -37.0968 0.0000
# 6 0.0000 0.0000 0.0000 0.0000 0.0000 -8.0257
#
#
#
# Elastic Compliance Matrix: (Units=1/GPa)
#
#
# Indices 1 2 3 4 5 6 
#
# 1 0.016108 -0.002224 -0.009547 0.000000 0.000000 0.000000
# 2 -0.002224 0.015459 -0.000574 0.000000 0.000000 0.000000
# 3 -0.009547 -0.000574 0.011872 0.000000 0.000000 0.000000
# 4 0.000000 0.000000 0.000000 0.011848 0.000000 0.000000
# 5 0.000000 0.000000 0.000000 0.000000 -0.026957 0.000000
# 6 0.000000 0.000000 0.000000 0.000000 0.000000 -0.124600
#
#
# Mechanical properties :
#
#
# Convention : Reuss Voigt Hill
#
# Bulk Modulus (GPa) = 53.33310 72.33391 62.83351
# Shear Modulus (GPa) = -76.53556 22.30163 -27.11696
#
# Velocity S-wave (km/s) = -6.44403 3.47852 -3.83572
# Velocity P-wave (km/s) = 5.14108 7.44173 3.80451
#
# Compressibility (1/GPa) = 0.01875008
#
# Stress axis : x y z
#
# Youngs Moduli (GPa) = 62.08049 64.68620 84.22978
#
# Poissons Ratio (x) = 0.14386 0.80414
# Poissons Ratio (y) = 0.13807 0.04833
# Poissons Ratio (z) = 0.59268 0.03711
#
# Static dielectric constant tensor:
#      x y z
#    x 1.628560 0.000000 0.000000 
#    y 0.000000 1.760100 0.000000 
#    z 0.000000 0.000000 1.602600 
# 
# From -- ./inp_files/33643.got.cif
#   From: 2010.05.17/outbox.cif.g08.bks.cpg/sg47_17_cif.got.tgz:33643.got - 2010.06.03 20:15:42.
