data_PCOD9381821
_publ_section_title
;
Structure prediction by ZEFSAII (Michael W. Deem and Ramdas Pophale) SiO2 
 PCOD9381821
Probable space group: P M M M
;
_chemical_formula_sum "Si O2"
_cell_formula_units_Z 56
_cell_length_a 9.293366
_cell_length_b 19.126271
_cell_length_c 19.462672
_cell_angle_alpha 90.000000
_cell_angle_beta 90.000000
_cell_angle_gamma 90.000000
_cell_volume 3459.440058
_symmetry_space_group_name_H-M "P M M M"
_symmetry_group_IT_number 47
_symmetry_cell_setting 'orthorhombic'
loop_
_space_group_symop_operation_xyz
x,y,z
-x,-y,z
x,-y,-z
-x,y,-z
-x,-y,-z
x,y,-z
-x,y,z
x,-y,z
loop_
_atom_site_type_symbol
_atom_site_label
_atom_site_fract_x
_atom_site_fract_y
_atom_site_fract_z
Si Si1 0.670083 0.347695 0.212113
Si Si2 0.172054 0.579082 0.666136
Si Si3 0.173021 0.285430 0.579052
Si Si4 0.327019 0.079664 0.209115
Si Si5 0.329282 0.791710 0.698152
Si Si6 0.828773 0.693060 0.078271
Si Si7 0.828475 0.860188 0.922201
O O1 0.500000 0.360303 0.208380
O O2 0.746373 0.401191 0.263928
O O3 0.692911 0.271355 0.247319
O O4 0.741263 0.345406 0.137402
O O5 0.205280 0.500000 0.644439
O O6 0.209832 0.637994 0.609960
O O7 0.000000 0.583971 0.677717
O O8 0.218034 0.278998 0.500000
O O9 0.245409 0.229774 0.629753
O O10 0.000000 0.278565 0.582213
O O11 0.500000 0.085442 0.202236
O O12 0.282073 0.136466 0.266030
O O13 0.255369 0.099981 0.136987
O O14 0.291491 0.000000 0.227638
O O15 0.500000 0.795173 0.683964
O O16 0.802842 0.776703 0.084229
O O17 0.000000 0.682427 0.087577
O O18 0.791468 0.672776 0.000000
O O19 0.000000 0.871119 0.915014
O O20 0.787436 0.880896 0.000000
#
# Coordination Sequence:
#
# PCOD9381821 Si02
#       7
#     8   8   8   8   8   8   8
#     4  10  18  29  48  71  95 125 162 203 242 279
#     4   9  18  32  50  73 102 134 160 184 224 279
#     4   9  18  32  52  78 102 125 155 191 230 274
#     4  10  20  33  48  67  94 128 166 207 247 287
#     4   9  18  32  48  69  95 124 160 198 238 284
#     4   9  17  29  46  68  93 123 161 204 247 289
#     4   9  18  31  46  66  94 127 162 202 247 294
#
# _framework density 16.187591000000001
#
# number of rings (size 3 to 8) (size 9 to 14) (size 15 to 20)
#    0.000    2.714    1.429    1.286    0.000    3.143 
#    0.000    4.286    0.000    0.857    0.000   10.000 
#    0.000    0.000    0.000    0.000    0.000    0.000 
#
# Total GULP energy -312149.937335 kJ/mol
# GULP energy per Si atom -5574.106024 kJ/mol
# Density = 1.615075 g / cm^3
# Si number density = 16.187591 Si / 1000 Ang^3
#
#
#
# Elastic Constant Matrix: (Units=GPa)
#
#
# Indices 1 2 3 4 5 6 
#
# 1 19.7311 23.5614 45.3409 0.0000 0.0000 0.0000
# 2 23.5614 72.7193 54.9087 0.0000 0.0000 0.0000
# 3 45.3409 54.9087 139.1237 0.0000 0.0000 0.0000
# 4 0.0000 0.0000 0.0000 14.4723 0.0000 0.0000
# 5 0.0000 0.0000 0.0000 0.0000 17.6660 0.0000
# 6 0.0000 0.0000 0.0000 0.0000 0.0000 19.7568
#
#
#
# Elastic Compliance Matrix: (Units=1/GPa)
#
#
# Indices 1 2 3 4 5 6 
#
# 1 0.231194 -0.025663 -0.065218 0.000000 0.000000 0.000000
# 2 -0.025663 0.022438 -0.000492 0.000000 0.000000 0.000000
# 3 -0.065218 -0.000492 0.028637 0.000000 0.000000 0.000000
# 4 0.000000 0.000000 0.000000 0.069098 0.000000 0.000000
# 5 0.000000 0.000000 0.000000 0.000000 0.056606 0.000000
# 6 0.000000 0.000000 0.000000 0.000000 0.000000 0.050615
#
#
# Mechanical properties :
#
#
# Convention : Reuss Voigt Hill
#
# Bulk Modulus (GPa) = 10.04802 53.24400 31.64601
# Shear Modulus (GPa) = 7.41280 17.56323 12.48801
#
# Velocity S-wave (km/s) = 2.14225 3.29748 2.78052
# Velocity P-wave (km/s) = 3.51279 6.88920 5.46813
#
# Compressibility (1/GPa) = 0.09952208
#
# Stress axis : x y z
#
# Youngs Moduli (GPa) = 4.32537 44.56721 34.92000
#
# Poissons Ratio (x) = 1.14374 2.27742
# Poissons Ratio (y) = 0.11100 0.01718
# Poissons Ratio (z) = 0.28209 0.02193
#
# Static dielectric constant tensor:
#      x y z
#    x 1.535250 0.000000 0.000000 
#    y 0.000000 1.540810 0.000000 
#    z 0.000000 0.000000 1.521380 
# 
# From -- ./inp_files/9789.got.cif
#   From: 2010.05.17/outbox.cif.g08.bks.cpg/sg47_5_cif.got.tgz:9789.got - 2010.06.03 20:15:42.
