data_PCOD9381443
_publ_section_title
;
Structure prediction by ZEFSAII (Michael W. Deem and Ramdas Pophale) SiO2 
 PCOD9381443
Probable space group: P M M M
;
_chemical_formula_sum "Si O2"
_cell_formula_units_Z 46
_cell_length_a 13.650249
_cell_length_b 22.170282
_cell_length_c 7.671016
_cell_angle_alpha 90.000000
_cell_angle_beta 90.000000
_cell_angle_gamma 90.000000
_cell_volume 2321.478573
_symmetry_space_group_name_H-M "P M M M"
_symmetry_group_IT_number 47
_symmetry_cell_setting 'orthorhombic'
loop_
_space_group_symop_operation_xyz
x,y,z
-x,-y,z
x,-y,-z
-x,y,-z
-x,-y,-z
x,y,-z
-x,y,z
x,-y,z
loop_
_atom_site_type_symbol
_atom_site_label
_atom_site_fract_x
_atom_site_fract_y
_atom_site_fract_z
Si Si1 0.614525 0.000000 0.787083
Si Si2 0.891937 0.430311 0.789674
Si Si3 0.170797 0.232289 0.705588
Si Si4 0.691460 0.870819 0.788517
Si Si5 0.500000 0.203259 0.786797
Si Si6 0.289838 0.346042 0.702639
Si Si7 0.000000 0.758818 0.000000
Si Si8 0.500000 0.661965 0.798694
O O1 0.670842 0.060612 0.733468
O O2 0.500000 0.000000 0.731527
O O3 0.611644 0.000000 0.000000
O O4 0.881945 0.500000 0.733815
O O5 0.800646 0.390566 0.734880
O O6 0.000000 0.408115 0.731500
O O7 0.893563 0.429676 0.000000
O O8 0.146319 0.244714 0.500000
O O9 0.215149 0.165190 0.718726
O O10 0.254956 0.280250 0.766170
O O11 0.084770 0.240594 0.844472
O O12 0.596374 0.832672 0.733331
O O13 0.697513 0.870101 0.000000
O O14 0.500000 0.271279 0.715392
O O15 0.500000 0.202374 0.000000
O O16 0.303438 0.339236 0.500000
O O17 0.395468 0.368467 0.765825
O O18 0.500000 0.674565 0.000000
#
# Coordination Sequence:
#
# PCOD9381443 Si02
#       8
#     4   8   8   8   4   8   2   4
#     4   9  16  26  53  93 126 162 208 250 295 366
#     4   9  20  39  64  91 119 155 204 257 307 364
#     4  11  25  41  62  94 124 158 205 256 313 375
#     4  10  17  33  56  88 127 166 201 247 304 366
#     4   9  16  26  53  83 118 160 205 236 294 365
#     4  11  24  38  57  90 128 162 201 249 304 366
#     4  12  26  44  68  85 121 162 198 270 324 366
#     4  11  21  35  59  86 119 166 209 244 289 370
#
# _framework density 19.814959000000002
#
# number of rings (size 3 to 8) (size 9 to 14) (size 15 to 20)
#    0.000    1.826    3.478    1.565    3.652    0.696 
#    0.000    2.174    0.000    4.174    0.000    1.217 
#    0.000    0.000    0.000    0.000    0.000    0.000 
#
# Total GULP energy -256081.168617 kJ/mol
# GULP energy per Si atom -5566.981926 kJ/mol
# Density = 1.976986 g / cm^3
# Si number density = 19.814959 Si / 1000 Ang^3
#
#
#
# Elastic Constant Matrix: (Units=GPa)
#
#
# Indices 1 2 3 4 5 6 
#
# 1 151.5751 38.7877 29.0800 0.0000 0.0000 0.0000
# 2 38.7877 54.3937 -6.2605 0.0000 0.0000 0.0000
# 3 29.0800 -6.2605 68.2667 0.0000 0.0000 0.0000
# 4 0.0000 0.0000 0.0000 -13.7463 0.0000 0.0000
# 5 0.0000 0.0000 0.0000 0.0000 -70.2184 0.0000
# 6 0.0000 0.0000 0.0000 0.0000 0.0000 -14.6961
#
#
#
# Elastic Compliance Matrix: (Units=1/GPa)
#
#
# Indices 1 2 3 4 5 6 
#
# 1 0.009323 -0.007181 -0.004630 0.000000 0.000000 0.000000
# 2 -0.007181 0.024112 0.005270 0.000000 0.000000 0.000000
# 3 -0.004630 0.005270 0.017104 0.000000 0.000000 0.000000
# 4 0.000000 0.000000 0.000000 -0.072747 0.000000 0.000000
# 5 0.000000 0.000000 0.000000 0.000000 -0.014241 0.000000
# 6 0.000000 0.000000 0.000000 0.000000 0.000000 -0.068045
#
#
# Mechanical properties :
#
#
# Convention : Reuss Voigt Hill
#
# Bulk Modulus (GPa) = 26.69715 44.16111 35.42913
# Shear Modulus (GPa) = -63.35034 -5.55693 -34.45364
#
# Velocity S-wave (km/s) = -5.66042 -1.67645 -4.17438
# Velocity P-wave (km/s) = 5.40537 4.31136 2.30545
#
# Compressibility (1/GPa) = 0.03745718
#
# Stress axis : x y z
#
# Youngs Moduli (GPa) = 107.25730 41.47309 58.46559
#
# Poissons Ratio (x) = 0.29783 0.27070
# Poissons Ratio (y) = 0.77025 -0.30813
# Poissons Ratio (z) = 0.49661 -0.21858
#
# Static dielectric constant tensor:
#      x y z
#    x 1.581780 0.000000 0.000000 
#    y 0.000000 1.714780 0.000000 
#    z 0.000000 0.000000 1.721010 
# 
# From -- ./inp_files/4397.got.cif
#   From: 2010.05.17/outbox.cif.g08.bks.cpg/sg47_3_cif.got.tgz:4397.got - 2010.06.03 20:15:42.
