data_PCOD9381824
_publ_section_title
;
Structure prediction by ZEFSAII (Michael W. Deem and Ramdas Pophale) SiO2 
 PCOD9381824
Probable space group: P M M M
;
_chemical_formula_sum "Si O2"
_cell_formula_units_Z 52
_cell_length_a 23.998383
_cell_length_b 15.290502
_cell_length_c 7.548655
_cell_angle_alpha 90.000000
_cell_angle_beta 90.000000
_cell_angle_gamma 90.000000
_cell_volume 2769.958746
_symmetry_space_group_name_H-M "P M M M"
_symmetry_group_IT_number 47
_symmetry_cell_setting 'orthorhombic'
loop_
_space_group_symop_operation_xyz
x,y,z
-x,-y,z
x,-y,-z
-x,y,-z
-x,-y,-z
x,y,-z
-x,y,z
x,-y,z
loop_
_atom_site_type_symbol
_atom_site_label
_atom_site_fract_x
_atom_site_fract_y
_atom_site_fract_z
Si Si1 0.567361 0.592297 0.290654
Si Si2 0.335251 0.901467 0.287287
Si Si3 0.063953 0.402145 0.287369
Si Si4 0.211368 0.100732 0.787990
Si Si5 0.564117 0.782921 0.282362
Si Si6 0.000000 0.102050 0.216809
Si Si7 0.107426 0.212426 0.211967
O O1 0.581086 0.591809 0.500000
O O2 0.500000 0.591840 0.279714
O O3 0.587544 0.500000 0.214140
O O4 0.582976 0.686630 0.219866
O O5 0.339971 0.904494 0.500000
O O6 0.273778 0.865667 0.248111
O O7 0.389140 0.850026 0.222730
O O8 0.335790 0.000000 0.217295
O O9 0.061942 0.406101 0.500000
O O10 0.081994 0.500000 0.226275
O O11 0.099263 0.315667 0.245358
O O12 0.000000 0.388438 0.223859
O O13 0.163562 0.165777 0.720592
O O14 0.206270 0.000000 0.720100
O O15 0.205362 0.095322 0.000000
O O16 0.563223 0.781601 0.500000
O O17 0.500000 0.800248 0.228663
O O18 0.054276 0.156217 0.276009
O O19 0.000000 0.000000 0.271318
O O20 0.000000 0.101485 0.000000
O O21 0.107659 0.203410 0.000000
#
# Coordination Sequence:
#
# PCOD9381824 Si02
#       7
#     8   8   8   8   8   4   8
#     4   7   9  14  26  46  73 102 127 153 193 246
#     4   9  17  28  42  61  84 112 147 182 216 258
#     4   9  18  32  48  67  95 128 154 179 221 274
#     4   9  18  32  48  65  87 118 153 184 220 271
#     4   8  13  21  35  57  83 108 136 175 222 264
#     4   9  16  26  42  67  96 116 135 177 232 273
#     4  10  18  29  48  72  91 114 151 192 229 262
#
# _framework density 18.772841
#
# number of rings (size 3 to 8) (size 9 to 14) (size 15 to 20)
#    0.000    3.308    0.769    2.308    0.000    3.077 
#    0.000    2.308    0.000    3.231    0.000    4.308 
#    0.000    0.000    0.000    3.846    0.000    3.077 
#
# Total GULP energy -289475.897870 kJ/mol
# GULP energy per Si atom -5566.844190 kJ/mol
# Density = 1.873011 g / cm^3
# Si number density = 18.772841 Si / 1000 Ang^3
#
#
#
# Elastic Constant Matrix: (Units=GPa)
#
#
# Indices 1 2 3 4 5 6 
#
# 1 139.2304 98.8343 3.5690 0.0000 0.0000 0.0000
# 2 98.8343 141.4454 3.5002 0.0000 0.0000 0.0000
# 3 3.5690 3.5002 44.1945 0.0000 0.0000 0.0000
# 4 0.0000 0.0000 0.0000 39.5300 0.0000 0.0000
# 5 0.0000 0.0000 0.0000 0.0000 16.2959 0.0000
# 6 0.0000 0.0000 0.0000 0.0000 0.0000 7.5360
#
#
#
# Elastic Compliance Matrix: (Units=1/GPa)
#
#
# Indices 1 2 3 4 5 6 
#
# 1 0.014257 -0.009953 -0.000363 0.000000 0.000000 0.000000
# 2 -0.009953 0.014032 -0.000308 0.000000 0.000000 0.000000
# 3 -0.000363 -0.000308 0.022681 0.000000 0.000000 0.000000
# 4 0.000000 0.000000 0.000000 0.025297 0.000000 0.000000
# 5 0.000000 0.000000 0.000000 0.000000 0.061365 0.000000
# 6 0.000000 0.000000 0.000000 0.000000 0.000000 0.132696
#
#
# Mechanical properties :
#
#
# Convention : Reuss Voigt Hill
#
# Bulk Modulus (GPa) = 33.64432 59.63081 46.63757
# Shear Modulus (GPa) = 16.58470 27.27018 21.92744
#
# Velocity S-wave (km/s) = 2.97550 3.81549 3.42137
# Velocity P-wave (km/s) = 5.45578 7.15849 6.36433
#
# Compressibility (1/GPa) = 0.02972270
#
# Stress axis : x y z
#
# Youngs Moduli (GPa) = 70.14184 71.26559 44.08991
#
# Poissons Ratio (x) = 0.70930 0.01601
# Poissons Ratio (y) = 0.69811 0.01356
# Poissons Ratio (z) = 0.02546 0.02192
#
# Static dielectric constant tensor:
#      x y z
#    x 1.620760 0.000000 0.000000 
#    y 0.000000 1.678230 0.000000 
#    z 0.000000 0.000000 1.730870 
# 
# From -- ./inp_files/12551.got.cif
#   From: 2010.05.17/outbox.cif.g08.bks.cpg/sg47_7_cif.got.tgz:12551.got - 2010.06.03 20:15:42.
