data_PCOD9381779
_publ_section_title
;
Structure prediction by ZEFSAII (Michael W. Deem and Ramdas Pophale) SiO2 
 PCOD9381779
Probable space group: P M M M
;
_chemical_formula_sum "Si O2"
_cell_formula_units_Z 56
_cell_length_a 19.749868
_cell_length_b 19.310598
_cell_length_c 7.455839
_cell_angle_alpha 90.000000
_cell_angle_beta 90.000000
_cell_angle_gamma 90.000000
_cell_volume 2843.521011
_symmetry_space_group_name_H-M "P M M M"
_symmetry_group_IT_number 47
_symmetry_cell_setting 'orthorhombic'
loop_
_space_group_symop_operation_xyz
x,y,z
-x,-y,z
x,-y,-z
-x,y,-z
-x,-y,-z
x,y,-z
-x,y,z
x,-y,z
loop_
_atom_site_type_symbol
_atom_site_label
_atom_site_fract_x
_atom_site_fract_y
_atom_site_fract_z
Si Si1 0.212443 0.284649 0.709730
Si Si2 0.076088 0.214114 0.783396
Si Si3 0.716985 0.576534 0.280520
Si Si4 0.846251 0.077179 0.780449
Si Si5 0.425302 0.367549 0.287829
Si Si6 0.287942 0.854342 0.796028
Si Si7 0.575660 0.795537 0.217137
O O1 0.230371 0.279840 0.500000
O O2 0.133059 0.269211 0.729418
O O3 0.236383 0.359311 0.776144
O O4 0.252506 0.221420 0.800094
O O5 0.103926 0.138823 0.724007
O O6 0.000000 0.227102 0.720096
O O7 0.075060 0.213143 0.000000
O O8 0.716884 0.576804 0.500000
O O9 0.738195 0.500000 0.223259
O O10 0.640324 0.592751 0.219084
O O11 0.770358 0.096827 0.717296
O O12 0.865662 0.000000 0.725838
O O13 0.845087 0.078821 0.000000
O O14 0.428072 0.381931 0.500000
O O15 0.500000 0.383778 0.212840
O O16 0.414045 0.285087 0.266176
O O17 0.361867 0.841476 0.714876
O O18 0.298563 0.878633 0.000000
O O19 0.500000 0.815378 0.276702
O O20 0.576992 0.798236 0.000000
#
# Coordination Sequence:
#
# PCOD9381779 Si02
#       7
#     8   8   8   8   8   8   8
#     4  10  18  29  47  68  89 114 146 182 217 257
#     4   9  18  32  50  71  93 117 142 171 210 255
#     4   9  17  28  42  63  90 117 146 183 225 263
#     4   8  14  25  43  68  93 116 144 175 207 250
#     4   9  16  26  41  61  85 113 147 185 223 262
#     4   9  16  27  44  63  86 117 151 186 221 257
#     4   9  16  25  39  59  84 115 149 186 226 262
#
# _framework density 19.693894
#
# number of rings (size 3 to 8) (size 9 to 14) (size 15 to 20)
#    0.000    3.000    1.429    1.286    0.000    0.857 
#    0.000    2.857    0.000   11.571    0.000   12.000 
#    0.000    0.000    0.000    8.714    0.000    9.429 
#
# Total GULP energy -312204.604517 kJ/mol
# GULP energy per Si atom -5575.082224 kJ/mol
# Density = 1.964907 g / cm^3
# Si number density = 19.693894 Si / 1000 Ang^3
#
#
#
# Elastic Constant Matrix: (Units=GPa)
#
#
# Indices 1 2 3 4 5 6 
#
# 1 117.9443 38.8213 -2.8039 0.0000 0.0000 0.0000
# 2 38.8213 73.7444 0.9414 0.0000 0.0000 0.0000
# 3 -2.8039 0.9414 61.4597 0.0000 0.0000 0.0000
# 4 0.0000 0.0000 0.0000 9.5326 0.0000 0.0000
# 5 0.0000 0.0000 0.0000 0.0000 7.4264 0.0000
# 6 0.0000 0.0000 0.0000 0.0000 0.0000 18.2287
#
#
#
# Elastic Compliance Matrix: (Units=1/GPa)
#
#
# Indices 1 2 3 4 5 6 
#
# 1 0.010274 -0.005416 0.000552 0.000000 0.000000 0.000000
# 2 -0.005416 0.016418 -0.000499 0.000000 0.000000 0.000000
# 3 0.000552 -0.000499 0.016304 0.000000 0.000000 0.000000
# 4 0.000000 0.000000 0.000000 0.104903 0.000000 0.000000
# 5 0.000000 0.000000 0.000000 0.000000 0.134655 0.000000
# 6 0.000000 0.000000 0.000000 0.000000 0.000000 0.054859
#
#
# Mechanical properties :
#
#
# Convention : Reuss Voigt Hill
#
# Bulk Modulus (GPa) = 30.98814 36.34069 33.66441
# Shear Modulus (GPa) = 13.93168 21.45018 17.69093
#
# Velocity S-wave (km/s) = 2.66261 3.30385 3.00041
# Velocity P-wave (km/s) = 5.02212 5.74863 5.39761
#
# Compressibility (1/GPa) = 0.03227041
#
# Stress axis : x y z
#
# Youngs Moduli (GPa) = 97.33046 60.90977 61.33604
#
# Poissons Ratio (x) = 0.32987 -0.03384
# Poissons Ratio (y) = 0.52712 0.03058
# Poissons Ratio (z) = -0.05370 0.03037
#
# Static dielectric constant tensor:
#      x y z
#    x 1.709360 0.000000 0.000000 
#    y 0.000000 1.659040 0.000000 
#    z 0.000000 0.000000 1.774050 
# 
# From -- ./inp_files/9870.got.cif
#   From: 2010.05.17/outbox.cif.g08.bks.cpg/sg47_5_cif.got.tgz:9870.got - 2010.06.03 20:15:42.
