data_PCOD9381593
_publ_section_title
;
Structure prediction by ZEFSAII (Michael W. Deem and Ramdas Pophale) SiO2 
 PCOD9381593
Probable space group: P M M M
;
_chemical_formula_sum "Si O2"
_cell_formula_units_Z 64
_cell_length_a 32.256464
_cell_length_b 14.980762
_cell_length_c 7.493505
_cell_angle_alpha 90.000000
_cell_angle_beta 90.000000
_cell_angle_gamma 90.000000
_cell_volume 3621.059521
_symmetry_space_group_name_H-M "P M M M"
_symmetry_group_IT_number 47
_symmetry_cell_setting 'orthorhombic'
loop_
_space_group_symop_operation_xyz
x,y,z
-x,-y,z
x,-y,-z
-x,y,-z
-x,-y,-z
x,y,-z
-x,y,z
x,-y,z
loop_
_atom_site_type_symbol
_atom_site_label
_atom_site_fract_x
_atom_site_fract_y
_atom_site_fract_z
Si Si1 0.839453 0.099187 0.784395
Si Si2 0.635504 0.398251 0.711442
Si Si3 0.544576 0.603712 0.785550
Si Si4 0.714522 0.711359 0.719086
Si Si5 0.047106 0.602195 0.782079
Si Si6 0.877239 0.719315 0.788771
Si Si7 0.796165 0.397612 0.284612
Si Si8 0.741881 0.901508 0.288076
O O1 0.865636 0.183041 0.716161
O O2 0.791174 0.112228 0.736908
O O3 0.851833 0.000000 0.722355
O O4 0.841596 0.099256 0.000000
O O5 0.642193 0.405803 0.500000
O O6 0.636505 0.500000 0.784819
O O7 0.589327 0.358871 0.734853
O O8 0.672773 0.337538 0.780128
O O9 0.500000 0.641928 0.724756
O O10 0.545344 0.500000 0.724769
O O11 0.543741 0.603129 0.000000
O O12 0.714669 0.712654 0.500000
O O13 0.755011 0.655027 0.774250
O O14 0.719177 0.813428 0.781041
O O15 0.056237 0.500000 0.728090
O O16 0.082218 0.669569 0.716758
O O17 0.000000 0.623958 0.728325
O O18 0.047785 0.602622 0.000000
O O19 0.837289 0.655927 0.767339
O O20 0.884229 0.730686 0.000000
O O21 0.794985 0.399614 0.500000
O O22 0.796795 0.500000 0.221443
O O23 0.734213 0.904769 0.500000
O O24 0.731587 0.000000 0.214369
#
# Coordination Sequence:
#
# PCOD9381593 Si02
#       8
#     8   8   8   8   8   8   8   8
#     4   9  17  28  41  59  83 106 128 162 210 250
#     4   9  16  25  38  55  76 106 139 164 190 231
#     4   8  14  25  39  54  75 103 133 167 205 237
#     4   9  16  27  40  56  81 109 135 164 197 237
#     4   8  14  25  41  60  80 102 130 165 203 241
#     4  10  18  28  44  63  81 103 135 172 203 236
#     4  10  19  29  41  58  83 114 140 163 197 240
#     4   9  16  27  44  61  76 101 139 175 201 233
#
# _framework density 17.674385000000001
#
# number of rings (size 3 to 8) (size 9 to 14) (size 15 to 20)
#    0.000    3.000    1.250    1.500    0.000    2.500 
#    0.000    2.500    0.000    2.250    0.000    4.375 
#    0.000    0.500    0.000   10.500    0.000    5.875 
#
# Total GULP energy -356665.325529 kJ/mol
# GULP energy per Si atom -5572.895711 kJ/mol
# Density = 1.763416 g / cm^3
# Si number density = 17.674385 Si / 1000 Ang^3
#
#
#
# Elastic Constant Matrix: (Units=GPa)
#
#
# Indices 1 2 3 4 5 6 
#
# 1 142.4852 89.4974 -2.4270 0.0000 0.0000 0.0000
# 2 89.4974 145.2024 4.4259 0.0000 0.0000 0.0000
# 3 -2.4270 4.4259 47.1495 0.0000 0.0000 0.0000
# 4 0.0000 0.0000 0.0000 5.0347 0.0000 0.0000
# 5 0.0000 0.0000 0.0000 0.0000 14.2549 0.0000
# 6 0.0000 0.0000 0.0000 0.0000 0.0000 7.8872
#
#
#
# Elastic Compliance Matrix: (Units=1/GPa)
#
#
# Indices 1 2 3 4 5 6 
#
# 1 0.011526 -0.007143 0.001264 0.000000 0.000000 0.000000
# 2 -0.007143 0.011333 -0.001432 0.000000 0.000000 0.000000
# 3 0.001264 -0.001432 0.021409 0.000000 0.000000 0.000000
# 4 0.000000 0.000000 0.000000 0.198623 0.000000 0.000000
# 5 0.000000 0.000000 0.000000 0.000000 0.070151 0.000000
# 6 0.000000 0.000000 0.000000 0.000000 0.000000 0.126788
#
#
# Mechanical properties :
#
#
# Convention : Reuss Voigt Hill
#
# Bulk Modulus (GPa) = 33.73040 57.53663 45.63351
# Shear Modulus (GPa) = 10.76809 21.65806 16.21308
#
# Velocity S-wave (km/s) = 2.47097 3.50436 3.03202
# Velocity P-wave (km/s) = 5.22175 6.99989 6.17516
#
# Compressibility (1/GPa) = 0.02964685
#
# Stress axis : x y z
#
# Youngs Moduli (GPa) = 86.75714 88.23598 46.71032
#
# Poissons Ratio (x) = 0.63027 -0.05903
# Poissons Ratio (y) = 0.61971 0.06687
# Poissons Ratio (z) = -0.10965 0.12631
#
# Static dielectric constant tensor:
#      x y z
#    x 1.598580 0.000000 0.000000 
#    y 0.000000 1.612480 0.000000 
#    z 0.000000 0.000000 1.704340 
# 
# From -- ./inp_files/14274.got.cif
#   From: 2010.05.17/outbox.cif.g08.bks.cpg/sg47_8_cif.got.tgz:14274.got - 2010.06.03 20:15:42.
