data_PCOD9381425
_publ_section_title
;
Structure prediction by ZEFSAII (Michael W. Deem and Ramdas Pophale) SiO2 
 PCOD9381425
Probable space group: P M M M
;
_chemical_formula_sum "Si O2"
_cell_formula_units_Z 37
_cell_length_a 11.293696
_cell_length_b 21.191979
_cell_length_c 7.433503
_cell_angle_alpha 90.000000
_cell_angle_beta 90.000000
_cell_angle_gamma 90.000000
_cell_volume 1779.103153
_symmetry_space_group_name_H-M "P M M M"
_symmetry_group_IT_number 47
_symmetry_cell_setting 'orthorhombic'
loop_
_space_group_symop_operation_xyz
x,y,z
-x,-y,z
x,-y,-z
-x,y,-z
-x,-y,-z
x,y,-z
-x,y,z
x,-y,z
loop_
_atom_site_type_symbol
_atom_site_label
_atom_site_fract_x
_atom_site_fract_y
_atom_site_fract_z
Si Si1 0.634242 0.691596 0.718060
Si Si2 0.000000 0.645032 0.214852
Si Si3 0.759754 0.570654 0.711562
Si Si4 0.500000 0.869916 0.201420
Si Si5 0.745464 0.180531 0.795008
Si Si6 0.000000 0.208680 0.778473
Si Si7 0.500000 0.000000 0.000000
O O1 0.645216 0.693548 0.500000
O O2 0.500000 0.707584 0.764137
O O3 0.667344 0.621912 0.783182
O O4 0.720496 0.744545 0.794200
O O5 0.885594 0.605375 0.272028
O O6 0.000000 0.717636 0.280001
O O7 0.000000 0.647942 0.000000
O O8 0.733833 0.564671 0.500000
O O9 0.760343 0.500000 0.787875
O O10 0.625333 0.849219 0.286865
O O11 0.500000 0.943652 0.154516
O O12 0.500000 0.838211 0.000000
O O13 0.878008 0.175245 0.719238
O O14 0.750733 0.155876 0.000000
O O15 0.000000 0.208880 0.000000
#
# Coordination Sequence:
#
# PCOD9381425 Si02
#       7
#     8   4   8   4   8   4   1
#     4  10  20  32  48  71  96 122 166 220 261 306
#     4  11  20  32  49  70  90 124 158 227 261 310
#     4  10  21  35  48  63  90 130 169 209 266 326
#     4   8  16  28  53  75 108 132 166 192 231 282
#     4  10  17  31  51  75  98 137 165 201 250 296
#     4   9  18  28  46  73 104 122 163 209 256 294
#     4   8  16  32  48  94 110 132 178 198 222 284
#
# _framework density 20.796996
#
# number of rings (size 3 to 8) (size 9 to 14) (size 15 to 20)
#    0.324    1.946    3.243    0.649    0.000    2.162 
#    0.000    2.703    0.000    1.297    0.000    4.541 
#    0.000    0.000    0.000    1.946    0.000    0.000 
#
# Total GULP energy -205980.088211 kJ/mol
# GULP energy per Si atom -5567.029411 kJ/mol
# Density = 2.074966 g / cm^3
# Si number density = 20.796996 Si / 1000 Ang^3
#
#
#
# Elastic Constant Matrix: (Units=GPa)
#
#
# Indices 1 2 3 4 5 6 
#
# 1 163.4019 41.5222 0.9617 0.0000 0.0000 0.0000
# 2 41.5222 101.9024 5.4797 0.0000 0.0000 0.0000
# 3 0.9617 5.4797 65.5843 0.0000 0.0000 0.0000
# 4 0.0000 0.0000 0.0000 17.5647 0.0000 0.0000
# 5 0.0000 0.0000 0.0000 0.0000 1.5239 0.0000
# 6 0.0000 0.0000 0.0000 0.0000 0.0000 2.8598
#
#
#
# Elastic Compliance Matrix: (Units=1/GPa)
#
#
# Indices 1 2 3 4 5 6 
#
# 1 0.006828 -0.002789 0.000133 0.000000 0.000000 0.000000
# 2 -0.002789 0.010997 -0.000878 0.000000 0.000000 0.000000
# 3 0.000133 -0.000878 0.015319 0.000000 0.000000 0.000000
# 4 0.000000 0.000000 0.000000 0.056932 0.000000 0.000000
# 5 0.000000 0.000000 0.000000 0.000000 0.656210 0.000000
# 6 0.000000 0.000000 0.000000 0.000000 0.000000 0.349681
#
#
# Mechanical properties :
#
#
# Convention : Reuss Voigt Hill
#
# Bulk Modulus (GPa) = 38.35044 47.42398 42.88721
# Shear Modulus (GPa) = 4.49751 23.25133 13.87442
#
# Velocity S-wave (km/s) = 1.47216 3.34730 2.58570
# Velocity P-wave (km/s) = 4.62278 6.14752 5.43885
#
# Compressibility (1/GPa) = 0.02607532
#
# Stress axis : x y z
#
# Youngs Moduli (GPa) = 146.45804 90.93318 65.27860
#
# Poissons Ratio (x) = 0.25364 -0.00868
# Poissons Ratio (y) = 0.40852 0.05731
# Poissons Ratio (z) = -0.01947 0.07983
#
# Static dielectric constant tensor:
#      x y z
#    x 1.802920 0.000000 0.000000 
#    y 0.000000 1.704190 0.000000 
#    z 0.000000 0.000000 1.825930 
# 
# From -- ./inp_files/3996.got.cif
#   From: 2010.05.17/outbox.cif.g08.bks.cpg/sg47_2_cif.got.tgz:3996.got - 2010.06.03 20:15:42.
