data_PCOD9381097
_publ_section_title
;
Structure prediction by ZEFSAII (Michael W. Deem and Ramdas Pophale) SiO2 
 PCOD9381097
Probable space group: I M A 2
;
_chemical_formula_sum "Si O2"
_cell_formula_units_Z 32
_cell_length_a 9.000000
_cell_length_b 30.000000
_cell_length_c 12.000000
_cell_angle_alpha 90.000000
_cell_angle_beta 90.000000
_cell_angle_gamma 90.000000
_cell_volume 3240.000000
_symmetry_space_group_name_H-M "I M A 2"
_symmetry_group_IT_number 46
_symmetry_cell_setting 'orthorhombic'
loop_
_space_group_symop_operation_xyz
x,y,z
-x,-y,z
1/2-x,y,z
1/2+x,-y,z
1/2+x,1/2+y,1/2+z
1/2-x,1/2-y,1/2+z
-x,1/2+y,1/2+z
x,1/2-y,1/2+z
loop_
_atom_site_type_symbol
_atom_site_label
_atom_site_fract_x
_atom_site_fract_y
_atom_site_fract_z
Si Si1 0.074451 0.093737 0.758670
Si Si2 0.575985 0.212398 0.277137
Si Si3 0.569408 0.121769 0.369929
Si Si4 0.583092 0.072848 0.974343
Si Si5 0.072215 0.952002 0.552198
Si Si6 0.426300 0.544005 0.714921
Si Si7 0.424209 0.305578 0.312851
Si Si8 0.085856 0.676701 0.528729
O O1 0.250000 0.092683 0.735679
O O2 0.024390 0.146124 0.764463
O O3 0.037348 0.072530 0.878248
O O4 0.984063 0.064871 0.671093
O O5 0.750000 0.219412 0.302748
O O6 0.516501 0.172901 0.358875
O O7 0.499305 0.260241 0.272841
O O8 0.564730 0.191281 0.154525
O O9 0.750000 0.125062 0.366932
O O10 0.529616 0.089762 0.472563
O O11 0.520916 0.090507 0.267142
O O12 0.750000 0.061721 0.932929
O O13 0.547915 0.045273 0.083552
O O14 0.589332 0.123675 0.017727
O O15 0.250000 0.956768 0.547213
O O16 0.000000 0.000000 0.526131
O O17 0.500000 0.500000 0.764193
O O18 0.250000 0.541612 0.734698
O O19 0.250000 0.303396 0.293094
O O20 0.462221 0.306880 0.443960
O O21 0.250000 0.693184 0.491898
#
# Coordination Sequence:
#
# PCOD9381097 Si02
#       8
#     8   8   8   8   8   8   8   8
#     4  10  22  40  59  80 115 155 196 242 291 347
#     4  10  19  35  60  86 112 149 200 247 291 348
#     4   9  19  37  59  84 114 149 191 240 289 342
#     4   9  17  33  57  81 107 142 183 229 285 339
#     4  11  23  40  63  87 117 157 202 249 300 358
#     4  10  19  33  54  82 114 143 175 222 278 336
#     4  10  22  37  54  83 120 156 191 241 302 356
#     4   9  17  33  57  79 104 143 188 236 283 338
#
# _framework density 9.8765429999999999
#
# number of rings (size 3 to 8) (size 9 to 14) (size 15 to 20)
#    0.000    2.250    1.250    1.500    0.000    4.000 
#    0.000    7.500    0.000    0.000    0.000    0.000 
#    0.000    0.000    0.000    0.000    0.000    0.000 
#
# Total GULP energy -178288.667060 kJ/mol
# GULP energy per Si atom -5571.520846 kJ/mol
# Density = 0.985406 g / cm^3
# Si number density = 9.876543 Si / 1000 Ang^3
#
#
#
# Elastic Constant Matrix: (Units=GPa)
#
#
# Indices 1 2 3 4 5 6 
#
# 1 11.3211 26.6189 39.5059 0.0002 0.0000 0.0000
# 2 26.6189 50.7246 14.2652 0.0003 0.0004 0.0001
# 3 39.5059 14.2652 36.3057 -0.0005 0.0008 0.0001
# 4 0.0002 0.0003 -0.0005 -12.9155 -0.0005 0.0002
# 5 0.0000 0.0004 0.0008 -0.0005 -2.4067 0.0001
# 6 0.0000 0.0001 0.0001 0.0002 0.0001 32.4326
#
#
#
# Elastic Compliance Matrix: (Units=1/GPa)
#
#
# Indices 1 2 3 4 5 6 
#
# 1 -0.029073 0.007150 0.028826 -0.000001 0.000010 0.000000
# 2 0.007150 0.020405 -0.015798 0.000001 -0.000002 0.000000
# 3 0.028826 -0.015798 0.002384 0.000000 -0.000002 0.000000
# 4 -0.000001 0.000001 0.000000 -0.077426 0.000017 0.000001
# 5 0.000010 -0.000002 -0.000002 0.000017 -0.415506 0.000001
# 6 0.000000 0.000000 0.000000 0.000001 0.000001 0.030833
#
#
# Mechanical properties :
#
#
# Convention : Reuss Voigt Hill
#
# Bulk Modulus (GPa) = 29.34878 28.79238 29.07058
# Shear Modulus (GPa) = -10.05261 4.61950 -2.71656
#
# Velocity S-wave (km/s) = -2.25836 1.53091 -1.17399
# Velocity P-wave (km/s) = 2.84426 4.21102 3.59323
#
# Compressibility (1/GPa) = 0.03407297
#
# Stress axis : x y z
#
# Youngs Moduli (GPa) = -34.39608 49.00781 419.50493
#
# Poissons Ratio (x) = -0.35041 -12.09281
# Poissons Ratio (y) = 0.24593 6.62722
# Poissons Ratio (z) = 0.99151 0.77421
#
# Static dielectric constant tensor:
#      x y z
#    x 1.705380 0.000000 0.000000 
#    y 0.000000 1.717470 0.000000 
#    z 0.000000 0.000000 1.730090 
# 
# From -- ./inp_files/9780.got.cif
#   From: 2010.05.17/outbox.ucp.g08.bks.cvg/sg46_5_cif.got.tgz:9780.got - 2010.06.11 16:34:52.
