data_PCOD9381360
_publ_section_title
;
Structure prediction by ZEFSAII (Michael W. Deem and Ramdas Pophale) SiO2 
 PCOD9381360
Probable space group: P M M M
;
_chemical_formula_sum "Si O2"
_cell_formula_units_Z 52
_cell_length_a 12.988399
_cell_length_b 7.928145
_cell_length_c 25.611966
_cell_angle_alpha 90.000000
_cell_angle_beta 90.000000
_cell_angle_gamma 90.000000
_cell_volume 2637.364297
_symmetry_space_group_name_H-M "P M M M"
_symmetry_group_IT_number 47
_symmetry_cell_setting 'orthorhombic'
loop_
_space_group_symop_operation_xyz
x,y,z
-x,-y,z
x,-y,-z
-x,y,-z
-x,-y,-z
x,y,-z
-x,y,z
x,-y,z
loop_
_atom_site_type_symbol
_atom_site_label
_atom_site_fract_x
_atom_site_fract_y
_atom_site_fract_z
Si Si1 0.113412 0.797620 0.670025
Si Si2 0.500000 0.792158 0.249685
Si Si3 0.121601 0.292924 0.500000
Si Si4 0.376514 0.303792 0.056191
Si Si5 0.322272 0.800165 0.828656
Si Si6 0.891001 0.795502 0.206491
Si Si7 0.723494 0.693913 0.409199
Si Si8 0.500000 0.800978 0.629687
O O1 0.114816 0.765715 0.731627
O O2 0.211437 0.714312 0.643685
O O3 0.000000 0.742003 0.649684
O O4 0.120341 0.000000 0.662478
O O5 0.597038 0.735640 0.214460
O O6 0.500000 0.732884 0.310107
O O7 0.500000 0.000000 0.250913
O O8 0.116742 0.500000 0.500000
O O9 0.193271 0.235325 0.451213
O O10 0.000000 0.238179 0.500000
O O11 0.500000 0.299500 0.054116
O O12 0.345205 0.500000 0.058672
O O13 0.349735 0.221466 0.111021
O O14 0.339051 0.233503 0.000000
O O15 0.210070 0.725440 0.819645
O O16 0.318279 0.000000 0.818313
O O17 0.000000 0.730177 0.186619
O O18 0.892143 0.000000 0.200287
O O19 0.710579 0.500000 0.423823
O O20 0.607131 0.758482 0.400107
O O21 0.500000 0.000000 0.635232
#
# Coordination Sequence:
#
# PCOD9381360 Si02
#       8
#     8   4   4   8   8   8   8   4
#     4   9  17  32  55  80 106 139 176 213 261 317
#     4   9  18  31  49  75 103 133 163 198 249 304
#     4   9  20  39  61  82 106 139 174 213 268 323
#     4   9  18  32  47  65  94 130 161 194 249 311
#     4  10  17  28  49  74  97 123 163 209 247 284
#     4   8  15  28  47  71 100 135 170 202 244 303
#     4  11  22  37  57  81 108 139 179 222 263 308
#     4  11  23  40  58  76 109 150 181 208 253 320
#
# _framework density 19.716653999999998
#
# number of rings (size 3 to 8) (size 9 to 14) (size 15 to 20)
#    0.000    2.538    0.769    3.462    0.000    4.000 
#    0.000    7.692    0.000    4.615    0.000    3.231 
#    0.000    0.000    0.000    0.000    0.000    0.000 
#
# Total GULP energy -289521.775037 kJ/mol
# GULP energy per Si atom -5567.726443 kJ/mol
# Density = 1.967178 g / cm^3
# Si number density = 19.716654 Si / 1000 Ang^3
#
#
#
# Elastic Constant Matrix: (Units=GPa)
#
#
# Indices 1 2 3 4 5 6 
#
# 1 177.6772 18.3655 65.5981 0.0000 0.0000 0.0000
# 2 18.3655 14.0048 7.1033 0.0000 0.0000 0.0000
# 3 65.5981 7.1033 74.1125 0.0000 0.0000 0.0000
# 4 0.0000 0.0000 0.0000 17.7698 0.0000 0.0000
# 5 0.0000 0.0000 0.0000 0.0000 85.9986 0.0000
# 6 0.0000 0.0000 0.0000 0.0000 0.0000 7.0600
#
#
#
# Elastic Compliance Matrix: (Units=1/GPa)
#
#
# Indices 1 2 3 4 5 6 
#
# 1 0.009202 -0.008342 -0.007346 0.000000 0.000000 0.000000
# 2 -0.008342 0.082615 -0.000534 0.000000 0.000000 0.000000
# 3 -0.007346 -0.000534 0.020046 0.000000 0.000000 0.000000
# 4 0.000000 0.000000 0.000000 0.056275 0.000000 0.000000
# 5 0.000000 0.000000 0.000000 0.000000 0.011628 0.000000
# 6 0.000000 0.000000 0.000000 0.000000 0.000000 0.141643
#
#
# Mechanical properties :
#
#
# Convention : Reuss Voigt Hill
#
# Bulk Modulus (GPa) = 12.59147 49.76980 31.18063
# Shear Modulus (GPa) = 13.14658 33.81419 23.48039
#
# Velocity S-wave (km/s) = 2.58500 4.14576 3.45467
# Velocity P-wave (km/s) = 3.91276 6.94361 5.63575
#
# Compressibility (1/GPa) = 0.07941888
#
# Stress axis : x y z
#
# Youngs Moduli (GPa) = 108.66635 12.10434 49.88522
#
# Poissons Ratio (x) = 0.10098 0.36644
# Poissons Ratio (y) = 0.90651 0.02666
# Poissons Ratio (z) = 0.79823 0.00647
#
# Static dielectric constant tensor:
#      x y z
#    x 1.704810 0.000000 0.000000 
#    y 0.000000 1.723230 0.000000 
#    z 0.000000 0.000000 1.711320 
# 
# From -- ./inp_files/33651.got.cif
#   From: 2010.05.17/outbox.cif.g08.bks.cpg/sg47_17_cif.got.tgz:33651.got - 2010.06.03 20:15:42.
