data_PCOD9381644
_publ_section_title
;
Structure prediction by ZEFSAII (Michael W. Deem and Ramdas Pophale) SiO2 
 PCOD9381644
Probable space group: P M M M
;
_chemical_formula_sum "Si O2"
_cell_formula_units_Z 64
_cell_length_a 23.894368
_cell_length_b 14.598422
_cell_length_c 9.742028
_cell_angle_alpha 90.000000
_cell_angle_beta 90.000000
_cell_angle_gamma 90.000000
_cell_volume 3398.214864
_symmetry_space_group_name_H-M "P M M M"
_symmetry_group_IT_number 47
_symmetry_cell_setting 'orthorhombic'
loop_
_space_group_symop_operation_xyz
x,y,z
-x,-y,z
x,-y,-z
-x,y,-z
-x,-y,-z
x,y,-z
-x,y,z
x,-y,z
loop_
_atom_site_type_symbol
_atom_site_label
_atom_site_fract_x
_atom_site_fract_y
_atom_site_fract_z
Si Si1 0.567367 0.893833 0.660311
Si Si2 0.738107 0.900321 0.148964
Si Si3 0.360666 0.244499 0.839867
Si Si4 0.162689 0.137881 0.344797
Si Si5 0.062649 0.140002 0.843671
Si Si6 0.063127 0.637096 0.840950
Si Si7 0.831560 0.640934 0.657849
Si Si8 0.297639 0.392724 0.338338
O O1 0.583866 0.879196 0.500000
O O2 0.500000 0.888468 0.667083
O O3 0.594055 0.816761 0.757843
O O4 0.582559 0.000000 0.695740
O O5 0.693385 0.821194 0.157945
O O6 0.782199 0.894119 0.268613
O O7 0.710259 0.000000 0.152798
O O8 0.767332 0.891832 0.000000
O O9 0.339229 0.332595 0.754675
O O10 0.375913 0.263438 0.000000
O O11 0.160504 0.107535 0.500000
O O12 0.109027 0.107500 0.260167
O O13 0.164746 0.248699 0.342620
O O14 0.063142 0.251513 0.840223
O O15 0.000000 0.110928 0.808346
O O16 0.074724 0.112998 0.000000
O O17 0.116312 0.607964 0.750128
O O18 0.000000 0.609612 0.795317
O O19 0.069804 0.609320 0.000000
O O20 0.837503 0.609388 0.500000
O O21 0.768141 0.617581 0.703804
O O22 0.300565 0.364249 0.500000
O O23 0.311641 0.500000 0.330013
#
# Coordination Sequence:
#
# PCOD9381644 Si02
#       8
#     8   8   8   8   8   8   8   8
#     4   9  19  37  62  93 129 168 205 236 270 321
#     4  10  21  35  50  72 105 144 180 213 260 325
#     4  11  22  36  58  87 120 154 191 238 284 330
#     4  10  18  28  45  69  97 127 165 217 270 319
#     4   8  14  25  41  61  87 122 163 205 256 323
#     4   8  14  24  40  64  92 124 164 210 266 336
#     4   9  17  29  46  70  98 129 172 224 278 334
#     4  10  21  38  58  79 109 150 195 242 291 345
#
# _framework density 18.833418000000002
#
# number of rings (size 3 to 8) (size 9 to 14) (size 15 to 20)
#    0.000    2.625    1.250    2.250    0.000    3.500 
#    0.000    3.125    0.000    1.125    0.000    7.875 
#    0.000    0.000    0.000    0.000    0.000    0.000 
#
# Total GULP energy -356913.570983 kJ/mol
# GULP energy per Si atom -5576.774547 kJ/mol
# Density = 1.879055 g / cm^3
# Si number density = 18.833418 Si / 1000 Ang^3
#
#
#
# Elastic Constant Matrix: (Units=GPa)
#
#
# Indices 1 2 3 4 5 6 
#
# 1 74.6688 24.3594 59.8812 0.0000 0.0000 0.0000
# 2 24.3594 93.5600 34.9756 0.0000 0.0000 0.0000
# 3 59.8812 34.9756 95.0628 0.0000 0.0000 0.0000
# 4 0.0000 0.0000 0.0000 6.7114 0.0000 0.0000
# 5 0.0000 0.0000 0.0000 0.0000 29.4586 0.0000
# 6 0.0000 0.0000 0.0000 0.0000 0.0000 -15.8538
#
#
#
# Elastic Compliance Matrix: (Units=1/GPa)
#
#
# Indices 1 2 3 4 5 6 
#
# 1 0.027114 -0.000782 -0.016791 0.000000 0.000000 0.000000
# 2 -0.000782 0.012415 -0.004075 0.000000 0.000000 0.000000
# 3 -0.016791 -0.004075 0.022596 0.000000 0.000000 0.000000
# 4 0.000000 0.000000 0.000000 0.149000 0.000000 0.000000
# 5 0.000000 0.000000 0.000000 0.000000 0.033946 0.000000
# 6 0.000000 0.000000 0.000000 0.000000 0.000000 -0.063076
#
#
# Mechanical properties :
#
#
# Convention : Reuss Voigt Hill
#
# Bulk Modulus (GPa) = 53.11439 55.74713 54.43076
# Shear Modulus (GPa) = 21.59195 13.66825 17.63010
#
# Velocity S-wave (km/s) = 3.38963 2.69689 3.06291
# Velocity P-wave (km/s) = 6.60173 6.27391 6.43991
#
# Compressibility (1/GPa) = 0.01882729
#
# Stress axis : x y z
#
# Youngs Moduli (GPa) = 36.88173 80.54506 44.25592
#
# Poissons Ratio (x) = 0.06300 0.74312
# Poissons Ratio (y) = 0.02885 0.18035
# Poissons Ratio (z) = 0.61930 0.32824
#
# Static dielectric constant tensor:
#      x y z
#    x 1.625420 0.000000 0.000000 
#    y 0.000000 1.698590 0.000000 
#    z 0.000000 0.000000 1.656030 
# 
# From -- ./inp_files/12690.got.cif
#   From: 2010.05.17/outbox.cif.g08.bks.cpg/sg47_7_cif.got.tgz:12690.got - 2010.06.03 20:15:42.
