data_PCOD9381967
_publ_section_title
;
Structure prediction by ZEFSAII (Michael W. Deem and Ramdas Pophale) SiO2 
 PCOD9381967
Probable space group: P M M M
;
_chemical_formula_sum "Si O2"
_cell_formula_units_Z 64
_cell_length_a 8.665587
_cell_length_b 20.340385
_cell_length_c 20.792492
_cell_angle_alpha 90.000000
_cell_angle_beta 90.000000
_cell_angle_gamma 90.000000
_cell_volume 3664.913247
_symmetry_space_group_name_H-M "P M M M"
_symmetry_group_IT_number 47
_symmetry_cell_setting 'orthorhombic'
loop_
_space_group_symop_operation_xyz
x,y,z
-x,-y,z
x,-y,-z
-x,y,-z
-x,-y,-z
x,y,-z
-x,y,z
x,-y,z
loop_
_atom_site_type_symbol
_atom_site_label
_atom_site_fract_x
_atom_site_fract_y
_atom_site_fract_z
Si Si1 0.318792 0.572317 0.255565
Si Si2 0.814478 0.075043 0.575548
Si Si3 0.186499 0.076720 0.799832
Si Si4 0.818366 0.291463 0.254742
Si Si5 0.314396 0.286353 0.889259
Si Si6 0.682660 0.164967 0.685074
Si Si7 0.814054 0.148258 0.930111
Si Si8 0.318074 0.429081 0.099503
O O1 0.500000 0.580560 0.270925
O O2 0.267803 0.500000 0.278111
O O3 0.224598 0.635335 0.277838
O O4 0.309478 0.571050 0.177473
O O5 0.779815 0.083858 0.500000
O O6 0.735817 0.128257 0.620638
O O7 0.000000 0.079299 0.583208
O O8 0.769525 0.000000 0.593575
O O9 0.263287 0.118922 0.743973
O O10 0.235117 0.105341 0.869043
O O11 0.000000 0.083447 0.794354
O O12 0.224001 0.000000 0.794178
O O13 0.734557 0.282259 0.185738
O O14 0.761320 0.235256 0.302683
O O15 0.000000 0.285244 0.243922
O O16 0.500000 0.286472 0.892841
O O17 0.248206 0.222031 0.922517
O O18 0.257213 0.356655 0.917760
O O19 0.500000 0.172950 0.686228
O O20 0.000000 0.150581 0.928229
O O21 0.767078 0.121688 0.000000
O O22 0.500000 0.429810 0.082278
O O23 0.252243 0.500000 0.077894
#
# Coordination Sequence:
#
# PCOD9381967 Si02
#       8
#     8   8   8   8   8   8   8   8
#     4   8  14  26  43  65  97 134 169 207 254 307
#     4   9  19  37  59  81 108 144 181 214 254 308
#     4  10  21  37  56  76  99 129 165 208 261 320
#     4  11  20  30  47  71 102 137 174 216 259 305
#     4  10  18  30  49  71  94 124 162 205 258 312
#     4  12  23  34  52  79 110 142 176 215 258 304
#     4  10  21  36  53  72  95 127 166 209 260 319
#     4   7  11  21  39  63  89 117 151 191 236 290
#
# _framework density 17.462896000000001
#
# number of rings (size 3 to 8) (size 9 to 14) (size 15 to 20)
#    0.000    2.375    1.250    4.875    0.000    3.000 
#    0.000    1.875    0.000    1.500    0.000    4.375 
#    0.000    0.500    0.000    5.250    0.000    2.375 
#
# Total GULP energy -356935.227377 kJ/mol
# GULP energy per Si atom -5577.112928 kJ/mol
# Density = 1.742315 g / cm^3
# Si number density = 17.462896 Si / 1000 Ang^3
#
#
#
# Elastic Constant Matrix: (Units=GPa)
#
#
# Indices 1 2 3 4 5 6 
#
# 1 12.7974 16.5835 12.2088 0.0000 0.0000 0.0000
# 2 16.5835 101.4665 29.9370 0.0000 0.0000 0.0000
# 3 12.2088 29.9370 45.5714 0.0000 0.0000 0.0000
# 4 0.0000 0.0000 0.0000 99.0218 0.0000 0.0000
# 5 0.0000 0.0000 0.0000 0.0000 485.5587 0.0000
# 6 0.0000 0.0000 0.0000 0.0000 0.0000 27.7995
#
#
#
# Elastic Compliance Matrix: (Units=1/GPa)
#
#
# Indices 1 2 3 4 5 6 
#
# 1 0.115873 -0.012130 -0.023074 0.000000 0.000000 0.000000
# 2 -0.012130 0.013495 -0.005615 0.000000 0.000000 0.000000
# 3 -0.023074 -0.005615 0.031814 0.000000 0.000000 0.000000
# 4 0.000000 0.000000 0.000000 0.010099 0.000000 0.000000
# 5 0.000000 0.000000 0.000000 0.000000 0.002059 0.000000
# 6 0.000000 0.000000 0.000000 0.000000 0.000000 0.035972
#
#
# Mechanical properties :
#
#
# Convention : Reuss Voigt Hill
#
# Bulk Modulus (GPa) = 12.57198 30.81046 21.69122
# Shear Modulus (GPa) = 15.74975 129.21639 72.48307
#
# Velocity S-wave (km/s) = 3.00642 8.61136 6.44957
# Velocity P-wave (km/s) = 4.38934 10.79609 8.24081
#
# Compressibility (1/GPa) = 0.07954199
#
# Stress axis : x y z
#
# Youngs Moduli (GPa) = 8.63016 74.10291 31.43257
#
# Poissons Ratio (x) = 0.89888 0.72529
# Poissons Ratio (y) = 0.10469 0.17650
# Poissons Ratio (z) = 0.19914 0.41611
#
# Static dielectric constant tensor:
#      x y z
#    x 1.586720 0.000000 0.000000 
#    y 0.000000 1.625590 0.000000 
#    z 0.000000 0.000000 1.588300 
# 
# From -- ./inp_files/26987.got.cif
#   From: 2010.05.17/outbox.cif.g08.bks.cpg/sg47_14_cif.got.tgz:26987.got - 2010.06.03 20:15:42.
