data_PCOD9381048
_publ_section_title
;
Structure prediction by ZEFSAII (Michael W. Deem and Ramdas Pophale) SiO2 
 PCOD9381048
Probable space group: I M A 2
;
_chemical_formula_sum "Si O2"
_cell_formula_units_Z 32
_cell_length_a 10.333718
_cell_length_b 13.669627
_cell_length_c 9.572299
_cell_angle_alpha 90.000000
_cell_angle_beta 90.000000
_cell_angle_gamma 90.000000
_cell_volume 1352.164488
_symmetry_space_group_name_H-M "I M A 2"
_symmetry_group_IT_number 46
_symmetry_cell_setting 'orthorhombic'
loop_
_space_group_symop_operation_xyz
x,y,z
-x,-y,z
1/2-x,y,z
1/2+x,-y,z
1/2+x,1/2+y,1/2+z
1/2-x,1/2-y,1/2+z
-x,1/2+y,1/2+z
x,1/2-y,1/2+z
loop_
_atom_site_type_symbol
_atom_site_label
_atom_site_fract_x
_atom_site_fract_y
_atom_site_fract_z
Si Si1 0.965453 0.835293 0.637190
Si Si2 0.750000 0.502260 0.117991
Si Si3 0.000000 0.500000 0.643264
Si Si4 0.394084 0.332492 0.445106
Si Si5 0.250000 0.584167 0.804749
Si Si6 0.750000 0.302477 0.180833
O O1 0.117255 0.064566 0.628761
O O2 0.114096 0.810597 0.597247
O O3 0.887683 0.763311 0.538637
O O4 0.965079 0.810615 0.801112
O O5 0.750000 0.455254 0.963055
O O6 0.750000 0.416041 0.236181
O O7 0.041827 0.412984 0.541598
O O8 0.121160 0.537794 0.734099
O O9 0.250000 0.365007 0.405726
O O10 0.250000 0.701773 0.769681
#
# Coordination Sequence:
#
# PCOD9381048 Si02
#       6
#     8   4   4   8   4   4
#     4  12  29  50  83 117 163 221 280 341 419 502
#     4  12  30  52  83 116 164 225 279 339 427 515
#     4  12  28  48  80 116 160 220 276 344 420 494
#     4  12  26  49  79 115 161 218 275 344 414 507
#     4  12  30  52  81 118 166 217 276 348 419 510
#     4  12  30  50  74 124 158 210 271 363 408 487
#
# _framework density 23.665759000000001
#
# number of rings (size 3 to 8) (size 9 to 14) (size 15 to 20)
#    0.000    0.000    6.250    0.750   14.000    1.000 
#    0.000    0.000    0.000    0.000    0.000    0.000 
#    0.000    0.000    0.000    0.000    0.000    0.000 
#
# Total GULP energy -89323.851609 kJ/mol
# GULP energy per Si atom -5582.740726 kJ/mol
# Density = 2.361190 g / cm^3
# Si number density = 23.665759 Si / 1000 Ang^3
#
#
#
# Elastic Constant Matrix: (Units=GPa)
#
#
# Indices 1 2 3 4 5 6 
#
# 1 196.6628 47.8346 47.2615 0.0000 0.0000 0.0000
# 2 47.8346 140.4629 58.7248 0.0000 0.0000 0.0000
# 3 47.2615 58.7248 125.7890 -0.0001 0.0000 0.0000
# 4 0.0000 0.0000 -0.0001 29.8265 0.0000 0.0000
# 5 0.0000 0.0000 0.0000 0.0000 33.1588 0.0000
# 6 0.0000 0.0000 0.0000 0.0000 0.0000 54.8959
#
#
#
# Elastic Compliance Matrix: (Units=1/GPa)
#
#
# Indices 1 2 3 4 5 6 
#
# 1 0.005779 -0.001317 -0.001556 0.000000 0.000000 0.000000
# 2 -0.001317 0.009146 -0.003775 0.000000 0.000000 0.000000
# 3 -0.001556 -0.003775 0.010297 0.000000 0.000000 0.000000
# 4 0.000000 0.000000 0.000000 0.033527 0.000000 0.000000
# 5 0.000000 0.000000 0.000000 0.000000 0.030158 0.000000
# 6 0.000000 0.000000 0.000000 0.000000 0.000000 0.018216
#
#
# Mechanical properties :
#
#
# Convention : Reuss Voigt Hill
#
# Bulk Modulus (GPa) = 83.85780 85.61740 84.73760
# Shear Modulus (GPa) = 40.19411 44.18248 42.18829
#
# Velocity S-wave (km/s) = 4.12565 4.32549 4.22675
# Velocity P-wave (km/s) = 7.62927 7.82322 7.72685
#
# Compressibility (1/GPa) = 0.01192495
#
# Stress axis : x y z
#
# Youngs Moduli (GPa) = 173.03102 109.33500 97.11661
#
# Poissons Ratio (x) = 0.14404 0.15115
# Poissons Ratio (y) = 0.22796 0.36661
# Poissons Ratio (z) = 0.26930 0.41273
#
# Static dielectric constant tensor:
#      x y z
#    x 1.951390 0.000000 0.000000 
#    y 0.000000 1.926170 0.000000 
#    z 0.000000 0.000000 1.869650 
# 
# From -- ./inp_files/4322.got.cif
#   From: 2010.05.17/outbox.cif.g08.bks.cpg/sg46_3_cif.got.tgz:4322.got - 2010.06.03 19:58:25.
