data_PCOD9381200
_publ_section_title
;
Structure prediction by ZEFSAII (Michael W. Deem and Ramdas Pophale) SiO2 
 PCOD9381200
Probable space group: P M M M
;
_chemical_formula_sum "Si O2"
_cell_formula_units_Z 64
_cell_length_a 20.799100
_cell_length_b 20.882304
_cell_length_c 7.498064
_cell_angle_alpha 90.000000
_cell_angle_beta 90.000000
_cell_angle_gamma 90.000000
_cell_volume 3256.657600
_symmetry_space_group_name_H-M "P M M M"
_symmetry_group_IT_number 47
_symmetry_cell_setting 'orthorhombic'
loop_
_space_group_symop_operation_xyz
x,y,z
-x,-y,z
x,-y,-z
-x,y,-z
-x,-y,-z
x,y,-z
-x,y,z
x,-y,z
loop_
_atom_site_type_symbol
_atom_site_label
_atom_site_fract_x
_atom_site_fract_y
_atom_site_fract_z
Si Si1 0.071964 0.196590 0.289226
Si Si2 0.161837 0.312007 0.718252
Si Si3 0.072832 0.573452 0.717401
Si Si4 0.708391 0.101246 0.794863
Si Si5 0.291124 0.249394 0.707248
Si Si6 0.568916 0.747221 0.214154
Si Si7 0.849220 0.069967 0.784425
Si Si8 0.430508 0.101097 0.217139
O O1 0.066860 0.209013 0.500000
O O2 0.117919 0.252590 0.220360
O O3 0.106067 0.128472 0.268559
O O4 0.000000 0.197146 0.214282
O O5 0.162240 0.313993 0.500000
O O6 0.127032 0.376951 0.777528
O O7 0.234477 0.295307 0.774129
O O8 0.073140 0.573798 0.500000
O O9 0.083377 0.500000 0.773306
O O10 0.000000 0.592771 0.770339
O O11 0.709310 0.179062 0.795363
O O12 0.776134 0.079445 0.716444
O O13 0.639567 0.079091 0.717595
O O14 0.708160 0.079370 0.000000
O O15 0.278090 0.235921 0.500000
O O16 0.362608 0.278168 0.722365
O O17 0.500000 0.720511 0.277045
O O18 0.568614 0.822973 0.259388
O O19 0.569586 0.743352 0.000000
O O20 0.873043 0.000000 0.729080
O O21 0.846452 0.071435 0.000000
O O22 0.500000 0.074954 0.276885
O O23 0.429796 0.095197 0.000000
#
# Coordination Sequence:
#
# PCOD9381200 Si02
#       8
#     8   8   8   8   8   8   8   8
#     4  10  20  34  51  68  87 113 144 180 225 277
#     4   9  16  26  40  63  94 121 145 180 224 264
#     4   8  13  22  38  60  87 122 159 186 212 257
#     4   9  16  28  44  59  80 112 147 179 215 265
#     4  10  17  24  39  63  91 117 142 179 223 263
#     4   8  14  25  39  56  83 118 151 181 215 258
#     4  10  21  35  49  64  84 112 147 191 236 273
#     4   7  10  18  35  57  76  97 128 164 200 240
#
# _framework density 19.652049000000002
#
# number of rings (size 3 to 8) (size 9 to 14) (size 15 to 20)
#    0.000    3.125    1.250    2.625    0.000    2.500 
#    0.000    1.250    0.000    0.375    0.000    2.625 
#    0.000    5.000    0.000   27.500    0.000   22.750 
#
# Total GULP energy -356682.947918 kJ/mol
# GULP energy per Si atom -5573.171061 kJ/mol
# Density = 1.960732 g / cm^3
# Si number density = 19.652049 Si / 1000 Ang^3
#
#
#
# Elastic Constant Matrix: (Units=GPa)
#
#
# Indices 1 2 3 4 5 6 
#
# 1 180.1486 66.3578 3.7566 0.0000 0.0000 0.0000
# 2 66.3578 81.3703 -2.6982 0.0000 0.0000 0.0000
# 3 3.7566 -2.6982 51.1356 0.0000 0.0000 0.0000
# 4 0.0000 0.0000 0.0000 15.3786 0.0000 0.0000
# 5 0.0000 0.0000 0.0000 0.0000 11.6869 0.0000
# 6 0.0000 0.0000 0.0000 0.0000 0.0000 62.3004
#
#
#
# Elastic Compliance Matrix: (Units=1/GPa)
#
#
# Indices 1 2 3 4 5 6 
#
# 1 0.007978 -0.006537 -0.000931 0.000000 0.000000 0.000000
# 2 -0.006537 0.017668 0.001412 0.000000 0.000000 0.000000
# 3 -0.000931 0.001412 0.019699 0.000000 0.000000 0.000000
# 4 0.000000 0.000000 0.000000 0.065025 0.000000 0.000000
# 5 0.000000 0.000000 0.000000 0.000000 0.085566 0.000000
# 6 0.000000 0.000000 0.000000 0.000000 0.000000 0.016051
#
#
# Mechanical properties :
#
#
# Convention : Reuss Voigt Hill
#
# Bulk Modulus (GPa) = 30.09059 49.72075 39.90567
# Shear Modulus (GPa) = 21.26062 34.22241 27.74151
#
# Velocity S-wave (km/s) = 3.29272 4.17756 3.76125
# Velocity P-wave (km/s) = 5.45902 6.97315 6.26202
#
# Compressibility (1/GPa) = 0.03323298
#
# Stress axis : x y z
#
# Youngs Moduli (GPa) = 125.33842 56.60103 50.76455
#
# Poissons Ratio (x) = 0.37002 0.04726
# Poissons Ratio (y) = 0.81937 -0.07170
# Poissons Ratio (z) = 0.11670 -0.07995
#
# Static dielectric constant tensor:
#      x y z
#    x 1.747090 0.000000 0.000000 
#    y 0.000000 1.652320 0.000000 
#    z 0.000000 0.000000 1.777300 
# 
# From -- ./inp_files/11574.got.cif
#   From: 2010.05.17/outbox.cif.g08.bks.cpg/sg47_6_cif.got.tgz:11574.got - 2010.06.03 20:15:42.
