data_PCOD9381584
_publ_section_title
;
Structure prediction by ZEFSAII (Michael W. Deem and Ramdas Pophale) SiO2 
 PCOD9381584
Probable space group: P M M M
;
_chemical_formula_sum "Si O2"
_cell_formula_units_Z 64
_cell_length_a 19.579169
_cell_length_b 7.782612
_cell_length_c 24.841789
_cell_angle_alpha 90.000000
_cell_angle_beta 90.000000
_cell_angle_gamma 90.000000
_cell_volume 3785.319161
_symmetry_space_group_name_H-M "P M M M"
_symmetry_group_IT_number 47
_symmetry_cell_setting 'orthorhombic'
loop_
_space_group_symop_operation_xyz
x,y,z
-x,-y,z
x,-y,-z
-x,y,-z
-x,-y,-z
x,y,-z
-x,y,z
x,-y,z
loop_
_atom_site_type_symbol
_atom_site_label
_atom_site_fract_x
_atom_site_fract_y
_atom_site_fract_z
Si Si1 0.579418 0.790270 0.560194
Si Si2 0.708710 0.705717 0.164803
Si Si3 0.347760 0.796436 0.333606
Si Si4 0.219293 0.703188 0.726784
Si Si5 0.076896 0.792145 0.886775
Si Si6 0.076002 0.793212 0.762725
Si Si7 0.577594 0.207749 0.225345
Si Si8 0.783239 0.295869 0.059494
O O1 0.598872 0.732332 0.500000
O O2 0.500000 0.744615 0.569569
O O3 0.625498 0.727536 0.609574
O O4 0.582050 0.000000 0.559408
O O5 0.718608 0.500000 0.163964
O O6 0.751331 0.774569 0.216268
O O7 0.630089 0.741174 0.178571
O O8 0.737755 0.775055 0.108667
O O9 0.268262 0.771543 0.319958
O O10 0.389945 0.728240 0.281897
O O11 0.361036 0.000000 0.334675
O O12 0.229110 0.500000 0.727300
O O13 0.139153 0.739745 0.726116
O O14 0.088033 0.735134 0.824667
O O15 0.137953 0.728000 0.923580
O O16 0.000000 0.739341 0.902603
O O17 0.078556 0.000000 0.887239
O O18 0.000000 0.734146 0.746712
O O19 0.074839 0.000000 0.764048
O O20 0.500000 0.267595 0.218651
O O21 0.576740 0.000000 0.227332
O O22 0.770126 0.500000 0.056878
O O23 0.770716 0.223181 0.000000
#
# Coordination Sequence:
#
# PCOD9381584 Si02
#       8
#     8   8   8   8   8   8   8   8
#     4   8  13  22  39  64  92 122 157 192 219 246
#     4   9  18  31  44  61  83 107 136 171 213 257
#     4   9  16  26  42  64  91 120 147 180 218 252
#     4  10  18  28  43  63  87 114 145 180 216 255
#     4   9  18  31  46  64  86 111 139 172 209 252
#     4   9  17  29  45  64  86 113 143 174 212 259
#     4   9  17  28  44  66  87 108 136 172 214 258
#     4  10  20  33  47  62  82 109 142 178 212 252
#
# _framework density 16.907425
#
# number of rings (size 3 to 8) (size 9 to 14) (size 15 to 20)
#    0.000    2.875    1.250    1.875    0.000    3.750 
#    0.000    2.500    0.000    1.875    0.000    3.500 
#    0.000    0.500    0.000    5.750    0.000    1.625 
#
# Total GULP energy -356652.612482 kJ/mol
# GULP energy per Si atom -5572.697070 kJ/mol
# Density = 1.686894 g / cm^3
# Si number density = 16.907425 Si / 1000 Ang^3
#
#
#
# Elastic Constant Matrix: (Units=GPa)
#
#
# Indices 1 2 3 4 5 6 
#
# 1 109.2375 -7.3542 73.3594 0.0000 0.0000 0.0000
# 2 -7.3542 17.8947 7.0251 0.0000 0.0000 0.0000
# 3 73.3594 7.0251 125.5603 0.0000 0.0000 0.0000
# 4 0.0000 0.0000 0.0000 5.1169 0.0000 0.0000
# 5 0.0000 0.0000 0.0000 0.0000 24.3035 0.0000
# 6 0.0000 0.0000 0.0000 0.0000 0.0000 45.0606
#
#
#
# Elastic Compliance Matrix: (Units=1/GPa)
#
#
# Indices 1 2 3 4 5 6 
#
# 1 0.016985 0.011121 -0.010546 0.000000 0.000000 0.000000
# 2 0.011121 0.064418 -0.010102 0.000000 0.000000 0.000000
# 3 -0.010546 -0.010102 0.014691 0.000000 0.000000 0.000000
# 4 0.000000 0.000000 0.000000 0.195430 0.000000 0.000000
# 5 0.000000 0.000000 0.000000 0.000000 0.041146 0.000000
# 6 0.000000 0.000000 0.000000 0.000000 0.000000 0.022192
#
#
# Mechanical properties :
#
#
# Convention : Reuss Voigt Hill
#
# Bulk Modulus (GPa) = 12.98010 44.30592 28.64301
# Shear Modulus (GPa) = 12.51259 26.87368 19.69313
#
# Velocity S-wave (km/s) = 2.72336 3.99113 3.41656
# Velocity P-wave (km/s) = 4.19318 6.89208 5.70454
#
# Compressibility (1/GPa) = 0.07704102
#
# Stress axis : x y z
#
# Youngs Moduli (GPa) = 58.87457 15.52350 68.06878
#
# Poissons Ratio (x) = -0.17263 0.71785
# Poissons Ratio (y) = -0.65472 0.68760
# Poissons Ratio (z) = 0.62089 0.15681
#
# Static dielectric constant tensor:
#      x y z
#    x 1.575890 0.000000 0.000000 
#    y 0.000000 1.622530 0.000000 
#    z 0.000000 0.000000 1.578120 
# 
# From -- ./inp_files/10203.got.cif
#   From: 2010.05.17/outbox.cif.g08.bks.cpg/sg47_6_cif.got.tgz:10203.got - 2010.06.03 20:15:42.
