data_PCOD9381008
_publ_section_title
;
Structure prediction by ZEFSAII (Michael W. Deem and Ramdas Pophale) SiO2 
 PCOD9381008
Probable space group: I M A 2
;
_chemical_formula_sum "Si O2"
_cell_formula_units_Z 56
_cell_length_a 13.888788
_cell_length_b 7.377576
_cell_length_c 20.345700
_cell_angle_alpha 90.000000
_cell_angle_beta 90.000000
_cell_angle_gamma 90.000000
_cell_volume 2084.734134
_symmetry_space_group_name_H-M "I M A 2"
_symmetry_group_IT_number 46
_symmetry_cell_setting 'orthorhombic'
loop_
_space_group_symop_operation_xyz
x,y,z
-x,-y,z
1/2-x,y,z
1/2+x,-y,z
1/2+x,1/2+y,1/2+z
1/2-x,1/2-y,1/2+z
-x,1/2+y,1/2+z
x,1/2-y,1/2+z
loop_
_atom_site_type_symbol
_atom_site_label
_atom_site_fract_x
_atom_site_fract_y
_atom_site_fract_z
Si Si1 0.996316 0.250000 0.701490
Si Si2 0.132227 0.838583 0.451490
Si Si3 0.140184 0.657019 0.095375
Si Si4 0.132714 0.077821 0.951490
Si Si5 0.860067 0.902762 0.808964
Si Si6 0.140184 0.657020 0.807605
Si Si7 0.860067 0.902762 0.094016
O O1 0.923950 0.122873 0.658887
O O2 0.923950 0.377126 0.744093
O O3 0.065350 0.166791 0.756435
O O4 0.065350 0.333209 0.646545
O O5 0.250000 0.837179 0.451490
O O6 0.107322 0.912750 0.523694
O O7 0.097973 0.629774 0.451490
O O8 0.107322 0.912750 0.379286
O O9 0.250000 0.597492 0.106633
O O10 0.141260 0.877791 0.091065
O O11 0.250000 0.070477 0.951490
O O12 0.108208 0.161556 0.881614
O O13 0.108208 0.161555 0.021366
O O14 0.750000 0.845580 0.795947
O O15 0.858739 0.122208 0.811915
O O16 0.250000 0.597492 0.796347
O O17 0.750000 0.845581 0.107033
#
# Coordination Sequence:
#
# PCOD9381008 Si02
#       7
#     8   8   8   8   8   8   8
#     4  12  20  26  42  72 102 126 148 178 224 280
#     4   7  12  27  49  67  86 115 148 185 231 276
#     4   9  18  32  48  68  95 123 151 186 228 273
#     4   7  12  27  49  67  86 115 148 185 231 276
#     4   9  18  32  48  68  95 123 151 186 228 273
#     4   9  18  32  48  68  95 123 151 186 228 273
#     4   9  18  32  48  68  95 123 151 186 228 273
#
# _framework density 26.861937999999999
#
# number of rings (size 3 to 8) (size 9 to 14) (size 15 to 20)
#    0.000    3.143    0.000    5.143    0.000    1.143 
#    0.000    4.286    0.000    0.000    0.000   16.000 
#    0.000   45.714    0.000    0.000    0.000    0.000 
#
# Total GULP energy -156758.423447 kJ/mol
# GULP energy per Si atom -5598.515123 kJ/mol
# Density = 2.680080 g / cm^3
# Si number density = 26.861938 Si / 1000 Ang^3
#
#
#
# Elastic Constant Matrix: (Units=GPa)
#
#
# Indices 1 2 3 4 5 6 
#
# 1 178.1449 18.8400 119.4592 0.0000 0.0000 0.0000
# 2 18.8400 83.7819 20.7159 0.0000 0.0000 0.0000
# 3 119.4592 20.7159 302.4926 0.0000 0.0000 0.0000
# 4 0.0000 0.0000 0.0000 12.2316 0.0000 0.0000
# 5 0.0000 0.0000 0.0000 0.0000 264.5110 0.0000
# 6 0.0000 0.0000 0.0000 0.0000 0.0000 26.6355
#
#
#
# Elastic Compliance Matrix: (Units=1/GPa)
#
#
# Indices 1 2 3 4 5 6 
#
# 1 0.007717 -0.000999 -0.002979 0.000000 0.000000 0.000000
# 2 -0.000999 0.012271 -0.000446 0.000000 0.000000 0.000000
# 3 -0.002979 -0.000446 0.004513 0.000000 0.000000 0.000000
# 4 0.000000 0.000000 0.000000 0.081756 0.000000 0.000000
# 5 0.000000 0.000000 0.000000 0.000000 0.003781 0.000000
# 6 0.000000 0.000000 0.000000 0.000000 0.000000 0.037544
#
#
# Mechanical properties :
#
#
# Convention : Reuss Voigt Hill
#
# Bulk Modulus (GPa) = 63.88616 98.04995 80.96806
# Shear Modulus (GPa) = 30.93194 87.70256 59.31725
#
# Velocity S-wave (km/s) = 3.39708 5.72016 4.70428
# Velocity P-wave (km/s) = 6.26272 8.95587 7.72753
#
# Compressibility (1/GPa) = 0.01565284
#
# Stress axis : x y z
#
# Youngs Moduli (GPa) = 129.58913 81.49569 221.58780
#
# Poissons Ratio (x) = 0.08139 0.66012
# Poissons Ratio (y) = 0.12941 0.09882
# Poissons Ratio (z) = 0.38605 0.03634
#
# Static dielectric constant tensor:
#      x y z
#    x 2.049990 0.000000 0.000000 
#    y 0.000000 2.178730 0.000000 
#    z 0.000000 0.000000 2.066050 
# 
# From -- ./inp_files/16154.got.cif
#   From: 2010.05.17/outbox.cif.g08.bks.cpg/sg46_9_cif.got.tgz:16154.got - 2010.06.03 19:58:25.
