data_PCOD9381058
_publ_section_title
;
Structure prediction by ZEFSAII (Michael W. Deem and Ramdas Pophale) SiO2 
 PCOD9381058
Probable space group: I M A 2
;
_chemical_formula_sum "Si O2"
_cell_formula_units_Z 64
_cell_length_a 7.278304
_cell_length_b 34.010266
_cell_length_c 12.333158
_cell_angle_alpha 90.000000
_cell_angle_beta 90.000000
_cell_angle_gamma 90.000000
_cell_volume 3052.913611
_symmetry_space_group_name_H-M "I M A 2"
_symmetry_group_IT_number 46
_symmetry_cell_setting 'orthorhombic'
loop_
_space_group_symop_operation_xyz
x,y,z
-x,-y,z
1/2-x,y,z
1/2+x,-y,z
1/2+x,1/2+y,1/2+z
1/2-x,1/2-y,1/2+z
-x,1/2+y,1/2+z
x,1/2-y,1/2+z
loop_
_atom_site_type_symbol
_atom_site_label
_atom_site_fract_x
_atom_site_fract_y
_atom_site_fract_z
Si Si1 0.971052 0.678961 0.375000
Si Si2 0.474194 0.377295 0.956069
Si Si3 0.473894 0.276458 0.581111
Si Si4 0.974279 0.853627 0.214871
Si Si5 0.525664 0.812186 0.631522
Si Si6 0.529233 0.899343 0.009595
Si Si7 0.968309 0.953926 0.824684
Si Si8 0.969399 0.546682 0.082989
O O1 0.750000 0.682852 0.368359
O O2 0.033241 0.711954 0.459637
O O3 0.037604 0.678694 0.253024
O O4 0.008423 0.638462 0.435352
O O5 0.250000 0.377549 0.953924
O O6 0.533220 0.364047 0.836119
O O7 0.531121 0.344622 0.044133
O O8 0.533302 0.420735 0.996569
O O9 0.250000 0.277039 0.582749
O O10 0.529965 0.311138 0.664794
O O11 0.531145 0.232430 0.607131
O O12 0.750000 0.852941 0.214726
O O13 0.034510 0.887159 0.129086
O O14 0.750000 0.812860 0.630234
O O15 0.750000 0.903893 0.020342
O O16 0.459104 0.934406 0.934547
O O17 0.750000 0.945332 0.822463
O O18 0.038441 0.942562 0.704552
O O19 0.000000 0.000000 0.831182
O O20 0.750000 0.550648 0.087173
O O21 0.000000 0.500000 0.061728
#
# Coordination Sequence:
#
# PCOD9381058 Si02
#       8
#     8   8   8   8   8   8   8   8
#     4   8  13  20  28  40  59  87 123 156 187 225
#     4   9  16  24  35  52  73 102 137 168 201 245
#     4   8  14  20  27  41  63  94 129 162 194 231
#     4   8  14  23  33  46  69 100 134 166 196 236
#     4   9  15  19  28  44  65  94 128 164 195 233
#     4   8  13  23  36  48  66  94 126 159 192 234
#     4   9  16  26  42  61  80 101 130 167 206 244
#     4   9  17  29  44  62  83 108 137 172 211 248
#
# _framework density 20.963581000000001
#
# number of rings (size 3 to 8) (size 9 to 14) (size 15 to 20)
#    0.000    3.500    0.000    2.250    1.750    3.000 
#    0.000    0.625    0.000    0.000    0.000    0.000 
#    0.000    0.000    0.000    5.625    0.000    9.250 
#
# Total GULP energy -178358.241704 kJ/mol
# GULP energy per Si atom -5573.695053 kJ/mol
# Density = 2.091587 g / cm^3
# Si number density = 20.963581 Si / 1000 Ang^3
#
#
#
# Elastic Constant Matrix: (Units=GPa)
#
#
# Indices 1 2 3 4 5 6 
#
# 1 84.8185 5.5101 8.3278 0.0000 0.0000 0.0000
# 2 5.5101 92.9970 96.6672 0.0002 0.0000 0.0001
# 3 8.3278 96.6672 223.6134 0.0003 0.0000 0.0001
# 4 0.0000 0.0002 0.0003 25.6357 0.0000 0.0001
# 5 0.0000 0.0000 0.0000 0.0000 -17.9436 0.0000
# 6 0.0000 0.0001 0.0001 0.0001 0.0000 -22.0902
#
#
#
# Elastic Compliance Matrix: (Units=1/GPa)
#
#
# Indices 1 2 3 4 5 6 
#
# 1 0.011843 -0.000442 -0.000250 0.000000 0.000000 0.000000
# 2 -0.000442 0.019545 -0.008433 0.000000 0.000000 0.000000
# 3 -0.000250 -0.008433 0.008127 0.000000 0.000000 0.000000
# 4 0.000000 0.000000 0.000000 0.039008 0.000000 0.000000
# 5 0.000000 0.000000 0.000000 0.000000 -0.055730 0.000000
# 6 0.000000 0.000000 0.000000 0.000000 0.000000 -0.045269
#
#
# Mechanical properties :
#
#
# Convention : Reuss Voigt Hill
#
# Bulk Modulus (GPa) = 47.02440 69.15990 58.09215
# Shear Modulus (GPa) = 1747.77081 16.51530 882.14306
#
# Velocity S-wave (km/s) = 28.90549 2.80984 20.53561
# Velocity P-wave (km/s) = 33.71227 6.60220 24.29101
#
# Compressibility (1/GPa) = 0.02126556
#
# Stress axis : x y z
#
# Youngs Moduli (GPa) = 84.43713 51.16492 123.05104
#
# Poissons Ratio (x) = 0.02260 0.03077
# Poissons Ratio (y) = 0.03730 1.03764
# Poissons Ratio (z) = 0.02112 0.43145
#
# Static dielectric constant tensor:
#      x y z
#    x 1.782460 0.000000 0.000000 
#    y 0.000000 1.730750 0.000000 
#    z 0.000000 0.000000 1.751450 
# 
# From -- ./inp_files/10579.got.cif
#   From: 2010.05.17/outbox.cif.g08.bks.cpg/sg46_6_cif.got.tgz:10579.got - 2010.06.03 19:58:25.
