data_PCOD9381423
_publ_section_title
;
Structure prediction by ZEFSAII (Michael W. Deem and Ramdas Pophale) SiO2 
 PCOD9381423
Probable space group: P M M M
;
_chemical_formula_sum "Si O2"
_cell_formula_units_Z 58
_cell_length_a 7.537750
_cell_length_b 16.019353
_cell_length_c 26.726866
_cell_angle_alpha 90.000000
_cell_angle_beta 90.000000
_cell_angle_gamma 90.000000
_cell_volume 3227.265811
_symmetry_space_group_name_H-M "P M M M"
_symmetry_group_IT_number 47
_symmetry_cell_setting 'orthorhombic'
loop_
_space_group_symop_operation_xyz
x,y,z
-x,-y,z
x,-y,-z
-x,y,-z
-x,-y,-z
x,y,-z
-x,y,z
x,-y,z
loop_
_atom_site_type_symbol
_atom_site_label
_atom_site_fract_x
_atom_site_fract_y
_atom_site_fract_z
Si Si1 0.286887 0.096891 0.946177
Si Si2 0.783422 0.094830 0.635630
Si Si3 0.215198 0.408115 0.606906
Si Si4 0.698822 0.377174 0.276927
Si Si5 0.000000 0.500000 0.242103
Si Si6 0.784606 0.184348 0.262655
Si Si7 0.210906 0.905001 0.837089
Si Si8 0.783128 0.235783 0.557002
O O1 0.500000 0.095776 0.947351
O O2 0.237652 0.133205 0.892347
O O3 0.225188 0.000000 0.945068
O O4 0.226324 0.132540 0.000000
O O5 0.730125 0.126956 0.690533
O O6 0.725720 0.162604 0.594535
O O7 0.000000 0.094489 0.634780
O O8 0.725212 0.000000 0.626229
O O9 0.271592 0.500000 0.588446
O O10 0.271759 0.398594 0.664485
O O11 0.274639 0.327001 0.576410
O O12 0.000000 0.407358 0.606700
O O13 0.500000 0.400113 0.262576
O O14 0.845296 0.427560 0.246716
O O15 0.722756 0.278271 0.271044
O O16 0.721451 0.147218 0.209858
O O17 0.000000 0.185810 0.262730
O O18 0.000000 0.911437 0.830208
O O19 0.283429 0.000000 0.836812
O O20 0.727827 0.221591 0.500000
O O21 0.000000 0.236268 0.557871
#
# Coordination Sequence:
#
# PCOD9381423 Si02
#       8
#     8   8   8   8   2   8   8   8
#     4   8  14  25  40  58  86 129 176 220 266 309
#     4   9  16  26  45  67  94 135 177 217 264 314
#     4  10  17  31  50  70 100 130 159 204 260 315
#     4  12  22  34  57  82 104 137 171 203 252 314
#     4  12  22  40  56  82 111 134 165 210 248 312
#     4  10  18  32  48  69 104 137 171 216 265 310
#     4   9  17  27  43  68  98 136 181 224 264 305
#     4   9  17  27  43  69  99 130 169 214 263 317
#
# _framework density 17.971869999999999
#
# number of rings (size 3 to 8) (size 9 to 14) (size 15 to 20)
#    0.000    2.345    3.448    1.034    0.000    3.034 
#    0.000    4.138    0.000    1.655    0.000    0.966 
#    0.000    1.103    0.000    1.241    0.000    5.241 
#
# Total GULP energy -322987.581660 kJ/mol
# GULP energy per Si atom -5568.751408 kJ/mol
# Density = 1.793097 g / cm^3
# Si number density = 17.971870 Si / 1000 Ang^3
#
#
#
# Elastic Constant Matrix: (Units=GPa)
#
#
# Indices 1 2 3 4 5 6 
#
# 1 69.3012 15.6055 7.0951 0.0000 0.0000 0.0000
# 2 15.6055 142.1065 70.6473 0.0000 0.0000 0.0000
# 3 7.0951 70.6473 129.8600 0.0000 0.0000 0.0000
# 4 0.0000 0.0000 0.0000 19.2930 0.0000 0.0000
# 5 0.0000 0.0000 0.0000 0.0000 38.8646 0.0000
# 6 0.0000 0.0000 0.0000 0.0000 0.0000 -14.3039
#
#
#
# Elastic Compliance Matrix: (Units=1/GPa)
#
#
# Indices 1 2 3 4 5 6 
#
# 1 0.014797 -0.001676 0.000104 0.000000 0.000000 0.000000
# 2 -0.001676 0.009836 -0.005259 0.000000 0.000000 0.000000
# 3 0.000104 -0.005259 0.010556 0.000000 0.000000 0.000000
# 4 0.000000 0.000000 0.000000 0.051832 0.000000 0.000000
# 5 0.000000 0.000000 0.000000 0.000000 0.025730 0.000000
# 6 0.000000 0.000000 0.000000 0.000000 0.000000 -0.069911
#
#
# Mechanical properties :
#
#
# Convention : Reuss Voigt Hill
#
# Bulk Modulus (GPa) = 46.45918 58.66259 52.56088
# Shear Modulus (GPa) = 78.51854 25.29873 51.90864
#
# Velocity S-wave (km/s) = 6.61699 3.75598 5.38015
# Velocity P-wave (km/s) = 9.18077 7.17789 8.24041
#
# Compressibility (1/GPa) = 0.02152427
#
# Stress axis : x y z
#
# Youngs Moduli (GPa) = 67.58280 101.67063 94.73168
#
# Poissons Ratio (x) = 0.17044 -0.00981
# Poissons Ratio (y) = 0.11329 0.49822
# Poissons Ratio (z) = -0.00700 0.53471
#
# Static dielectric constant tensor:
#      x y z
#    x 1.659620 0.000000 0.000000 
#    y 0.000000 1.601720 0.000000 
#    z 0.000000 0.000000 1.623540 
# 
# From -- ./inp_files/33454.got.cif
#   From: 2010.05.17/outbox.cif.g08.bks.cpg/sg47_17_cif.got.tgz:33454.got - 2010.06.03 20:15:42.
