data_PCOD9381382
_publ_section_title
;
Structure prediction by ZEFSAII (Michael W. Deem and Ramdas Pophale) SiO2 
 PCOD9381382
Probable space group: P M M M
;
_chemical_formula_sum "Si O2"
_cell_formula_units_Z 52
_cell_length_a 14.178636
_cell_length_b 7.639594
_cell_length_c 24.189032
_cell_angle_alpha 90.000000
_cell_angle_beta 90.000000
_cell_angle_gamma 90.000000
_cell_volume 2620.132302
_symmetry_space_group_name_H-M "P M M M"
_symmetry_group_IT_number 47
_symmetry_cell_setting 'orthorhombic'
loop_
_space_group_symop_operation_xyz
x,y,z
-x,-y,z
x,-y,-z
-x,y,-z
-x,-y,-z
x,y,-z
-x,y,z
x,-y,z
loop_
_atom_site_type_symbol
_atom_site_label
_atom_site_fract_x
_atom_site_fract_y
_atom_site_fract_z
Si Si1 0.500000 0.209948 0.434629
Si Si2 0.605509 0.296173 0.720045
Si Si3 0.103917 0.786725 0.231189
Si Si4 0.607245 0.710689 0.937871
Si Si5 0.708659 0.793085 0.827032
Si Si6 0.696164 0.199308 0.386487
Si Si7 0.894768 0.785824 0.359963
O O1 0.500000 0.233478 0.500000
O O2 0.599683 0.279546 0.410983
O O3 0.500000 0.000000 0.422115
O O4 0.500000 0.228321 0.711161
O O5 0.608693 0.500000 0.704799
O O6 0.633428 0.281777 0.783724
O O7 0.676366 0.198261 0.679425
O O8 0.189599 0.725464 0.193088
O O9 0.114080 0.733159 0.295388
O O10 0.000000 0.731107 0.212176
O O11 0.104699 0.000000 0.231208
O O12 0.500000 0.771500 0.925371
O O13 0.604331 0.500000 0.939205
O O14 0.678261 0.760131 0.889520
O O15 0.631710 0.771101 0.000000
O O16 0.708343 0.000000 0.818221
O O17 0.801228 0.276173 0.392242
O O18 0.700359 0.000000 0.407928
O O19 0.000000 0.733503 0.378974
O O20 0.892244 0.000000 0.360992
#
# Coordination Sequence:
#
# PCOD9381382 Si02
#       7
#     4   8   8   8   8   8   8
#     4   9  18  30  47  73 101 129 162 205 252 287
#     4  11  22  32  43  65 100 132 154 186 240 294
#     4   8  14  25  42  66  96 123 149 187 236 287
#     4   9  19  36  53  67  90 127 163 193 236 289
#     4  11  20  30  49  74  96 121 159 198 236 283
#     4  10  17  29  50  70  92 124 163 202 235 282
#     4   8  13  23  42  68  94 122 157 195 238 285
#
# _framework density 19.846326999999999
#
# number of rings (size 3 to 8) (size 9 to 14) (size 15 to 20)
#    0.000    2.538    2.308    2.769    0.000    3.385 
#    0.000    0.769    0.000    5.077    0.000    6.462 
#    0.000    0.000    0.000    1.385    0.000    1.538 
#
# Total GULP energy -289903.743618 kJ/mol
# GULP energy per Si atom -5575.071993 kJ/mol
# Density = 1.980116 g / cm^3
# Si number density = 19.846327 Si / 1000 Ang^3
#
#
#
# Elastic Constant Matrix: (Units=GPa)
#
#
# Indices 1 2 3 4 5 6 
#
# 1 187.5776 6.7316 40.5677 0.0000 0.0000 0.0000
# 2 6.7316 44.7940 1.8288 0.0000 0.0000 0.0000
# 3 40.5677 1.8288 48.1961 0.0000 0.0000 0.0000
# 4 0.0000 0.0000 0.0000 545.5816 0.0000 0.0000
# 5 0.0000 0.0000 0.0000 0.0000 15.6093 0.0000
# 6 0.0000 0.0000 0.0000 0.0000 0.0000 60.3244
#
#
#
# Elastic Compliance Matrix: (Units=1/GPa)
#
#
# Indices 1 2 3 4 5 6 
#
# 1 0.006543 -0.000760 -0.005479 0.000000 0.000000 0.000000
# 2 -0.000760 0.022447 -0.000212 0.000000 0.000000 0.000000
# 3 -0.005479 -0.000212 0.025368 0.000000 0.000000 0.000000
# 4 0.000000 0.000000 0.000000 0.001833 0.000000 0.000000
# 5 0.000000 0.000000 0.000000 0.000000 0.064064 0.000000
# 6 0.000000 0.000000 0.000000 0.000000 0.000000 0.016577
#
#
# Mechanical properties :
#
#
# Convention : Reuss Voigt Hill
#
# Bulk Modulus (GPa) = 24.12127 42.09156 33.10642
# Shear Modulus (GPa) = 30.57100 139.73236 85.15168
#
# Velocity S-wave (km/s) = 3.92903 8.40000 6.55734
# Velocity P-wave (km/s) = 5.72394 10.73940 8.60518
#
# Compressibility (1/GPa) = 0.04145719
#
# Stress axis : x y z
#
# Youngs Moduli (GPa) = 152.82803 44.54892 39.41936
#
# Poissons Ratio (x) = 0.03384 0.21597
# Poissons Ratio (y) = 0.11610 0.00837
# Poissons Ratio (z) = 0.83732 0.00946
#
# Static dielectric constant tensor:
#      x y z
#    x 1.753000 0.000000 0.000000 
#    y 0.000000 1.747060 0.000000 
#    z 0.000000 0.000000 1.670380 
# 
# From -- ./inp_files/32641.got.cif
#   From: 2010.05.17/outbox.cif.g08.bks.cpg/sg47_17_cif.got.tgz:32641.got - 2010.06.03 20:15:42.
