data_PCOD9381434
_publ_section_title
;
Structure prediction by ZEFSAII (Michael W. Deem and Ramdas Pophale) SiO2 
 PCOD9381434
Probable space group: P M M M
;
_chemical_formula_sum "Si O2"
_cell_formula_units_Z 52
_cell_length_a 7.561224
_cell_length_b 12.280178
_cell_length_c 31.273421
_cell_angle_alpha 90.000000
_cell_angle_beta 90.000000
_cell_angle_gamma 90.000000
_cell_volume 2903.836484
_symmetry_space_group_name_H-M "P M M M"
_symmetry_group_IT_number 47
_symmetry_cell_setting 'orthorhombic'
loop_
_space_group_symop_operation_xyz
x,y,z
-x,-y,z
x,-y,-z
-x,y,-z
-x,-y,-z
x,y,-z
-x,y,z
x,-y,z
loop_
_atom_site_type_symbol
_atom_site_label
_atom_site_fract_x
_atom_site_fract_y
_atom_site_fract_z
Si Si1 0.783378 0.733245 0.048369
Si Si2 0.201936 0.867626 0.385547
Si Si3 0.216120 0.125599 0.710001
Si Si4 0.703154 0.500000 0.176593
Si Si5 0.500000 0.132898 0.549037
Si Si6 0.202446 0.500000 0.920487
Si Si7 0.216308 0.124546 0.871867
Si Si8 0.786955 0.265062 0.209560
O O1 0.720727 0.613047 0.062476
O O2 0.727195 0.819632 0.083992
O O3 0.000000 0.732661 0.049379
O O4 0.729627 0.757717 0.000000
O O5 0.268174 0.839394 0.337879
O O6 0.329628 0.832567 0.423546
O O7 0.000000 0.830366 0.391069
O O8 0.198896 0.000000 0.385665
O O9 0.275870 0.205943 0.747359
O O10 0.000000 0.124311 0.709709
O O11 0.271217 0.000000 0.717719
O O12 0.500000 0.500000 0.163993
O O13 0.801476 0.500000 0.131032
O O14 0.740708 0.390852 0.203004
O O15 0.500000 0.169424 0.500000
O O16 0.500000 0.000000 0.548414
O O17 0.000000 0.500000 0.936167
O O18 0.274602 0.197526 0.831862
O O19 0.000000 0.124748 0.871365
O O20 0.273388 0.000000 0.867929
O O21 0.000000 0.258517 0.210010
#
# Coordination Sequence:
#
# PCOD9381434 Si02
#       8
#     8   8   8   4   4   4   8   8
#     4   9  16  25  42  69  95 115 141 183 229 271
#     4   8  14  25  39  58  87 122 161 205 248 286
#     4   8  14  26  47  72  94 118 153 196 237 279
#     4  12  24  35  47  67  94 118 146 189 235 274
#     4   9  16  24  36  58  88 127 173 211 244 284
#     4  10  17  32  52  68  84 114 154 186 223 273
#     4   9  16  25  42  70  97 117 143 182 226 274
#     4  10  18  32  52  70  89 119 154 186 228 282
#
# _framework density 17.907343999999998
#
# number of rings (size 3 to 8) (size 9 to 14) (size 15 to 20)
#    0.000    2.846    1.538    2.308    0.000    3.385 
#    1.385    3.077    0.000    2.308    0.000    0.000 
#    0.000    1.231    0.000    1.385    0.000   12.308 
#
# Total GULP energy -290014.318724 kJ/mol
# GULP energy per Si atom -5577.198437 kJ/mol
# Density = 1.786659 g / cm^3
# Si number density = 17.907344 Si / 1000 Ang^3
#
#
#
# Elastic Constant Matrix: (Units=GPa)
#
#
# Indices 1 2 3 4 5 6 
#
# 1 52.9145 12.8333 32.2853 0.0000 0.0000 0.0000
# 2 12.8333 112.6531 76.1826 0.0000 0.0000 0.0000
# 3 32.2853 76.1826 177.2647 0.0000 0.0000 0.0000
# 4 0.0000 0.0000 0.0000 5.3032 0.0000 0.0000
# 5 0.0000 0.0000 0.0000 0.0000 -111.3242 0.0000
# 6 0.0000 0.0000 0.0000 0.0000 0.0000 -9.7654
#
#
#
# Elastic Compliance Matrix: (Units=1/GPa)
#
#
# Indices 1 2 3 4 5 6 
#
# 1 0.021267 0.000277 -0.003993 0.000000 0.000000 0.000000
# 2 0.000277 0.012517 -0.005430 0.000000 0.000000 0.000000
# 3 -0.003993 -0.005430 0.008702 0.000000 0.000000 0.000000
# 4 0.000000 0.000000 0.000000 0.188566 0.000000 0.000000
# 5 0.000000 0.000000 0.000000 0.000000 -0.008983 0.000000
# 6 0.000000 0.000000 0.000000 0.000000 0.000000 -0.102403
#
#
# Mechanical properties :
#
#
# Convention : Reuss Voigt Hill
#
# Bulk Modulus (GPa) = 41.32920 65.04830 53.18875
# Shear Modulus (GPa) = 34.24105 -8.38854 12.92625
#
# Velocity S-wave (km/s) = 4.37753 -2.16670 2.68962
# Velocity P-wave (km/s) = 6.97710 5.49039 6.27791
#
# Compressibility (1/GPa) = 0.02419597
#
# Stress axis : x y z
#
# Youngs Moduli (GPa) = 47.02075 79.88924 114.91474
#
# Poissons Ratio (x) = -0.02215 0.45880
# Poissons Ratio (y) = -0.01304 0.62399
# Poissons Ratio (z) = 0.18773 0.43380
#
# Static dielectric constant tensor:
#      x y z
#    x 1.700420 0.000000 0.000000 
#    y 0.000000 1.581990 0.000000 
#    z 0.000000 0.000000 1.604890 
# 
# From -- ./inp_files/34354.got.cif
#   From: 2010.05.17/outbox.cif.g08.bks.cpg/sg47_18_cif.got.tgz:34354.got - 2010.06.03 20:15:42.
