data_PCOD9381908
_publ_section_title
;
Structure prediction by ZEFSAII (Michael W. Deem and Ramdas Pophale) SiO2 
 PCOD9381908
Probable space group: P M M M
;
_chemical_formula_sum "Si O2"
_cell_formula_units_Z 52
_cell_length_a 27.467407
_cell_length_b 8.035896
_cell_length_c 12.678711
_cell_angle_alpha 90.000000
_cell_angle_beta 90.000000
_cell_angle_gamma 90.000000
_cell_volume 2798.511351
_symmetry_space_group_name_H-M "P M M M"
_symmetry_group_IT_number 47
_symmetry_cell_setting 'orthorhombic'
loop_
_space_group_symop_operation_xyz
x,y,z
-x,-y,z
x,-y,-z
-x,y,-z
-x,-y,-z
x,y,-z
-x,y,z
x,-y,z
loop_
_atom_site_type_symbol
_atom_site_label
_atom_site_fract_x
_atom_site_fract_y
_atom_site_fract_z
Si Si1 0.556271 0.703396 0.618820
Si Si2 0.675818 0.294874 0.000000
Si Si3 0.866787 0.801869 0.830136
Si Si4 0.788226 0.300819 0.000000
Si Si5 0.283443 0.194898 0.380308
Si Si6 0.636947 0.304974 0.778197
Si Si7 0.055659 0.796217 0.000000
Si Si8 0.825737 0.303563 0.382286
O O1 0.570752 0.756011 0.500000
O O2 0.500000 0.750365 0.635927
O O3 0.558002 0.500000 0.618887
O O4 0.592646 0.766019 0.708761
O O5 0.732463 0.242147 0.000000
O O6 0.649226 0.236634 0.893592
O O7 0.676296 0.500000 0.000000
O O8 0.861823 0.734059 0.712781
O O9 0.869434 0.000000 0.824488
O O10 0.818896 0.756636 0.898322
O O11 0.913003 0.742215 0.898297
O O12 0.787667 0.500000 0.000000
O O13 0.293178 0.255547 0.500000
O O14 0.315317 0.288036 0.294388
O O15 0.225976 0.216064 0.361676
O O16 0.295631 0.000000 0.375142
O O17 0.626163 0.500000 0.793464
O O18 0.000000 0.740480 0.000000
O O19 0.055608 0.000000 0.000000
O O20 0.842461 0.254281 0.500000
O O21 0.815919 0.500000 0.383161
#
# Coordination Sequence:
#
# PCOD9381908 Si02
#       8
#     8   4   8   4   8   8   4   8
#     4   8  14  25  43  67  89 110 145 194 241 284
#     4   9  19  30  41  63  92 122 157 192 222 263
#     4  10  19  31  51  77 101 128 166 211 252 286
#     4  10  18  30  47  66  96 134 167 203 244 289
#     4  10  20  32  47  70  98 123 153 198 242 280
#     4  10  18  30  47  65  90 124 158 191 233 285
#     4   8  16  32  53  77 103 130 163 206 252 294
#     4  10  20  33  49  70  99 135 169 197 235 295
#
# _framework density 18.581309000000001
#
# number of rings (size 3 to 8) (size 9 to 14) (size 15 to 20)
#    0.000    2.538    0.000    3.923    0.000    3.692 
#    0.000    1.538    0.000   11.538    0.000    5.385 
#    0.000    1.231    0.000    0.000    0.000    0.000 
#
# Total GULP energy -290087.638517 kJ/mol
# GULP energy per Si atom -5578.608433 kJ/mol
# Density = 1.853902 g / cm^3
# Si number density = 18.581309 Si / 1000 Ang^3
#
#
#
# Elastic Constant Matrix: (Units=GPa)
#
#
# Indices 1 2 3 4 5 6 
#
# 1 108.1719 -0.5766 86.4206 0.0000 0.0000 0.0000
# 2 -0.5766 16.5877 0.6820 0.0000 0.0000 0.0000
# 3 86.4206 0.6820 161.8072 0.0000 0.0000 0.0000
# 4 0.0000 0.0000 0.0000 12.9352 0.0000 0.0000
# 5 0.0000 0.0000 0.0000 0.0000 13.3968 0.0000
# 6 0.0000 0.0000 0.0000 0.0000 0.0000 15.9655
#
#
#
# Elastic Compliance Matrix: (Units=1/GPa)
#
#
# Indices 1 2 3 4 5 6 
#
# 1 0.016139 0.000916 -0.008624 0.000000 0.000000 0.000000
# 2 0.000916 0.060348 -0.000743 0.000000 0.000000 0.000000
# 3 -0.008624 -0.000743 0.010789 0.000000 0.000000 0.000000
# 4 0.000000 0.000000 0.000000 0.077308 0.000000 0.000000
# 5 0.000000 0.000000 0.000000 0.000000 0.074645 0.000000
# 6 0.000000 0.000000 0.000000 0.000000 0.000000 0.062635
#
#
# Mechanical properties :
#
#
# Convention : Reuss Voigt Hill
#
# Bulk Modulus (GPa) = 14.20991 51.06874 32.63933
# Shear Modulus (GPa) = 14.61026 21.79555 18.20291
#
# Velocity S-wave (km/s) = 2.80713 3.42860 3.13331
# Velocity P-wave (km/s) = 4.26270 6.57399 5.54021
#
# Compressibility (1/GPa) = 0.07037340
#
# Stress axis : x y z
#
# Youngs Moduli (GPa) = 61.96155 16.57054 92.68535
#
# Poissons Ratio (x) = -0.01517 0.79929
# Poissons Ratio (y) = -0.05673 0.06890
# Poissons Ratio (z) = 0.53434 0.01232
#
# Static dielectric constant tensor:
#      x y z
#    x 1.622070 0.000000 0.000000 
#    y 0.000000 1.670670 0.000000 
#    z 0.000000 0.000000 1.655210 
# 
# From -- ./inp_files/19902.got.cif
#   From: 2010.05.17/outbox.cif.g08.bks.cpg/sg47_10_cif.got.tgz:19902.got - 2010.06.03 20:15:42.
