data_PCOD9381064
_publ_section_title
;
Structure prediction by ZEFSAII (Michael W. Deem and Ramdas Pophale) SiO2 
 PCOD9381064
Probable space group: I M A 2
;
_chemical_formula_sum "Si O2"
_cell_formula_units_Z 48
_cell_length_a 7.733417
_cell_length_b 34.101917
_cell_length_c 7.189978
_cell_angle_alpha 90.000000
_cell_angle_beta 90.000000
_cell_angle_gamma 90.000000
_cell_volume 1896.172236
_symmetry_space_group_name_H-M "I M A 2"
_symmetry_group_IT_number 46
_symmetry_cell_setting 'orthorhombic'
loop_
_space_group_symop_operation_xyz
x,y,z
-x,-y,z
1/2-x,y,z
1/2+x,-y,z
1/2+x,1/2+y,1/2+z
1/2-x,1/2-y,1/2+z
-x,1/2+y,1/2+z
x,1/2-y,1/2+z
loop_
_atom_site_type_symbol
_atom_site_label
_atom_site_fract_x
_atom_site_fract_y
_atom_site_fract_z
Si Si1 0.042352 0.458381 0.824760
Si Si2 0.547856 0.878333 0.236271
Si Si3 0.445410 0.955996 0.756875
Si Si4 0.456204 0.626063 0.170498
Si Si5 0.553875 0.711150 0.140583
Si Si6 0.950097 0.795980 0.198556
O O1 0.250000 0.455107 0.848193
O O2 0.977973 0.421803 0.703352
O O3 0.000000 0.500000 0.738441
O O4 0.958073 0.458062 0.029636
O O5 0.750000 0.877360 0.186280
O O6 0.535163 0.876558 0.462481
O O7 0.468466 0.838462 0.154948
O O8 0.250000 0.952960 0.819464
O O9 0.525578 0.911912 0.784700
O O10 0.500000 0.000000 0.815335
O O11 0.250000 0.621648 0.152148
O O12 0.487605 0.671033 0.232175
O O13 0.750000 0.716247 0.209679
O O14 0.466934 0.753930 0.155525
O O15 0.557982 0.703794 0.921492
O O16 0.750000 0.795475 0.129260
#
# Coordination Sequence:
#
# PCOD9381064 Si02
#       6
#     8   8   8   8   8   8
#     4   9  14  19  29  45  67  94 122 150 181 219
#     4   8  14  24  36  50  70  98 128 155 186 223
#     4   9  15  21  30  45  67  94 122 150 180 217
#     4   9  16  24  34  51  74  98 124 154 188 225
#     4   9  16  27  42  57  75 100 128 158 190 223
#     4   8  14  25  41  58  74  96 127 159 189 221
#
# _framework density 25.314157000000002
#
# number of rings (size 3 to 8) (size 9 to 14) (size 15 to 20)
#    0.000    3.333    0.000    3.500    0.000    2.667 
#    0.000    3.333    0.000    0.000    0.000    0.000 
#    0.000    1.333    0.000    8.333    0.000    4.000 
#
# Total GULP energy -133634.927270 kJ/mol
# GULP energy per Si atom -5568.121970 kJ/mol
# Density = 2.525654 g / cm^3
# Si number density = 25.314157 Si / 1000 Ang^3
#
#
#
# Elastic Constant Matrix: (Units=GPa)
#
#
# Indices 1 2 3 4 5 6 
#
# 1 63.3376 19.0281 -7.6312 0.0012 0.0007 0.0013
# 2 19.0281 271.3899 -52.6330 0.0021 -0.0009 -0.0008
# 3 -7.6312 -52.6330 45.5178 -0.0023 0.0002 -0.0060
# 4 0.0012 0.0021 -0.0023 6.4846 -0.0017 -0.0028
# 5 0.0007 -0.0009 0.0002 -0.0017 -2.9291 -0.0020
# 6 0.0013 -0.0008 -0.0060 -0.0028 -0.0020 41.8958
#
#
#
# Elastic Compliance Matrix: (Units=1/GPa)
#
#
# Indices 1 2 3 4 5 6 
#
# 1 0.016243 -0.000787 0.001813 -0.000002 0.000004 0.000000
# 2 -0.000787 0.004788 0.005405 0.000001 -0.000001 0.000001
# 3 0.001813 0.005405 0.028523 0.000008 0.000000 0.000004
# 4 -0.000002 0.000001 0.000008 0.154211 -0.000090 0.000010
# 5 0.000004 -0.000001 0.000000 -0.000090 -0.341398 -0.000016
# 6 0.000000 0.000001 0.000004 0.000010 -0.000016 0.023869
#
#
# Mechanical properties :
#
#
# Convention : Reuss Voigt Hill
#
# Bulk Modulus (GPa) = 16.02188 33.08588 24.55388
# Shear Modulus (GPa) = -47.25061 37.18900 -5.03080
#
# Velocity S-wave (km/s) = -4.32507 3.83704 -1.41126
# Velocity P-wave (km/s) = 4.31262 5.72093 2.65804
#
# Compressibility (1/GPa) = 0.06241464
#
# Stress axis : x y z
#
# Youngs Moduli (GPa) = 61.56359 208.85158 35.05968
#
# Poissons Ratio (x) = 0.16443 -0.06356
# Poissons Ratio (y) = 0.04847 -0.18948
# Poissons Ratio (z) = -0.11161 -1.12875
#
# Static dielectric constant tensor:
#      x y z
#    x 1.959890 0.000000 0.000000 
#    y 0.000000 2.209270 0.000000 
#    z 0.000000 0.000000 2.090200 
# 
# From -- ./inp_files/9566.got.cif
#   From: 2010.05.17/outbox.cif.g08.bks.cpg/sg46_5_cif.got.tgz:9566.got - 2010.06.03 19:58:25.
