data_PCOD9381851
_publ_section_title
;
Structure prediction by ZEFSAII (Michael W. Deem and Ramdas Pophale) SiO2 
 PCOD9381851
Probable space group: P M M M
;
_chemical_formula_sum "Si O2"
_cell_formula_units_Z 56
_cell_length_a 9.006639
_cell_length_b 18.891200
_cell_length_c 19.606036
_cell_angle_alpha 90.000000
_cell_angle_beta 90.000000
_cell_angle_gamma 90.000000
_cell_volume 3335.892889
_symmetry_space_group_name_H-M "P M M M"
_symmetry_group_IT_number 47
_symmetry_cell_setting 'orthorhombic'
loop_
_space_group_symop_operation_xyz
x,y,z
-x,-y,z
x,-y,-z
-x,y,-z
-x,-y,-z
x,y,-z
-x,y,z
x,-y,z
loop_
_atom_site_type_symbol
_atom_site_label
_atom_site_fract_x
_atom_site_fract_y
_atom_site_fract_z
Si Si1 0.322067 0.919896 0.149600
Si Si2 0.676610 0.838720 0.713885
Si Si3 0.822729 0.180533 0.576673
Si Si4 0.821436 0.212598 0.077003
Si Si5 0.822022 0.705765 0.788958
Si Si6 0.322944 0.582453 0.708650
Si Si7 0.176980 0.650190 0.422644
O O1 0.500000 0.916355 0.140076
O O2 0.292435 0.897062 0.227970
O O3 0.246602 0.861495 0.102073
O O4 0.272687 0.000000 0.136451
O O5 0.500000 0.827225 0.711189
O O6 0.738779 0.855322 0.639231
O O7 0.756214 0.767505 0.740813
O O8 0.779131 0.158311 0.500000
O O9 0.795041 0.265338 0.581635
O O10 0.000000 0.170701 0.583422
O O11 0.781843 0.270785 0.134134
O O12 0.000000 0.206453 0.078072
O O13 0.774256 0.229415 0.000000
O O14 0.754154 0.632260 0.764499
O O15 0.000000 0.704754 0.781928
O O16 0.500000 0.591161 0.712128
O O17 0.286455 0.500000 0.717480
O O18 0.264981 0.609461 0.635383
O O19 0.213725 0.627700 0.500000
O O20 0.000000 0.640220 0.412587
#
# Coordination Sequence:
#
# PCOD9381851 Si02
#       7
#     8   8   8   8   8   8   8
#     4   9  19  34  50  73 107 141 168 195 232 284
#     4  10  18  29  49  73  96 126 166 208 246 284
#     4   9  17  29  46  69  96 125 160 206 255 297
#     4   9  19  35  55  80 106 130 159 199 243 284
#     4  10  19  33  53  73  96 127 163 200 241 293
#     4  11  23  35  48  70 100 131 164 206 251 291
#     4   9  18  32  49  69  95 129 166 203 247 298
#
# _framework density 16.787109000000001
#
# number of rings (size 3 to 8) (size 9 to 14) (size 15 to 20)
#    0.000    2.429    1.429    2.143    0.000    4.000 
#    0.000    4.286    0.000    0.857    0.000    6.000 
#    0.000    0.000    0.000    0.000    0.000    0.000 
#
# Total GULP energy -312326.981754 kJ/mol
# GULP energy per Si atom -5577.267531 kJ/mol
# Density = 1.674890 g / cm^3
# Si number density = 16.787109 Si / 1000 Ang^3
#
#
#
# Elastic Constant Matrix: (Units=GPa)
#
#
# Indices 1 2 3 4 5 6 
#
# 1 25.6388 18.5419 34.3435 0.0000 0.0000 0.0000
# 2 18.5419 46.6797 32.6656 0.0000 0.0000 0.0000
# 3 34.3435 32.6656 138.1144 0.0000 0.0000 0.0000
# 4 0.0000 0.0000 0.0000 13.8247 0.0000 0.0000
# 5 0.0000 0.0000 0.0000 0.0000 18.6931 0.0000
# 6 0.0000 0.0000 0.0000 0.0000 0.0000 13.8519
#
#
#
# Elastic Compliance Matrix: (Units=1/GPa)
#
#
# Indices 1 2 3 4 5 6 
#
# 1 0.069871 -0.018689 -0.012954 0.000000 0.000000 0.000000
# 2 -0.018689 0.030670 -0.002607 0.000000 0.000000 0.000000
# 3 -0.012954 -0.002607 0.011078 0.000000 0.000000 0.000000
# 4 0.000000 0.000000 0.000000 0.072334 0.000000 0.000000
# 5 0.000000 0.000000 0.000000 0.000000 0.053496 0.000000
# 6 0.000000 0.000000 0.000000 0.000000 0.000000 0.072192
#
#
# Mechanical properties :
#
#
# Convention : Reuss Voigt Hill
#
# Bulk Modulus (GPa) = 23.19095 42.39278 32.79186
# Shear Modulus (GPa) = 12.73839 17.59940 15.16890
#
# Velocity S-wave (km/s) = 2.75766 3.24139 3.00926
# Velocity P-wave (km/s) = 4.89738 6.27031 5.62588
#
# Compressibility (1/GPa) = 0.04312027
#
# Stress axis : x y z
#
# Youngs Moduli (GPa) = 14.31203 32.60498 90.26865
#
# Poissons Ratio (x) = 0.60935 1.16935
# Poissons Ratio (y) = 0.26748 0.23530
# Poissons Ratio (z) = 0.18540 0.08499
#
# Static dielectric constant tensor:
#      x y z
#    x 1.558080 0.000000 0.000000 
#    y 0.000000 1.543700 0.000000 
#    z 0.000000 0.000000 1.584250 
# 
# From -- ./inp_files/26936.got.cif
#   From: 2010.05.17/outbox.cif.g08.bks.cpg/sg47_14_cif.got.tgz:26936.got - 2010.06.03 20:15:42.
