data_PCOD9381547
_publ_section_title
;
Structure prediction by ZEFSAII (Michael W. Deem and Ramdas Pophale) SiO2 
 PCOD9381547
Probable space group: P M M M
;
_chemical_formula_sum "Si O2"
_cell_formula_units_Z 56
_cell_length_a 14.298293
_cell_length_b 7.692695
_cell_length_c 30.493185
_cell_angle_alpha 90.000000
_cell_angle_beta 90.000000
_cell_angle_gamma 90.000000
_cell_volume 3354.018817
_symmetry_space_group_name_H-M "P M M M"
_symmetry_group_IT_number 47
_symmetry_cell_setting 'orthorhombic'
loop_
_space_group_symop_operation_xyz
x,y,z
-x,-y,z
x,-y,-z
-x,y,-z
-x,-y,-z
x,y,-z
-x,y,z
x,-y,z
loop_
_atom_site_type_symbol
_atom_site_label
_atom_site_fract_x
_atom_site_fract_y
_atom_site_fract_z
Si Si1 0.895797 0.205265 0.225421
Si Si2 0.607008 0.709126 0.357670
Si Si3 0.289555 0.790980 0.731196
Si Si4 0.108516 0.712039 0.049030
Si Si5 0.793033 0.293550 0.136254
Si Si6 0.604686 0.209716 0.817844
Si Si7 0.386890 0.293138 0.547184
O O1 0.814054 0.276656 0.256943
O O2 0.855441 0.222146 0.176212
O O3 0.000000 0.280466 0.229074
O O4 0.902740 0.000000 0.234701
O O5 0.500000 0.771904 0.350333
O O6 0.601930 0.500000 0.361248
O O7 0.671031 0.749731 0.316368
O O8 0.642908 0.775376 0.405140
O O9 0.358582 0.729134 0.770096
O O10 0.286546 0.000000 0.734947
O O11 0.111227 0.500000 0.048679
O O12 0.171895 0.772964 0.089276
O O13 0.000000 0.760655 0.056407
O O14 0.135820 0.769597 0.000000
O O15 0.806690 0.500000 0.136786
O O16 0.685229 0.257266 0.147728
O O17 0.500000 0.273466 0.826958
O O18 0.601475 0.000000 0.816454
O O19 0.354529 0.220450 0.500000
O O20 0.500000 0.277399 0.547815
O O21 0.366316 0.500000 0.546327
#
# Coordination Sequence:
#
# PCOD9381547 Si02
#       7
#     8   8   8   8   8   8   8
#     4   9  18  32  46  58  78 110 141 165 194 239
#     4   9  16  24  36  56  80 105 132 162 195 229
#     4   9  17  28  41  57  76 101 133 164 196 234
#     4   8  14  25  41  62  88 113 132 154 193 246
#     4  10  18  27  44  69  89 104 130 169 207 239
#     4   9  18  32  46  58  78 112 147 171 195 235
#     4   7  10  18  32  49  70  98 131 161 187 222
#
# _framework density 16.696389
#
# number of rings (size 3 to 8) (size 9 to 14) (size 15 to 20)
#    0.000    3.286    0.000    3.857    0.000    4.286 
#    0.000    0.000    0.000    2.571    0.000   10.000 
#    0.000    0.571    0.000    7.143    0.000    0.286 
#
# Total GULP energy -311748.129361 kJ/mol
# GULP energy per Si atom -5566.930881 kJ/mol
# Density = 1.665839 g / cm^3
# Si number density = 16.696389 Si / 1000 Ang^3
#
#
#
# Elastic Constant Matrix: (Units=GPa)
#
#
# Indices 1 2 3 4 5 6 
#
# 1 111.1090 1.8240 82.7980 0.0000 0.0000 0.0000
# 2 1.8240 25.1044 -1.2415 0.0000 0.0000 0.0000
# 3 82.7980 -1.2415 171.8258 0.0000 0.0000 0.0000
# 4 0.0000 0.0000 0.0000 33.7570 0.0000 0.0000
# 5 0.0000 0.0000 0.0000 0.0000 17.1761 0.0000
# 6 0.0000 0.0000 0.0000 0.0000 0.0000 12.4634
#
#
#
# Elastic Compliance Matrix: (Units=1/GPa)
#
#
# Indices 1 2 3 4 5 6 
#
# 1 0.014089 -0.001360 -0.006799 0.000000 0.000000 0.000000
# 2 -0.001360 0.039979 0.000944 0.000000 0.000000 0.000000
# 3 -0.006799 0.000944 0.009103 0.000000 0.000000 0.000000
# 4 0.000000 0.000000 0.000000 0.029623 0.000000 0.000000
# 5 0.000000 0.000000 0.000000 0.000000 0.058221 0.000000
# 6 0.000000 0.000000 0.000000 0.000000 0.000000 0.080235
#
#
# Mechanical properties :
#
#
# Convention : Reuss Voigt Hill
#
# Bulk Modulus (GPa) = 20.51632 52.75557 36.63595
# Shear Modulus (GPa) = 19.08933 27.65656 23.37294
#
# Velocity S-wave (km/s) = 3.38497 4.07435 3.74556
# Velocity P-wave (km/s) = 5.25280 7.33481 6.37932
#
# Compressibility (1/GPa) = 0.04874168
#
# Stress axis : x y z
#
# Youngs Moduli (GPa) = 70.97724 25.01309 109.85534
#
# Poissons Ratio (x) = 0.03401 0.74690
# Poissons Ratio (y) = 0.09652 -0.10372
# Poissons Ratio (z) = 0.48257 -0.02362
#
# Static dielectric constant tensor:
#      x y z
#    x 1.559460 0.000000 0.000000 
#    y 0.000000 1.623990 0.000000 
#    z 0.000000 0.000000 1.589990 
# 
# From -- ./inp_files/25786.got.cif
#   From: 2010.05.17/outbox.cif.g08.bks.cpg/sg47_13_cif.got.tgz:25786.got - 2010.06.03 20:15:42.
