data_PCOD9381650
_publ_section_title
;
Structure prediction by ZEFSAII (Michael W. Deem and Ramdas Pophale) SiO2 
 PCOD9381650
Probable space group: P M M M
;
_chemical_formula_sum "Si O2"
_cell_formula_units_Z 56
_cell_length_a 19.350797
_cell_length_b 7.489628
_cell_length_c 19.865781
_cell_angle_alpha 90.000000
_cell_angle_beta 90.000000
_cell_angle_gamma 90.000000
_cell_volume 2879.153025
_symmetry_space_group_name_H-M "P M M M"
_symmetry_group_IT_number 47
_symmetry_cell_setting 'orthorhombic'
loop_
_space_group_symop_operation_xyz
x,y,z
-x,-y,z
x,-y,-z
-x,y,-z
-x,-y,-z
x,y,-z
-x,y,z
x,-y,z
loop_
_atom_site_type_symbol
_atom_site_label
_atom_site_fract_x
_atom_site_fract_y
_atom_site_fract_z
Si Si1 0.286382 0.218541 0.576192
Si Si2 0.576110 0.207534 0.351273
Si Si3 0.145143 0.213844 0.074129
Si Si4 0.649081 0.292097 0.216144
Si Si5 0.077793 0.218595 0.211947
Si Si6 0.691556 0.714578 0.074673
Si Si7 0.790014 0.216184 0.292981
O O1 0.274490 0.276300 0.500000
O O2 0.360568 0.281853 0.604902
O O3 0.229903 0.272840 0.631619
O O4 0.287335 0.000000 0.576475
O O5 0.500000 0.287106 0.359889
O O6 0.599967 0.212653 0.273369
O O7 0.571718 0.000000 0.370558
O O8 0.101975 0.278837 0.137742
O O9 0.226740 0.248658 0.083804
O O10 0.136522 0.000000 0.072658
O O11 0.125757 0.283349 0.000000
O O12 0.630952 0.500000 0.212523
O O13 0.651280 0.217242 0.140375
O O14 0.726983 0.275079 0.245139
O O15 0.136774 0.276146 0.264149
O O16 0.000000 0.275596 0.227034
O O17 0.078216 0.000000 0.211722
O O18 0.683826 0.500000 0.074278
O O19 0.672046 0.781067 0.000000
O O20 0.789136 0.000000 0.291362
#
# Coordination Sequence:
#
# PCOD9381650 Si02
#       7
#     8   8   8   8   8   8   8
#     4   8  14  25  44  69  91 113 143 176 208 247
#     4   9  18  31  47  68  93 119 143 169 206 254
#     4   9  16  25  39  59  82 110 145 183 221 262
#     4  10  18  28  46  67  87 114 147 182 217 254
#     4   9  16  25  39  60  86 116 148 184 224 261
#     4   9  17  28  42  61  85 112 143 181 222 259
#     4   9  16  28  45  63  86 114 147 184 219 259
#
# _framework density 19.450164999999998
#
# number of rings (size 3 to 8) (size 9 to 14) (size 15 to 20)
#    0.000    3.000    1.429    1.286    0.000    1.429 
#    0.000    2.857    0.000    9.429    0.000   12.000 
#    0.000    0.000    0.000    5.143    0.000    5.714 
#
# Total GULP energy -312168.709875 kJ/mol
# GULP energy per Si atom -5574.441248 kJ/mol
# Density = 1.940590 g / cm^3
# Si number density = 19.450165 Si / 1000 Ang^3
#
#
#
# Elastic Constant Matrix: (Units=GPa)
#
#
# Indices 1 2 3 4 5 6 
#
# 1 61.8070 3.6438 53.7435 0.0000 0.0000 0.0000
# 2 3.6438 53.9828 0.7460 0.0000 0.0000 0.0000
# 3 53.7435 0.7460 150.5238 0.0000 0.0000 0.0000
# 4 0.0000 0.0000 0.0000 18.0136 0.0000 0.0000
# 5 0.0000 0.0000 0.0000 0.0000 9.4069 0.0000
# 6 0.0000 0.0000 0.0000 0.0000 0.0000 367.3393
#
#
#
# Elastic Compliance Matrix: (Units=1/GPa)
#
#
# Indices 1 2 3 4 5 6 
#
# 1 0.023581 -0.001475 -0.008412 0.000000 0.000000 0.000000
# 2 -0.001475 0.018618 0.000435 0.000000 0.000000 0.000000
# 3 -0.008412 0.000435 0.009645 0.000000 0.000000 0.000000
# 4 0.000000 0.000000 0.000000 0.055514 0.000000 0.000000
# 5 0.000000 0.000000 0.000000 0.000000 0.106305 0.000000
# 6 0.000000 0.000000 0.000000 0.000000 0.000000 0.002722
#
#
# Mechanical properties :
#
#
# Convention : Reuss Voigt Hill
#
# Bulk Modulus (GPa) = 30.36030 42.50891 36.43461
# Shear Modulus (GPa) = 20.30294 92.83065 56.56680
#
# Velocity S-wave (km/s) = 3.23436 6.91600 5.39871
# Velocity P-wave (km/s) = 5.43979 9.25621 7.59173
#
# Compressibility (1/GPa) = 0.03293775
#
# Stress axis : x y z
#
# Youngs Moduli (GPa) = 42.40691 53.71146 103.68261
#
# Poissons Ratio (x) = 0.07925 0.87219
# Poissons Ratio (y) = 0.06257 -0.04505
# Poissons Ratio (z) = 0.35673 -0.02334
#
# Static dielectric constant tensor:
#      x y z
#    x 1.651510 0.000000 0.000000 
#    y 0.000000 1.718180 0.000000 
#    z 0.000000 0.000000 1.699960 
# 
# From -- ./inp_files/9801.got.cif
#   From: 2010.05.17/outbox.cif.g08.bks.cpg/sg47_5_cif.got.tgz:9801.got - 2010.06.03 20:15:42.
