data_PCOD9381345
_publ_section_title
;
Structure prediction by ZEFSAII (Michael W. Deem and Ramdas Pophale) SiO2 
 PCOD9381345
Probable space group: P M M M
;
_chemical_formula_sum "Si O2"
_cell_formula_units_Z 52
_cell_length_a 23.913197
_cell_length_b 15.314644
_cell_length_c 7.449177
_cell_angle_alpha 90.000000
_cell_angle_beta 90.000000
_cell_angle_gamma 90.000000
_cell_volume 2728.053236
_symmetry_space_group_name_H-M "P M M M"
_symmetry_group_IT_number 47
_symmetry_cell_setting 'orthorhombic'
loop_
_space_group_symop_operation_xyz
x,y,z
-x,-y,z
x,-y,-z
-x,y,-z
-x,-y,-z
x,y,-z
-x,y,z
x,-y,z
loop_
_atom_site_type_symbol
_atom_site_label
_atom_site_fract_x
_atom_site_fract_y
_atom_site_fract_z
Si Si1 0.891188 0.217862 0.712186
Si Si2 0.436432 0.215369 0.708945
Si Si3 0.934565 0.597210 0.281178
Si Si4 0.000000 0.899283 0.214465
Si Si5 0.335592 0.898835 0.718651
Si Si6 0.434321 0.407251 0.216020
Si Si7 0.210606 0.898846 0.280579
O O1 0.881506 0.228920 0.500000
O O2 0.903420 0.315415 0.783213
O O3 0.945460 0.156006 0.731395
O O4 0.837772 0.165491 0.784395
O O5 0.441891 0.191740 0.500000
O O6 0.500000 0.211724 0.785212
O O7 0.388520 0.154599 0.788051
O O8 0.414030 0.314556 0.717257
O O9 0.932924 0.597932 0.500000
O O10 0.914999 0.500000 0.224851
O O11 0.000000 0.605122 0.231425
O O12 0.000000 0.000000 0.281952
O O13 0.000000 0.903672 0.000000
O O14 0.335783 0.892964 0.500000
O O15 0.273200 0.871509 0.775043
O O16 0.341868 0.000000 0.765453
O O17 0.500000 0.408714 0.266295
O O18 0.409555 0.500000 0.276861
O O19 0.431630 0.405474 0.000000
O O20 0.209554 0.899256 0.500000
O O21 0.201096 0.000000 0.226610
#
# Coordination Sequence:
#
# PCOD9381345 Si02
#       7
#     8   8   8   4   8   8   8
#     4  10  17  28  48  68  82 106 146 181 204 238
#     4   9  16  24  38  62  86 108 138 175 212 250
#     4   8  13  22  38  62  88 107 127 163 208 243
#     4  11  23  33  40  59  94 122 133 159 216 265
#     4   8  14  25  39  57  85 115 139 169 211 252
#     4   8  14  25  40  57  79 108 138 167 205 255
#     4   8  14  24  40  62  83 105 138 178 212 242
#
# _framework density 19.061211
#
# number of rings (size 3 to 8) (size 9 to 14) (size 15 to 20)
#    0.000    3.308    0.769    2.538    0.000    1.846 
#    0.000    3.077    0.000    3.231    0.000    8.615 
#    0.000    0.000    0.000    0.000    0.000    0.000 
#
# Total GULP energy -289583.235730 kJ/mol
# GULP energy per Si atom -5568.908379 kJ/mol
# Density = 1.901783 g / cm^3
# Si number density = 19.061211 Si / 1000 Ang^3
#
#
#
# Elastic Constant Matrix: (Units=GPa)
#
#
# Indices 1 2 3 4 5 6 
#
# 1 134.9557 106.6458 3.2097 0.0000 0.0000 0.0000
# 2 106.6458 160.6729 2.4227 0.0000 0.0000 0.0000
# 3 3.2097 2.4227 54.3380 0.0000 0.0000 0.0000
# 4 0.0000 0.0000 0.0000 9.0301 0.0000 0.0000
# 5 0.0000 0.0000 0.0000 0.0000 -11.9427 0.0000
# 6 0.0000 0.0000 0.0000 0.0000 0.0000 8.0792
#
#
#
# Elastic Compliance Matrix: (Units=1/GPa)
#
#
# Indices 1 2 3 4 5 6 
#
# 1 0.015595 -0.010344 -0.000460 0.000000 0.000000 0.000000
# 2 -0.010344 0.013089 0.000027 0.000000 0.000000 0.000000
# 3 -0.000460 0.000027 0.018429 0.000000 0.000000 0.000000
# 4 0.000000 0.000000 0.000000 0.110741 0.000000 0.000000
# 5 0.000000 0.000000 0.000000 0.000000 -0.083733 0.000000
# 6 0.000000 0.000000 0.000000 0.000000 0.000000 0.123774
#
#
# Mechanical properties :
#
#
# Convention : Reuss Voigt Hill
#
# Bulk Modulus (GPa) = 39.12344 63.83588 51.47966
# Shear Modulus (GPa) = 21.93274 16.87921 19.40598
#
# Velocity S-wave (km/s) = 3.39580 2.97901 3.19421
# Velocity P-wave (km/s) = 5.99541 6.73760 6.37731
#
# Compressibility (1/GPa) = 0.02556013
#
# Stress axis : x y z
#
# Youngs Moduli (GPa) = 64.12288 76.39818 54.26154
#
# Poissons Ratio (x) = 0.79028 0.02496
# Poissons Ratio (y) = 0.66330 -0.00149
# Poissons Ratio (z) = 0.02949 -0.00209
#
# Static dielectric constant tensor:
#      x y z
#    x 1.650880 0.000000 0.000000 
#    y 0.000000 1.464670 0.000000 
#    z 0.000000 0.000000 1.715400 
# 
# From -- ./inp_files/12538.got.cif
#   From: 2010.05.17/outbox.cif.g08.bks.cpg/sg47_7_cif.got.tgz:12538.got - 2010.06.03 20:15:42.
