data_PCOD9381603
_publ_section_title
;
Structure prediction by ZEFSAII (Michael W. Deem and Ramdas Pophale) SiO2 
 PCOD9381603
Probable space group: P M M M
;
_chemical_formula_sum "Si O2"
_cell_formula_units_Z 52
_cell_length_a 18.884238
_cell_length_b 7.509669
_cell_length_c 17.945094
_cell_angle_alpha 90.000000
_cell_angle_beta 90.000000
_cell_angle_gamma 90.000000
_cell_volume 2544.872320
_symmetry_space_group_name_H-M "P M M M"
_symmetry_group_IT_number 47
_symmetry_cell_setting 'orthorhombic'
loop_
_space_group_symop_operation_xyz
x,y,z
-x,-y,z
x,-y,-z
-x,y,-z
-x,-y,-z
x,y,-z
-x,y,z
x,-y,z
loop_
_atom_site_type_symbol
_atom_site_label
_atom_site_fract_x
_atom_site_fract_y
_atom_site_fract_z
Si Si1 0.920747 0.281653 0.742741
Si Si2 0.219170 0.295837 0.185499
Si Si3 0.422870 0.216924 0.413285
Si Si4 0.500000 0.789296 0.915270
Si Si5 0.276645 0.786084 0.654159
Si Si6 0.654757 0.287200 0.085009
Si Si7 0.131722 0.288466 0.581471
O O1 0.916921 0.500000 0.741704
O O2 0.858635 0.217904 0.797943
O O3 0.904445 0.221389 0.657671
O O4 0.000000 0.230946 0.763915
O O5 0.207772 0.500000 0.161087
O O6 0.253865 0.294374 0.267358
O O7 0.278184 0.215495 0.130852
O O8 0.417633 0.268003 0.500000
O O9 0.500000 0.274051 0.384667
O O10 0.353658 0.277580 0.370380
O O11 0.421966 0.000000 0.411640
O O12 0.576278 0.742578 0.881080
O O13 0.500000 0.000000 0.920945
O O14 0.500000 0.711237 0.000000
O O15 0.215437 0.740215 0.595034
O O16 0.277698 0.000000 0.661983
O O17 0.662528 0.500000 0.081938
O O18 0.654071 0.218086 0.000000
O O19 0.110908 0.216811 0.500000
O O20 0.117944 0.500000 0.579934
#
# Coordination Sequence:
#
# PCOD9381603 Si02
#       7
#     8   8   8   4   8   8   8
#     4   8  14  26  45  67  90 119 154 190 230 277
#     4   9  18  32  48  67  92 119 151 189 228 275
#     4   8  14  25  40  57  78 106 142 182 219 256
#     4   9  17  29  47  73 101 123 148 187 228 263
#     4  10  18  28  44  64  87 115 150 188 230 279
#     4   9  17  31  51  71  94 127 161 188 223 278
#     4   9  17  28  43  64  89 117 150 191 235 276
#
# _framework density 20.433244999999999
#
# number of rings (size 3 to 8) (size 9 to 14) (size 15 to 20)
#    0.000    3.154    0.000    2.538    0.000    2.769 
#    1.385    1.538    0.000    9.231    0.000   12.923 
#    0.000    0.000    0.000    9.385    0.000   10.154 
#
# Total GULP energy -289735.123105 kJ/mol
# GULP energy per Si atom -5571.829290 kJ/mol
# Density = 2.038674 g / cm^3
# Si number density = 20.433245 Si / 1000 Ang^3
#
#
#
# Elastic Constant Matrix: (Units=GPa)
#
#
# Indices 1 2 3 4 5 6 
#
# 1 198.5592 -3.0034 56.9517 0.0000 0.0000 0.0000
# 2 -3.0034 58.6122 1.5409 0.0000 0.0000 0.0000
# 3 56.9517 1.5409 50.0417 0.0000 0.0000 0.0000
# 4 0.0000 0.0000 0.0000 -1.7957 0.0000 0.0000
# 5 0.0000 0.0000 0.0000 0.0000 27.5372 0.0000
# 6 0.0000 0.0000 0.0000 0.0000 0.0000 11.2354
#
#
#
# Elastic Compliance Matrix: (Units=1/GPa)
#
#
# Indices 1 2 3 4 5 6 
#
# 1 0.007499 0.000609 -0.008553 0.000000 0.000000 0.000000
# 2 0.000609 0.017125 -0.001220 0.000000 0.000000 0.000000
# 3 -0.008553 -0.001220 0.029755 0.000000 0.000000 0.000000
# 4 0.000000 0.000000 0.000000 -0.556875 0.000000 0.000000
# 5 0.000000 0.000000 0.000000 0.000000 0.036315 0.000000
# 6 0.000000 0.000000 0.000000 0.000000 0.000000 0.089004
#
#
# Mechanical properties :
#
#
# Convention : Reuss Voigt Hill
#
# Bulk Modulus (GPa) = 27.73964 46.46574 37.10269
# Shear Modulus (GPa) = -14.41616 24.17697 4.88040
#
# Velocity S-wave (km/s) = -2.65905 3.44352 1.54714
# Velocity P-wave (km/s) = 2.04396 6.21290 4.62482
#
# Compressibility (1/GPa) = 0.03604949
#
# Stress axis : x y z
#
# Youngs Moduli (GPa) = 133.35696 58.39557 33.60802
#
# Poissons Ratio (x) = -0.03557 0.28745
# Poissons Ratio (y) = -0.08123 0.04102
# Poissons Ratio (z) = 1.14059 0.07127
#
# Static dielectric constant tensor:
#      x y z
#    x 1.762390 0.000000 0.000000 
#    y 0.000000 1.757270 0.000000 
#    z 0.000000 0.000000 1.710790 
# 
# From -- ./inp_files/28507.got.cif
#   From: 2010.05.17/outbox.cif.g08.bks.cpg/sg47_15_cif.got.tgz:28507.got - 2010.06.03 20:15:42.
