data_PCOD9381917
_publ_section_title
;
Structure prediction by ZEFSAII (Michael W. Deem and Ramdas Pophale) SiO2 
 PCOD9381917
Probable space group: P M M M
;
_chemical_formula_sum "Si O2"
_cell_formula_units_Z 60
_cell_length_a 19.599845
_cell_length_b 7.847053
_cell_length_c 19.211874
_cell_angle_alpha 90.000000
_cell_angle_beta 90.000000
_cell_angle_gamma 90.000000
_cell_volume 2954.805865
_symmetry_space_group_name_H-M "P M M M"
_symmetry_group_IT_number 47
_symmetry_cell_setting 'orthorhombic'
loop_
_space_group_symop_operation_xyz
x,y,z
-x,-y,z
x,-y,-z
-x,y,-z
-x,-y,-z
x,y,-z
-x,y,z
x,-y,z
loop_
_atom_site_type_symbol
_atom_site_label
_atom_site_fract_x
_atom_site_fract_y
_atom_site_fract_z
Si Si1 0.395584 0.296180 0.424435
Si Si2 0.235716 0.300467 0.578463
Si Si3 0.277946 0.299560 0.075298
Si Si4 0.000000 0.209736 0.581444
Si Si5 0.767721 0.797232 0.226442
Si Si6 0.123850 0.808956 0.676753
Si Si7 0.619948 0.796149 0.726080
Si Si8 0.574151 0.793294 0.122171
O O1 0.421755 0.231007 0.500000
O O2 0.402784 0.500000 0.427271
O O3 0.315034 0.252805 0.422883
O O4 0.416629 0.245214 0.346731
O O5 0.209608 0.285737 0.500000
O O6 0.231221 0.500000 0.598607
O O7 0.189803 0.188042 0.627065
O O8 0.264074 0.500000 0.075923
O O9 0.244031 0.225771 0.144566
O O10 0.359266 0.273334 0.083776
O O11 0.256921 0.228303 0.000000
O O12 0.065045 0.266828 0.627699
O O13 0.000000 0.264972 0.500000
O O14 0.000000 0.000000 0.578617
O O15 0.839544 0.726481 0.255873
O O16 0.698443 0.729407 0.264546
O O17 0.769975 0.000000 0.239334
O O18 0.100029 0.000000 0.694954
O O19 0.581943 0.742218 0.796487
O O20 0.624656 0.000000 0.728652
O O21 0.500000 0.739135 0.095837
O O22 0.576998 0.000000 0.119221
#
# Coordination Sequence:
#
# PCOD9381917 Si02
#       8
#     8   8   8   4   8   8   8   8
#     4   9  17  27  39  59  87 117 150 192 244 293
#     4   9  17  27  39  59  88 121 156 195 241 287
#     4  10  21  35  52  77 106 130 155 194 240 287
#     4   9  18  30  45  69 102 139 174 208 249 291
#     4   9  18  31  48  71  96 125 162 202 244 290
#     4  10  18  30  47  67  93 127 169 209 242 286
#     4   9  16  28  45  67  91 115 155 205 243 279
#     4   9  19  35  53  73 100 134 166 194 230 283
#
# _framework density 20.305902
#
# number of rings (size 3 to 8) (size 9 to 14) (size 15 to 20)
#    0.000    2.733    1.333    2.400    0.000    5.333 
#    0.000    3.000    0.000    1.600    0.000    3.267 
#    0.000    3.733    0.000    0.000    0.000    0.000 
#
# Total GULP energy -334181.280240 kJ/mol
# GULP energy per Si atom -5569.688004 kJ/mol
# Density = 2.025969 g / cm^3
# Si number density = 20.305902 Si / 1000 Ang^3
#
#
#
# Elastic Constant Matrix: (Units=GPa)
#
#
# Indices 1 2 3 4 5 6 
#
# 1 87.2951 3.7330 39.5969 0.0000 0.0000 0.0000
# 2 3.7330 15.0986 6.0753 0.0000 0.0000 0.0000
# 3 39.5969 6.0753 143.8291 0.0000 0.0000 0.0000
# 4 0.0000 0.0000 0.0000 23.2847 0.0000 0.0000
# 5 0.0000 0.0000 0.0000 0.0000 -3.0183 0.0000
# 6 0.0000 0.0000 0.0000 0.0000 0.0000 -2.9074
#
#
#
# Elastic Compliance Matrix: (Units=1/GPa)
#
#
# Indices 1 2 3 4 5 6 
#
# 1 0.013139 -0.001824 -0.003540 0.000000 0.000000 0.000000
# 2 -0.001824 0.067630 -0.002354 0.000000 0.000000 0.000000
# 3 -0.003540 -0.002354 0.008027 0.000000 0.000000 0.000000
# 4 0.000000 0.000000 0.000000 0.042947 0.000000 0.000000
# 5 0.000000 0.000000 0.000000 0.000000 -0.331308 0.000000
# 6 0.000000 0.000000 0.000000 0.000000 0.000000 -0.343948
#
#
# Mechanical properties :
#
#
# Convention : Reuss Voigt Hill
#
# Bulk Modulus (GPa) = 13.63177 38.33702 25.98439
# Shear Modulus (GPa) = -9.92805 16.59297 3.33246
#
# Velocity S-wave (km/s) = -2.21356 2.86169 1.28246
# Velocity P-wave (km/s) = 0.44118 5.46257 3.87520
#
# Compressibility (1/GPa) = 0.07335804
#
# Stress axis : x y z
#
# Youngs Moduli (GPa) = 76.10787 14.78644 124.58261
#
# Poissons Ratio (x) = 0.02697 0.44105
# Poissons Ratio (y) = 0.13882 0.29333
# Poissons Ratio (z) = 0.26944 0.03481
#
# Static dielectric constant tensor:
#      x y z
#    x 1.745320 0.000000 0.000000 
#    y 0.000000 1.747010 0.000000 
#    z 0.000000 0.000000 1.802570 
# 
# From -- ./inp_files/28792.got.cif
#   From: 2010.05.17/outbox.cif.g08.bks.cpg/sg47_15_cif.got.tgz:28792.got - 2010.06.03 20:15:42.
