data_PCOD9381859
_publ_section_title
;
Structure prediction by ZEFSAII (Michael W. Deem and Ramdas Pophale) SiO2 
 PCOD9381859
Probable space group: P M M M
;
_chemical_formula_sum "Si O2"
_cell_formula_units_Z 56
_cell_length_a 7.852279
_cell_length_b 14.931222
_cell_length_c 23.395293
_cell_angle_alpha 90.000000
_cell_angle_beta 90.000000
_cell_angle_gamma 90.000000
_cell_volume 2742.960562
_symmetry_space_group_name_H-M "P M M M"
_symmetry_group_IT_number 47
_symmetry_cell_setting 'orthorhombic'
loop_
_space_group_symop_operation_xyz
x,y,z
-x,-y,z
x,-y,-z
-x,y,-z
-x,-y,-z
x,y,-z
-x,y,z
x,-y,z
loop_
_atom_site_type_symbol
_atom_site_label
_atom_site_fract_x
_atom_site_fract_y
_atom_site_fract_z
Si Si1 0.794942 0.600882 0.346491
Si Si2 0.707178 0.897698 0.717380
Si Si3 0.800386 0.400712 0.000000
Si Si4 0.295784 0.214106 0.610606
Si Si5 0.698643 0.282724 0.107487
Si Si6 0.291154 0.899155 0.848174
Si Si7 0.794392 0.603598 0.216420
Si Si8 0.291105 0.896042 0.500000
O O1 0.735981 0.500000 0.360865
O O2 0.743403 0.680785 0.387984
O O3 0.736300 0.622254 0.281398
O O4 0.000000 0.598247 0.344633
O O5 0.500000 0.893518 0.717988
O O6 0.770837 0.830032 0.669382
O O7 0.762207 0.881027 0.782426
O O8 0.752583 0.000000 0.702179
O O9 0.761927 0.344693 0.056704
O O10 0.718631 0.500000 0.000000
O O11 0.000000 0.412810 0.000000
O O12 0.500000 0.204740 0.611091
O O13 0.234266 0.158057 0.556162
O O14 0.500000 0.271954 0.096903
O O15 0.771799 0.182479 0.113208
O O16 0.723982 0.331583 0.168218
O O17 0.500000 0.898901 0.848311
O O18 0.238286 0.000000 0.863690
O O19 0.749582 0.500000 0.203637
O O20 0.000000 0.609782 0.215167
O O21 0.500000 0.896478 0.500000
O O22 0.238089 0.000000 0.500000
#
# Coordination Sequence:
#
# PCOD9381859 Si02
#       8
#     8   8   4   8   8   8   8   4
#     4   9  19  35  52  71  99 135 171 206 250 307
#     4   8  13  23  43  72 103 132 161 195 240 297
#     4  11  25  43  58  71  96 138 177 205 246 307
#     4  10  18  29  49  75 100 130 171 216 257 295
#     4  11  21  33  54  82 106 130 167 215 255 286
#     4   8  15  28  46  72 105 133 157 193 245 300
#     4   9  18  33  52  74 103 138 168 197 248 316
#     4   9  18  32  50  75 106 136 167 207 258 315
#
# _framework density 20.415897000000001
#
# number of rings (size 3 to 8) (size 9 to 14) (size 15 to 20)
#    0.000    2.714    0.000    4.071    0.000    6.286 
#    0.000    2.500    0.000    8.143    0.000    8.000 
#    0.000    0.000    0.000    0.000    0.000    0.000 
#
# Total GULP energy -312448.723285 kJ/mol
# GULP energy per Si atom -5579.441487 kJ/mol
# Density = 2.036943 g / cm^3
# Si number density = 20.415897 Si / 1000 Ang^3
#
#
#
# Elastic Constant Matrix: (Units=GPa)
#
#
# Indices 1 2 3 4 5 6 
#
# 1 21.0558 8.3353 9.0921 0.0000 0.0000 0.0000
# 2 8.3353 187.9854 102.5630 0.0000 0.0000 0.0000
# 3 9.0921 102.5630 76.4088 0.0000 0.0000 0.0000
# 4 0.0000 0.0000 0.0000 37.4792 0.0000 0.0000
# 5 0.0000 0.0000 0.0000 0.0000 12.2135 0.0000
# 6 0.0000 0.0000 0.0000 0.0000 0.0000 33.2161
#
#
#
# Elastic Compliance Matrix: (Units=1/GPa)
#
#
# Indices 1 2 3 4 5 6 
#
# 1 0.050822 0.003908 -0.011293 0.000000 0.000000 0.000000
# 2 0.003908 0.020175 -0.027546 0.000000 0.000000 0.000000
# 3 -0.011293 -0.027546 0.051406 0.000000 0.000000 0.000000
# 4 0.000000 0.000000 0.000000 0.026681 0.000000 0.000000
# 5 0.000000 0.000000 0.000000 0.000000 0.081876 0.000000
# 6 0.000000 0.000000 0.000000 0.000000 0.000000 0.030106
#
#
# Mechanical properties :
#
#
# Convention : Reuss Voigt Hill
#
# Bulk Modulus (GPa) = 19.03269 58.38119 38.70694
# Shear Modulus (GPa) = 14.34960 27.61240 20.98100
#
# Velocity S-wave (km/s) = 2.65403 3.68162 3.20922
# Velocity P-wave (km/s) = 4.32835 6.83597 5.72123
#
# Compressibility (1/GPa) = 0.05254118
#
# Stress axis : x y z
#
# Youngs Moduli (GPa) = 19.67644 49.56651 19.45314
#
# Poissons Ratio (x) = -0.19370 0.21968
# Poissons Ratio (y) = -0.07689 0.53585
# Poissons Ratio (z) = 0.22221 1.36534
#
# Static dielectric constant tensor:
#      x y z
#    x 1.746110 0.000000 0.000000 
#    y 0.000000 1.770200 0.000000 
#    z 0.000000 0.000000 1.725560 
# 
# From -- ./inp_files/29738.got.cif
#   From: 2010.05.17/outbox.cif.g08.bks.cpg/sg47_15_cif.got.tgz:29738.got - 2010.06.03 20:15:42.
