data_PCOD9381462
_publ_section_title
;
Structure prediction by ZEFSAII (Michael W. Deem and Ramdas Pophale) SiO2 
 PCOD9381462
Probable space group: P M M M
;
_chemical_formula_sum "Si O2"
_cell_formula_units_Z 52
_cell_length_a 7.350953
_cell_length_b 14.183606
_cell_length_c 24.551829
_cell_angle_alpha 90.000000
_cell_angle_beta 90.000000
_cell_angle_gamma 90.000000
_cell_volume 2559.847864
_symmetry_space_group_name_H-M "P M M M"
_symmetry_group_IT_number 47
_symmetry_cell_setting 'orthorhombic'
loop_
_space_group_symop_operation_xyz
x,y,z
-x,-y,z
x,-y,-z
-x,y,-z
-x,-y,-z
x,y,-z
-x,y,z
x,-y,z
loop_
_atom_site_type_symbol
_atom_site_label
_atom_site_fract_x
_atom_site_fract_y
_atom_site_fract_z
Si Si1 0.281385 0.000000 0.564257
Si Si2 0.781318 0.395960 0.769385
Si Si3 0.221741 0.787818 0.831574
Si Si4 0.219905 0.106577 0.724182
Si Si5 0.778389 0.108798 0.061398
Si Si6 0.716636 0.394738 0.359813
Si Si7 0.706958 0.804388 0.386766
O O1 0.210786 0.900399 0.588107
O O2 0.500000 0.000000 0.575489
O O3 0.252771 0.000000 0.500000
O O4 0.714690 0.500000 0.784496
O O5 0.715604 0.312568 0.808236
O O6 0.741973 0.382206 0.705320
O O7 0.000000 0.395725 0.773465
O O8 0.271736 0.862035 0.784511
O O9 0.283466 0.822871 0.890435
O O10 0.000000 0.785592 0.833313
O O11 0.295425 0.173381 0.677601
O O12 0.000000 0.111825 0.720929
O O13 0.276261 0.000000 0.712810
O O14 0.000000 0.109851 0.061657
O O15 0.725569 0.000000 0.072069
O O16 0.721131 0.133878 0.000000
O O17 0.500000 0.395858 0.369295
O O18 0.786713 0.500000 0.373644
O O19 0.788091 0.300953 0.390246
O O20 0.500000 0.799014 0.408096
#
# Coordination Sequence:
#
# PCOD9381462 Si02
#       7
#     4   8   8   8   8   8   8
#     4   9  18  32  49  67  87 117 152 177 204 248
#     4   9  16  25  38  57  82 111 140 168 204 256
#     4   9  15  23  35  53  79 109 138 170 210 252
#     4  10  18  26  39  62  90 115 136 168 216 261
#     4   8  13  21  33  49  71 103 141 174 204 245
#     4   9  17  28  42  62  88 115 141 173 214 253
#     4  10  18  29  46  65  87 114 143 176 208 248
#
# _framework density 20.313706
#
# number of rings (size 3 to 8) (size 9 to 14) (size 15 to 20)
#    0.000    2.846    2.308    0.923    0.000    1.846 
#    0.000    0.000    0.000    1.846    0.000    6.462 
#    0.000    2.462    0.000   17.538    0.000   17.231 
#
# Total GULP energy -289928.982399 kJ/mol
# GULP energy per Si atom -5575.557354 kJ/mol
# Density = 2.026747 g / cm^3
# Si number density = 20.313706 Si / 1000 Ang^3
#
#
#
# Elastic Constant Matrix: (Units=GPa)
#
#
# Indices 1 2 3 4 5 6 
#
# 1 76.8728 9.9507 0.5297 0.0000 0.0000 0.0000
# 2 9.9507 193.6371 47.5569 0.0000 0.0000 0.0000
# 3 0.5297 47.5569 54.2624 0.0000 0.0000 0.0000
# 4 0.0000 0.0000 0.0000 16.7839 0.0000 0.0000
# 5 0.0000 0.0000 0.0000 0.0000 4.3938 0.0000
# 6 0.0000 0.0000 0.0000 0.0000 0.0000 -3.2535
#
#
#
# Elastic Compliance Matrix: (Units=1/GPa)
#
#
# Indices 1 2 3 4 5 6 
#
# 1 0.013110 -0.000818 0.000589 0.000000 0.000000 0.000000
# 2 -0.000818 0.006632 -0.005804 0.000000 0.000000 0.000000
# 3 0.000589 -0.005804 0.023510 0.000000 0.000000 0.000000
# 4 0.000000 0.000000 0.000000 0.059581 0.000000 0.000000
# 5 0.000000 0.000000 0.000000 0.000000 0.227593 0.000000
# 6 0.000000 0.000000 0.000000 0.000000 0.000000 -0.307363
#
#
# Mechanical properties :
#
#
# Convention : Reuss Voigt Hill
#
# Bulk Modulus (GPa) = 32.06609 48.98299 40.52454
# Shear Modulus (GPa) = 109.82678 21.36718 65.59698
#
# Velocity S-wave (km/s) = 7.36089 3.24676 5.68877
# Velocity P-wave (km/s) = 9.38421 6.18230 7.94620
#
# Compressibility (1/GPa) = 0.03118559
#
# Stress axis : x y z
#
# Youngs Moduli (GPa) = 76.27538 150.78644 42.53456
#
# Poissons Ratio (x) = 0.12341 -0.02507
# Poissons Ratio (y) = 0.06243 0.24689
# Poissons Ratio (z) = -0.04495 0.87522
#
# Static dielectric constant tensor:
#      x y z
#    x 1.920380 0.000000 0.000000 
#    y 0.000000 1.766160 0.000000 
#    z 0.000000 0.000000 1.669730 
# 
# From -- ./inp_files/25464.got.cif
#   From: 2010.05.17/outbox.cif.g08.bks.cpg/sg47_13_cif.got.tgz:25464.got - 2010.06.03 20:15:42.
