data_PCOD9381093
_publ_section_title
;
Structure prediction by ZEFSAII (Michael W. Deem and Ramdas Pophale) SiO2 
 PCOD9381093
Probable space group: I M A 2
;
_chemical_formula_sum "Si O2"
_cell_formula_units_Z 28
_cell_length_a 9.000000
_cell_length_b 21.000000
_cell_length_c 15.000000
_cell_angle_alpha 90.000000
_cell_angle_beta 90.000000
_cell_angle_gamma 90.000000
_cell_volume 2835.000000
_symmetry_space_group_name_H-M "I M A 2"
_symmetry_group_IT_number 46
_symmetry_cell_setting 'orthorhombic'
loop_
_space_group_symop_operation_xyz
x,y,z
-x,-y,z
1/2-x,y,z
1/2+x,-y,z
1/2+x,1/2+y,1/2+z
1/2-x,1/2-y,1/2+z
-x,1/2+y,1/2+z
x,1/2-y,1/2+z
loop_
_atom_site_type_symbol
_atom_site_label
_atom_site_fract_x
_atom_site_fract_y
_atom_site_fract_z
Si Si1 0.071583 0.142087 0.101590
Si Si2 0.925915 0.108424 0.469965
Si Si3 0.081070 0.660856 0.297223
Si Si4 0.927900 0.259834 0.461832
Si Si5 0.928780 0.568453 0.154972
Si Si6 0.082438 0.559998 0.456487
Si Si7 0.929859 0.069729 0.264578
O O1 0.250000 0.146585 0.108853
O O2 0.998685 0.122918 0.196970
O O3 0.007500 0.202224 0.043404
O O4 0.018538 0.085120 0.036736
O O5 0.750000 0.094786 0.485184
O O6 0.947043 0.184669 0.471674
O O7 0.962182 0.084732 0.369431
O O8 0.018853 0.080139 0.552519
O O9 0.250000 0.675255 0.265325
O O10 0.023968 0.719262 0.360374
O O11 0.089850 0.609516 0.376541
O O12 0.990029 0.626638 0.217791
O O13 0.750000 0.274367 0.467238
O O14 0.750000 0.565623 0.161157
O O15 0.000000 0.500000 0.182446
O O16 0.250000 0.547662 0.488118
O O17 0.000000 0.500000 0.417813
O O18 0.750000 0.068694 0.253809
O O19 0.000000 0.000000 0.244035
#
# Coordination Sequence:
#
# PCOD9381093 Si02
#       7
#     8   8   8   8   8   8   8
#     4  11  22  36  57  86 120 156 193 241 295 350
#     4  10  23  43  66  88 116 157 202 248 297 350
#     4   9  19  36  59  86 117 153 195 242 292 349
#     4   9  20  41  65  90 120 157 199 241 291 355
#     4  12  25  40  61  89 122 159 200 247 299 352
#     4  10  19  32  52  80 114 152 193 240 293 351
#     4  11  23  40  62  89 119 156 201 249 300 353
#
# _framework density 9.8765429999999999
#
# number of rings (size 3 to 8) (size 9 to 14) (size 15 to 20)
#    0.000    1.714    0.000    5.571    0.000    8.000 
#    0.000    2.857    0.000    0.000    0.000    0.000 
#    0.000    0.000    0.000    0.000    0.000    0.000 
#
# Total GULP energy -156242.266156 kJ/mol
# GULP energy per Si atom -5580.080934 kJ/mol
# Density = 0.985406 g / cm^3
# Si number density = 9.876543 Si / 1000 Ang^3
#
#
#
# Elastic Constant Matrix: (Units=GPa)
#
#
# Indices 1 2 3 4 5 6 
#
# 1 120.8651 26.8962 48.3325 0.0000 0.0000 0.0000
# 2 26.8962 65.8193 11.5255 0.0000 0.0000 0.0000
# 3 48.3325 11.5255 122.0229 0.0000 0.0000 0.0000
# 4 0.0000 0.0000 0.0000 25.0219 0.0000 0.0000
# 5 0.0000 0.0000 0.0000 0.0000 36.1606 0.0000
# 6 0.0000 0.0000 0.0000 0.0000 0.0000 23.7534
#
#
#
# Elastic Compliance Matrix: (Units=1/GPa)
#
#
# Indices 1 2 3 4 5 6 
#
# 1 0.010636 -0.003669 -0.003866 0.000000 0.000000 0.000000
# 2 -0.003669 0.016714 -0.000125 0.000000 0.000000 0.000000
# 3 -0.003866 -0.000125 0.009738 0.000000 0.000000 0.000000
# 4 0.000000 0.000000 0.000000 0.039965 0.000000 0.000000
# 5 0.000000 0.000000 0.000000 0.000000 0.027654 0.000000
# 6 0.000000 0.000000 0.000000 0.000000 0.000000 0.042099
#
#
# Mechanical properties :
#
#
# Convention : Reuss Voigt Hill
#
# Bulk Modulus (GPa) = 45.94086 53.57953 49.76019
# Shear Modulus (GPa) = 29.51839 31.78405 30.65122
#
# Velocity S-wave (km/s) = 3.86990 4.01567 3.94346
# Velocity P-wave (km/s) = 6.57847 6.97742 6.78088
#
# Compressibility (1/GPa) = 0.02176712
#
# Stress axis : x y z
#
# Youngs Moduli (GPa) = 94.01704 59.82832 102.68537
#
# Poissons Ratio (x) = 0.21953 0.39702
# Poissons Ratio (y) = 0.34498 0.01287
# Poissons Ratio (z) = 0.36351 0.00750
#
# Static dielectric constant tensor:
#      x y z
#    x 1.680870 0.000000 0.000000 
#    y 0.000000 1.878580 0.000000 
#    z 0.000000 0.000000 1.689690 
# 
# From -- ./inp_files/14200.got.cif
#   From: 2010.05.17/outbox.ucp.g08.bks.cvg/sg46_8_cif.got.tgz:14200.got - 2010.06.11 16:34:52.
