data_PCOD9381884
_publ_section_title
;
Structure prediction by ZEFSAII (Michael W. Deem and Ramdas Pophale) SiO2 
 PCOD9381884
Probable space group: P M M M
;
_chemical_formula_sum "Si O2"
_cell_formula_units_Z 64
_cell_length_a 15.037245
_cell_length_b 25.173944
_cell_length_c 8.556262
_cell_angle_alpha 90.000000
_cell_angle_beta 90.000000
_cell_angle_gamma 90.000000
_cell_volume 3238.945288
_symmetry_space_group_name_H-M "P M M M"
_symmetry_group_IT_number 47
_symmetry_cell_setting 'orthorhombic'
loop_
_space_group_symop_operation_xyz
x,y,z
-x,-y,z
x,-y,-z
-x,y,-z
-x,-y,-z
x,y,-z
-x,y,z
x,-y,z
loop_
_atom_site_type_symbol
_atom_site_label
_atom_site_fract_x
_atom_site_fract_y
_atom_site_fract_z
Si Si1 0.235375 0.060715 0.311518
Si Si2 0.897834 0.145527 0.813231
Si Si3 0.400505 0.134652 0.312017
Si Si4 0.602535 0.750000 0.727633
Si Si5 0.599495 0.634651 0.312017
Si Si6 0.809802 0.250001 0.325932
Si Si7 0.102166 0.354474 0.186768
Si Si8 0.235376 0.560715 0.311519
O O1 0.232276 0.060204 0.500000
O O2 0.151828 0.093727 0.250242
O O3 0.324075 0.093650 0.268979
O O4 0.237545 0.000000 0.256154
O O5 0.843955 0.197279 0.758326
O O6 0.000000 0.148799 0.758979
O O7 0.897602 0.144238 0.000000
O O8 0.389374 0.148966 0.500000
O O9 0.500000 0.112363 0.297722
O O10 0.396193 0.189112 0.212090
O O11 0.500000 0.750000 0.660174
O O12 0.603807 0.689112 0.787910
O O13 0.703059 0.749999 0.661681
O O14 0.610627 0.648964 0.500000
O O15 0.500000 0.612361 0.297723
O O16 0.675925 0.593649 0.268975
O O17 0.847418 0.250006 0.500000
O O18 0.843955 0.302720 0.241656
O O19 0.151828 0.406272 0.250253
O O20 0.000000 0.351200 0.241024
O O21 0.102395 0.355769 0.000000
O O22 0.232281 0.560202 0.500000
O O23 0.237543 0.500000 0.256149
#
# Coordination Sequence:
#
# PCOD9381884 Si02
#       8
#     8   8   8   8   8   8   8   8
#     4  10  21  37  59  88 117 149 197 251 294 335
#     4  11  25  43  61  83 115 155 196 238 292 358
#     4   9  16  28  50  83 121 154 186 231 287 345
#     4  10  18  29  54  92 125 151 183 227 284 348
#     4   9  16  28  50  83 121 154 186 231 287 345
#     4  12  22  37  65  95 122 151 187 236 289 340
#     4  11  25  43  61  83 115 155 196 238 292 358
#     4  10  21  37  59  88 117 149 197 251 294 335
#
# _framework density 19.759519999999998
#
# number of rings (size 3 to 8) (size 9 to 14) (size 15 to 20)
#    0.000    1.750    2.500    2.625    0.000    7.750 
#    0.000    5.000    0.000    3.750    0.000    1.750 
#    0.000    0.000    0.000    0.000    0.000    0.000 
#
# Total GULP energy -356327.710714 kJ/mol
# GULP energy per Si atom -5567.620480 kJ/mol
# Density = 1.971455 g / cm^3
# Si number density = 19.759520 Si / 1000 Ang^3
#
#
#
# Elastic Constant Matrix: (Units=GPa)
#
#
# Indices 1 2 3 4 5 6 
#
# 1 175.6478 83.9205 21.8218 0.0000 0.0000 0.0000
# 2 83.9205 170.4563 24.5145 0.0000 0.0000 0.0000
# 3 21.8218 24.5145 16.0108 0.0000 0.0000 0.0000
# 4 0.0000 0.0000 0.0000 44.3404 0.0000 0.0000
# 5 0.0000 0.0000 0.0000 0.0000 43.1487 0.0000
# 6 0.0000 0.0000 0.0000 0.0000 0.0000 8.7717
#
#
#
# Elastic Compliance Matrix: (Units=1/GPa)
#
#
# Indices 1 2 3 4 5 6 
#
# 1 0.007892 -0.002999 -0.006165 0.000000 0.000000 0.000000
# 2 -0.002999 0.008663 -0.009177 0.000000 0.000000 0.000000
# 3 -0.006165 -0.009177 0.084910 0.000000 0.000000 0.000000
# 4 0.000000 0.000000 0.000000 0.022553 0.000000 0.000000
# 5 0.000000 0.000000 0.000000 0.000000 0.023176 0.000000
# 6 0.000000 0.000000 0.000000 0.000000 0.000000 0.114003
#
#
# Mechanical properties :
#
#
# Convention : Reuss Voigt Hill
#
# Bulk Modulus (GPa) = 15.43566 69.18094 42.30830
# Shear Modulus (GPa) = 15.65085 34.70934 25.18010
#
# Velocity S-wave (km/s) = 2.81742 4.19571 3.57364
# Velocity P-wave (km/s) = 4.29098 7.65242 6.20371
#
# Compressibility (1/GPa) = 0.06478505
#
# Stress axis : x y z
#
# Youngs Moduli (GPa) = 126.71313 115.43695 11.77713
#
# Poissons Ratio (x) = 0.34617 0.07260
# Poissons Ratio (y) = 0.37999 0.10807
# Poissons Ratio (z) = 0.78114 1.05931
#
# Static dielectric constant tensor:
#      x y z
#    x 1.677040 0.000000 0.000000 
#    y 0.000000 1.703560 0.000000 
#    z 0.000000 0.000000 1.716620 
# 
# From -- ./inp_files/7833.got.cif
#   From: 2010.05.17/outbox.cif.g08.bks.cpg/sg47_4_cif.got.tgz:7833.got - 2010.06.03 20:15:42.
