data_PCOD9381013
_publ_section_title
;
Structure prediction by ZEFSAII (Michael W. Deem and Ramdas Pophale) SiO2 
 PCOD9381013
Probable space group: I M A 2
;
_chemical_formula_sum "Si O2"
_cell_formula_units_Z 32
_cell_length_a 15.589351
_cell_length_b 10.822979
_cell_length_c 8.450088
_cell_angle_alpha 90.000000
_cell_angle_beta 90.000000
_cell_angle_gamma 90.000000
_cell_volume 1425.726044
_symmetry_space_group_name_H-M "I M A 2"
_symmetry_group_IT_number 46
_symmetry_cell_setting 'orthorhombic'
loop_
_space_group_symop_operation_xyz
x,y,z
-x,-y,z
1/2-x,y,z
1/2+x,-y,z
1/2+x,1/2+y,1/2+z
1/2-x,1/2-y,1/2+z
-x,1/2+y,1/2+z
x,1/2-y,1/2+z
loop_
_atom_site_type_symbol
_atom_site_label
_atom_site_fract_x
_atom_site_fract_y
_atom_site_fract_z
Si Si1 0.916156 0.080137 0.523010
Si Si2 0.750000 0.573230 0.136986
Si Si3 0.556744 0.187809 0.852427
Si Si4 0.081558 0.448658 0.532883
Si Si5 0.250000 0.157159 0.012734
O O1 0.945319 0.167263 0.667921
O O2 0.901175 0.181612 0.388529
O O3 0.834627 0.003337 0.583770
O O4 0.000000 0.000000 0.487944
O O5 0.750000 0.612229 0.326300
O O6 0.750000 0.697479 0.033791
O O7 0.461553 0.157794 0.922124
O O8 0.605124 0.069857 0.929562
O O9 0.166447 0.394878 0.601961
O O10 0.000000 0.500000 0.630313
#
# Coordination Sequence:
#
# PCOD9381013 Si02
#       5
#     8   4   8   8   4
#     4  12  22  43  61  93 124 163 203 254 306 362
#     4  12  26  39  67  87 123 164 203 254 312 358
#     4   9  20  40  63  85 129 158 200 252 304 354
#     4   8  18  39  62  88 117 170 184 250 313 341
#     4  12  20  43  65  87 125 158 203 256 302 370
#
# _framework density 22.444704999999999
#
# number of rings (size 3 to 8) (size 9 to 14) (size 15 to 20)
#    1.500    0.000    5.000    1.500    0.000    2.000 
#    9.000    0.000    0.000    0.000    0.000    0.000 
#    0.000    0.000    0.000    0.000    0.000    0.000 
#
# Total GULP energy -89096.936046 kJ/mol
# GULP energy per Si atom -5568.558503 kJ/mol
# Density = 2.239362 g / cm^3
# Si number density = 22.444705 Si / 1000 Ang^3
#
#
#
# Elastic Constant Matrix: (Units=GPa)
#
#
# Indices 1 2 3 4 5 6 
#
# 1 153.0112 49.0782 12.2517 0.0000 0.0000 0.0000
# 2 49.0782 118.6238 33.6152 0.0000 0.0000 0.0000
# 3 12.2517 33.6152 60.2163 0.0000 0.0000 0.0000
# 4 0.0000 0.0000 0.0000 28.6741 0.0000 0.0000
# 5 0.0000 0.0000 0.0000 0.0000 -1.5528 0.0000
# 6 0.0000 0.0000 0.0000 0.0000 0.0000 12.6497
#
#
#
# Elastic Compliance Matrix: (Units=1/GPa)
#
#
# Indices 1 2 3 4 5 6 
#
# 1 0.007539 -0.003189 0.000246 0.000000 0.000000 0.000000
# 2 -0.003189 0.011363 -0.005694 0.000000 0.000000 0.000000
# 3 0.000246 -0.005694 0.019736 0.000000 0.000000 0.000000
# 4 0.000000 0.000000 0.000000 0.034875 0.000000 0.000000
# 5 0.000000 0.000000 0.000000 0.000000 -0.643991 0.000000
# 6 0.000000 0.000000 0.000000 0.000000 0.000000 0.079053
#
#
# Mechanical properties :
#
#
# Convention : Reuss Voigt Hill
#
# Bulk Modulus (GPa) = 46.80945 57.97130 52.39038
# Shear Modulus (GPa) = -10.70593 23.74795 6.52101
#
# Velocity S-wave (km/s) = -2.18638 3.25632 1.70636
# Velocity P-wave (km/s) = 3.81144 6.32635 5.22254
#
# Compressibility (1/GPa) = 0.02136321
#
# Stress axis : x y z
#
# Youngs Moduli (GPa) = 132.65198 88.00527 50.66987
#
# Poissons Ratio (x) = 0.28062 -0.01248
# Poissons Ratio (y) = 0.42299 0.28854
# Poissons Ratio (z) = -0.03267 0.50115
#
# Static dielectric constant tensor:
#      x y z
#    x 1.857380 0.000000 0.000000 
#    y 0.000000 1.848400 0.000000 
#    z 0.000000 0.000000 1.858770 
# 
# From -- ./inp_files/5269.got.cif
#   From: 2010.05.17/outbox.cif.g08.bks.cpg/sg46_3_cif.got.tgz:5269.got - 2010.06.03 19:58:25.
