data_PCOD9381791
_publ_section_title
;
Structure prediction by ZEFSAII (Michael W. Deem and Ramdas Pophale) SiO2 
 PCOD9381791
Probable space group: P M M M
;
_chemical_formula_sum "Si O2"
_cell_formula_units_Z 56
_cell_length_a 21.340132
_cell_length_b 7.386813
_cell_length_c 15.721097
_cell_angle_alpha 90.000000
_cell_angle_beta 90.000000
_cell_angle_gamma 90.000000
_cell_volume 2478.204000
_symmetry_space_group_name_H-M "P M M M"
_symmetry_group_IT_number 47
_symmetry_cell_setting 'orthorhombic'
loop_
_space_group_symop_operation_xyz
x,y,z
-x,-y,z
x,-y,-z
-x,y,-z
-x,-y,-z
x,y,-z
-x,y,z
x,-y,z
loop_
_atom_site_type_symbol
_atom_site_label
_atom_site_fract_x
_atom_site_fract_y
_atom_site_fract_z
Si Si1 0.328306 0.221184 0.094278
Si Si2 0.097269 0.788772 0.408790
Si Si3 0.199290 0.206734 0.159200
Si Si4 0.931395 0.221703 0.219142
Si Si5 0.628115 0.281714 0.593342
Si Si6 0.766140 0.281882 0.351482
Si Si7 0.430819 0.787058 0.772957
O O1 0.257140 0.287415 0.107681
O O2 0.375170 0.286284 0.167734
O O3 0.325138 0.000000 0.100003
O O4 0.350981 0.267087 0.000000
O O5 0.077095 0.711184 0.500000
O O6 0.074457 0.716310 0.317757
O O7 0.172647 0.775561 0.403091
O O8 0.079355 0.000000 0.409218
O O9 0.129446 0.285738 0.167276
O O10 0.224334 0.207957 0.256496
O O11 0.191436 0.000000 0.129337
O O12 0.000000 0.271075 0.186381
O O13 0.927554 0.000000 0.221157
O O14 0.607239 0.219312 0.500000
O O15 0.628481 0.500000 0.592115
O O16 0.699897 0.223342 0.610388
O O17 0.587219 0.228658 0.674163
O O18 0.766203 0.500000 0.347102
O O19 0.500000 0.710312 0.788422
O O20 0.433804 0.000000 0.792791
#
# Coordination Sequence:
#
# PCOD9381791 Si02
#       7
#     8   8   8   8   8   8   8
#     4   9  17  31  54  81 105 129 160 201 249 301
#     4   9  17  27  40  61  89 123 164 207 250 293
#     4   9  16  29  50  72  96 126 162 200 243 291
#     4   8  14  24  40  64  92 124 162 201 240 285
#     4  10  21  35  51  72 100 137 175 207 246 296
#     4  10  18  29  47  69  95 126 163 206 251 291
#     4  10  21  36  54  77 104 132 165 207 250 291
#
# _framework density 22.597010999999998
#
# number of rings (size 3 to 8) (size 9 to 14) (size 15 to 20)
#    0.000    2.714    1.429    1.714    0.000    2.857 
#    0.000    4.286    0.000    9.000    0.000    8.000 
#    0.000    0.000    0.000    5.143    0.000    5.714 
#
# Total GULP energy -312526.889327 kJ/mol
# GULP energy per Si atom -5580.837309 kJ/mol
# Density = 2.254558 g / cm^3
# Si number density = 22.597011 Si / 1000 Ang^3
#
#
#
# Elastic Constant Matrix: (Units=GPa)
#
#
# Indices 1 2 3 4 5 6 
#
# 1 166.6081 5.1002 53.1427 0.0000 0.0000 0.0000
# 2 5.1002 83.9130 -7.3082 0.0000 0.0000 0.0000
# 3 53.1427 -7.3082 79.8625 0.0000 0.0000 0.0000
# 4 0.0000 0.0000 0.0000 31.8616 0.0000 0.0000
# 5 0.0000 0.0000 0.0000 0.0000 22.2189 0.0000
# 6 0.0000 0.0000 0.0000 0.0000 0.0000 65.6894
#
#
#
# Elastic Compliance Matrix: (Units=1/GPa)
#
#
# Indices 1 2 3 4 5 6 
#
# 1 0.007689 -0.000920 -0.005201 0.000000 0.000000 0.000000
# 2 -0.000920 0.012123 0.001722 0.000000 0.000000 0.000000
# 3 -0.005201 0.001722 0.016140 0.000000 0.000000 0.000000
# 4 0.000000 0.000000 0.000000 0.031386 0.000000 0.000000
# 5 0.000000 0.000000 0.000000 0.000000 0.045007 0.000000
# 6 0.000000 0.000000 0.000000 0.000000 0.000000 0.015223
#
#
# Mechanical properties :
#
#
# Convention : Reuss Voigt Hill
#
# Bulk Modulus (GPa) = 36.82790 48.02811 42.42800
# Shear Modulus (GPa) = 34.38379 42.58391 38.48385
#
# Velocity S-wave (km/s) = 3.90501 4.34578 4.13128
# Velocity P-wave (km/s) = 6.05518 6.81773 6.44774
#
# Compressibility (1/GPa) = 0.02715333
#
# Stress axis : x y z
#
# Youngs Moduli (GPa) = 130.05307 82.48786 61.95851
#
# Poissons Ratio (x) = 0.07591 0.32223
# Poissons Ratio (y) = 0.11969 -0.10668
# Poissons Ratio (z) = 0.67638 -0.14202
#
# Static dielectric constant tensor:
#      x y z
#    x 1.841670 0.000000 0.000000 
#    y 0.000000 1.933160 0.000000 
#    z 0.000000 0.000000 1.807260 
# 
# From -- ./inp_files/21576.got.cif
#   From: 2010.05.17/outbox.cif.g08.bks.cpg/sg47_11_cif.got.tgz:21576.got - 2010.06.03 20:15:42.
