data_PCOD9381239
_publ_section_title
;
Structure prediction by ZEFSAII (Michael W. Deem and Ramdas Pophale) SiO2 
 PCOD9381239
Probable space group: P M M M
;
_chemical_formula_sum "Si O2"
_cell_formula_units_Z 64
_cell_length_a 21.021976
_cell_length_b 20.863898
_cell_length_c 7.520255
_cell_angle_alpha 90.000000
_cell_angle_beta 90.000000
_cell_angle_gamma 90.000000
_cell_volume 3298.386573
_symmetry_space_group_name_H-M "P M M M"
_symmetry_group_IT_number 47
_symmetry_cell_setting 'orthorhombic'
loop_
_space_group_symop_operation_xyz
x,y,z
-x,-y,z
x,-y,-z
-x,y,-z
-x,-y,-z
x,y,-z
-x,y,z
x,-y,z
loop_
_atom_site_type_symbol
_atom_site_label
_atom_site_fract_x
_atom_site_fract_y
_atom_site_fract_z
Si Si1 0.896107 0.430860 0.786732
Si Si2 0.746050 0.431230 0.783165
Si Si3 0.930311 0.154302 0.282706
Si Si4 0.882527 0.291172 0.709206
Si Si5 0.190574 0.927055 0.285504
Si Si6 0.265611 0.294283 0.206535
Si Si7 0.572716 0.072996 0.782932
Si Si8 0.312902 0.159556 0.787944
O O1 0.922487 0.500000 0.722714
O O2 0.821149 0.431021 0.736807
O O3 0.917311 0.359561 0.734372
O O4 0.900732 0.432238 0.000000
O O5 0.719356 0.500000 0.725034
O O6 0.717896 0.364297 0.716592
O O7 0.744061 0.430195 0.000000
O O8 0.929740 0.153458 0.500000
O O9 0.918925 0.228048 0.227594
O O10 0.872151 0.110349 0.222170
O O11 0.000000 0.132320 0.225565
O O12 0.872265 0.283715 0.500000
O O13 0.811464 0.290703 0.789652
O O14 0.187248 0.929051 0.500000
O O15 0.252691 0.886559 0.238650
O O16 0.194030 0.000000 0.220565
O O17 0.295416 0.229866 0.285443
O O18 0.284562 0.296018 0.000000
O O19 0.500000 0.086185 0.729022
O O20 0.624335 0.123990 0.718683
O O21 0.589129 0.000000 0.729147
O O22 0.573661 0.073419 0.000000
O O23 0.321326 0.166475 0.000000
#
# Coordination Sequence:
#
# PCOD9381239 Si02
#       8
#     8   8   8   8   8   8   8   8
#     4   8  14  25  41  60  84 113 141 172 213 261
#     4   7  10  18  32  50  74 104 134 161 192 235
#     4   9  18  32  47  63  84 111 145 184 225 268
#     4  10  17  26  43  63  84 109 140 181 221 259
#     4  10  20  33  49  68  88 111 142 181 225 272
#     4   9  16  25  39  60  85 112 141 173 214 263
#     4   8  14  25  41  62  88 117 148 180 216 260
#     4  10  18  28  46  69  92 116 144 181 221 265
#
# _framework density 19.403426
#
# number of rings (size 3 to 8) (size 9 to 14) (size 15 to 20)
#    0.000    3.125    1.250    2.625    0.000    1.250 
#    0.000    1.250    0.000    4.125    0.000    5.250 
#    0.000    0.500    0.000    7.000    0.000    0.125 
#
# Total GULP energy -356609.570041 kJ/mol
# GULP energy per Si atom -5572.024532 kJ/mol
# Density = 1.935926 g / cm^3
# Si number density = 19.403426 Si / 1000 Ang^3
#
#
#
# Elastic Constant Matrix: (Units=GPa)
#
#
# Indices 1 2 3 4 5 6 
#
# 1 87.9662 74.4855 -1.6246 0.0000 0.0000 0.0000
# 2 74.4855 193.0444 6.3504 0.0000 0.0000 0.0000
# 3 -1.6246 6.3504 49.2367 0.0000 0.0000 0.0000
# 4 0.0000 0.0000 0.0000 -4.8892 0.0000 0.0000
# 5 0.0000 0.0000 0.0000 0.0000 6.6058 0.0000
# 6 0.0000 0.0000 0.0000 0.0000 0.0000 44.6595
#
#
#
# Elastic Compliance Matrix: (Units=1/GPa)
#
#
# Indices 1 2 3 4 5 6 
#
# 1 0.016982 -0.006599 0.001411 0.000000 0.000000 0.000000
# 2 -0.006599 0.007766 -0.001219 0.000000 0.000000 0.000000
# 3 0.001411 -0.001219 0.020514 0.000000 0.000000 0.000000
# 4 0.000000 0.000000 0.000000 -0.204532 0.000000 0.000000
# 5 0.000000 0.000000 0.000000 0.000000 0.151382 0.000000
# 6 0.000000 0.000000 0.000000 0.000000 0.000000 0.022392
#
#
# Mechanical properties :
#
#
# Convention : Reuss Voigt Hill
#
# Bulk Modulus (GPa) = 30.81819 54.29667 42.55743
# Shear Modulus (GPa) = 131.12004 26.01094 78.56549
#
# Velocity S-wave (km/s) = 8.22936 3.66530 6.37012
# Velocity P-wave (km/s) = 10.30601 6.77911 8.72268
#
# Compressibility (1/GPa) = 0.03244837
#
# Stress axis : x y z
#
# Youngs Moduli (GPa) = 58.88750 128.76059 48.74744
#
# Poissons Ratio (x) = 0.84965 -0.06880
# Poissons Ratio (y) = 0.38858 0.05944
# Poissons Ratio (z) = -0.08311 0.15701
#
# Static dielectric constant tensor:
#      x y z
#    x 1.638070 0.000000 0.000000 
#    y 0.000000 1.744900 0.000000 
#    z 0.000000 0.000000 1.769770 
# 
# From -- ./inp_files/11784.got.cif
#   From: 2010.05.17/outbox.cif.g08.bks.cpg/sg47_6_cif.got.tgz:11784.got - 2010.06.03 20:15:42.
