data_PCOD9381730
_publ_section_title
;
Structure prediction by ZEFSAII (Michael W. Deem and Ramdas Pophale) SiO2 
 PCOD9381730
Probable space group: P M M M
;
_chemical_formula_sum "Si O2"
_cell_formula_units_Z 64
_cell_length_a 14.908049
_cell_length_b 32.424867
_cell_length_c 7.678243
_cell_angle_alpha 90.000000
_cell_angle_beta 90.000000
_cell_angle_gamma 90.000000
_cell_volume 3711.597448
_symmetry_space_group_name_H-M "P M M M"
_symmetry_group_IT_number 47
_symmetry_cell_setting 'orthorhombic'
loop_
_space_group_symop_operation_xyz
x,y,z
-x,-y,z
x,-y,-z
-x,y,-z
-x,-y,-z
x,y,-z
-x,y,z
x,-y,z
loop_
_atom_site_type_symbol
_atom_site_label
_atom_site_fract_x
_atom_site_fract_y
_atom_site_fract_z
Si Si1 0.099732 0.747099 0.787408
Si Si2 0.099652 0.842781 0.790164
Si Si3 0.397239 0.634027 0.709790
Si Si4 0.710239 0.874848 0.294980
Si Si5 0.391544 0.544359 0.707162
Si Si6 0.713193 0.715171 0.209291
Si Si7 0.603634 0.046398 0.287426
Si Si8 0.600971 0.206781 0.206668
O O1 0.113613 0.795020 0.735981
O O2 0.184736 0.720808 0.727350
O O3 0.000000 0.734340 0.729773
O O4 0.098662 0.746588 0.000000
O O5 0.184014 0.869652 0.734752
O O6 0.000000 0.855604 0.730474
O O7 0.098863 0.842656 0.000000
O O8 0.401830 0.630955 0.500000
O O9 0.500000 0.641225 0.771638
O O10 0.363482 0.589231 0.775839
O O11 0.333924 0.672072 0.752314
O O12 0.694026 0.875066 0.500000
O O13 0.667364 0.917001 0.223900
O O14 0.658992 0.834434 0.227577
O O15 0.371624 0.543638 0.500000
O O16 0.500000 0.544839 0.722626
O O17 0.360362 0.500000 0.779921
O O18 0.653364 0.753346 0.277741
O O19 0.716871 0.719226 0.000000
O O20 0.606200 0.045913 0.500000
O O21 0.500000 0.054545 0.238623
O O22 0.627503 0.000000 0.230051
O O23 0.500000 0.202412 0.277959
O O24 0.592982 0.213521 0.000000
#
# Coordination Sequence:
#
# PCOD9381730 Si02
#       8
#     8   8   8   8   8   8   8   8
#     4   8  14  27  47  64  77 102 144 184 210 244
#     4   9  17  32  52  68  86 116 150 180 215 263
#     4   9  17  27  39  58  85 115 145 177 213 252
#     4  11  20  29  47  73  95 112 140 186 230 262
#     4   7  10  19  36  55  74 101 140 180 212 246
#     4  10  18  29  44  60  82 113 148 178 206 249
#     4   8  15  29  47  66  90 120 150 177 211 260
#     4  10  20  32  44  60  87 123 156 180 205 251
#
# _framework density 17.243248999999999
#
# number of rings (size 3 to 8) (size 9 to 14) (size 15 to 20)
#    0.000    3.000    1.250    3.375    0.000    2.250 
#    0.000    0.000    0.000    2.625    0.000    8.750 
#    0.000    0.500    0.000    6.250    0.000    0.250 
#
# Total GULP energy -356519.733135 kJ/mol
# GULP energy per Si atom -5570.620830 kJ/mol
# Density = 1.720400 g / cm^3
# Si number density = 17.243249 Si / 1000 Ang^3
#
#
#
# Elastic Constant Matrix: (Units=GPa)
#
#
# Indices 1 2 3 4 5 6 
#
# 1 127.5005 90.3977 2.3964 0.0000 0.0000 0.0000
# 2 90.3977 156.0188 0.4510 0.0000 0.0000 0.0000
# 3 2.3964 0.4510 26.8149 0.0000 0.0000 0.0000
# 4 0.0000 0.0000 0.0000 18.6020 0.0000 0.0000
# 5 0.0000 0.0000 0.0000 0.0000 24.9834 0.0000
# 6 0.0000 0.0000 0.0000 0.0000 0.0000 2.2797
#
#
#
# Elastic Compliance Matrix: (Units=1/GPa)
#
#
# Indices 1 2 3 4 5 6 
#
# 1 0.013342 -0.007727 -0.001062 0.000000 0.000000 0.000000
# 2 -0.007727 0.010885 0.000507 0.000000 0.000000 0.000000
# 3 -0.001062 0.000507 0.037379 0.000000 0.000000 0.000000
# 4 0.000000 0.000000 0.000000 0.053758 0.000000 0.000000
# 5 0.000000 0.000000 0.000000 0.000000 0.040027 0.000000
# 6 0.000000 0.000000 0.000000 0.000000 0.000000 0.438646
#
#
# Mechanical properties :
#
#
# Convention : Reuss Voigt Hill
#
# Bulk Modulus (GPa) = 22.20154 55.20273 38.70213
# Shear Modulus (GPa) = 7.99215 23.64563 15.81889
#
# Velocity S-wave (km/s) = 2.15523 3.70712 3.03214
# Velocity P-wave (km/s) = 4.36999 7.09981 5.89509
#
# Compressibility (1/GPa) = 0.04504192
#
# Stress axis : x y z
#
# Youngs Moduli (GPa) = 74.95375 91.86871 26.75288
#
# Poissons Ratio (x) = 0.70988 0.02842
# Poissons Ratio (y) = 0.57917 -0.01358
# Poissons Ratio (z) = 0.07963 -0.04662
#
# Static dielectric constant tensor:
#      x y z
#    x 1.587200 0.000000 0.000000 
#    y 0.000000 1.602560 0.000000 
#    z 0.000000 0.000000 1.650320 
# 
# From -- ./inp_files/8256.got.cif
#   From: 2010.05.17/outbox.cif.g08.bks.cpg/sg47_5_cif.got.tgz:8256.got - 2010.06.03 20:15:42.
