data_PCOD9381433
_publ_section_title
;
Structure prediction by ZEFSAII (Michael W. Deem and Ramdas Pophale) SiO2 
 PCOD9381433
Probable space group: P M M M
;
_chemical_formula_sum "Si O2"
_cell_formula_units_Z 48
_cell_length_a 8.553936
_cell_length_b 17.090670
_cell_length_c 18.553419
_cell_angle_alpha 90.000000
_cell_angle_beta 90.000000
_cell_angle_gamma 90.000000
_cell_volume 2712.370658
_symmetry_space_group_name_H-M "P M M M"
_symmetry_group_IT_number 47
_symmetry_cell_setting 'orthorhombic'
loop_
_space_group_symop_operation_xyz
x,y,z
-x,-y,z
x,-y,-z
-x,y,-z
-x,-y,-z
x,y,-z
-x,y,z
x,-y,z
loop_
_atom_site_type_symbol
_atom_site_label
_atom_site_fract_x
_atom_site_fract_y
_atom_site_fract_z
Si Si1 0.178129 0.904895 0.000000
Si Si2 0.185203 0.500000 0.878618
Si Si3 0.813721 0.347412 0.350942
Si Si4 0.188589 0.761630 0.776290
Si Si5 0.313501 0.408208 0.500000
Si Si6 0.188042 0.675263 0.077951
Si Si7 0.313432 0.090237 0.845519
Si Si8 0.682264 0.500000 0.275732
O O1 0.259459 0.883128 0.074649
O O2 0.000000 0.876397 0.000000
O O3 0.176858 0.000000 0.000000
O O4 0.212349 0.418255 0.918476
O O5 0.293961 0.500000 0.809163
O O6 0.000000 0.500000 0.857064
O O7 0.758255 0.277013 0.298810
O O8 0.741759 0.361954 0.429262
O O9 0.767764 0.424591 0.306831
O O10 0.000000 0.341604 0.358691
O O11 0.246096 0.713801 0.847491
O O12 0.241682 0.850061 0.788678
O O13 0.000000 0.757283 0.776686
O O14 0.256260 0.500000 0.500000
O O15 0.500000 0.412239 0.500000
O O16 0.000000 0.687372 0.077986
O O17 0.247877 0.704610 0.000000
O O18 0.500000 0.092347 0.842413
O O19 0.262173 0.000000 0.835658
O O20 0.500000 0.500000 0.296643
#
# Coordination Sequence:
#
# PCOD9381433 Si02
#       8
#     4   4   8   8   4   8   8   4
#     4   9  17  31  53  77 101 134 179 230 277 325
#     4  10  17  32  51  69  95 138 187 229 269 312
#     4  11  22  38  58  81 109 145 184 222 268 321
#     4  10  21  35  54  80 107 139 183 230 274 324
#     4  11  23  37  57  89 119 146 181 220 268 327
#     4   9  17  29  48  74 100 131 179 232 269 305
#     4  10  21  36  53  76 108 144 181 225 284 346
#     4  12  22  32  50  75 105 142 180 222 269 317
#
# _framework density 17.696695999999999
#
# number of rings (size 3 to 8) (size 9 to 14) (size 15 to 20)
#    0.000    1.833    2.500    2.500    1.167    4.667 
#    0.000    0.000    0.000    2.000    0.000    0.583 
#    0.000    4.667    0.000    0.000    0.000    0.000 
#
# Total GULP energy -267854.459957 kJ/mol
# GULP energy per Si atom -5580.301249 kJ/mol
# Density = 1.765642 g / cm^3
# Si number density = 17.696696 Si / 1000 Ang^3
#
#
#
# Elastic Constant Matrix: (Units=GPa)
#
#
# Indices 1 2 3 4 5 6 
#
# 1 20.0052 15.4871 27.8284 0.0000 0.0000 0.0000
# 2 15.4871 99.9831 60.5498 0.0000 0.0000 0.0000
# 3 27.8284 60.5498 141.4980 0.0000 0.0000 0.0000
# 4 0.0000 0.0000 0.0000 40.2269 0.0000 0.0000
# 5 0.0000 0.0000 0.0000 0.0000 -2.1971 0.0000
# 6 0.0000 0.0000 0.0000 0.0000 0.0000 13.8373
#
#
#
# Elastic Compliance Matrix: (Units=1/GPa)
#
#
# Indices 1 2 3 4 5 6 
#
# 1 0.069641 -0.003365 -0.012257 0.000000 0.000000 0.000000
# 2 -0.003365 0.013663 -0.005185 0.000000 0.000000 0.000000
# 3 -0.012257 -0.005185 0.011696 0.000000 0.000000 0.000000
# 4 0.000000 0.000000 0.000000 0.024859 0.000000 0.000000
# 5 0.000000 0.000000 0.000000 0.000000 -0.455148 0.000000
# 6 0.000000 0.000000 0.000000 0.000000 0.000000 0.072268
#
#
# Mechanical properties :
#
#
# Convention : Reuss Voigt Hill
#
# Bulk Modulus (GPa) = 18.73065 52.13522 35.43293
# Shear Modulus (GPa) = -24.55656 20.88150 -1.83753
#
# Velocity S-wave (km/s) = -3.72914 3.43879 -1.02010
# Velocity P-wave (km/s) = 2.81687 6.72989 4.32184
#
# Compressibility (1/GPa) = 0.05338844
#
# Stress axis : x y z
#
# Youngs Moduli (GPa) = 14.35927 73.19129 85.49615
#
# Poissons Ratio (x) = 0.24627 1.04789
# Poissons Ratio (y) = 0.04832 0.44328
# Poissons Ratio (z) = 0.17600 0.37949
#
# Static dielectric constant tensor:
#      x y z
#    x 1.596240 0.000000 0.000000 
#    y 0.000000 1.619460 0.000000 
#    z 0.000000 0.000000 1.618000 
# 
# From -- ./inp_files/26594.got.cif
#   From: 2010.05.17/outbox.cif.g08.bks.cpg/sg47_14_cif.got.tgz:26594.got - 2010.06.03 20:15:42.
