data_PCOD9381103
_publ_section_title
;
Structure prediction by ZEFSAII (Michael W. Deem and Ramdas Pophale) SiO2 
 PCOD9381103
Probable space group: I M A 2
;
_chemical_formula_sum "Si O2"
_cell_formula_units_Z 24
_cell_length_a 18.000000
_cell_length_b 15.000000
_cell_length_c 9.000000
_cell_angle_alpha 90.000000
_cell_angle_beta 90.000000
_cell_angle_gamma 90.000000
_cell_volume 2430.000000
_symmetry_space_group_name_H-M "I M A 2"
_symmetry_group_IT_number 46
_symmetry_cell_setting 'orthorhombic'
loop_
_space_group_symop_operation_xyz
x,y,z
-x,-y,z
1/2-x,y,z
1/2+x,-y,z
1/2+x,1/2+y,1/2+z
1/2-x,1/2-y,1/2+z
-x,1/2+y,1/2+z
x,1/2-y,1/2+z
loop_
_atom_site_type_symbol
_atom_site_label
_atom_site_fract_x
_atom_site_fract_y
_atom_site_fract_z
Si Si1 0.534954 0.133697 0.542860
Si Si2 0.750000 0.630412 0.974844
Si Si3 0.163250 0.859688 0.013085
Si Si4 0.386864 0.036062 0.613976
Si Si5 0.750000 0.817570 0.130553
Si Si6 0.413418 0.763710 0.271044
Si Si7 0.165409 0.445803 0.435175
O O1 0.459813 0.080976 0.551652
O O2 0.549129 0.165235 0.377485
O O3 0.532172 0.216158 0.655522
O O4 0.601405 0.069692 0.599518
O O5 0.820004 0.570762 0.015796
O O6 0.750000 0.715302 0.084816
O O7 0.750000 0.664494 0.805433
O O8 0.250000 0.853976 0.982190
O O9 0.120616 0.808681 0.882807
O O10 0.141143 0.963590 0.015342
O O11 0.146487 0.811775 0.167713
O O12 0.380341 0.066027 0.785739
O O13 0.679228 0.865863 0.050568
O O14 0.250000 0.461714 0.377303
#
# Coordination Sequence:
#
# PCOD9381103 Si02
#       7
#     8   4   8   8   4   8   8
#     4  10  24  40  63  89 131 163 209 246 317 371
#     4  12  24  42  70  91 122 159 209 263 308 363
#     4  10  19  34  61  92 127 163 204 255 305 366
#     4  11  22  42  65  92 123 168 205 260 312 367
#     4  10  24  40  62  99 120 157 207 261 314 369
#     4  10  21  39  58  91 127 167 205 251 305 380
#     4   9  19  38  62  90 124 154 206 255 306 362
#
# _framework density 9.8765429999999999
#
# number of rings (size 3 to 8) (size 9 to 14) (size 15 to 20)
#    0.500    1.333    2.500    1.500    2.333    2.667 
#    6.000    1.667    0.000    0.000    0.000    0.000 
#    0.000    0.000    0.000    0.000    0.000    0.000 
#
# Total GULP energy -133709.302917 kJ/mol
# GULP energy per Si atom -5571.220955 kJ/mol
# Density = 0.985406 g / cm^3
# Si number density = 9.876543 Si / 1000 Ang^3
#
#
#
# Elastic Constant Matrix: (Units=GPa)
#
#
# Indices 1 2 3 4 5 6 
#
# 1 50.8575 28.2936 15.5247 0.0000 0.0000 0.0000
# 2 28.2936 51.9955 15.0589 0.0000 0.0000 0.0000
# 3 15.5247 15.0589 81.7819 0.0000 0.0000 0.0000
# 4 0.0000 0.0000 0.0000 42.1743 0.0000 0.0000
# 5 0.0000 0.0000 0.0000 0.0000 -20.5146 0.0000
# 6 0.0000 0.0000 0.0000 0.0000 0.0000 21.4760
#
#
#
# Elastic Compliance Matrix: (Units=1/GPa)
#
#
# Indices 1 2 3 4 5 6 
#
# 1 0.028763 -0.014863 -0.002723 0.000000 0.000000 0.000000
# 2 -0.014863 0.027996 -0.002334 0.000000 0.000000 0.000000
# 3 -0.002723 -0.002334 0.013174 0.000000 0.000000 0.000000
# 4 0.000000 0.000000 0.000000 0.023711 0.000000 0.000000
# 5 0.000000 0.000000 0.000000 0.000000 -0.048746 0.000000
# 6 0.000000 0.000000 0.000000 0.000000 0.000000 0.046564
#
#
# Mechanical properties :
#
#
# Convention : Reuss Voigt Hill
#
# Bulk Modulus (GPa) = 33.22953 33.59881 33.41417
# Shear Modulus (GPa) = 35.37763 17.01099 26.19431
#
# Velocity S-wave (km/s) = 4.23660 2.93777 3.64550
# Velocity P-wave (km/s) = 6.38676 5.34356 5.88831
#
# Compressibility (1/GPa) = 0.03009371
#
# Stress axis : x y z
#
# Youngs Moduli (GPa) = 34.76728 35.71949 75.90523
#
# Poissons Ratio (x) = 0.53089 0.20671
# Poissons Ratio (y) = 0.51673 0.17714
# Poissons Ratio (z) = 0.09468 0.08336
#
# Static dielectric constant tensor:
#      x y z
#    x 1.716430 0.000000 0.000000 
#    y 0.000000 1.569060 0.000000 
#    z 0.000000 0.000000 1.650350 
# 
# From -- ./inp_files/6626.got.cif
#   From: 2010.05.17/outbox.ucp.g08.bks.cvg/sg46_4_cif.got.tgz:6626.got - 2010.06.11 16:34:52.
