data_PCOD9381807
_publ_section_title
;
Structure prediction by ZEFSAII (Michael W. Deem and Ramdas Pophale) SiO2 
 PCOD9381807
Probable space group: P M M M
;
_chemical_formula_sum "Si O2"
_cell_formula_units_Z 52
_cell_length_a 7.609255
_cell_length_b 14.887412
_cell_length_c 24.355348
_cell_angle_alpha 90.000000
_cell_angle_beta 90.000000
_cell_angle_gamma 90.000000
_cell_volume 2759.025313
_symmetry_space_group_name_H-M "P M M M"
_symmetry_group_IT_number 47
_symmetry_cell_setting 'orthorhombic'
loop_
_space_group_symop_operation_xyz
x,y,z
-x,-y,z
x,-y,-z
-x,y,-z
-x,-y,-z
x,y,-z
-x,y,z
x,-y,z
loop_
_atom_site_type_symbol
_atom_site_label
_atom_site_fract_x
_atom_site_fract_y
_atom_site_fract_z
Si Si1 0.288960 0.785907 0.273243
Si Si2 0.705631 0.207682 0.059663
Si Si3 0.211226 0.102204 0.380851
Si Si4 0.797288 0.109227 0.500000
Si Si5 0.715361 0.896186 0.166913
Si Si6 0.208456 0.599816 0.899279
Si Si7 0.712205 0.599063 0.770024
O O1 0.500000 0.782624 0.268696
O O2 0.248824 0.832357 0.330759
O O3 0.225270 0.846292 0.222197
O O4 0.223533 0.684301 0.264354
O O5 0.500000 0.183344 0.057698
O O6 0.778339 0.156301 0.112731
O O7 0.716245 0.314344 0.070012
O O8 0.783479 0.186068 0.000000
O O9 0.280512 0.133401 0.440641
O O10 0.000000 0.096719 0.386264
O O11 0.274438 0.000000 0.369532
O O12 0.000000 0.140914 0.500000
O O13 0.799809 0.000000 0.500000
O O14 0.500000 0.893514 0.167160
O O15 0.767582 0.000000 0.166338
O O16 0.275651 0.500000 0.914321
O O17 0.242349 0.611982 0.834198
O O18 0.000000 0.600255 0.908562
O O19 0.500000 0.597621 0.766789
O O20 0.776959 0.500000 0.753568
#
# Coordination Sequence:
#
# PCOD9381807 Si02
#       7
#     8   8   8   4   8   8   8
#     4  10  18  29  47  71  98 124 150 188 237 280
#     4  10  20  34  51  69  89 119 160 195 225 273
#     4   9  17  29  46  69  97 130 165 195 225 267
#     4   7  12  26  45  63  90 129 166 196 225 261
#     4   9  17  30  47  68  94 120 148 188 235 275
#     4  10  20  33  50  71  94 118 144 184 240 290
#     4   9  17  31  51  71  93 122 154 187 226 278
#
# _framework density 18.847235000000001
#
# number of rings (size 3 to 8) (size 9 to 14) (size 15 to 20)
#    0.000    2.692    1.538    1.846    0.000    3.385 
#    0.000    3.462    0.000    1.846    0.000    1.615 
#    0.000    4.308    0.000    0.000    0.000    0.000 
#
# Total GULP energy -289976.168929 kJ/mol
# GULP energy per Si atom -5576.464787 kJ/mol
# Density = 1.880434 g / cm^3
# Si number density = 18.847235 Si / 1000 Ang^3
#
#
#
# Elastic Constant Matrix: (Units=GPa)
#
#
# Indices 1 2 3 4 5 6 
#
# 1 38.5488 4.8179 3.3668 0.0000 0.0000 0.0000
# 2 4.8179 107.3703 76.8005 0.0000 0.0000 0.0000
# 3 3.3668 76.8005 158.4497 0.0000 0.0000 0.0000
# 4 0.0000 0.0000 0.0000 23.4278 0.0000 0.0000
# 5 0.0000 0.0000 0.0000 0.0000 15.1087 0.0000
# 6 0.0000 0.0000 0.0000 0.0000 0.0000 0.8110
#
#
#
# Elastic Compliance Matrix: (Units=1/GPa)
#
#
# Indices 1 2 3 4 5 6 
#
# 1 0.026087 -0.001185 0.000020 0.000000 0.000000 0.000000
# 2 -0.001185 0.014310 -0.006911 0.000000 0.000000 0.000000
# 3 0.000020 -0.006911 0.009660 0.000000 0.000000 0.000000
# 4 0.000000 0.000000 0.000000 0.042684 0.000000 0.000000
# 5 0.000000 0.000000 0.000000 0.000000 0.066187 0.000000
# 6 0.000000 0.000000 0.000000 0.000000 0.000000 1.233041
#
#
# Mechanical properties :
#
#
# Convention : Reuss Voigt Hill
#
# Bulk Modulus (GPa) = 29.49299 52.70436 41.09868
# Shear Modulus (GPa) = 3.52255 22.49507 13.00881
#
# Velocity S-wave (km/s) = 1.36860 3.45852 2.63006
# Velocity P-wave (km/s) = 4.26378 6.63123 5.57463
#
# Compressibility (1/GPa) = 0.03390636
#
# Stress axis : x y z
#
# Youngs Moduli (GPa) = 38.33255 69.88133 103.51521
#
# Poissons Ratio (x) = 0.08280 -0.00207
# Poissons Ratio (y) = 0.04542 0.71538
# Poissons Ratio (z) = -0.00077 0.48294
#
# Static dielectric constant tensor:
#      x y z
#    x 1.729470 0.000000 0.000000 
#    y 0.000000 1.603410 0.000000 
#    z 0.000000 0.000000 1.662490 
# 
# From -- ./inp_files/7642.got.cif
#   From: 2010.05.17/outbox.cif.g08.bks.cpg/sg47_4_cif.got.tgz:7642.got - 2010.06.03 20:15:42.
