data_PCOD9381148
_publ_section_title
;
Structure prediction by ZEFSAII (Michael W. Deem and Ramdas Pophale) SiO2 
 PCOD9381148
Probable space group: I M A 2
;
_chemical_formula_sum "Si O2"
_cell_formula_units_Z 32
_cell_length_a 18.000000
_cell_length_b 21.000000
_cell_length_c 9.000000
_cell_angle_alpha 90.000000
_cell_angle_beta 90.000000
_cell_angle_gamma 90.000000
_cell_volume 3402.000000
_symmetry_space_group_name_H-M "I M A 2"
_symmetry_group_IT_number 46
_symmetry_cell_setting 'orthorhombic'
loop_
_space_group_symop_operation_xyz
x,y,z
-x,-y,z
1/2-x,y,z
1/2+x,-y,z
1/2+x,1/2+y,1/2+z
1/2-x,1/2-y,1/2+z
-x,1/2+y,1/2+z
x,1/2-y,1/2+z
loop_
_atom_site_type_symbol
_atom_site_label
_atom_site_fract_x
_atom_site_fract_y
_atom_site_fract_z
Si Si1 0.338523 0.701329 0.859860
Si Si2 0.424081 0.186780 0.504242
Si Si3 0.836274 0.573740 0.459060
Si Si4 0.838563 0.789544 0.803927
Si Si5 0.578924 0.572312 0.768103
Si Si6 0.590336 0.183578 0.674266
Si Si7 0.097279 0.927162 0.217003
Si Si8 0.841162 0.432044 0.378066
O O1 0.250000 0.712566 0.832820
O O2 0.390249 0.757097 0.785917
O O3 0.364070 0.632247 0.798053
O O4 0.355215 0.696446 0.035133
O O5 0.365372 0.200758 0.635169
O O6 0.398510 0.242538 0.386065
O O7 0.412572 0.121291 0.407262
O O8 0.506535 0.184553 0.592057
O O9 0.750000 0.562961 0.496333
O O10 0.843597 0.639474 0.371288
O O11 0.878215 0.585782 0.614280
O O12 0.857538 0.509150 0.366004
O O13 0.750000 0.769371 0.813917
O O14 0.604883 0.498070 0.791669
O O15 0.491996 0.579005 0.723897
O O16 0.615428 0.118167 0.766278
O O17 0.129474 0.923226 0.048489
O O18 0.750000 0.422285 0.367100
#
# Coordination Sequence:
#
# PCOD9381148 Si02
#       8
#     8   8   8   8   8   8   8   8
#     4  12  24  41  63  93 133 180 225 275 332 401
#     4  12  25  43  68  97 135 176 223 282 342 405
#     4   9  21  41  69  98 129 169 220 274 338 406
#     4  11  25  44  66  97 132 174 223 280 340 402
#     4  10  22  42  65  95 130 169 218 279 337 401
#     4  12  26  42  65  99 137 178 223 279 335 401
#     4  10  22  41  65  93 131 170 222 274 333 403
#     4  10  21  42  67  97 132 175 223 275 331 403
#
# _framework density 9.4062319999999993
#
# number of rings (size 3 to 8) (size 9 to 14) (size 15 to 20)
#    0.000    1.250    1.250    4.125    3.500    3.500 
#    0.000    1.250    0.000    0.000    0.000    0.000 
#    0.000    0.000    0.000    0.000    0.000    0.000 
#
# Total GULP energy -178180.291640 kJ/mol
# GULP energy per Si atom -5568.134114 kJ/mol
# Density = 0.938482 g / cm^3
# Si number density = 9.406232 Si / 1000 Ang^3
#
#
#
# Elastic Constant Matrix: (Units=GPa)
#
#
# Indices 1 2 3 4 5 6 
#
# 1 88.6908 44.0826 31.0761 0.0000 0.0000 0.0000
# 2 44.0826 138.2164 65.4268 0.0000 0.0000 0.0000
# 3 31.0761 65.4268 120.2326 0.0000 0.0000 0.0000
# 4 0.0000 0.0000 0.0000 52.2829 0.0000 0.0000
# 5 0.0000 0.0000 0.0000 0.0000 42.3364 0.0000
# 6 0.0000 0.0000 0.0000 0.0000 0.0000 35.4670
#
#
#
# Elastic Compliance Matrix: (Units=1/GPa)
#
#
# Indices 1 2 3 4 5 6 
#
# 1 0.013612 -0.003605 -0.001557 0.000000 0.000000 0.000000
# 2 -0.003605 0.010700 -0.004891 0.000000 0.000000 0.000000
# 3 -0.001557 -0.004891 0.011381 0.000000 0.000000 0.000000
# 4 0.000000 0.000000 0.000000 0.019127 0.000000 0.000000
# 5 0.000000 0.000000 0.000000 0.000000 0.023620 0.000000
# 6 0.000000 0.000000 0.000000 0.000000 0.000000 0.028195
#
#
# Mechanical properties :
#
#
# Convention : Reuss Voigt Hill
#
# Bulk Modulus (GPa) = 64.14921 69.81232 66.98076
# Shear Modulus (GPa) = 37.89717 39.78754 38.84236
#
# Velocity S-wave (km/s) = 4.49316 4.60385 4.54884
# Velocity P-wave (km/s) = 7.81609 8.09017 7.95431
#
# Compressibility (1/GPa) = 0.01558866
#
# Stress axis : x y z
#
# Youngs Moduli (GPa) = 73.46354 93.45958 87.86534
#
# Poissons Ratio (x) = 0.33688 0.13679
# Poissons Ratio (y) = 0.26480 0.42974
# Poissons Ratio (z) = 0.11437 0.45710
#
# Static dielectric constant tensor:
#      x y z
#    x 1.678740 0.000000 0.000000 
#    y 0.000000 1.702920 0.000000 
#    z 0.000000 0.000000 1.654850 
# 
# From -- ./inp_files/6912.got.cif
#   From: 2010.05.17/outbox.ucp.g08.bks.cvg/sg46_4_cif.got.tgz:6912.got - 2010.06.11 16:34:52.
