data_PCOD9381368
_publ_section_title
;
Structure prediction by ZEFSAII (Michael W. Deem and Ramdas Pophale) SiO2 
 PCOD9381368
Probable space group: P M M M
;
_chemical_formula_sum "Si O2"
_cell_formula_units_Z 56
_cell_length_a 7.920463
_cell_length_b 19.468653
_cell_length_c 19.008729
_cell_angle_alpha 90.000000
_cell_angle_beta 90.000000
_cell_angle_gamma 90.000000
_cell_volume 2931.160187
_symmetry_space_group_name_H-M "P M M M"
_symmetry_group_IT_number 47
_symmetry_cell_setting 'orthorhombic'
loop_
_space_group_symop_operation_xyz
x,y,z
-x,-y,z
x,-y,-z
-x,y,-z
-x,-y,-z
x,y,-z
-x,y,z
x,-y,z
loop_
_atom_site_type_symbol
_atom_site_label
_atom_site_fract_x
_atom_site_fract_y
_atom_site_fract_z
Si Si1 0.697463 0.139336 0.922221
Si Si2 0.204089 0.577250 0.348889
Si Si3 0.299701 0.285244 0.422291
Si Si4 0.804535 0.280221 0.863042
Si Si5 0.206285 0.577104 0.814644
Si Si6 0.802508 0.922916 0.777052
Si Si7 0.302529 0.216917 0.718295
O O1 0.500000 0.121505 0.919410
O O2 0.714052 0.220907 0.907007
O O3 0.785169 0.099910 0.858469
O O4 0.763631 0.123826 0.000000
O O5 0.254025 0.500000 0.369455
O O6 0.273624 0.636318 0.398339
O O7 0.256368 0.587480 0.267203
O O8 0.000000 0.580745 0.350289
O O9 0.227538 0.273174 0.500000
O O10 0.500000 0.271845 0.425869
O O11 0.234114 0.239993 0.357237
O O12 0.736931 0.358065 0.860843
O O13 0.793062 0.254239 0.782099
O O14 0.000000 0.280897 0.885043
O O15 0.258474 0.500000 0.835780
O O16 0.000000 0.578435 0.815422
O O17 0.712593 0.863962 0.732374
O O18 0.000000 0.921563 0.758935
O O19 0.737036 0.000000 0.767754
O O20 0.500000 0.236708 0.724078
#
# Coordination Sequence:
#
# PCOD9381368 Si02
#       7
#     8   8   8   8   8   8   8
#     4  10  21  35  51  74 106 139 165 191 228 279
#     4   9  17  30  47  67  94 128 167 210 254 300
#     4  10  21  34  47  67  98 134 169 208 252 294
#     4  10  17  28  51  74  95 126 165 208 249 289
#     4   8  14  25  43  68  95 122 157 206 256 293
#     4  10  21  36  56  81 105 128 155 192 237 284
#     4  10  19  32  51  72  97 128 164 203 240 288
#
# _framework density 19.105062
#
# number of rings (size 3 to 8) (size 9 to 14) (size 15 to 20)
#    0.000    2.429    1.429    4.286    0.000    4.000 
#    0.000    2.857    0.000    2.571    0.000    6.000 
#    0.000    0.000    0.000    0.000    0.000    0.000 
#
# Total GULP energy -312335.811001 kJ/mol
# GULP energy per Si atom -5577.425196 kJ/mol
# Density = 1.906158 g / cm^3
# Si number density = 19.105062 Si / 1000 Ang^3
#
#
#
# Elastic Constant Matrix: (Units=GPa)
#
#
# Indices 1 2 3 4 5 6 
#
# 1 23.3683 -13.5517 -5.2298 0.0000 0.0000 0.0000
# 2 -13.5517 90.5667 12.9867 0.0000 0.0000 0.0000
# 3 -5.2298 12.9867 48.6506 0.0000 0.0000 0.0000
# 4 0.0000 0.0000 0.0000 11.5347 0.0000 0.0000
# 5 0.0000 0.0000 0.0000 0.0000 30.8106 0.0000
# 6 0.0000 0.0000 0.0000 0.0000 0.0000 41.5931
#
#
#
# Elastic Compliance Matrix: (Units=1/GPa)
#
#
# Indices 1 2 3 4 5 6 
#
# 1 0.047372 0.006611 0.003327 0.000000 0.000000 0.000000
# 2 0.006611 0.012404 -0.002600 0.000000 0.000000 0.000000
# 3 0.003327 -0.002600 0.021607 0.000000 0.000000 0.000000
# 4 0.000000 0.000000 0.000000 0.086695 0.000000 0.000000
# 5 0.000000 0.000000 0.000000 0.000000 0.032456 0.000000
# 6 0.000000 0.000000 0.000000 0.000000 0.000000 0.024042
#
#
# Mechanical properties :
#
#
# Convention : Reuss Voigt Hill
#
# Bulk Modulus (GPa) = 10.41032 16.77735 13.59383
# Shear Modulus (GPa) = 20.66814 28.01305 24.34060
#
# Velocity S-wave (km/s) = 3.29266 3.83334 3.57324
# Velocity P-wave (km/s) = 4.46277 5.32854 4.91476
#
# Compressibility (1/GPa) = 0.09605854
#
# Stress axis : x y z
#
# Youngs Moduli (GPa) = 21.10967 80.62106 46.28227
#
# Poissons Ratio (x) = -0.53300 -0.15400
# Poissons Ratio (y) = -0.13956 0.12035
# Poissons Ratio (z) = -0.07024 0.20964
#
# Static dielectric constant tensor:
#      x y z
#    x 1.675900 0.000000 0.000000 
#    y 0.000000 1.685580 0.000000 
#    z 0.000000 0.000000 1.664540 
# 
# From -- ./inp_files/26965.got.cif
#   From: 2010.05.17/outbox.cif.g08.bks.cpg/sg47_14_cif.got.tgz:26965.got - 2010.06.03 20:15:42.
