data_PCOD9381674
_publ_section_title
;
Structure prediction by ZEFSAII (Michael W. Deem and Ramdas Pophale) SiO2 
 PCOD9381674
Probable space group: P M M M
;
_chemical_formula_sum "Si O2"
_cell_formula_units_Z 52
_cell_length_a 24.094554
_cell_length_b 7.435552
_cell_length_c 14.708540
_cell_angle_alpha 90.000000
_cell_angle_beta 90.000000
_cell_angle_gamma 90.000000
_cell_volume 2635.127740
_symmetry_space_group_name_H-M "P M M M"
_symmetry_group_IT_number 47
_symmetry_cell_setting 'orthorhombic'
loop_
_space_group_symop_operation_xyz
x,y,z
-x,-y,z
x,-y,-z
-x,y,-z
-x,-y,-z
x,y,-z
-x,y,z
x,-y,z
loop_
_atom_site_type_symbol
_atom_site_label
_atom_site_fract_x
_atom_site_fract_y
_atom_site_fract_z
Si Si1 0.715236 0.716434 0.601091
Si Si2 0.562021 0.780783 0.894440
Si Si3 0.000000 0.720815 0.104836
Si Si4 0.670470 0.788531 0.793536
Si Si5 0.780723 0.782321 0.895085
Si Si6 0.892988 0.710937 0.213889
Si Si7 0.843336 0.719685 0.601982
O O1 0.698355 0.777620 0.500000
O O2 0.716062 0.500000 0.599735
O O3 0.678036 0.770792 0.685801
O O4 0.779126 0.775147 0.616630
O O5 0.500000 0.721141 0.867851
O O6 0.612942 0.715741 0.833243
O O7 0.561191 0.000000 0.891259
O O8 0.571351 0.731998 0.000000
O O9 0.054944 0.782935 0.157831
O O10 0.000000 0.500000 0.103132
O O11 0.000000 0.778130 0.000000
O O12 0.725889 0.715806 0.842436
O O13 0.670046 0.000000 0.815428
O O14 0.836588 0.726731 0.843847
O O15 0.780063 0.000000 0.894240
O O16 0.780591 0.724042 0.000000
O O17 0.904716 0.500000 0.226682
O O18 0.880257 0.784958 0.314336
O O19 0.859929 0.774028 0.500000
O O20 0.843390 0.500000 0.603431
#
# Coordination Sequence:
#
# PCOD9381674 Si02
#       7
#     8   8   4   8   8   8   8
#     4   9  17  30  47  67  93 123 152 185 230 281
#     4   8  14  26  45  68  94 126 160 189 224 274
#     4   9  18  30  44  66  92 117 151 195 232 261
#     4  10  18  28  46  72  97 118 149 193 233 267
#     4  10  20  31  43  65  97 123 144 181 232 274
#     4  10  18  31  50  67  87 119 156 189 224 271
#     4   8  14  26  45  67  89 113 144 184 227 269
#
# _framework density 19.733388000000001
#
# number of rings (size 3 to 8) (size 9 to 14) (size 15 to 20)
#    0.000    2.846    1.538    2.308    0.000    3.077 
#    0.000    0.769    0.000    6.462    0.000    4.308 
#    0.000    1.231    0.000    0.000    0.000    0.000 
#
# Total GULP energy -290138.316805 kJ/mol
# GULP energy per Si atom -5579.583015 kJ/mol
# Density = 1.968847 g / cm^3
# Si number density = 19.733388 Si / 1000 Ang^3
#
#
#
# Elastic Constant Matrix: (Units=GPa)
#
#
# Indices 1 2 3 4 5 6 
#
# 1 172.6593 1.0800 116.5608 0.0000 0.0000 0.0000
# 2 1.0800 57.3512 -5.9435 0.0000 0.0000 0.0000
# 3 116.5608 -5.9435 177.6667 0.0000 0.0000 0.0000
# 4 0.0000 0.0000 0.0000 13.5031 0.0000 0.0000
# 5 0.0000 0.0000 0.0000 0.0000 33.9494 0.0000
# 6 0.0000 0.0000 0.0000 0.0000 0.0000 8.5454
#
#
#
# Elastic Compliance Matrix: (Units=1/GPa)
#
#
# Indices 1 2 3 4 5 6 
#
# 1 0.010443 -0.000910 -0.006882 0.000000 0.000000 0.000000
# 2 -0.000910 0.017576 0.001185 0.000000 0.000000 0.000000
# 3 -0.006882 0.001185 0.010183 0.000000 0.000000 0.000000
# 4 0.000000 0.000000 0.000000 0.074057 0.000000 0.000000
# 5 0.000000 0.000000 0.000000 0.000000 0.029456 0.000000
# 6 0.000000 0.000000 0.000000 0.000000 0.000000 0.117022
#
#
# Mechanical properties :
#
#
# Convention : Reuss Voigt Hill
#
# Bulk Modulus (GPa) = 40.01752 70.11910 55.06831
# Shear Modulus (GPa) = 17.83920 30.93156 24.38538
#
# Velocity S-wave (km/s) = 3.00994 3.96343 3.51913
# Velocity P-wave (km/s) = 5.69234 7.52033 6.66926
#
# Compressibility (1/GPa) = 0.02498905
#
# Stress axis : x y z
#
# Youngs Moduli (GPa) = 95.75400 56.89466 98.20101
#
# Poissons Ratio (x) = 0.05177 0.67582
# Poissons Ratio (y) = 0.08712 -0.11636
# Poissons Ratio (z) = 0.65898 -0.06742
#
# Static dielectric constant tensor:
#      x y z
#    x 1.668900 0.000000 0.000000 
#    y 0.000000 1.780750 0.000000 
#    z 0.000000 0.000000 1.685680 
# 
# From -- ./inp_files/24996.got.cif
#   From: 2010.05.17/outbox.cif.g08.bks.cpg/sg47_13_cif.got.tgz:24996.got - 2010.06.03 20:15:42.
