data_PCOD9381404
_publ_section_title
;
Structure prediction by ZEFSAII (Michael W. Deem and Ramdas Pophale) SiO2 
 PCOD9381404
Probable space group: P M M M
;
_chemical_formula_sum "Si O2"
_cell_formula_units_Z 52
_cell_length_a 15.579901
_cell_length_b 7.747992
_cell_length_c 20.964441
_cell_angle_alpha 90.000000
_cell_angle_beta 90.000000
_cell_angle_gamma 90.000000
_cell_volume 2530.679483
_symmetry_space_group_name_H-M "P M M M"
_symmetry_group_IT_number 47
_symmetry_cell_setting 'orthorhombic'
loop_
_space_group_symop_operation_xyz
x,y,z
-x,-y,z
x,-y,-z
-x,y,-z
-x,-y,-z
x,y,-z
-x,y,z
x,-y,z
loop_
_atom_site_type_symbol
_atom_site_label
_atom_site_fract_x
_atom_site_fract_y
_atom_site_fract_z
Si Si1 0.403908 0.292664 0.572254
Si Si2 0.000000 0.807130 0.925972
Si Si3 0.099409 0.790937 0.732008
Si Si4 0.407035 0.708307 0.791753
Si Si5 0.827313 0.208876 0.872314
Si Si6 0.645661 0.299035 0.927968
Si Si7 0.727745 0.796253 0.317292
O O1 0.386329 0.231147 0.500000
O O2 0.500000 0.230945 0.590799
O O3 0.408408 0.500000 0.570036
O O4 0.330684 0.251338 0.622702
O O5 0.088501 0.724467 0.907715
O O6 0.000000 0.000000 0.893782
O O7 0.000000 0.830400 0.000000
O O8 0.146441 0.755443 0.799507
O O9 0.174285 0.725974 0.684134
O O10 0.000000 0.727397 0.728923
O O11 0.092679 0.000000 0.727124
O O12 0.500000 0.761745 0.765128
O O13 0.405909 0.500000 0.795017
O O14 0.399367 0.775683 0.864518
O O15 0.328573 0.755394 0.745942
O O16 0.744328 0.288414 0.905003
O O17 0.817340 0.000000 0.879173
O O18 0.619871 0.500000 0.932025
O O19 0.634535 0.226509 0.000000
O O20 0.737452 0.000000 0.317663
#
# Coordination Sequence:
#
# PCOD9381404 Si02
#       7
#     8   4   8   8   8   8   8
#     4   9  19  37  60  85 115 151 183 207 242 301
#     4   9  16  24  41  69  91 115 160 211 256 312
#     4   9  17  31  51  75 104 137 174 215 259 309
#     4  10  21  36  53  72  98 137 180 218 262 321
#     4  10  17  30  50  69  91 123 165 212 262 316
#     4  10  21  35  49  67  94 128 169 220 272 317
#     4  11  21  33  55  85 113 139 171 218 267 305
#
# _framework density 20.547841999999999
#
# number of rings (size 3 to 8) (size 9 to 14) (size 15 to 20)
#    0.000    2.231    2.308    1.846    0.000    4.000 
#    0.000    2.692    0.000    5.538    0.000    5.385 
#    0.000    0.000    0.000    0.000    0.000    0.000 
#
# Total GULP energy -289667.906850 kJ/mol
# GULP energy per Si atom -5570.536670 kJ/mol
# Density = 2.050107 g / cm^3
# Si number density = 20.547842 Si / 1000 Ang^3
#
#
#
# Elastic Constant Matrix: (Units=GPa)
#
#
# Indices 1 2 3 4 5 6 
#
# 1 135.9605 1.0554 65.2042 0.0000 0.0000 0.0000
# 2 1.0554 32.4527 8.0971 0.0000 0.0000 0.0000
# 3 65.2042 8.0971 112.3994 0.0000 0.0000 0.0000
# 4 0.0000 0.0000 0.0000 -337.1024 0.0000 0.0000
# 5 0.0000 0.0000 0.0000 0.0000 30.4481 0.0000
# 6 0.0000 0.0000 0.0000 0.0000 0.0000 14.8432
#
#
#
# Elastic Compliance Matrix: (Units=1/GPa)
#
#
# Indices 1 2 3 4 5 6 
#
# 1 0.010233 0.001169 -0.006021 0.000000 0.000000 0.000000
# 2 0.001169 0.031512 -0.002948 0.000000 0.000000 0.000000
# 3 -0.006021 -0.002948 0.012602 0.000000 0.000000 0.000000
# 4 0.000000 0.000000 0.000000 -0.002966 0.000000 0.000000
# 5 0.000000 0.000000 0.000000 0.000000 0.032843 0.000000
# 6 0.000000 0.000000 0.000000 0.000000 0.000000 0.067371
#
#
# Mechanical properties :
#
#
# Convention : Reuss Voigt Hill
#
# Bulk Modulus (GPa) = 25.80814 47.72509 36.76661
# Shear Modulus (GPa) = 27.76082 -44.59851 -8.41884
#
# Velocity S-wave (km/s) = 3.67963 -4.66389 -2.02635
# Velocity P-wave (km/s) = 5.53536 2.39284 3.52948
#
# Compressibility (1/GPa) = 0.03874747
#
# Stress axis : x y z
#
# Youngs Moduli (GPa) = 97.71865 31.73427 79.35264
#
# Poissons Ratio (x) = -0.03711 0.47777
# Poissons Ratio (y) = -0.11427 0.23397
# Poissons Ratio (z) = 0.58834 0.09357
#
# Static dielectric constant tensor:
#      x y z
#    x 1.794810 0.000000 0.000000 
#    y 0.000000 1.882050 0.000000 
#    z 0.000000 0.000000 1.753640 
# 
# From -- ./inp_files/7019.got.cif
#   From: 2010.05.17/outbox.cif.g08.bks.cpg/sg47_4_cif.got.tgz:7019.got - 2010.06.03 20:15:42.
