data_PCOD9381699
_publ_section_title
;
Structure prediction by ZEFSAII (Michael W. Deem and Ramdas Pophale) SiO2 
 PCOD9381699
Probable space group: P M M M
;
_chemical_formula_sum "Si O2"
_cell_formula_units_Z 56
_cell_length_a 15.341216
_cell_length_b 7.568019
_cell_length_c 23.648118
_cell_angle_alpha 90.000000
_cell_angle_beta 90.000000
_cell_angle_gamma 90.000000
_cell_volume 2745.608320
_symmetry_space_group_name_H-M "P M M M"
_symmetry_group_IT_number 47
_symmetry_cell_setting 'orthorhombic'
loop_
_space_group_symop_operation_xyz
x,y,z
-x,-y,z
x,-y,-z
-x,y,-z
-x,-y,-z
x,y,-z
-x,y,z
x,-y,z
loop_
_atom_site_type_symbol
_atom_site_label
_atom_site_fract_x
_atom_site_fract_y
_atom_site_fract_z
Si Si1 0.716844 0.791562 0.561469
Si Si2 0.097715 0.286466 0.393394
Si Si3 0.402933 0.292192 0.794111
Si Si4 0.098208 0.284654 0.263456
Si Si5 0.097486 0.787371 0.064420
Si Si6 0.224674 0.710793 0.165857
Si Si7 0.600532 0.786426 0.664650
O O1 0.692703 0.716656 0.500000
O O2 0.820204 0.773029 0.570622
O O3 0.664934 0.719835 0.615755
O O4 0.696556 0.000000 0.560114
O O5 0.097079 0.500000 0.394350
O O6 0.113134 0.229712 0.328224
O O7 0.000000 0.228322 0.410282
O O8 0.500000 0.214289 0.800950
O O9 0.410144 0.500000 0.807140
O O10 0.322877 0.217937 0.830270
O O11 0.378234 0.277172 0.727792
O O12 0.100010 0.500000 0.263528
O O13 0.167467 0.219057 0.218240
O O14 0.000000 0.231985 0.247232
O O15 0.171367 0.737747 0.108639
O O16 0.000000 0.725641 0.081638
O O17 0.094722 0.000000 0.063123
O O18 0.113452 0.726640 0.000000
O O19 0.230916 0.500000 0.174276
O O20 0.500000 0.736581 0.652609
O O21 0.604665 0.000000 0.666570
#
# Coordination Sequence:
#
# PCOD9381699 Si02
#       7
#     8   8   8   8   8   8   8
#     4  10  21  34  47  66  92 121 154 195 242 286
#     4   9  18  33  51  68  89 121 158 193 232 283
#     4   9  18  32  50  74 103 130 155 190 240 290
#     4   8  14  25  42  66  93 116 142 183 233 278
#     4   9  19  35  51  69  99 136 167 197 237 280
#     4  10  18  28  48  75  99 126 161 198 234 277
#     4   9  18  33  52  72  94 122 157 195 236 287
#
# _framework density 20.396208999999999
#
# number of rings (size 3 to 8) (size 9 to 14) (size 15 to 20)
#    0.000    2.857    0.000    2.571    0.000    4.571 
#    0.000    4.286    0.000    1.286    0.000    6.000 
#    0.000    0.000    0.000    0.000    0.000    0.000 
#
# Total GULP energy -312452.346752 kJ/mol
# GULP energy per Si atom -5579.506192 kJ/mol
# Density = 2.034979 g / cm^3
# Si number density = 20.396209 Si / 1000 Ang^3
#
#
#
# Elastic Constant Matrix: (Units=GPa)
#
#
# Indices 1 2 3 4 5 6 
#
# 1 137.2663 1.2835 79.5253 0.0000 0.0000 0.0000
# 2 1.2835 45.5046 -4.8680 0.0000 0.0000 0.0000
# 3 79.5253 -4.8680 70.8305 0.0000 0.0000 0.0000
# 4 0.0000 0.0000 0.0000 16.2772 0.0000 0.0000
# 5 0.0000 0.0000 0.0000 0.0000 -0.2408 0.0000
# 6 0.0000 0.0000 0.0000 0.0000 0.0000 11.4338
#
#
#
# Elastic Compliance Matrix: (Units=1/GPa)
#
#
# Indices 1 2 3 4 5 6 
#
# 1 0.021290 -0.003181 -0.024122 0.000000 0.000000 0.000000
# 2 -0.003181 0.022614 0.005126 0.000000 0.000000 0.000000
# 3 -0.024122 0.005126 0.041554 0.000000 0.000000 0.000000
# 4 0.000000 0.000000 0.000000 0.061435 0.000000 0.000000
# 5 0.000000 0.000000 0.000000 0.000000 -4.152060 0.000000
# 6 0.000000 0.000000 0.000000 0.000000 0.000000 0.087460
#
#
# Mechanical properties :
#
#
# Convention : Reuss Voigt Hill
#
# Bulk Modulus (GPa) = 24.32927 45.05368 34.69148
# Shear Modulus (GPa) = -1.29545 17.33808 8.02131
#
# Velocity S-wave (km/s) = -0.79782 2.91875 1.98527
# Velocity P-wave (km/s) = 3.33250 5.78757 4.72237
#
# Compressibility (1/GPa) = 0.04110275
#
# Stress axis : x y z
#
# Youngs Moduli (GPa) = 46.97043 44.22066 24.06526
#
# Poissons Ratio (x) = 0.14067 0.58050
# Poissons Ratio (y) = 0.14942 -0.12335
# Poissons Ratio (z) = 1.13302 -0.22666
#
# Static dielectric constant tensor:
#      x y z
#    x 1.749680 0.000000 0.000000 
#    y 0.000000 1.776120 0.000000 
#    z 0.000000 0.000000 1.705640 
# 
# From -- ./inp_files/7254.got.cif
#   From: 2010.05.17/outbox.cif.g08.bks.cpg/sg47_4_cif.got.tgz:7254.got - 2010.06.03 20:15:42.
