data_PCOD9381091
_publ_section_title
;
Structure prediction by ZEFSAII (Michael W. Deem and Ramdas Pophale) SiO2 
 PCOD9381091
Probable space group: I M A 2
;
_chemical_formula_sum "Si O2"
_cell_formula_units_Z 28
_cell_length_a 9.000000
_cell_length_b 21.000000
_cell_length_c 15.000000
_cell_angle_alpha 90.000000
_cell_angle_beta 90.000000
_cell_angle_gamma 90.000000
_cell_volume 2835.000000
_symmetry_space_group_name_H-M "I M A 2"
_symmetry_group_IT_number 46
_symmetry_cell_setting 'orthorhombic'
loop_
_space_group_symop_operation_xyz
x,y,z
-x,-y,z
1/2-x,y,z
1/2+x,-y,z
1/2+x,1/2+y,1/2+z
1/2-x,1/2-y,1/2+z
-x,1/2+y,1/2+z
x,1/2-y,1/2+z
loop_
_atom_site_type_symbol
_atom_site_label
_atom_site_fract_x
_atom_site_fract_y
_atom_site_fract_z
Si Si1 0.929367 0.431061 0.432560
Si Si2 0.572802 0.813315 0.602013
Si Si3 0.928639 0.070892 0.131777
Si Si4 0.078887 0.384086 0.807341
Si Si5 0.576915 0.164487 0.788948
Si Si6 0.420328 0.247692 0.418966
Si Si7 0.928992 0.562891 0.989596
O O1 0.750000 0.432836 0.429231
O O2 0.967108 0.403348 0.531790
O O3 0.980857 0.398258 0.340419
O O4 0.000000 0.500000 0.434700
O O5 0.750000 0.812437 0.614531
O O6 0.500558 0.811869 0.698872
O O7 0.542371 0.763025 0.522878
O O8 0.529434 0.878786 0.552803
O O9 0.750000 0.066078 0.137224
O O10 0.988957 0.111458 0.215641
O O11 0.000000 0.000000 0.140106
O O12 0.250000 0.401331 0.786245
O O13 0.084002 0.317432 0.861043
O O14 0.018229 0.428291 0.887316
O O15 0.750000 0.157717 0.769794
O O16 0.544744 0.213123 0.868817
O O17 0.250000 0.273672 0.413653
O O18 0.750000 0.560812 0.986304
O O19 0.000000 0.500000 0.027550
#
# Coordination Sequence:
#
# PCOD9381091 Si02
#       7
#     8   8   8   8   8   8   8
#     4   9  21  39  55  76 107 140 176 219 264 315
#     4   9  20  39  58  78 107 143 183 222 261 314
#     4  10  19  32  51  76 108 144 181 221 267 317
#     4   9  18  33  52  77 108 141 180 222 264 314
#     4  11  23  38  58  84 111 138 173 221 274 322
#     4   9  20  39  59  79 107 143 183 223 262 316
#     4   9  18  32  51  76 108 143 178 220 266 314
#
# _framework density 9.8765429999999999
#
# number of rings (size 3 to 8) (size 9 to 14) (size 15 to 20)
#    0.000    2.571    0.000    3.000    0.000    6.857 
#    0.000    8.571    0.000    0.000    0.000    0.000 
#    0.000    0.000    0.000    0.000    0.000    0.000 
#
# Total GULP energy -155868.741454 kJ/mol
# GULP energy per Si atom -5566.740766 kJ/mol
# Density = 0.985406 g / cm^3
# Si number density = 9.876543 Si / 1000 Ang^3
#
#
#
# Elastic Constant Matrix: (Units=GPa)
#
#
# Indices 1 2 3 4 5 6 
#
# 1 13.6678 0.9931 36.3151 0.0000 0.0000 0.0000
# 2 0.9931 24.1245 9.3113 0.0000 0.0000 0.0000
# 3 36.3151 9.3113 157.4786 0.0000 0.0000 0.0000
# 4 0.0000 0.0000 0.0000 5.3834 0.0000 0.0000
# 5 0.0000 0.0000 0.0000 0.0000 11.1174 0.0000
# 6 0.0000 0.0000 0.0000 0.0000 0.0000 17.5976
#
#
#
# Elastic Compliance Matrix: (Units=1/GPa)
#
#
# Indices 1 2 3 4 5 6 
#
# 1 0.190950 0.009348 -0.044587 0.000000 0.000000 0.000000
# 2 0.009348 0.042877 -0.004691 0.000000 0.000000 0.000000
# 3 -0.044587 -0.004691 0.016909 0.000000 0.000000 0.000000
# 4 0.000000 0.000000 0.000000 0.185758 0.000000 0.000000
# 5 0.000000 0.000000 0.000000 0.000000 0.089949 0.000000
# 6 0.000000 0.000000 0.000000 0.000000 0.000000 0.056826
#
#
# Mechanical properties :
#
#
# Convention : Reuss Voigt Hill
#
# Bulk Modulus (GPa) = 5.85211 32.05665 18.95438
# Shear Modulus (GPa) = 6.94359 16.72976 11.83667
#
# Velocity S-wave (km/s) = 1.87692 2.91339 2.45058
# Velocity P-wave (km/s) = 2.76878 5.25176 4.19805
#
# Compressibility (1/GPa) = 0.17087845
#
# Stress axis : x y z
#
# Youngs Moduli (GPa) = 5.23696 23.32231 59.13933
#
# Poissons Ratio (x) = -0.21802 2.63682
# Poissons Ratio (y) = -0.04896 0.27742
# Poissons Ratio (z) = 0.23350 0.10940
#
# Static dielectric constant tensor:
#      x y z
#    x 1.671870 0.000000 0.000000 
#    y 0.000000 1.846330 0.000000 
#    z 0.000000 0.000000 1.682460 
# 
# From -- ./inp_files/14229.got.cif
#   From: 2010.05.17/outbox.ucp.g08.bks.cvg/sg46_8_cif.got.tgz:14229.got - 2010.06.11 16:34:52.
