data_PCOD9381677
_publ_section_title
;
Structure prediction by ZEFSAII (Michael W. Deem and Ramdas Pophale) SiO2 
 PCOD9381677
Probable space group: P M M M
;
_chemical_formula_sum "Si O2"
_cell_formula_units_Z 52
_cell_length_a 8.217231
_cell_length_b 17.307895
_cell_length_c 19.180122
_cell_angle_alpha 90.000000
_cell_angle_beta 90.000000
_cell_angle_gamma 90.000000
_cell_volume 2727.853941
_symmetry_space_group_name_H-M "P M M M"
_symmetry_group_IT_number 47
_symmetry_cell_setting 'orthorhombic'
loop_
_space_group_symop_operation_xyz
x,y,z
-x,-y,z
x,-y,-z
-x,y,-z
-x,-y,-z
x,y,-z
-x,y,z
x,-y,z
loop_
_atom_site_type_symbol
_atom_site_label
_atom_site_fract_x
_atom_site_fract_y
_atom_site_fract_z
Si Si1 0.500000 0.590094 0.583425
Si Si2 0.311553 0.832699 0.685496
Si Si3 0.806634 0.587901 0.801158
Si Si4 0.811588 0.669767 0.346086
Si Si5 0.309162 0.306790 0.920876
Si Si6 0.188131 0.159791 0.841959
Si Si7 0.807136 0.000000 0.311825
Si Si8 0.306274 0.000000 0.849647
O O1 0.500000 0.500000 0.605906
O O2 0.500000 0.592628 0.500000
O O3 0.334208 0.630908 0.610353
O O4 0.500000 0.818710 0.670367
O O5 0.209110 0.762307 0.654036
O O6 0.286045 0.831031 0.769565
O O7 0.262376 0.918666 0.661006
O O8 0.756185 0.500000 0.786528
O O9 0.781774 0.640444 0.733126
O O10 0.720211 0.623193 0.868084
O O11 0.000000 0.588599 0.814938
O O12 0.000000 0.649075 0.364487
O O13 0.500000 0.287222 0.920444
O O14 0.215122 0.233502 0.889927
O O15 0.259685 0.324357 0.000000
O O16 0.243094 0.080794 0.879370
O O17 0.000000 0.153036 0.821735
O O18 0.760796 0.000000 0.229728
O O19 0.500000 0.000000 0.151718
O O20 0.000000 0.000000 0.680908
#
# Coordination Sequence:
#
# PCOD9381677 Si02
#       8
#     4   8   8   8   8   8   4   4
#     4  11  26  46  68  99 134 170 210 250 304 372
#     4  11  19  32  54  86 124 162 204 253 307 362
#     4  10  22  39  60  86 113 146 194 248 303 360
#     4  11  22  40  65  97 130 166 209 257 307 362
#     4  11  24  39  54  76 108 148 193 243 304 367
#     4  11  20  33  52  77 108 146 193 246 301 359
#     4  10  18  28  46  81 123 161 199 249 308 359
#     4  10  18  30  49  73 104 144 187 238 299 357
#
# _framework density 19.062605999999999
#
# number of rings (size 3 to 8) (size 9 to 14) (size 15 to 20)
#    0.000    1.308    2.308    6.923    1.077    3.077 
#    0.000    2.692    0.000    2.308    0.000    1.077 
#    0.000    1.846    0.000    0.000    0.000    0.000 
#
# Total GULP energy -290355.419552 kJ/mol
# GULP energy per Si atom -5583.758068 kJ/mol
# Density = 1.901922 g / cm^3
# Si number density = 19.062606 Si / 1000 Ang^3
#
#
#
# Elastic Constant Matrix: (Units=GPa)
#
#
# Indices 1 2 3 4 5 6 
#
# 1 88.6212 34.3812 17.7148 0.0000 0.0000 0.0000
# 2 34.3812 91.5759 33.5757 0.0000 0.0000 0.0000
# 3 17.7148 33.5757 28.0302 0.0000 0.0000 0.0000
# 4 0.0000 0.0000 0.0000 15.7909 0.0000 0.0000
# 5 0.0000 0.0000 0.0000 0.0000 132.3685 0.0000
# 6 0.0000 0.0000 0.0000 0.0000 0.0000 32.5743
#
#
#
# Elastic Compliance Matrix: (Units=1/GPa)
#
#
# Indices 1 2 3 4 5 6 
#
# 1 0.013504 -0.003461 -0.004389 0.000000 0.000000 0.000000
# 2 -0.003461 0.020358 -0.022199 0.000000 0.000000 0.000000
# 3 -0.004389 -0.022199 0.065040 0.000000 0.000000 0.000000
# 4 0.000000 0.000000 0.000000 0.063327 0.000000 0.000000
# 5 0.000000 0.000000 0.000000 0.000000 0.007555 0.000000
# 6 0.000000 0.000000 0.000000 0.000000 0.000000 0.030699
#
#
# Mechanical properties :
#
#
# Convention : Reuss Voigt Hill
#
# Bulk Modulus (GPa) = 25.76960 42.17450 33.97205
# Shear Modulus (GPa) = 18.28054 44.31713 31.29883
#
# Velocity S-wave (km/s) = 3.10009 4.82687 4.05643
# Velocity P-wave (km/s) = 5.13438 7.29638 6.30868
#
# Compressibility (1/GPa) = 0.03880541
#
# Stress axis : x y z
#
# Youngs Moduli (GPa) = 74.05266 49.12029 15.37517
#
# Poissons Ratio (x) = 0.16999 0.06748
# Poissons Ratio (y) = 0.25628 0.34131
# Poissons Ratio (z) = 0.32501 1.09041
#
# Static dielectric constant tensor:
#      x y z
#    x 1.666000 0.000000 0.000000 
#    y 0.000000 1.698720 0.000000 
#    z 0.000000 0.000000 1.717260 
# 
# From -- ./inp_files/26831.got.cif
#   From: 2010.05.17/outbox.cif.g08.bks.cpg/sg47_14_cif.got.tgz:26831.got - 2010.06.03 20:15:42.
