data_PCOD9381065
_publ_section_title
;
Structure prediction by ZEFSAII (Michael W. Deem and Ramdas Pophale) SiO2 
 PCOD9381065
Probable space group: I M A 2
;
_chemical_formula_sum "Si O2"
_cell_formula_units_Z 56
_cell_length_a 7.368624
_cell_length_b 24.705984
_cell_length_c 14.378683
_cell_angle_alpha 90.000000
_cell_angle_beta 90.000000
_cell_angle_gamma 90.000000
_cell_volume 2617.626395
_symmetry_space_group_name_H-M "I M A 2"
_symmetry_group_IT_number 46
_symmetry_cell_setting 'orthorhombic'
loop_
_space_group_symop_operation_xyz
x,y,z
-x,-y,z
1/2-x,y,z
1/2+x,-y,z
1/2+x,1/2+y,1/2+z
1/2-x,1/2-y,1/2+z
-x,1/2+y,1/2+z
x,1/2-y,1/2+z
loop_
_atom_site_type_symbol
_atom_site_label
_atom_site_fract_x
_atom_site_fract_y
_atom_site_fract_z
Si Si1 0.529191 0.227256 0.964450
Si Si2 0.466647 0.937640 0.254220
Si Si3 0.034192 0.561870 0.388415
Si Si4 0.527967 0.166976 0.570947
Si Si5 0.971498 0.120043 0.072213
Si Si6 0.971508 0.167305 0.781317
Si Si7 0.033241 0.561821 0.964833
O O1 0.750000 0.227547 0.963309
O O2 0.471622 0.209589 0.861065
O O3 0.470081 0.285063 0.002271
O O4 0.475386 0.179111 0.034989
O O5 0.250000 0.929968 0.259068
O O6 0.535540 0.898384 0.173367
O O7 0.537667 0.930774 0.359213
O O8 0.500000 0.000000 0.226879
O O9 0.250000 0.568459 0.391291
O O10 0.969421 0.577922 0.491874
O O11 0.969508 0.607911 0.317281
O O12 0.000000 0.500000 0.363897
O O13 0.750000 0.167101 0.571779
O O14 0.469009 0.177527 0.676522
O O15 0.467642 0.108700 0.532980
O O16 0.750000 0.119554 0.074754
O O17 0.750000 0.168064 0.780414
O O18 0.250000 0.567736 0.960060
O O19 0.000000 0.500000 0.994254
#
# Coordination Sequence:
#
# PCOD9381065 Si02
#       7
#     8   8   8   8   8   8   8
#     4   8  14  24  38  58  83 108 134 167 209 250
#     4   9  16  26  40  59  84 111 139 171 205 242
#     4   9  16  26  40  59  84 112 140 169 204 244
#     4   9  16  26  41  60  82 108 137 169 205 245
#     4   8  14  24  38  58  84 110 135 169 211 247
#     4   8  15  26  38  56  83 109 134 170 210 243
#     4   9  18  30  43  62  86 110 138 171 204 241
#
# _framework density 21.393426999999999
#
# number of rings (size 3 to 8) (size 9 to 14) (size 15 to 20)
#    0.000    3.429    0.000    2.143    0.000    1.714 
#    0.000    5.714    0.000    0.000    0.000    5.000 
#    0.000    0.000    0.000    0.000    0.000    0.000 
#
# Total GULP energy -156186.815711 kJ/mol
# GULP energy per Si atom -5578.100561 kJ/mol
# Density = 2.134473 g / cm^3
# Si number density = 21.393427 Si / 1000 Ang^3
#
#
#
# Elastic Constant Matrix: (Units=GPa)
#
#
# Indices 1 2 3 4 5 6 
#
# 1 75.6996 -1.3092 5.2037 0.0000 0.0000 0.0000
# 2 -1.3092 156.4654 114.3086 0.0001 0.0000 0.0000
# 3 5.2037 114.3086 156.0347 0.0001 0.0000 0.0000
# 4 0.0000 0.0001 0.0001 2.5333 0.0000 0.0000
# 5 0.0000 0.0000 0.0000 0.0000 -5.8006 0.0000
# 6 0.0000 0.0000 0.0000 0.0000 0.0000 12.9280
#
#
#
# Elastic Compliance Matrix: (Units=1/GPa)
#
#
# Indices 1 2 3 4 5 6 
#
# 1 0.013304 0.000937 -0.001130 0.000000 0.000000 0.000000
# 2 0.000937 0.013816 -0.010153 0.000000 0.000000 0.000000
# 3 -0.001130 -0.010153 0.013884 0.000000 0.000000 0.000000
# 4 0.000000 0.000000 0.000000 0.394745 -0.000001 0.000000
# 5 0.000000 0.000000 0.000000 -0.000001 -0.172397 0.000000
# 6 0.000000 0.000000 0.000000 0.000000 0.000000 0.077352
#
#
# Mechanical properties :
#
#
# Convention : Reuss Voigt Hill
#
# Bulk Modulus (GPa) = 49.23042 69.40066 59.31554
# Shear Modulus (GPa) = 13.58079 19.93191 16.75635
#
# Velocity S-wave (km/s) = 2.52228 3.05566 2.80169
# Velocity P-wave (km/s) = 5.61644 6.70522 6.18484
#
# Compressibility (1/GPa) = 0.02031265
#
# Stress axis : x y z
#
# Youngs Moduli (GPa) = 75.16541 72.37737 72.02309
#
# Poissons Ratio (x) = -0.06781 0.08139
# Poissons Ratio (y) = -0.07042 0.73125
# Poissons Ratio (z) = 0.08494 0.73485
#
# Static dielectric constant tensor:
#      x y z
#    x 1.853850 0.000000 0.000000 
#    y 0.000000 1.749550 0.000000 
#    z 0.000000 0.000000 1.758210 
# 
# From -- ./inp_files/10497.got.cif
#   From: 2010.05.17/outbox.cif.g08.bks.cpg/sg46_6_cif.got.tgz:10497.got - 2010.06.03 19:58:25.
