data_PCOD9381870
_publ_section_title
;
Structure prediction by ZEFSAII (Michael W. Deem and Ramdas Pophale) SiO2 
 PCOD9381870
Probable space group: P M M M
;
_chemical_formula_sum "Si O2"
_cell_formula_units_Z 52
_cell_length_a 21.829918
_cell_length_b 14.497172
_cell_length_c 7.398920
_cell_angle_alpha 90.000000
_cell_angle_beta 90.000000
_cell_angle_gamma 90.000000
_cell_volume 2341.551572
_symmetry_space_group_name_H-M "P M M M"
_symmetry_group_IT_number 47
_symmetry_cell_setting 'orthorhombic'
loop_
_space_group_symop_operation_xyz
x,y,z
-x,-y,z
x,-y,-z
-x,y,-z
-x,-y,-z
x,y,-z
-x,y,z
x,-y,z
loop_
_atom_site_type_symbol
_atom_site_label
_atom_site_fract_x
_atom_site_fract_y
_atom_site_fract_z
Si Si1 0.879429 0.605158 0.718566
Si Si2 0.258222 0.607337 0.719185
Si Si3 0.812690 0.891277 0.781804
Si Si4 0.500000 0.392705 0.721425
Si Si5 0.066209 0.206231 0.210442
Si Si6 0.621974 0.291196 0.287137
Si Si7 0.676454 0.104918 0.217508
O O1 0.879819 0.604938 0.500000
O O2 0.891996 0.500000 0.776215
O O3 0.810399 0.631570 0.780282
O O4 0.925078 0.683852 0.780476
O O5 0.256656 0.613803 0.500000
O O6 0.268559 0.500000 0.763317
O O7 0.314828 0.666700 0.788426
O O8 0.871798 0.837558 0.710628
O O9 0.744539 0.864977 0.716607
O O10 0.819749 0.000000 0.745420
O O11 0.811404 0.879693 0.000000
O O12 0.500000 0.500000 0.774379
O O13 0.500000 0.391152 0.500000
O O14 0.439014 0.339600 0.783789
O O15 0.000000 0.180324 0.288806
O O16 0.064985 0.178401 0.000000
O O17 0.622656 0.312452 0.500000
O O18 0.627056 0.181463 0.267345
O O19 0.665011 0.000000 0.279329
O O20 0.679059 0.101894 0.000000
#
# Coordination Sequence:
#
# PCOD9381870 Si02
#       7
#     8   8   8   4   8   8   8
#     4   9  18  32  48  65  87 119 158 195 232 277
#     4   8  14  26  46  71  94 116 149 194 238 278
#     4   8  15  30  51  72  94 121 153 190 234 285
#     4   9  18  32  50  75 106 136 163 189 226 281
#     4  10  20  31  45  68  94 119 150 190 235 280
#     4  10  18  29  50  76  99 126 159 195 233 272
#     4   9  18  33  52  72  95 125 159 195 238 283
#
# _framework density 22.207498000000001
#
# number of rings (size 3 to 8) (size 9 to 14) (size 15 to 20)
#    0.000    3.000    0.000    3.231    0.000    3.385 
#    0.000    3.846    0.000    6.923    0.000    1.077 
#    0.000    0.000    0.000    0.000    0.000    0.000 
#
# Total GULP energy -290274.498885 kJ/mol
# GULP energy per Si atom -5582.201902 kJ/mol
# Density = 2.215695 g / cm^3
# Si number density = 22.207498 Si / 1000 Ang^3
#
#
#
# Elastic Constant Matrix: (Units=GPa)
#
#
# Indices 1 2 3 4 5 6 
#
# 1 111.5744 82.0182 1.2165 0.0000 0.0000 0.0000
# 2 82.0182 91.9136 -8.3720 0.0000 0.0000 0.0000
# 3 1.2165 -8.3720 74.5397 0.0000 0.0000 0.0000
# 4 0.0000 0.0000 0.0000 14.6463 0.0000 0.0000
# 5 0.0000 0.0000 0.0000 0.0000 -7.3332 0.0000
# 6 0.0000 0.0000 0.0000 0.0000 0.0000 19.8461
#
#
#
# Elastic Compliance Matrix: (Units=1/GPa)
#
#
# Indices 1 2 3 4 5 6 
#
# 1 0.026764 -0.024170 -0.003151 0.000000 0.000000 0.000000
# 2 -0.024170 0.032819 0.004081 0.000000 0.000000 0.000000
# 3 -0.003151 0.004081 0.013925 0.000000 0.000000 0.000000
# 4 0.000000 0.000000 0.000000 0.068277 0.000000 0.000000
# 5 0.000000 0.000000 0.000000 0.000000 -0.136366 0.000000
# 6 0.000000 0.000000 0.000000 0.000000 0.000000 0.050388
#
#
# Mechanical properties :
#
#
# Convention : Reuss Voigt Hill
#
# Bulk Modulus (GPa) = 36.99952 47.52810 42.26381
# Shear Modulus (GPa) = 44.92444 18.97617 31.95031
#
# Velocity S-wave (km/s) = 4.50259 2.92634 3.79716
# Velocity P-wave (km/s) = 6.61272 5.73291 6.18847
#
# Compressibility (1/GPa) = 0.02702738
#
# Stress axis : x y z
#
# Youngs Moduli (GPa) = 37.36341 30.47005 71.81119
#
# Poissons Ratio (x) = 0.73645 0.22631
# Poissons Ratio (y) = 0.90307 -0.29303
# Poissons Ratio (z) = 0.11775 -0.12434
#
# Static dielectric constant tensor:
#      x y z
#    x 1.818180 0.000000 0.000000 
#    y 0.000000 1.793300 0.000000 
#    z 0.000000 0.000000 1.888030 
# 
# From -- ./inp_files/11078.got.cif
#   From: 2010.05.17/outbox.cif.g08.bks.cpg/sg47_6_cif.got.tgz:11078.got - 2010.06.03 20:15:42.
