data_PCOD9381916
_publ_section_title
;
Structure prediction by ZEFSAII (Michael W. Deem and Ramdas Pophale) SiO2 
 PCOD9381916
Probable space group: P M M M
;
_chemical_formula_sum "Si O2"
_cell_formula_units_Z 64
_cell_length_a 20.748214
_cell_length_b 20.521277
_cell_length_c 7.834422
_cell_angle_alpha 90.000000
_cell_angle_beta 90.000000
_cell_angle_gamma 90.000000
_cell_volume 3335.738999
_symmetry_space_group_name_H-M "P M M M"
_symmetry_group_IT_number 47
_symmetry_cell_setting 'orthorhombic'
loop_
_space_group_symop_operation_xyz
x,y,z
-x,-y,z
x,-y,-z
-x,y,-z
-x,-y,-z
x,y,-z
-x,y,z
x,-y,z
loop_
_atom_site_type_symbol
_atom_site_label
_atom_site_fract_x
_atom_site_fract_y
_atom_site_fract_z
Si Si1 0.399195 0.748685 0.804659
Si Si2 0.738126 0.787147 0.693700
Si Si3 0.288145 0.070656 0.793391
Si Si4 0.569170 0.893745 0.791713
Si Si5 0.074633 0.426623 0.791544
Si Si6 0.180882 0.672956 0.801230
Si Si7 0.569886 0.607162 0.302309
Si Si8 0.710038 0.572490 0.293056
O O1 0.322007 0.759512 0.801251
O O2 0.426841 0.817572 0.743641
O O3 0.420871 0.685244 0.704608
O O4 0.419640 0.738836 0.000000
O O5 0.716125 0.780121 0.500000
O O6 0.746115 0.863488 0.732731
O O7 0.799872 0.741810 0.720625
O O8 0.363253 0.075616 0.736599
O O9 0.262375 0.000000 0.739206
O O10 0.287939 0.072619 0.000000
O O11 0.500000 0.920616 0.735192
O O12 0.569869 0.896825 0.000000
O O13 0.093622 0.500000 0.736398
O O14 0.121930 0.369913 0.729534
O O15 0.000000 0.416418 0.744429
O O16 0.077644 0.426635 0.000000
O O17 0.243140 0.626590 0.780708
O O18 0.168520 0.684849 0.000000
O O19 0.568383 0.586143 0.500000
O O20 0.500000 0.590357 0.226223
O O21 0.636581 0.579949 0.229225
O O22 0.709532 0.580267 0.500000
O O23 0.733589 0.500000 0.252439
#
# Coordination Sequence:
#
# PCOD9381916 Si02
#       8
#     8   8   8   8   8   8   8   8
#     4  10  18  30  47  67  89 117 156 205 257 305
#     4  11  21  33  50  71  98 130 166 208 253 302
#     4   9  18  32  49  70  97 127 161 205 255 307
#     4   8  14  24  40  64  90 114 144 185 239 302
#     4   8  15  29  50  79 114 146 173 203 244 294
#     4  11  20  32  54  80 103 132 171 213 249 288
#     4  10  20  32  46  64  88 121 160 204 259 318
#     4  10  21  35  49  67  95 130 165 205 255 309
#
# _framework density 19.186153000000001
#
# number of rings (size 3 to 8) (size 9 to 14) (size 15 to 20)
#    0.000    2.375    1.250    3.750    0.000    2.250 
#    0.000    2.500    0.000    4.875    0.000    9.625 
#    0.000    0.500    0.000    5.750    0.000    1.625 
#
# Total GULP energy -357106.742739 kJ/mol
# GULP energy per Si atom -5579.792855 kJ/mol
# Density = 1.914248 g / cm^3
# Si number density = 19.186153 Si / 1000 Ang^3
#
#
#
# Elastic Constant Matrix: (Units=GPa)
#
#
# Indices 1 2 3 4 5 6 
#
# 1 81.6169 49.1898 0.3839 0.0000 0.0000 0.0000
# 2 49.1898 126.7678 7.6459 0.0000 0.0000 0.0000
# 3 0.3839 7.6459 33.2929 0.0000 0.0000 0.0000
# 4 0.0000 0.0000 0.0000 19.4441 0.0000 0.0000
# 5 0.0000 0.0000 0.0000 0.0000 10.5197 0.0000
# 6 0.0000 0.0000 0.0000 0.0000 0.0000 54.5095
#
#
#
# Elastic Compliance Matrix: (Units=1/GPa)
#
#
# Indices 1 2 3 4 5 6 
#
# 1 0.016045 -0.006302 0.001262 0.000000 0.000000 0.000000
# 2 -0.006302 0.010474 -0.002333 0.000000 0.000000 0.000000
# 3 0.001262 -0.002333 0.030558 0.000000 0.000000 0.000000
# 4 0.000000 0.000000 0.000000 0.051429 0.000000 0.000000
# 5 0.000000 0.000000 0.000000 0.000000 0.095060 0.000000
# 6 0.000000 0.000000 0.000000 0.000000 0.000000 0.018345
#
#
# Mechanical properties :
#
#
# Convention : Reuss Voigt Hill
#
# Bulk Modulus (GPa) = 23.62301 39.56853 31.59577
# Shear Modulus (GPa) = 19.93887 29.19189 24.56538
#
# Velocity S-wave (km/s) = 3.22721 3.90488 3.58211
# Velocity P-wave (km/s) = 5.12111 6.40305 5.79762
#
# Compressibility (1/GPa) = 0.04233162
#
# Stress axis : x y z
#
# Youngs Moduli (GPa) = 62.32660 95.47030 32.72509
#
# Poissons Ratio (x) = 0.60164 -0.04131
# Poissons Ratio (y) = 0.39278 0.07634
# Poissons Ratio (z) = -0.07867 0.22272
#
# Static dielectric constant tensor:
#      x y z
#    x 1.673940 0.000000 0.000000 
#    y 0.000000 1.686310 0.000000 
#    z 0.000000 0.000000 1.702800 
# 
# From -- ./inp_files/11842.got.cif
#   From: 2010.05.17/outbox.cif.g08.bks.cpg/sg47_6_cif.got.tgz:11842.got - 2010.06.03 20:15:42.
