data_PCOD9381445
_publ_section_title
;
Structure prediction by ZEFSAII (Michael W. Deem and Ramdas Pophale) SiO2 
 PCOD9381445
Probable space group: P M M M
;
_chemical_formula_sum "Si O2"
_cell_formula_units_Z 37
_cell_length_a 8.775195
_cell_length_b 15.696276
_cell_length_c 14.844247
_cell_angle_alpha 90.000000
_cell_angle_beta 90.000000
_cell_angle_gamma 90.000000
_cell_volume 2044.615152
_symmetry_space_group_name_H-M "P M M M"
_symmetry_group_IT_number 47
_symmetry_cell_setting 'orthorhombic'
loop_
_space_group_symop_operation_xyz
x,y,z
-x,-y,z
x,-y,-z
-x,y,-z
-x,-y,-z
x,y,-z
-x,y,z
x,-y,z
loop_
_atom_site_type_symbol
_atom_site_label
_atom_site_fract_x
_atom_site_fract_y
_atom_site_fract_z
Si Si1 0.331985 0.681201 0.000000
Si Si2 0.815819 0.162636 0.500000
Si Si3 0.500000 0.500000 0.000000
Si Si4 0.814138 0.096134 0.696894
Si Si5 0.319937 0.351500 0.500000
Si Si6 0.818095 0.407356 0.683347
Si Si7 0.816002 0.744098 0.184248
O O1 0.247621 0.715643 0.088362
O O2 0.500000 0.721030 0.000000
O O3 0.368107 0.578671 0.000000
O O4 0.766824 0.119778 0.594355
O O5 0.758591 0.259097 0.500000
O O6 0.000000 0.162209 0.500000
O O7 0.765369 0.167106 0.769582
O O8 0.000000 0.097816 0.696331
O O9 0.765844 0.000000 0.718517
O O10 0.500000 0.341999 0.500000
O O11 0.264635 0.399325 0.411268
O O12 0.787437 0.500000 0.724866
O O13 0.770517 0.330426 0.746566
O O14 0.000000 0.400200 0.668102
O O15 0.000000 0.746146 0.179230
#
# Coordination Sequence:
#
# PCOD9381445 Si02
#       7
#     4   4   1   8   4   8   8
#     4  10  23  41  60  82 116 147 188 226 287 340
#     4  10  17  33  57  81 116 153 192 236 280 329
#     4   8  24  44  62  84 110 154 190 232 288 348
#     4   9  17  31  58  92 118 145 187 238 286 331
#     4  12  23  34  49  77 114 154 194 228 276 335
#     4  10  21  36  56  79 108 146 189 234 285 339
#     4  10  20  37  61  88 114 143 186 239 289 341
#
# _framework density 18.096315000000001
#
# number of rings (size 3 to 8) (size 9 to 14) (size 15 to 20)
#    0.324    1.730    2.162    1.946    1.514    3.892 
#    0.000    1.081    0.000    6.486    0.000    0.000 
#    0.000    0.000    0.000    0.000    0.000    0.000 
#
# Total GULP energy -205995.676545 kJ/mol
# GULP energy per Si atom -5567.450717 kJ/mol
# Density = 1.805513 g / cm^3
# Si number density = 18.096315 Si / 1000 Ang^3
#
#
#
# Elastic Constant Matrix: (Units=GPa)
#
#
# Indices 1 2 3 4 5 6 
#
# 1 1.8876 29.0168 28.0317 0.0000 0.0000 0.0000
# 2 29.0168 168.6747 82.9445 0.0000 0.0000 0.0000
# 3 28.0317 82.9445 140.5742 0.0000 0.0000 0.0000
# 4 0.0000 0.0000 0.0000 3.9162 0.0000 0.0000
# 5 0.0000 0.0000 0.0000 0.0000 -122.0807 0.0000
# 6 0.0000 0.0000 0.0000 0.0000 0.0000 10.6886
#
#
#
# Elastic Compliance Matrix: (Units=1/GPa)
#
#
# Indices 1 2 3 4 5 6 
#
# 1 -0.199905 0.020831 0.027572 0.000000 0.000000 0.000000
# 2 0.020831 0.006181 -0.007801 0.000000 0.000000 0.000000
# 3 0.027572 -0.007801 0.006219 0.000000 0.000000 0.000000
# 4 0.000000 0.000000 0.000000 0.255352 0.000000 0.000000
# 5 0.000000 0.000000 0.000000 0.000000 -0.008191 0.000000
# 6 0.000000 0.000000 0.000000 0.000000 0.000000 0.093558
#
#
# Mechanical properties :
#
#
# Convention : Reuss Voigt Hill
#
# Bulk Modulus (GPa) = -9.40717 65.68028 28.13655
# Shear Modulus (GPa) = 136.70255 -10.08563 63.30846
#
# Velocity S-wave (km/s) = 8.70090 -2.36335 5.92116
# Velocity P-wave (km/s) = 9.78423 5.37833 7.89486
#
# Compressibility (1/GPa) = -0.10630184
#
# Stress axis : x y z
#
# Youngs Moduli (GPa) = -5.00238 161.78283 160.80804
#
# Poissons Ratio (x) = -3.37013 -4.43373
# Poissons Ratio (y) = 0.10421 1.25447
# Poissons Ratio (z) = 0.13792 1.26207
#
# Static dielectric constant tensor:
#      x y z
#    x 1.610930 0.000000 0.000000 
#    y 0.000000 1.632170 0.000000 
#    z 0.000000 0.000000 1.626340 
# 
# From -- ./inp_files/20630.got.cif
#   From: 2010.05.17/outbox.cif.g08.bks.cpg/sg47_11_cif.got.tgz:20630.got - 2010.06.03 20:15:42.
