data_PCOD9381105
_publ_section_title
;
Structure prediction by ZEFSAII (Michael W. Deem and Ramdas Pophale) SiO2 
 PCOD9381105
Probable space group: I M A 2
;
_chemical_formula_sum "Si O2"
_cell_formula_units_Z 32
_cell_length_a 9.000000
_cell_length_b 15.000000
_cell_length_c 24.000000
_cell_angle_alpha 90.000000
_cell_angle_beta 90.000000
_cell_angle_gamma 90.000000
_cell_volume 3240.000000
_symmetry_space_group_name_H-M "I M A 2"
_symmetry_group_IT_number 46
_symmetry_cell_setting 'orthorhombic'
loop_
_space_group_symop_operation_xyz
x,y,z
-x,-y,z
1/2-x,y,z
1/2+x,-y,z
1/2+x,1/2+y,1/2+z
1/2-x,1/2-y,1/2+z
-x,1/2+y,1/2+z
x,1/2-y,1/2+z
loop_
_atom_site_type_symbol
_atom_site_label
_atom_site_fract_x
_atom_site_fract_y
_atom_site_fract_z
Si Si1 0.427889 0.092327 0.800630
Si Si2 0.070365 0.238750 0.476400
Si Si3 0.926501 0.662719 0.178033
Si Si4 0.424932 0.411732 0.059387
Si Si5 0.427393 0.594137 0.527829
Si Si6 0.073815 0.650350 0.654100
Si Si7 0.927409 0.912569 0.264127
Si Si8 0.069907 0.229276 0.354022
O O1 0.250000 0.085640 0.803198
O O2 0.465285 0.119706 0.737012
O O3 0.478429 0.170748 0.841169
O O4 0.500000 0.000000 0.815271
O O5 0.250000 0.248196 0.478440
O O6 0.020934 0.173944 0.525893
O O7 0.027719 0.201068 0.415936
O O8 0.995397 0.332651 0.487279
O O9 0.750000 0.687903 0.180182
O O10 0.948222 0.599353 0.125209
O O11 0.024074 0.748605 0.164885
O O12 0.500000 0.500000 0.037950
O O13 0.250000 0.417487 0.050005
O O14 0.500000 0.500000 0.515799
O O15 0.250000 0.591064 0.523739
O O16 0.466421 0.621062 0.591712
O O17 0.250000 0.639003 0.661261
O O18 0.986703 0.598114 0.701809
O O19 0.750000 0.917252 0.263605
O O20 0.978112 0.831038 0.302611
O O21 0.000000 0.000000 0.289293
O O22 0.250000 0.228163 0.352193
#
# Coordination Sequence:
#
# PCOD9381105 Si02
#       8
#     8   8   8   8   8   8   8   8
#     4  10  20  36  57  83 114 149 186 230 284 340
#     4  10  21  40  63  85 113 154 200 243 289 342
#     4  10  19  35  58  84 114 152 189 231 292 349
#     4  10  21  35  57  86 116 151 190 233 287 344
#     4  11  24  40  60  88 119 153 192 241 296 351
#     4  11  22  36  59  90 119 151 192 239 294 350
#     4  11  22  39  61  87 121 156 194 239 290 349
#     4   9  20  39  61  83 114 154 194 238 288 339
#
# _framework density 9.8765429999999999
#
# number of rings (size 3 to 8) (size 9 to 14) (size 15 to 20)
#    0.000    1.750    2.500    1.875    0.000    5.000 
#    0.000    3.125    0.000    0.000    0.000    0.000 
#    0.000    0.000    0.000    0.000    0.000    0.000 
#
# Total GULP energy -178575.667985 kJ/mol
# GULP energy per Si atom -5580.489625 kJ/mol
# Density = 0.985406 g / cm^3
# Si number density = 9.876543 Si / 1000 Ang^3
#
#
#
# Elastic Constant Matrix: (Units=GPa)
#
#
# Indices 1 2 3 4 5 6 
#
# 1 7.2015 27.2808 18.8430 0.0000 0.0000 0.0000
# 2 27.2808 83.9971 -5.9761 0.0000 0.0000 0.0000
# 3 18.8430 -5.9761 52.6315 0.0000 0.0000 0.0000
# 4 0.0000 0.0000 0.0000 -18.5546 0.0000 0.0000
# 5 0.0000 0.0000 0.0000 0.0000 13.9793 0.0000
# 6 0.0000 0.0000 0.0000 0.0000 0.0000 31.6658
#
#
#
# Elastic Compliance Matrix: (Units=1/GPa)
#
#
# Indices 1 2 3 4 5 6 
#
# 1 -0.100673 0.035548 0.040079 0.000000 0.000000 0.000000
# 2 0.035548 -0.000550 -0.012789 0.000000 0.000000 0.000000
# 3 0.040079 -0.012789 0.003199 0.000000 0.000000 0.000000
# 4 0.000000 0.000000 0.000000 -0.053895 0.000000 0.000000
# 5 0.000000 0.000000 0.000000 0.000000 0.071535 0.000000
# 6 0.000000 0.000000 0.000000 0.000000 0.000000 0.031580
#
#
# Mechanical properties :
#
#
# Convention : Reuss Voigt Hill
#
# Bulk Modulus (GPa) = 36.16420 24.90283 30.53351
# Shear Modulus (GPa) = -30.25472 12.33025 -8.96224
#
# Velocity S-wave (km/s) = -3.91787 2.50115 -2.13237
# Velocity P-wave (km/s) = 1.45547 4.57989 3.07059
#
# Compressibility (1/GPa) = 0.02765166
#
# Stress axis : x y z
#
# Youngs Moduli (GPa) = -9.93317 -1817.50505 312.61483
#
# Poissons Ratio (x) = 64.60915 -12.52931
# Poissons Ratio (y) = 0.35311 3.99816
# Poissons Ratio (z) = 0.39811 -23.24479
#
# Static dielectric constant tensor:
#      x y z
#    x 1.648720 0.000000 0.000000 
#    y 0.000000 1.707650 0.000000 
#    z 0.000000 0.000000 1.682870 
# 
# From -- ./inp_files/23136.got.cif
#   From: 2010.05.17/outbox.ucp.g08.bks.cvg/sg46_12_cif.got.tgz:23136.got - 2010.06.11 16:34:52.
