data_PCOD9381019
_publ_section_title
;
Structure prediction by ZEFSAII (Michael W. Deem and Ramdas Pophale) SiO2 
 PCOD9381019
Probable space group: I M A 2
;
_chemical_formula_sum "Si O2"
_cell_formula_units_Z 40
_cell_length_a 10.312908
_cell_length_b 10.165913
_cell_length_c 19.772582
_cell_angle_alpha 90.000000
_cell_angle_beta 90.000000
_cell_angle_gamma 90.000000
_cell_volume 2072.959978
_symmetry_space_group_name_H-M "I M A 2"
_symmetry_group_IT_number 46
_symmetry_cell_setting 'orthorhombic'
loop_
_space_group_symop_operation_xyz
x,y,z
-x,-y,z
1/2-x,y,z
1/2+x,-y,z
1/2+x,1/2+y,1/2+z
1/2-x,1/2-y,1/2+z
-x,1/2+y,1/2+z
x,1/2-y,1/2+z
loop_
_atom_site_type_symbol
_atom_site_label
_atom_site_fract_x
_atom_site_fract_y
_atom_site_fract_z
Si Si1 0.750000 0.752592 0.125000
Si Si2 0.987168 0.158028 0.057628
Si Si3 0.250000 0.718876 0.656900
Si Si4 0.750000 0.538702 0.747499
Si Si5 0.000000 0.500000 0.838385
Si Si6 0.594583 0.234607 0.906661
Si Si7 0.250000 0.491333 0.218583
Si Si8 0.500000 0.000000 0.810697
O O1 0.622668 0.781249 0.081404
O O2 0.750000 0.607388 0.155713
O O3 0.750000 0.852918 0.188608
O O4 0.875816 0.200290 0.110016
O O5 0.948978 0.203864 0.982849
O O6 0.000000 0.000000 0.058785
O O7 0.250000 0.604077 0.712371
O O8 0.250000 0.859173 0.692851
O O9 0.620325 0.546881 0.792144
O O10 0.047634 0.622623 0.882724
O O11 0.750000 0.227803 0.902205
O O12 0.535611 0.123864 0.857463
O O13 0.377138 0.468322 0.263756
#
# Coordination Sequence:
#
# PCOD9381019 Si02
#       8
#     4   8   4   4   4   8   4   4
#     4  12  26  42  69 107 135 177 232 287 339 409
#     4  12  24  46  73  97 135 186 237 282 340 414
#     4  12  24  44  73  97 143 187 220 287 349 407
#     4  12  22  44  70 104 144 178 232 280 340 428
#     4  12  26  44  72 106 140 186 230 286 358 410
#     4  12  26  48  73 102 142 185 235 292 347 412
#     4  12  26  44  68 108 146 176 230 284 356 412
#     4  12  24  46  76 100 142 190 228 282 346 420
#
# _framework density 19.29608
#
# number of rings (size 3 to 8) (size 9 to 14) (size 15 to 20)
#    0.000    0.000    6.000    4.800    0.000    3.200 
#    0.000    0.000    0.000    0.000    0.000    0.000 
#    0.000    0.000    0.000    0.000    0.000    0.000 
#
# Total GULP energy -112039.619701 kJ/mol
# GULP energy per Si atom -5601.980985 kJ/mol
# Density = 1.925216 g / cm^3
# Si number density = 19.296080 Si / 1000 Ang^3
#
#
#
# Elastic Constant Matrix: (Units=GPa)
#
#
# Indices 1 2 3 4 5 6 
#
# 1 182.6458 18.6649 67.1877 0.0000 0.0000 0.0000
# 2 18.6649 63.5662 22.9548 0.0000 0.0000 0.0000
# 3 67.1877 22.9548 99.4572 0.0000 0.0000 0.0000
# 4 0.0000 0.0000 0.0000 -13.1633 0.0000 0.0000
# 5 0.0000 0.0000 0.0000 0.0000 74.3002 0.0000
# 6 0.0000 0.0000 0.0000 0.0000 0.0000 37.2179
#
#
#
# Elastic Compliance Matrix: (Units=1/GPa)
#
#
# Indices 1 2 3 4 5 6 
#
# 1 0.007295 -0.000395 -0.004837 0.000000 0.000000 0.000000
# 2 -0.000395 0.017183 -0.003699 0.000000 0.000000 0.000000
# 3 -0.004837 -0.003699 0.014176 0.000000 0.000000 0.000000
# 4 0.000000 0.000000 0.000000 -0.075969 0.000000 0.000000
# 5 0.000000 0.000000 0.000000 0.000000 0.013459 0.000000
# 6 0.000000 0.000000 0.000000 0.000000 0.000000 0.026869
#
#
# Mechanical properties :
#
#
# Convention : Reuss Voigt Hill
#
# Bulk Modulus (GPa) = 48.09531 62.58713 55.34122
# Shear Modulus (GPa) = 179.82445 35.46174 107.64310
#
# Velocity S-wave (km/s) = 9.66408 4.29157 7.47704
# Velocity P-wave (km/s) = 12.22723 7.55396 10.16286
#
# Compressibility (1/GPa) = 0.02079205
#
# Stress axis : x y z
#
# Youngs Moduli (GPa) = 137.08636 58.19551 70.54352
#
# Poissons Ratio (x) = 0.02301 0.34119
# Poissons Ratio (y) = 0.05420 0.26093
# Poissons Ratio (z) = 0.66304 0.21526
#
# Static dielectric constant tensor:
#      x y z
#    x 1.648460 0.000000 0.000000 
#    y 0.000000 1.636300 0.000000 
#    z 0.000000 0.000000 1.638860 
# 
# From -- ./inp_files/18013.got.cif
#   From: 2010.05.17/outbox.cif.g08.bks.cpg/sg46_10_cif.got.tgz:18013.got - 2010.06.03 19:58:25.
