data_PCOD9381220
_publ_section_title
;
Structure prediction by ZEFSAII (Michael W. Deem and Ramdas Pophale) SiO2 
 PCOD9381220
Probable space group: P M M M
;
_chemical_formula_sum "Si O2"
_cell_formula_units_Z 32
_cell_length_a 10.207701
_cell_length_b 8.071321
_cell_length_c 16.449158
_cell_angle_alpha 90.000000
_cell_angle_beta 90.000000
_cell_angle_gamma 90.000000
_cell_volume 1355.240065
_symmetry_space_group_name_H-M "P M M M"
_symmetry_group_IT_number 47
_symmetry_cell_setting 'orthorhombic'
loop_
_space_group_symop_operation_xyz
x,y,z
-x,-y,z
x,-y,-z
-x,y,-z
-x,-y,-z
x,y,-z
-x,y,z
x,-y,z
loop_
_atom_site_type_symbol
_atom_site_label
_atom_site_fract_x
_atom_site_fract_y
_atom_site_fract_z
Si Si1 0.198177 0.188277 0.910223
Si Si2 0.500000 0.794751 0.275427
Si Si3 0.000000 0.681211 0.786985
Si Si4 0.710770 0.797994 0.589098
Si Si5 0.000000 0.811426 0.618619
Si Si6 0.500000 0.740027 0.906033
O O1 0.127201 0.294688 0.842770
O O2 0.355236 0.182106 0.906261
O O3 0.151193 0.000000 0.901844
O O4 0.163255 0.250659 0.000000
O O5 0.375870 0.753558 0.332849
O O6 0.500000 0.693938 0.190853
O O7 0.500000 0.000000 0.259626
O O8 0.000000 0.500000 0.749280
O O9 0.000000 0.812259 0.715810
O O10 0.657500 0.750470 0.500000
O O11 0.860469 0.736955 0.594358
O O12 0.713014 0.000000 0.590932
O O13 0.000000 0.000000 0.588215
O O14 0.500000 0.666427 0.000000
#
# Coordination Sequence:
#
# PCOD9381220 Si02
#       6
#     8   4   4   8   4   4
#     4  10  20  36  59  84 111 147 193 243 291 339
#     4  10  17  25  42  72 112 148 172 210 274 338
#     4  12  25  38  53  78 115 154 193 237 283 338
#     4   9  17  29  48  77 109 138 173 223 283 340
#     4  10  19  33  55  78 103 137 178 226 279 335
#     4  10  20  34  56  88 121 151 188 233 279 332
#
# _framework density 23.612051000000001
#
# number of rings (size 3 to 8) (size 9 to 14) (size 15 to 20)
#    0.000    2.000    0.000    4.875    0.000    9.750 
#    0.000    0.625    0.000    3.750    0.000    0.000 
#    0.000    4.000    0.000    0.000    0.000    0.000 
#
# Total GULP energy -178246.159126 kJ/mol
# GULP energy per Si atom -5570.192473 kJ/mol
# Density = 2.355831 g / cm^3
# Si number density = 23.612051 Si / 1000 Ang^3
#
#
#
# Elastic Constant Matrix: (Units=GPa)
#
#
# Indices 1 2 3 4 5 6 
#
# 1 153.4304 16.2203 51.7312 0.0000 0.0000 0.0000
# 2 16.2203 41.4640 24.5531 0.0000 0.0000 0.0000
# 3 51.7312 24.5531 205.6288 0.0000 0.0000 0.0000
# 4 0.0000 0.0000 0.0000 -35.1689 0.0000 0.0000
# 5 0.0000 0.0000 0.0000 0.0000 57.4187 0.0000
# 6 0.0000 0.0000 0.0000 0.0000 0.0000 -45.6346
#
#
#
# Elastic Compliance Matrix: (Units=1/GPa)
#
#
# Indices 1 2 3 4 5 6 
#
# 1 0.007257 -0.001892 -0.001600 0.000000 0.000000 0.000000
# 2 -0.001892 0.026445 -0.002682 0.000000 0.000000 0.000000
# 3 -0.001600 -0.002682 0.005586 0.000000 0.000000 0.000000
# 4 0.000000 0.000000 0.000000 -0.028434 0.000000 0.000000
# 5 0.000000 0.000000 0.000000 0.000000 0.017416 0.000000
# 6 0.000000 0.000000 0.000000 0.000000 0.000000 -0.021913
#
#
# Mechanical properties :
#
#
# Convention : Reuss Voigt Hill
#
# Bulk Modulus (GPa) = 37.11712 65.05918 51.08815
# Shear Modulus (GPa) = 180.61229 15.85761 98.23495
#
# Velocity S-wave (km/s) = 8.75543 2.59432 6.45709
# Velocity P-wave (km/s) = 10.86112 6.04873 8.79065
#
# Compressibility (1/GPa) = 0.02694175
#
# Stress axis : x y z
#
# Youngs Moduli (GPa) = 137.79832 37.81389 179.02431
#
# Poissons Ratio (x) = 0.07153 0.28641
# Poissons Ratio (y) = 0.26065 0.48012
# Poissons Ratio (z) = 0.22045 0.10141
#
# Static dielectric constant tensor:
#      x y z
#    x 1.887440 0.000000 0.000000 
#    y 0.000000 1.874260 0.000000 
#    z 0.000000 0.000000 1.879160 
# 
# From -- ./inp_files/22368.got.cif
#   From: 2010.05.17/outbox.cif.g08.bks.cpg/sg47_12_cif.got.tgz:22368.got - 2010.06.03 20:15:42.
