data_PCOD9381696
_publ_section_title
;
Structure prediction by ZEFSAII (Michael W. Deem and Ramdas Pophale) SiO2 
 PCOD9381696
Probable space group: P M M M
;
_chemical_formula_sum "Si O2"
_cell_formula_units_Z 48
_cell_length_a 7.541954
_cell_length_b 15.835746
_cell_length_c 18.180690
_cell_angle_alpha 90.000000
_cell_angle_beta 90.000000
_cell_angle_gamma 90.000000
_cell_volume 2171.364675
_symmetry_space_group_name_H-M "P M M M"
_symmetry_group_IT_number 47
_symmetry_cell_setting 'orthorhombic'
loop_
_space_group_symop_operation_xyz
x,y,z
-x,-y,z
x,-y,-z
-x,y,-z
-x,-y,-z
x,y,-z
-x,y,z
x,-y,z
loop_
_atom_site_type_symbol
_atom_site_label
_atom_site_fract_x
_atom_site_fract_y
_atom_site_fract_z
Si Si1 0.798331 0.500000 0.385518
Si Si2 0.208134 0.185508 0.081498
Si Si3 0.217833 0.680843 0.629504
Si Si4 0.784472 0.000000 0.696761
Si Si5 0.291138 0.500000 0.215588
Si Si6 0.216141 0.862914 0.420055
Si Si7 0.789049 0.315633 0.798576
Si Si8 0.702679 0.000000 0.132548
O O1 0.719045 0.591420 0.403081
O O2 0.801822 0.500000 0.295694
O O3 0.000000 0.500000 0.413149
O O4 0.283508 0.245977 0.145288
O O5 0.218180 0.087299 0.103247
O O6 0.000000 0.206960 0.077184
O O7 0.284979 0.197972 0.000000
O O8 0.269659 0.765902 0.588909
O O9 0.277419 0.689436 0.714540
O O10 0.000000 0.676982 0.628978
O O11 0.727871 0.919313 0.648695
O O12 0.716382 0.000000 0.779199
O O13 0.000000 0.000000 0.701587
O O14 0.500000 0.500000 0.229480
O O15 0.242501 0.412242 0.176805
O O16 0.272264 0.895415 0.500000
O O17 0.000000 0.865305 0.419067
O O18 0.000000 0.301993 0.792584
O O19 0.500000 0.000000 0.108941
#
# Coordination Sequence:
#
# PCOD9381696 Si02
#       8
#     4   8   8   4   4   8   8   4
#     4   8  14  26  43  63  91 130 171 209 253 300
#     4  10  21  38  60  83 106 136 175 216 259 312
#     4   8  13  23  41  64  92 126 161 199 246 299
#     4  10  19  33  53  74  97 129 171 214 252 300
#     4  10  18  28  47  76 105 134 173 220 263 302
#     4   9  16  26  44  73 103 127 158 208 267 314
#     4   9  17  32  53  75 102 137 175 215 259 307
#     4  12  25  38  55  80 109 140 173 214 264 314
#
# _framework density 22.105913000000001
#
# number of rings (size 3 to 8) (size 9 to 14) (size 15 to 20)
#    0.000    2.667    0.000    4.000    0.000    5.667 
#    0.000    0.833    0.000    6.000    0.000    0.000 
#    0.000   10.667    0.000    0.000    0.000    0.000 
#
# Total GULP energy -267909.510584 kJ/mol
# GULP energy per Si atom -5581.448137 kJ/mol
# Density = 2.205560 g / cm^3
# Si number density = 22.105913 Si / 1000 Ang^3
#
#
#
# Elastic Constant Matrix: (Units=GPa)
#
#
# Indices 1 2 3 4 5 6 
#
# 1 53.8491 -16.1848 -1.5138 0.0000 0.0000 0.0000
# 2 -16.1848 117.8133 29.1876 0.0000 0.0000 0.0000
# 3 -1.5138 29.1876 87.7973 0.0000 0.0000 0.0000
# 4 0.0000 0.0000 0.0000 -28.1646 0.0000 0.0000
# 5 0.0000 0.0000 0.0000 0.0000 -40.4720 0.0000
# 6 0.0000 0.0000 0.0000 0.0000 0.0000 -60.6537
#
#
#
# Elastic Compliance Matrix: (Units=1/GPa)
#
#
# Indices 1 2 3 4 5 6 
#
# 1 0.019399 0.002814 -0.000601 0.000000 0.000000 0.000000
# 2 0.002814 0.009658 -0.003162 0.000000 0.000000 0.000000
# 3 -0.000601 -0.003162 0.012431 0.000000 0.000000 0.000000
# 4 0.000000 0.000000 0.000000 -0.035506 0.000000 0.000000
# 5 0.000000 0.000000 0.000000 0.000000 -0.024708 0.000000
# 6 0.000000 0.000000 0.000000 0.000000 0.000000 -0.016487
#
#
# Mechanical properties :
#
#
# Convention : Reuss Voigt Hill
#
# Bulk Modulus (GPa) = 25.25926 31.38197 28.32062
# Shear Modulus (GPa) = -248.53459 -9.32667 -128.93063
#
# Velocity S-wave (km/s) = -10.61476 -2.05627 -7.64530
# Velocity P-wave (km/s) = 11.78047 2.93076 8.06815
#
# Compressibility (1/GPa) = 0.03958943
#
# Stress axis : x y z
#
# Youngs Moduli (GPa) = 51.54831 103.54122 80.44556
#
# Poissons Ratio (x) = -0.29136 0.04835
# Poissons Ratio (y) = -0.14505 0.25439
# Poissons Ratio (z) = 0.03098 0.32742
#
# Static dielectric constant tensor:
#      x y z
#    x 1.860460 0.000000 0.000000 
#    y 0.000000 1.825100 0.000000 
#    z 0.000000 0.000000 1.792520 
# 
# From -- ./inp_files/26609.got.cif
#   From: 2010.05.17/outbox.cif.g08.bks.cpg/sg47_14_cif.got.tgz:26609.got - 2010.06.03 20:15:42.
