data_PCOD9381994
_publ_section_title
;
Structure prediction by ZEFSAII (Michael W. Deem and Ramdas Pophale) SiO2 
 PCOD9381994
Probable space group: P M M M
;
_chemical_formula_sum "Si O2"
_cell_formula_units_Z 52
_cell_length_a 28.663313
_cell_length_b 11.858363
_cell_length_c 8.899739
_cell_angle_alpha 90.000000
_cell_angle_beta 90.000000
_cell_angle_gamma 90.000000
_cell_volume 3025.021022
_symmetry_space_group_name_H-M "P M M M"
_symmetry_group_IT_number 47
_symmetry_cell_setting 'orthorhombic'
loop_
_space_group_symop_operation_xyz
x,y,z
-x,-y,z
x,-y,-z
-x,y,-z
-x,-y,-z
x,y,-z
-x,y,z
x,-y,z
loop_
_atom_site_type_symbol
_atom_site_label
_atom_site_fract_x
_atom_site_fract_y
_atom_site_fract_z
Si Si1 0.800301 0.000000 0.823089
Si Si2 0.447375 0.869443 0.316892
Si Si3 0.183716 0.762157 0.678894
Si Si4 0.352957 0.233854 0.323197
Si Si5 0.000000 0.362916 0.673433
Si Si6 0.297000 0.000000 0.328940
Si Si7 0.097243 0.364175 0.823941
Si Si8 0.271287 0.367371 0.821203
O O1 0.819450 0.886740 0.747989
O O2 0.744976 0.000000 0.787495
O O3 0.808716 0.000000 0.000000
O O4 0.445953 0.869950 0.500000
O O5 0.500000 0.837905 0.271773
O O6 0.405635 0.788148 0.267979
O O7 0.439214 0.000000 0.270936
O O8 0.185722 0.767505 0.500000
O O9 0.139597 0.690632 0.734339
O O10 0.230785 0.703195 0.739718
O O11 0.353690 0.265391 0.500000
O O12 0.321086 0.320661 0.233378
O O13 0.327905 0.111658 0.313688
O O14 0.047266 0.328096 0.757279
O O15 0.000000 0.500000 0.674380
O O16 0.000000 0.326445 0.500000
O O17 0.277297 0.000000 0.500000
O O18 0.100234 0.500000 0.811067
O O19 0.100549 0.335617 0.000000
O O20 0.266398 0.500000 0.787239
O O21 0.266413 0.351942 0.000000
#
# Coordination Sequence:
#
# PCOD9381994 Si02
#       8
#     4   8   8   8   4   4   8   8
#     4  12  24  38  56  78 108 145 181 215 261 318
#     4   8  13  23  43  74 107 134 162 203 260 318
#     4  12  24  38  57  81 110 142 179 223 268 318
#     4  10  18  30  52  78 106 136 170 214 263 317
#     4   9  17  31  53  82 113 146 187 231 274 319
#     4  10  18  30  49  78 107 135 171 215 261 312
#     4  10  20  35  56  83 115 149 185 227 275 323
#     4  11  24  39  53  73 103 139 179 221 267 321
#
# _framework density 17.189962999999999
#
# number of rings (size 3 to 8) (size 9 to 14) (size 15 to 20)
#    0.000    1.769    2.308    4.154    0.000    4.923 
#    0.000    0.000    0.000    1.385    0.000    7.538 
#    0.000    0.000    0.000    0.000    0.000    0.000 
#
# Total GULP energy -290296.486464 kJ/mol
# GULP energy per Si atom -5582.624740 kJ/mol
# Density = 1.715084 g / cm^3
# Si number density = 17.189963 Si / 1000 Ang^3
#
#
#
# Elastic Constant Matrix: (Units=GPa)
#
#
# Indices 1 2 3 4 5 6 
#
# 1 120.8680 35.0066 45.5154 0.0000 0.0000 0.0000
# 2 35.0066 69.2100 53.0372 0.0000 0.0000 0.0000
# 3 45.5154 53.0372 101.8828 0.0000 0.0000 0.0000
# 4 0.0000 0.0000 0.0000 23.7839 0.0000 0.0000
# 5 0.0000 0.0000 0.0000 0.0000 156.2943 0.0000
# 6 0.0000 0.0000 0.0000 0.0000 0.0000 17.3204
#
#
#
# Elastic Compliance Matrix: (Units=1/GPa)
#
#
# Indices 1 2 3 4 5 6 
#
# 1 0.010261 -0.002790 -0.003131 0.000000 0.000000 0.000000
# 2 -0.002790 0.024797 -0.011662 0.000000 0.000000 0.000000
# 3 -0.003131 -0.011662 0.017285 0.000000 0.000000 0.000000
# 4 0.000000 0.000000 0.000000 0.042045 0.000000 0.000000
# 5 0.000000 0.000000 0.000000 0.000000 0.006398 0.000000
# 6 0.000000 0.000000 0.000000 0.000000 0.000000 0.057735
#
#
# Mechanical properties :
#
#
# Convention : Reuss Voigt Hill
#
# Bulk Modulus (GPa) = 58.22281 62.11990 60.17136
# Shear Modulus (GPa) = 25.07339 50.03980 37.55660
#
# Velocity S-wave (km/s) = 3.82331 5.40121 4.67925
# Velocity P-wave (km/s) = 7.30986 8.66679 8.01708
#
# Compressibility (1/GPa) = 0.01717540
#
# Stress axis : x y z
#
# Youngs Moduli (GPa) = 97.45798 40.32737 57.85336
#
# Poissons Ratio (x) = 0.11253 0.18116
# Poissons Ratio (y) = 0.27194 0.67469
# Poissons Ratio (z) = 0.30518 0.47030
#
# Static dielectric constant tensor:
#      x y z
#    x 1.585300 0.000000 0.000000 
#    y 0.000000 1.567690 0.000000 
#    z 0.000000 0.000000 1.579100 
# 
# From -- ./inp_files/13292.got.cif
#   From: 2010.05.17/outbox.cif.g08.bks.cpg/sg47_7_cif.got.tgz:13292.got - 2010.06.03 20:15:42.
