data_PCOD9381763
_publ_section_title
;
Structure prediction by ZEFSAII (Michael W. Deem and Ramdas Pophale) SiO2 
 PCOD9381763
Probable space group: P M M M
;
_chemical_formula_sum "Si O2"
_cell_formula_units_Z 40
_cell_length_a 9.332304
_cell_length_b 12.962412
_cell_length_c 22.795573
_cell_angle_alpha 90.000000
_cell_angle_beta 90.000000
_cell_angle_gamma 90.000000
_cell_volume 2757.561531
_symmetry_space_group_name_H-M "P M M M"
_symmetry_group_IT_number 47
_symmetry_cell_setting 'orthorhombic'
loop_
_space_group_symop_operation_xyz
x,y,z
-x,-y,z
x,-y,-z
-x,y,-z
-x,-y,-z
x,y,-z
-x,y,z
x,-y,z
loop_
_atom_site_type_symbol
_atom_site_label
_atom_site_fract_x
_atom_site_fract_y
_atom_site_fract_z
Si Si1 0.827182 0.795988 0.861085
Si Si2 0.665017 0.874432 0.383770
Si Si3 0.165400 0.125812 0.500000
Si Si4 0.825755 0.000000 0.932685
Si Si5 0.170146 0.122870 0.733774
Si Si6 0.671640 0.379426 0.068051
O O1 0.791578 0.817530 0.793183
O O2 0.753374 0.696681 0.888810
O O3 0.000000 0.787489 0.865222
O O4 0.782277 0.896966 0.898347
O O5 0.500000 0.841294 0.386138
O O6 0.752380 0.840888 0.441225
O O7 0.741738 0.844161 0.323310
O O8 0.666101 0.000000 0.384449
O O9 0.000000 0.158300 0.500000
O O10 0.166112 0.000000 0.500000
O O11 0.000000 0.000000 0.932940
O O12 0.776748 0.000000 0.000000
O O13 0.000000 0.135129 0.722861
O O14 0.193934 0.000000 0.743745
O O15 0.500000 0.367279 0.073821
O O16 0.705054 0.500000 0.078483
O O17 0.709011 0.355992 0.000000
#
# Coordination Sequence:
#
# PCOD9381763 Si02
#       6
#     8   8   4   4   8   8
#     4  10  18  29  46  67  87 111 143 179 215 258
#     4   9  16  24  35  52  75 104 141 180 212 243
#     4   9  15  23  35  51  71 101 140 179 218 251
#     4   9  16  26  41  63  89 112 135 170 217 259
#     4   9  16  27  40  56  82 113 142 170 208 257
#     4   9  19  35  50  63  83 111 141 177 224 271
#
# _framework density 14.505570000000001
#
# number of rings (size 3 to 8) (size 9 to 14) (size 15 to 20)
#    0.000    2.800    1.000    2.100    0.000    6.000 
#    0.000    1.500    0.000    1.800    0.000    0.000 
#    0.000    0.000    0.000    0.900    0.000   16.900 
#
# Total GULP energy -222854.401062 kJ/mol
# GULP energy per Si atom -5571.360027 kJ/mol
# Density = 1.447255 g / cm^3
# Si number density = 14.505570 Si / 1000 Ang^3
#
#
#
# Elastic Constant Matrix: (Units=GPa)
#
#
# Indices 1 2 3 4 5 6 
#
# 1 69.5727 35.1045 81.6807 0.0000 0.0000 0.0000
# 2 35.1045 48.3067 56.0154 0.0000 0.0000 0.0000
# 3 81.6807 56.0154 165.9675 0.0000 0.0000 0.0000
# 4 0.0000 0.0000 0.0000 12.2806 0.0000 0.0000
# 5 0.0000 0.0000 0.0000 0.0000 23.4274 0.0000
# 6 0.0000 0.0000 0.0000 0.0000 0.0000 17.2163
#
#
#
# Elastic Compliance Matrix: (Units=1/GPa)
#
#
# Indices 1 2 3 4 5 6 
#
# 1 0.036441 -0.009341 -0.014782 0.000000 0.000000 0.000000
# 2 -0.009341 0.036407 -0.007690 0.000000 0.000000 0.000000
# 3 -0.014782 -0.007690 0.015896 0.000000 0.000000 0.000000
# 4 0.000000 0.000000 0.000000 0.081429 0.000000 0.000000
# 5 0.000000 0.000000 0.000000 0.000000 0.042685 0.000000
# 6 0.000000 0.000000 0.000000 0.000000 0.000000 0.058084
#
#
# Mechanical properties :
#
#
# Convention : Reuss Voigt Hill
#
# Bulk Modulus (GPa) = 39.81365 69.93868 54.87616
# Shear Modulus (GPa) = 14.57978 17.98795 16.28387
#
# Velocity S-wave (km/s) = 3.17380 3.52529 3.35415
# Velocity P-wave (km/s) = 6.39823 8.05543 7.27418
#
# Compressibility (1/GPa) = 0.02511702
#
# Stress axis : x y z
#
# Youngs Moduli (GPa) = 27.44167 27.46735 62.91052
#
# Poissons Ratio (x) = 0.25658 0.92992
# Poissons Ratio (y) = 0.25634 0.48380
# Poissons Ratio (z) = 0.40563 0.21123
#
# Static dielectric constant tensor:
#      x y z
#    x 1.482480 0.000000 0.000000 
#    y 0.000000 1.445480 0.000000 
#    z 0.000000 0.000000 1.477210 
# 
# From -- ./inp_files/10651.got.cif
#   From: 2010.05.17/outbox.cif.g08.bks.cpg/sg47_6_cif.got.tgz:10651.got - 2010.06.03 20:15:42.
