data_PCOD9381313
_publ_section_title
;
Structure prediction by ZEFSAII (Michael W. Deem and Ramdas Pophale) SiO2 
 PCOD9381313
Probable space group: P M M M
;
_chemical_formula_sum "Si O2"
_cell_formula_units_Z 64
_cell_length_a 20.525066
_cell_length_b 7.356283
_cell_length_c 21.156677
_cell_angle_alpha 90.000000
_cell_angle_beta 90.000000
_cell_angle_gamma 90.000000
_cell_volume 3194.408453
_symmetry_space_group_name_H-M "P M M M"
_symmetry_group_IT_number 47
_symmetry_cell_setting 'orthorhombic'
loop_
_space_group_symop_operation_xyz
x,y,z
-x,-y,z
x,-y,-z
-x,y,-z
-x,-y,-z
x,y,-z
-x,y,z
x,-y,z
loop_
_atom_site_type_symbol
_atom_site_label
_atom_site_fract_x
_atom_site_fract_y
_atom_site_fract_z
Si Si1 0.895951 0.291029 0.931943
Si Si2 0.834818 0.283567 0.315820
Si Si3 0.072085 0.278741 0.205937
Si Si4 0.926022 0.278419 0.572432
Si Si5 0.288772 0.783270 0.755240
Si Si6 0.391867 0.779333 0.068114
Si Si7 0.570568 0.221889 0.791940
Si Si8 0.752566 0.780448 0.106703
O O1 0.918560 0.500000 0.932969
O O2 0.919916 0.211071 0.865713
O O3 0.817639 0.290508 0.924964
O O4 0.913602 0.209841 0.000000
O O5 0.843857 0.500000 0.316349
O O6 0.873690 0.212433 0.254467
O O7 0.871088 0.215800 0.378524
O O8 0.758541 0.253649 0.303241
O O9 0.077279 0.500000 0.203091
O O10 0.000000 0.235438 0.229729
O O11 0.914861 0.221301 0.500000
O O12 0.925506 0.500000 0.572337
O O13 0.000000 0.225483 0.590930
O O14 0.363571 0.717947 0.756524
O O15 0.254892 0.717860 0.820449
O O16 0.292352 0.000000 0.761619
O O17 0.423037 0.721593 0.134335
O O18 0.315343 0.732594 0.073647
O O19 0.396427 0.000000 0.068316
O O20 0.417453 0.717327 0.000000
O O21 0.500000 0.279998 0.767254
O O22 0.571089 0.000000 0.791474
O O23 0.757200 0.000000 0.105660
#
# Coordination Sequence:
#
# PCOD9381313 Si02
#       8
#     8   8   8   8   8   8   8   8
#     4  10  19  28  39  56  76  98 130 176 223 257
#     4  10  17  27  47  69  87 112 144 175 206 245
#     4   9  17  28  41  58  79 103 135 174 211 247
#     4   8  14  25  43  70 100 123 145 176 211 247
#     4   9  17  28  43  63  86 111 140 177 216 250
#     4   8  13  20  32  52  74  96 127 167 210 256
#     4   8  14  24  37  54  78 108 139 171 211 259
#     4   9  16  27  41  55  75 104 134 166 211 263
#
# _framework density 20.035007
#
# number of rings (size 3 to 8) (size 9 to 14) (size 15 to 20)
#    0.000    3.125    1.250    2.625    0.000    2.750 
#    0.000    2.500    0.000    3.375    0.000    1.750 
#    0.000    0.500    0.000   19.500    0.000   10.000 
#
# Total GULP energy -357007.128731 kJ/mol
# GULP energy per Si atom -5578.236386 kJ/mol
# Density = 1.998941 g / cm^3
# Si number density = 20.035007 Si / 1000 Ang^3
#
#
#
# Elastic Constant Matrix: (Units=GPa)
#
#
# Indices 1 2 3 4 5 6 
#
# 1 143.6553 -0.0152 69.1054 0.0000 0.0000 0.0000
# 2 -0.0152 73.7382 4.4460 0.0000 0.0000 0.0000
# 3 69.1054 4.4460 101.5797 0.0000 0.0000 0.0000
# 4 0.0000 0.0000 0.0000 8.0330 0.0000 0.0000
# 5 0.0000 0.0000 0.0000 0.0000 86.0957 0.0000
# 6 0.0000 0.0000 0.0000 0.0000 0.0000 5.2141
#
#
#
# Elastic Compliance Matrix: (Units=1/GPa)
#
#
# Indices 1 2 3 4 5 6 
#
# 1 0.010361 0.000428 -0.007067 0.000000 0.000000 0.000000
# 2 0.000428 0.013615 -0.000887 0.000000 0.000000 0.000000
# 3 -0.007067 -0.000887 0.014691 0.000000 0.000000 0.000000
# 4 0.000000 0.000000 0.000000 0.124486 0.000000 0.000000
# 5 0.000000 0.000000 0.000000 0.000000 0.011615 0.000000
# 6 0.000000 0.000000 0.000000 0.000000 0.000000 0.191788
#
#
# Mechanical properties :
#
#
# Convention : Reuss Voigt Hill
#
# Bulk Modulus (GPa) = 42.34673 51.78284 47.06478
# Shear Modulus (GPa) = 12.83763 36.23104 24.53433
#
# Velocity S-wave (km/s) = 2.53407 4.25713 3.50319
# Velocity P-wave (km/s) = 5.45383 7.07577 6.31707
#
# Compressibility (1/GPa) = 0.02361458
#
# Stress axis : x y z
#
# Youngs Moduli (GPa) = 96.51680 73.44796 68.06765
#
# Poissons Ratio (x) = -0.03146 0.48106
# Poissons Ratio (y) = -0.04133 0.06039
# Poissons Ratio (z) = 0.68212 0.06517
#
# Static dielectric constant tensor:
#      x y z
#    x 1.728640 0.000000 0.000000 
#    y 0.000000 1.797810 0.000000 
#    z 0.000000 0.000000 1.699060 
# 
# From -- ./inp_files/31398.got.cif
#   From: 2010.05.17/outbox.cif.g08.bks.cpg/sg47_16_cif.got.tgz:31398.got - 2010.06.03 20:15:42.
