data_PCOD9381575
_publ_section_title
;
Structure prediction by ZEFSAII (Michael W. Deem and Ramdas Pophale) SiO2 
 PCOD9381575
Probable space group: P M M M
;
_chemical_formula_sum "Si O2"
_cell_formula_units_Z 64
_cell_length_a 22.593063
_cell_length_b 19.418054
_cell_length_c 7.441230
_cell_angle_alpha 90.000000
_cell_angle_beta 90.000000
_cell_angle_gamma 90.000000
_cell_volume 3264.566699
_symmetry_space_group_name_H-M "P M M M"
_symmetry_group_IT_number 47
_symmetry_cell_setting 'orthorhombic'
loop_
_space_group_symop_operation_xyz
x,y,z
-x,-y,z
x,-y,-z
-x,y,-z
-x,-y,-z
x,y,-z
-x,y,z
x,-y,z
loop_
_atom_site_type_symbol
_atom_site_label
_atom_site_fract_x
_atom_site_fract_y
_atom_site_fract_z
Si Si1 0.276457 0.577238 0.708601
Si Si2 0.171938 0.324786 0.280538
Si Si3 0.435974 0.123856 0.290800
Si Si4 0.410945 0.424143 0.204299
Si Si5 0.263117 0.220008 0.716262
Si Si6 0.606131 0.724374 0.213353
Si Si7 0.310112 0.924651 0.720119
Si Si8 0.068245 0.422065 0.719153
O O1 0.288848 0.595256 0.500000
O O2 0.252904 0.500000 0.712100
O O3 0.225132 0.625091 0.776179
O O4 0.339417 0.577147 0.802486
O O5 0.169223 0.324258 0.500000
O O6 0.200715 0.252355 0.223380
O O7 0.111582 0.360913 0.219868
O O8 0.438318 0.104119 0.500000
O O9 0.500000 0.108661 0.210085
O O10 0.423672 0.205967 0.283502
O O11 0.377651 0.087397 0.217231
O O12 0.426647 0.500000 0.284168
O O13 0.420985 0.347886 0.285071
O O14 0.433357 0.424517 0.000000
O O15 0.261586 0.218697 0.500000
O O16 0.322806 0.264609 0.757857
O O17 0.274575 0.142575 0.780673
O O18 0.597035 0.722684 0.000000
O O19 0.310446 0.922846 0.500000
O O20 0.288812 0.000000 0.774479
O O21 0.069454 0.422048 0.500000
O O22 0.086567 0.500000 0.773482
O O23 0.000000 0.412078 0.773152
#
# Coordination Sequence:
#
# PCOD9381575 Si02
#       8
#     8   8   8   8   8   8   8   8
#     4   9  15  21  32  51  73  97 124 155 194 236
#     4   9  14  20  32  50  74 102 133 169 202 236
#     4   9  18  31  47  65  82 102 129 161 195 230
#     4   9  17  27  37  52  76 102 127 156 190 229
#     4   9  16  26  40  59  82 105 130 162 201 242
#     4  10  18  28  43  60  81 107 132 162 199 238
#     4   8  14  25  42  63  85 106 127 154 190 234
#     4   8  13  20  29  44  72 110 145 174 207 245
#
# _framework density 19.60444
#
# number of rings (size 3 to 8) (size 9 to 14) (size 15 to 20)
#    0.000    3.125    1.250    1.875    0.000    2.500 
#    0.000    1.250    0.000    6.375    0.000    6.125 
#    0.000    2.500    0.000   15.875    0.000    8.250 
#
# Total GULP energy -356500.146647 kJ/mol
# GULP energy per Si atom -5570.314791 kJ/mol
# Density = 1.955982 g / cm^3
# Si number density = 19.604440 Si / 1000 Ang^3
#
#
#
# Elastic Constant Matrix: (Units=GPa)
#
#
# Indices 1 2 3 4 5 6 
#
# 1 100.1180 44.9550 3.0890 0.0000 0.0000 0.0000
# 2 44.9550 129.9404 2.1488 0.0000 0.0000 0.0000
# 3 3.0890 2.1488 62.6060 0.0000 0.0000 0.0000
# 4 0.0000 0.0000 0.0000 17.9400 0.0000 0.0000
# 5 0.0000 0.0000 0.0000 0.0000 57.1829 0.0000
# 6 0.0000 0.0000 0.0000 0.0000 0.0000**********
#
#
#
# Elastic Compliance Matrix: (Units=1/GPa)
#
#
# Indices 1 2 3 4 5 6 
#
# 1 0.011838 -0.004088 -0.000444 0.000000 0.000000 0.000000
# 2 -0.004088 0.009112 -0.000111 0.000000 0.000000 0.000000
# 3 -0.000444 -0.000111 0.015999 0.000000 0.000000 0.000000
# 4 0.000000 0.000000 0.000000 0.055741 0.000000 0.000000
# 5 0.000000 0.000000 0.000000 0.000000 0.017488 0.000000
# 6 0.000000 0.000000 0.000000 0.000000 0.000000 -0.000025
#
#
# Mechanical properties :
#
#
# Convention : Reuss Voigt Hill
#
# Bulk Modulus (GPa) = 36.15007 43.67221 39.91114
# Shear Modulus (GPa) = 38.86242 -8082.08002 -4021.60880
#
# Velocity S-wave (km/s) = 4.45716 -64.27695 -45.34126
# Velocity P-wave (km/s) = 6.70583 74.07008 52.16037
#
# Compressibility (1/GPa) = 0.02766246
#
# Stress axis : x y z
#
# Youngs Moduli (GPa) = 84.47719 109.74542 62.50541
#
# Poissons Ratio (x) = 0.44864 0.02774
# Poissons Ratio (y) = 0.34535 0.00694
# Poissons Ratio (z) = 0.03749 0.01219
#
# Static dielectric constant tensor:
#      x y z
#    x 1.677570 0.000000 0.000000 
#    y 0.000000 1.749210 0.000000 
#    z 0.000000 0.000000 1.737360 
# 
# From -- ./inp_files/12940.got.cif
#   From: 2010.05.17/outbox.cif.g08.bks.cpg/sg47_7_cif.got.tgz:12940.got - 2010.06.03 20:15:42.
