data_PCOD9381582
_publ_section_title
;
Structure prediction by ZEFSAII (Michael W. Deem and Ramdas Pophale) SiO2 
 PCOD9381582
Probable space group: P M M M
;
_chemical_formula_sum "Si O2"
_cell_formula_units_Z 64
_cell_length_a 14.798589
_cell_length_b 32.282127
_cell_length_c 8.477357
_cell_angle_alpha 90.000000
_cell_angle_beta 90.000000
_cell_angle_gamma 90.000000
_cell_volume 4049.887162
_symmetry_space_group_name_H-M "P M M M"
_symmetry_group_IT_number 47
_symmetry_cell_setting 'orthorhombic'
loop_
_space_group_symop_operation_xyz
x,y,z
-x,-y,z
x,-y,-z
-x,y,-z
-x,-y,-z
x,y,-z
-x,y,z
x,-y,z
loop_
_atom_site_type_symbol
_atom_site_label
_atom_site_fract_x
_atom_site_fract_y
_atom_site_fract_z
Si Si1 0.604450 0.203632 0.811106
Si Si2 0.395249 0.047405 0.809632
Si Si3 0.609351 0.455434 0.312617
Si Si4 0.711027 0.716146 0.309352
Si Si5 0.605259 0.364958 0.693107
Si Si6 0.101781 0.155478 0.188937
Si Si7 0.285622 0.124615 0.686407
Si Si8 0.100893 0.750722 0.690760
O O1 0.500000 0.201496 0.758123
O O2 0.653160 0.244217 0.743397
O O3 0.658340 0.162632 0.761161
O O4 0.605643 0.206191 0.000000
O O5 0.500000 0.055458 0.765819
O O6 0.331092 0.081710 0.736817
O O7 0.373610 0.000000 0.764367
O O8 0.390121 0.049944 0.000000
O O9 0.630002 0.456023 0.500000
O O10 0.500000 0.454911 0.300662
O O11 0.640411 0.500000 0.245810
O O12 0.638234 0.410387 0.251007
O O13 0.710517 0.715297 0.500000
O O14 0.665147 0.673638 0.253616
O O15 0.814499 0.723126 0.257011
O O16 0.606524 0.365821 0.500000
O O17 0.500000 0.359138 0.738151
O O18 0.182488 0.128376 0.257005
O O19 0.114994 0.202649 0.247474
O O20 0.000000 0.142899 0.236737
O O21 0.106668 0.155174 0.000000
O O22 0.288956 0.129493 0.500000
O O23 0.102076 0.752225 0.500000
O O24 0.000000 0.737242 0.740283
#
# Coordination Sequence:
#
# PCOD9381582 Si02
#       8
#     8   8   8   8   8   8   8   8
#     4  11  23  35  46  63  91 126 160 192 223 263
#     4   9  19  37  59  80 103 132 163 195 232 273
#     4   7   9  14  25  42  67 100 135 173 220 268
#     4  10  18  28  43  62  85 116 148 183 229 277
#     4   8  13  20  31  50  77 108 142 179 220 272
#     4  10  20  34  53  74  95 122 157 195 234 276
#     4  12  23  34  52  77 102 128 157 193 234 273
#     4   9  17  29  44  63  87 114 147 188 232 274
#
# _framework density 15.802910000000001
#
# number of rings (size 3 to 8) (size 9 to 14) (size 15 to 20)
#    0.000    2.500    1.250    4.125    0.000    4.250 
#    0.000    0.625    0.000    0.375    0.000    2.625 
#    0.000    1.000    0.000   11.625    0.000    4.000 
#
# Total GULP energy -356670.121367 kJ/mol
# GULP energy per Si atom -5572.970646 kJ/mol
# Density = 1.576694 g / cm^3
# Si number density = 15.802910 Si / 1000 Ang^3
#
#
#
# Elastic Constant Matrix: (Units=GPa)
#
#
# Indices 1 2 3 4 5 6 
#
# 1 113.3015 73.5814 17.2639 0.0000 0.0000 0.0000
# 2 73.5814 122.2503 12.4557 0.0000 0.0000 0.0000
# 3 17.2639 12.4557 9.8282 0.0000 0.0000 0.0000
# 4 0.0000 0.0000 0.0000 187.7596 0.0000 0.0000
# 5 0.0000 0.0000 0.0000 0.0000 15.5050 0.0000
# 6 0.0000 0.0000 0.0000 0.0000 0.0000 6.7592
#
#
#
# Elastic Compliance Matrix: (Units=1/GPa)
#
#
# Indices 1 2 3 4 5 6 
#
# 1 0.017281 -0.008392 -0.019719 0.000000 0.000000 0.000000
# 2 -0.008392 0.013468 -0.002328 0.000000 0.000000 0.000000
# 3 -0.019719 -0.002328 0.139336 0.000000 0.000000 0.000000
# 4 0.000000 0.000000 0.000000 0.005326 0.000000 0.000000
# 5 0.000000 0.000000 0.000000 0.000000 0.064496 0.000000
# 6 0.000000 0.000000 0.000000 0.000000 0.000000 0.147946
#
#
# Mechanical properties :
#
#
# Convention : Reuss Voigt Hill
#
# Bulk Modulus (GPa) = 9.15691 50.22023 29.68857
# Shear Modulus (GPa) = 10.30648 51.47669 30.89159
#
# Velocity S-wave (km/s) = 2.55657 5.71357 4.42611
# Velocity P-wave (km/s) = 3.81074 8.68186 6.70434
#
# Compressibility (1/GPa) = 0.10920716
#
# Stress axis : x y z
#
# Youngs Moduli (GPa) = 57.86836 74.24926 7.17690
#
# Poissons Ratio (x) = 0.62310 0.14152
# Poissons Ratio (y) = 0.48563 0.01671
# Poissons Ratio (z) = 1.14111 0.17284
#
# Static dielectric constant tensor:
#      x y z
#    x 1.531700 0.000000 0.000000 
#    y 0.000000 1.533600 0.000000 
#    z 0.000000 0.000000 1.543840 
# 
# From -- ./inp_files/8322.got.cif
#   From: 2010.05.17/outbox.cif.g08.bks.cpg/sg47_5_cif.got.tgz:8322.got - 2010.06.03 20:15:42.
