data_PCOD9381834
_publ_section_title
;
Structure prediction by ZEFSAII (Michael W. Deem and Ramdas Pophale) SiO2 
 PCOD9381834
Probable space group: P M M M
;
_chemical_formula_sum "Si O2"
_cell_formula_units_Z 52
_cell_length_a 25.596869
_cell_length_b 13.063094
_cell_length_c 7.503609
_cell_angle_alpha 90.000000
_cell_angle_beta 90.000000
_cell_angle_gamma 90.000000
_cell_volume 2509.014051
_symmetry_space_group_name_H-M "P M M M"
_symmetry_group_IT_number 47
_symmetry_cell_setting 'orthorhombic'
loop_
_space_group_symop_operation_xyz
x,y,z
-x,-y,z
x,-y,-z
-x,y,-z
-x,-y,-z
x,y,-z
-x,y,z
x,-y,z
loop_
_atom_site_type_symbol
_atom_site_label
_atom_site_fract_x
_atom_site_fract_y
_atom_site_fract_z
Si Si1 0.127033 0.000000 0.286577
Si Si2 0.748286 0.000000 0.215615
Si Si3 0.000000 0.620965 0.281716
Si Si4 0.555931 0.119147 0.285531
Si Si5 0.089222 0.221297 0.703891
Si Si6 0.673077 0.180465 0.209943
Si Si7 0.831952 0.388135 0.214544
Si Si8 0.709427 0.391993 0.216679
O O1 0.189974 0.000000 0.258174
O O2 0.100982 0.107437 0.219739
O O3 0.120142 0.000000 0.500000
O O4 0.714135 0.903058 0.281120
O O5 0.746264 0.000000 0.000000
O O6 0.951420 0.693349 0.222474
O O7 0.000000 0.500000 0.223726
O O8 0.000000 0.615832 0.500000
O O9 0.556232 0.125033 0.500000
O O10 0.500000 0.164910 0.224464
O O11 0.612025 0.157255 0.225076
O O12 0.554910 0.000000 0.235175
O O13 0.072115 0.203779 0.500000
O O14 0.141931 0.287567 0.707769
O O15 0.683025 0.291464 0.288251
O O16 0.685157 0.184549 0.000000
O O17 0.853786 0.500000 0.273067
O O18 0.770868 0.387743 0.256553
O O19 0.837348 0.383597 0.000000
O O20 0.687929 0.500000 0.280980
O O21 0.705489 0.392621 0.000000
#
# Coordination Sequence:
#
# PCOD9381834 Si02
#       8
#     4   4   4   8   8   8   8   8
#     4  10  22  35  48  71 101 134 170 200 230 283
#     4  10  20  32  48  74 103 131 160 195 244 293
#     4   9  18  33  54  76  95 121 160 207 258 298
#     4   9  18  32  48  67  94 128 160 191 239 296
#     4  10  20  34  51  72  99 130 164 202 243 289
#     4  10  18  29  48  73  97 122 158 201 239 276
#     4   9  17  31  52  75  98 127 162 200 246 296
#     4   8  15  28  46  68  95 127 159 191 233 287
#
# _framework density 20.725272
#
# number of rings (size 3 to 8) (size 9 to 14) (size 15 to 20)
#    0.000    2.692    0.769    2.769    0.000    4.000 
#    0.000    3.462    0.000    3.231    0.000    4.846 
#    0.000    0.000    0.000    0.000    0.000    0.000 
#
# Total GULP energy -289604.159130 kJ/mol
# GULP energy per Si atom -5569.310753 kJ/mol
# Density = 2.067810 g / cm^3
# Si number density = 20.725272 Si / 1000 Ang^3
#
#
#
# Elastic Constant Matrix: (Units=GPa)
#
#
# Indices 1 2 3 4 5 6 
#
# 1 85.3893 83.7363 -0.2771 0.0000 0.0000 0.0000
# 2 83.7363 211.6838 11.0175 0.0000 0.0000 0.0000
# 3 -0.2771 11.0175 51.3192 0.0000 0.0000 0.0000
# 4 0.0000 0.0000 0.0000 4.4961 0.0000 0.0000
# 5 0.0000 0.0000 0.0000 0.0000 15.6962 0.0000
# 6 0.0000 0.0000 0.0000 0.0000 0.0000 9.4870
#
#
#
# Elastic Compliance Matrix: (Units=1/GPa)
#
#
# Indices 1 2 3 4 5 6 
#
# 1 0.019289 -0.007722 0.001762 0.000000 0.000000 0.000000
# 2 -0.007722 0.007869 -0.001731 0.000000 0.000000 0.000000
# 3 0.001762 -0.001731 0.019867 0.000000 0.000000 0.000000
# 4 0.000000 0.000000 0.000000 0.222415 0.000000 0.000000
# 5 0.000000 0.000000 0.000000 0.000000 0.063710 0.000000
# 6 0.000000 0.000000 0.000000 0.000000 0.000000 0.105407
#
#
# Mechanical properties :
#
#
# Convention : Reuss Voigt Hill
#
# Bulk Modulus (GPa) = 31.60262 59.70509 45.65385
# Shear Modulus (GPa) = 10.76457 22.86357 16.81407
#
# Velocity S-wave (km/s) = 2.28149 3.32501 2.85139
# Velocity P-wave (km/s) = 4.71399 6.60389 5.73729
#
# Compressibility (1/GPa) = 0.03164295
#
# Stress axis : x y z
#
# Youngs Moduli (GPa) = 51.84209 127.08503 50.33468
#
# Poissons Ratio (x) = 0.98136 -0.08869
# Poissons Ratio (y) = 0.40033 0.08713
# Poissons Ratio (z) = -0.09134 0.21999
#
# Static dielectric constant tensor:
#      x y z
#    x 1.756180 0.000000 0.000000 
#    y 0.000000 1.778230 0.000000 
#    z 0.000000 0.000000 1.802220 
# 
# From -- ./inp_files/13299.got.cif
#   From: 2010.05.17/outbox.cif.g08.bks.cpg/sg47_7_cif.got.tgz:13299.got - 2010.06.03 20:15:42.
