data_PCOD9381936
_publ_section_title
;
Structure prediction by ZEFSAII (Michael W. Deem and Ramdas Pophale) SiO2 
 PCOD9381936
Probable space group: P M M M
;
_chemical_formula_sum "Si O2"
_cell_formula_units_Z 60
_cell_length_a 19.675885
_cell_length_b 21.771372
_cell_length_c 7.884762
_cell_angle_alpha 90.000000
_cell_angle_beta 90.000000
_cell_angle_gamma 90.000000
_cell_volume 3377.603475
_symmetry_space_group_name_H-M "P M M M"
_symmetry_group_IT_number 47
_symmetry_cell_setting 'orthorhombic'
loop_
_space_group_symop_operation_xyz
x,y,z
-x,-y,z
x,-y,-z
-x,y,-z
-x,-y,-z
x,y,-z
-x,y,z
x,-y,z
loop_
_atom_site_type_symbol
_atom_site_label
_atom_site_fract_x
_atom_site_fract_y
_atom_site_fract_z
Si Si1 0.924494 0.251859 0.200925
Si Si2 0.853564 0.873784 0.300071
Si Si3 0.711646 0.568305 0.201875
Si Si4 0.920830 0.000000 0.707561
Si Si5 0.423615 0.635370 0.705022
Si Si6 0.790670 0.313451 0.208165
Si Si7 0.719879 0.812506 0.201137
Si Si8 0.575956 0.777129 0.295704
O O1 0.893865 0.183720 0.222149
O O2 0.866909 0.298228 0.266578
O O3 0.000000 0.256422 0.274670
O O4 0.929214 0.263146 0.000000
O O5 0.866857 0.871462 0.500000
O O6 0.773484 0.861573 0.272189
O O7 0.882208 0.938440 0.235331
O O8 0.721790 0.500000 0.272624
O O9 0.634963 0.591598 0.228966
O O10 0.759649 0.622692 0.269514
O O11 0.723475 0.565331 0.000000
O O12 0.919711 0.000000 0.500000
O O13 0.000000 0.000000 0.758545
O O14 0.420867 0.635192 0.500000
O O15 0.500000 0.617209 0.755628
O O16 0.413114 0.706237 0.761624
O O17 0.745234 0.254916 0.262461
O O18 0.789598 0.313868 0.000000
O O19 0.640383 0.817124 0.241674
O O20 0.728456 0.813609 0.000000
O O21 0.575023 0.776117 0.500000
O O22 0.500000 0.795910 0.238619
#
# Coordination Sequence:
#
# PCOD9381936 Si02
#       8
#     8   8   8   4   8   8   8   8
#     4   9  17  30  48  69  93 119 150 191 238 282
#     4  10  19  31  49  72  99 130 162 194 225 265
#     4  10  19  30  44  61  83 116 158 197 232 277
#     4   9  18  32  49  71 102 137 166 191 223 266
#     4   9  18  31  45  62  87 117 149 188 234 281
#     4   8  15  28  43  61  85 114 146 186 235 278
#     4  10  18  30  48  69  95 125 159 196 236 280
#     4   9  17  29  46  69  95 122 154 195 241 285
#
# _framework density 17.764075999999999
#
# number of rings (size 3 to 8) (size 9 to 14) (size 15 to 20)
#    0.000    2.733    1.333    2.800    0.000    1.867 
#    0.000    4.000    0.000    2.800    0.000    3.267 
#    0.000    3.733    0.000    4.667    0.000    5.867 
#
# Total GULP energy -334421.524238 kJ/mol
# GULP energy per Si atom -5573.692071 kJ/mol
# Density = 1.772364 g / cm^3
# Si number density = 17.764076 Si / 1000 Ang^3
#
#
#
# Elastic Constant Matrix: (Units=GPa)
#
#
# Indices 1 2 3 4 5 6 
#
# 1 147.9320 73.6223 -3.4306 0.0000 0.0000 0.0000
# 2 73.6223 105.9287 -0.3891 0.0000 0.0000 0.0000
# 3 -3.4306 -0.3891 15.5591 0.0000 0.0000 0.0000
# 4 0.0000 0.0000 0.0000 10.1878 0.0000 0.0000
# 5 0.0000 0.0000 0.0000 0.0000 17.0366 0.0000
# 6 0.0000 0.0000 0.0000 0.0000 0.0000 22.2498
#
#
#
# Elastic Compliance Matrix: (Units=1/GPa)
#
#
# Indices 1 2 3 4 5 6 
#
# 1 0.010404 -0.007223 0.002113 0.000000 0.000000 0.000000
# 2 -0.007223 0.014456 -0.001231 0.000000 0.000000 0.000000
# 3 0.002113 -0.001231 0.064706 0.000000 0.000000 0.000000
# 4 0.000000 0.000000 0.000000 0.098156 0.000000 0.000000
# 5 0.000000 0.000000 0.000000 0.000000 0.058697 0.000000
# 6 0.000000 0.000000 0.000000 0.000000 0.000000 0.044944
#
#
# Mechanical properties :
#
#
# Convention : Reuss Voigt Hill
#
# Bulk Modulus (GPa) = 13.00656 45.44721 29.22689
# Shear Modulus (GPa) = 15.16655 23.20267 19.18461
#
# Velocity S-wave (km/s) = 2.92512 3.61800 3.28985
# Velocity P-wave (km/s) = 4.32968 6.56449 5.56052
#
# Compressibility (1/GPa) = 0.07688428
#
# Stress axis : x y z
#
# Youngs Moduli (GPa) = 96.12137 69.17639 15.45444
#
# Poissons Ratio (x) = 0.49965 -0.03266
# Poissons Ratio (y) = 0.69427 0.01903
# Poissons Ratio (z) = -0.20313 0.08516
#
# Static dielectric constant tensor:
#      x y z
#    x 1.634970 0.000000 0.000000 
#    y 0.000000 1.595770 0.000000 
#    z 0.000000 0.000000 1.653310 
# 
# From -- ./inp_files/10058.got.cif
#   From: 2010.05.17/outbox.cif.g08.bks.cpg/sg47_6_cif.got.tgz:10058.got - 2010.06.03 20:15:42.
