data_PCOD9381392
_publ_section_title
;
Structure prediction by ZEFSAII (Michael W. Deem and Ramdas Pophale) SiO2 
 PCOD9381392
Probable space group: P M M M
;
_chemical_formula_sum "Si O2"
_cell_formula_units_Z 56
_cell_length_a 24.401795
_cell_length_b 14.120054
_cell_length_c 8.901038
_cell_angle_alpha 90.000000
_cell_angle_beta 90.000000
_cell_angle_gamma 90.000000
_cell_volume 3066.894149
_symmetry_space_group_name_H-M "P M M M"
_symmetry_group_IT_number 47
_symmetry_cell_setting 'orthorhombic'
loop_
_space_group_symop_operation_xyz
x,y,z
-x,-y,z
x,-y,-z
-x,y,-z
-x,-y,-z
x,y,-z
-x,y,z
x,-y,z
loop_
_atom_site_type_symbol
_atom_site_label
_atom_site_fract_x
_atom_site_fract_y
_atom_site_fract_z
Si Si1 0.624487 0.395746 0.679127
Si Si2 0.062483 0.198438 0.321193
Si Si3 0.739390 0.889896 0.181288
Si Si4 0.628918 0.187870 0.682460
Si Si5 0.562840 0.000000 0.317147
Si Si6 0.934045 0.000000 0.167697
Si Si7 0.244283 0.390888 0.669501
Si Si8 0.167731 0.750895 0.175646
O O1 0.612863 0.398320 0.500000
O O2 0.606595 0.500000 0.739545
O O3 0.606320 0.291178 0.733441
O O4 0.690480 0.390954 0.695706
O O5 0.062332 0.195197 0.500000
O O6 0.111094 0.263828 0.262268
O O7 0.000000 0.221033 0.271352
O O8 0.078178 0.095596 0.255487
O O9 0.689839 0.832176 0.256283
O O10 0.797647 0.844001 0.222838
O O11 0.735765 0.000000 0.224417
O O12 0.734270 0.883136 0.000000
O O13 0.630905 0.189767 0.500000
O O14 0.593296 0.096586 0.729755
O O15 0.500000 0.000000 0.267707
O O16 0.563492 0.000000 0.500000
O O17 0.000000 0.000000 0.154213
O O18 0.909739 0.000000 0.000000
O O19 0.235207 0.352559 0.500000
O O20 0.226948 0.500000 0.671541
O O21 0.210238 0.332138 0.788119
O O22 0.155675 0.758171 0.000000
#
# Coordination Sequence:
#
# PCOD9381392 Si02
#       8
#     8   8   8   8   4   4   8   8
#     4   8  14  25  44  71  98 125 162 207 252 300
#     4  10  21  36  52  70  94 128 172 216 251 293
#     4  10  21  34  46  68 105 138 161 201 256 302
#     4  10  17  29  52  73  95 133 175 212 250 301
#     4   9  18  30  46  75 108 137 175 221 262 293
#     4   9  17  31  50  69  90 117 152 197 248 297
#     4   9  17  31  51  73 100 130 159 203 258 309
#     4  11  22  33  50  74 101 134 165 202 257 314
#
# _framework density 18.259515
#
# number of rings (size 3 to 8) (size 9 to 14) (size 15 to 20)
#    0.000    2.429    2.143    1.929    1.000    2.571 
#    0.000    0.000    0.000    2.143    0.000    6.000 
#    0.000    0.000    0.000    1.286    0.000    1.429 
#
# Total GULP energy -311932.724586 kJ/mol
# GULP energy per Si atom -5570.227225 kJ/mol
# Density = 1.821796 g / cm^3
# Si number density = 18.259515 Si / 1000 Ang^3
#
#
#
# Elastic Constant Matrix: (Units=GPa)
#
#
# Indices 1 2 3 4 5 6 
#
# 1 60.6463 20.6016 13.1201 0.0000 0.0000 0.0000
# 2 20.6016 116.9917 9.5376 0.0000 0.0000 0.0000
# 3 13.1201 9.5376 17.6893 0.0000 0.0000 0.0000
# 4 0.0000 0.0000 0.0000 14.1772 0.0000 0.0000
# 5 0.0000 0.0000 0.0000 0.0000 9.2786 0.0000
# 6 0.0000 0.0000 0.0000 0.0000 0.0000 -7.5418
#
#
#
# Elastic Compliance Matrix: (Units=1/GPa)
#
#
# Indices 1 2 3 4 5 6 
#
# 1 0.020293 -0.002454 -0.013728 0.000000 0.000000 0.000000
# 2 -0.002454 0.009237 -0.003160 0.000000 0.000000 0.000000
# 3 -0.013728 -0.003160 0.068417 0.000000 0.000000 0.000000
# 4 0.000000 0.000000 0.000000 0.070536 0.000000 0.000000
# 5 0.000000 0.000000 0.000000 0.000000 0.107774 0.000000
# 6 0.000000 0.000000 0.000000 0.000000 0.000000 -0.132594
#
#
# Mechanical properties :
#
#
# Convention : Reuss Voigt Hill
#
# Bulk Modulus (GPa) = 16.87405 31.31622 24.09513
# Shear Modulus (GPa) = 24.74003 13.32067 19.03035
#
# Velocity S-wave (km/s) = 3.68491 2.70389 3.23184
# Velocity P-wave (km/s) = 5.23125 5.18998 5.21066
#
# Compressibility (1/GPa) = 0.05926261
#
# Stress axis : x y z
#
# Youngs Moduli (GPa) = 49.27903 108.25520 14.61624
#
# Poissons Ratio (x) = 0.26569 0.20065
# Poissons Ratio (y) = 0.12094 0.04619
# Poissons Ratio (z) = 0.67649 0.34211
#
# Static dielectric constant tensor:
#      x y z
#    x 1.626240 0.000000 0.000000 
#    y 0.000000 0.991430 0.000000 
#    z 0.000000 0.000000 1.615030 
# 
# From -- ./inp_files/11359.got.cif
#   From: 2010.05.17/outbox.cif.g08.bks.cpg/sg47_6_cif.got.tgz:11359.got - 2010.06.03 20:15:42.
