data_PCOD9381348
_publ_section_title
;
Structure prediction by ZEFSAII (Michael W. Deem and Ramdas Pophale) SiO2 
 PCOD9381348
Probable space group: P M M M
;
_chemical_formula_sum "Si O2"
_cell_formula_units_Z 64
_cell_length_a 7.371634
_cell_length_b 20.661529
_cell_length_c 21.291354
_cell_angle_alpha 90.000000
_cell_angle_beta 90.000000
_cell_angle_gamma 90.000000
_cell_volume 3242.869726
_symmetry_space_group_name_H-M "P M M M"
_symmetry_group_IT_number 47
_symmetry_cell_setting 'orthorhombic'
loop_
_space_group_symop_operation_xyz
x,y,z
-x,-y,z
x,-y,-z
-x,y,-z
-x,-y,-z
x,y,-z
-x,y,z
x,-y,z
loop_
_atom_site_type_symbol
_atom_site_label
_atom_site_fract_x
_atom_site_fract_y
_atom_site_fract_z
Si Si1 0.777956 0.208212 0.810706
Si Si2 0.781445 0.928732 0.764871
Si Si3 0.281963 0.208245 0.431010
Si Si4 0.285832 0.928841 0.383831
Si Si5 0.221422 0.291063 0.930362
Si Si6 0.779657 0.428662 0.119526
Si Si7 0.779364 0.428877 0.266873
Si Si8 0.784864 0.707997 0.691506
O O1 0.718496 0.134030 0.802623
O O2 0.720342 0.244525 0.873854
O O3 0.716781 0.248292 0.749350
O O4 0.000000 0.208193 0.810502
O O5 0.734448 0.920924 0.691293
O O6 0.000000 0.929309 0.768278
O O7 0.716514 0.000000 0.784907
O O8 0.219226 0.229097 0.500000
O O9 0.500000 0.204001 0.432609
O O10 0.212271 0.135894 0.415623
O O11 0.240796 0.256458 0.374305
O O12 0.500000 0.930975 0.398088
O O13 0.211036 0.000000 0.400632
O O14 0.280313 0.364850 0.916714
O O15 0.000000 0.291407 0.929090
O O16 0.277501 0.270805 0.000000
O O17 0.719227 0.500000 0.097839
O O18 0.732093 0.421631 0.193170
O O19 0.000000 0.429067 0.116622
O O20 0.717351 0.500000 0.288181
O O21 0.715195 0.365389 0.303373
O O22 0.000000 0.430078 0.269345
O O23 0.000000 0.703655 0.701788
#
# Coordination Sequence:
#
# PCOD9381348 Si02
#       8
#     8   8   8   8   8   8   8   8
#     4   9  15  24  38  58  81 108 145 183 214 248
#     4   9  16  26  42  62  84 111 142 178 219 256
#     4  10  21  34  46  64  92 120 143 173 216 262
#     4   9  17  29  45  65  88 113 142 173 207 254
#     4   9  15  21  30  48  79 117 148 173 208 255
#     4   8  12  18  28  46  76 111 142 169 203 252
#     4   8  13  22  39  63  87 109 138 180 224 258
#     4  10  17  28  48  68  86 113 149 185 216 254
#
# _framework density 19.735607000000002
#
# number of rings (size 3 to 8) (size 9 to 14) (size 15 to 20)
#    0.000    3.000    2.500    0.750    0.000    0.750 
#    0.000    2.500    0.000    1.125    0.000    7.875 
#    0.000    2.000    0.000    3.125    0.000    7.500 
#
# Total GULP energy -356962.388247 kJ/mol
# GULP energy per Si atom -5577.537316 kJ/mol
# Density = 1.969069 g / cm^3
# Si number density = 19.735607 Si / 1000 Ang^3
#
#
#
# Elastic Constant Matrix: (Units=GPa)
#
#
# Indices 1 2 3 4 5 6 
#
# 1 69.5379 5.8096 -3.7932 0.0000 0.0000 0.0000
# 2 5.8096 170.9959 90.9384 0.0000 0.0000 0.0000
# 3 -3.7932 90.9384 121.9951 0.0000 0.0000 0.0000
# 4 0.0000 0.0000 0.0000 23.8069 0.0000 0.0000
# 5 0.0000 0.0000 0.0000 0.0000 14.2344 0.0000
# 6 0.0000 0.0000 0.0000 0.0000 0.0000 6.1636
#
#
#
# Elastic Compliance Matrix: (Units=1/GPa)
#
#
# Indices 1 2 3 4 5 6 
#
# 1 0.014557 -0.001218 0.001361 0.000000 0.000000 0.000000
# 2 -0.001218 0.009791 -0.007336 0.000000 0.000000 0.000000
# 3 0.001361 -0.007336 0.013708 0.000000 0.000000 0.000000
# 4 0.000000 0.000000 0.000000 0.042005 0.000000 0.000000
# 5 0.000000 0.000000 0.000000 0.000000 0.070252 0.000000
# 6 0.000000 0.000000 0.000000 0.000000 0.000000 0.162243
#
#
# Mechanical properties :
#
#
# Convention : Reuss Voigt Hill
#
# Bulk Modulus (GPa) = 42.25112 60.93761 51.59436
# Shear Modulus (GPa) = 14.93280 26.81257 20.87269
#
# Velocity S-wave (km/s) = 2.75370 3.68990 3.25563
# Velocity P-wave (km/s) = 5.61832 7.00699 6.35072
#
# Compressibility (1/GPa) = 0.02366801
#
# Stress axis : x y z
#
# Youngs Moduli (GPa) = 68.69709 102.13327 72.94934
#
# Poissons Ratio (x) = 0.12442 -0.09926
# Poissons Ratio (y) = 0.08369 0.53519
# Poissons Ratio (z) = -0.09348 0.74930
#
# Static dielectric constant tensor:
#      x y z
#    x 1.777340 0.000000 0.000000 
#    y 0.000000 1.713060 0.000000 
#    z 0.000000 0.000000 1.652540 
# 
# From -- ./inp_files/11807.got.cif
#   From: 2010.05.17/outbox.cif.g08.bks.cpg/sg47_6_cif.got.tgz:11807.got - 2010.06.03 20:15:42.
