data_PCOD9381667
_publ_section_title
;
Structure prediction by ZEFSAII (Michael W. Deem and Ramdas Pophale) SiO2 
 PCOD9381667
Probable space group: P M M M
;
_chemical_formula_sum "Si O2"
_cell_formula_units_Z 64
_cell_length_a 25.262508
_cell_length_b 15.245192
_cell_length_c 7.644729
_cell_angle_alpha 90.000000
_cell_angle_beta 90.000000
_cell_angle_gamma 90.000000
_cell_volume 2944.228125
_symmetry_space_group_name_H-M "P M M M"
_symmetry_group_IT_number 47
_symmetry_cell_setting 'orthorhombic'
loop_
_space_group_symop_operation_xyz
x,y,z
-x,-y,z
x,-y,-z
-x,y,-z
-x,-y,-z
x,y,-z
-x,y,z
x,-y,z
loop_
_atom_site_type_symbol
_atom_site_label
_atom_site_fract_x
_atom_site_fract_y
_atom_site_fract_z
Si Si1 0.787542 0.595823 0.791963
Si Si2 0.442473 0.362147 0.205118
Si Si3 0.938342 0.098870 0.286531
Si Si4 0.668969 0.135285 0.703495
Si Si5 0.782969 0.094019 0.799365
Si Si6 0.443385 0.844941 0.287234
Si Si7 0.143504 0.759408 0.305101
Si Si8 0.327803 0.658875 0.214064
O O1 0.803220 0.500000 0.724541
O O2 0.831740 0.669954 0.765097
O O3 0.728314 0.619531 0.726403
O O4 0.781027 0.590706 0.000000
O O5 0.500000 0.391331 0.279495
O O6 0.442909 0.255909 0.222500
O O7 0.383483 0.385854 0.271961
O O8 0.443187 0.385645 0.000000
O O9 0.934076 0.097868 0.500000
O O10 0.902004 0.179050 0.221631
O O11 0.000000 0.111804 0.243290
O O12 0.923294 0.000000 0.227357
O O13 0.673445 0.111051 0.500000
O O14 0.719884 0.098565 0.797488
O O15 0.610801 0.110302 0.770499
O O16 0.671392 0.240738 0.722390
O O17 0.806884 0.174093 0.695111
O O18 0.799944 0.000000 0.727491
O O19 0.800591 0.102293 0.000000
O O20 0.441282 0.841545 0.500000
O O21 0.500000 0.883895 0.236589
O O22 0.125044 0.739297 0.500000
O O23 0.328665 0.659707 0.000000
#
# Coordination Sequence:
#
# PCOD9381667 Si02
#       8
#     8   8   8   8   8   8   8   8
#     4  10  21  36  53  73 103 147 191 227 270 324
#     4   8  13  21  36  60  86 114 154 203 255 315
#     4   8  15  30  54  86 122 153 177 206 254 316
#     4  10  18  28  46  70  95 125 164 212 262 312
#     4  11  23  36  50  71 104 144 177 208 256 317
#     4   8  14  24  38  59  87 117 152 197 252 313
#     4  11  21  34  57  86 112 139 177 225 267 306
#     4   9  16  28  46  65  92 130 169 212 265 323
#
# _framework density 21.737445999999998
#
# number of rings (size 3 to 8) (size 9 to 14) (size 15 to 20)
#    0.000    2.625    1.250    1.875    0.000    2.250 
#    0.000    0.000    0.000    2.625    0.000   12.250 
#    0.000    0.000    0.000   21.375    0.000   10.750 
#
# Total GULP energy -356768.986294 kJ/mol
# GULP energy per Si atom -5574.515411 kJ/mol
# Density = 2.168797 g / cm^3
# Si number density = 21.737446 Si / 1000 Ang^3
#
#
#
# Elastic Constant Matrix: (Units=GPa)
#
#
# Indices 1 2 3 4 5 6 
#
# 1 161.3186 64.4108 4.5542 0.0000 0.0000 0.0000
# 2 64.4108 123.9195 4.8595 0.0000 0.0000 0.0000
# 3 4.5542 4.8595 45.9724 0.0000 0.0000 0.0000
# 4 0.0000 0.0000 0.0000 11.8122 0.0000 0.0000
# 5 0.0000 0.0000 0.0000 0.0000 10.9810 0.0000
# 6 0.0000 0.0000 0.0000 0.0000 0.0000 7.8626
#
#
#
# Elastic Compliance Matrix: (Units=1/GPa)
#
#
# Indices 1 2 3 4 5 6 
#
# 1 0.007828 -0.004055 -0.000347 0.000000 0.000000 0.000000
# 2 -0.004055 0.010204 -0.000677 0.000000 0.000000 0.000000
# 3 -0.000347 -0.000677 0.021858 0.000000 0.000000 0.000000
# 4 0.000000 0.000000 0.000000 0.084658 0.000000 0.000000
# 5 0.000000 0.000000 0.000000 0.000000 0.091067 0.000000
# 6 0.000000 0.000000 0.000000 0.000000 0.000000 0.127184
#
#
# Mechanical properties :
#
#
# Convention : Reuss Voigt Hill
#
# Bulk Modulus (GPa) = 33.63348 53.20662 43.42005
# Shear Modulus (GPa) = 13.77915 23.29024 18.53470
#
# Velocity S-wave (km/s) = 2.52045 3.27683 2.92321
# Velocity P-wave (km/s) = 4.89657 6.23273 5.60461
#
# Compressibility (1/GPa) = 0.02973227
#
# Stress axis : x y z
#
# Youngs Moduli (GPa) = 127.74936 98.00004 45.74969
#
# Poissons Ratio (x) = 0.39740 0.01587
# Poissons Ratio (y) = 0.51804 0.03097
# Poissons Ratio (z) = 0.04430 0.06634
#
# Static dielectric constant tensor:
#      x y z
#    x 1.842440 0.000000 0.000000 
#    y 0.000000 1.793400 0.000000 
#    z 0.000000 0.000000 1.822370 
# 
# From -- ./inp_files/12669.got.cif
#   From: 2010.05.17/outbox.cif.g08.bks.cpg/sg47_7_cif.got.tgz:12669.got - 2010.06.03 20:15:42.
