data_PCOD9381645
_publ_section_title
;
Structure prediction by ZEFSAII (Michael W. Deem and Ramdas Pophale) SiO2 
 PCOD9381645
Probable space group: P M M M
;
_chemical_formula_sum "Si O2"
_cell_formula_units_Z 64
_cell_length_a 20.400876
_cell_length_b 21.586204
_cell_length_c 7.437732
_cell_angle_alpha 90.000000
_cell_angle_beta 90.000000
_cell_angle_gamma 90.000000
_cell_volume 3275.409609
_symmetry_space_group_name_H-M "P M M M"
_symmetry_group_IT_number 47
_symmetry_cell_setting 'orthorhombic'
loop_
_space_group_symop_operation_xyz
x,y,z
-x,-y,z
x,-y,-z
-x,y,-z
-x,-y,-z
x,y,-z
-x,y,z
x,-y,z
loop_
_atom_site_type_symbol
_atom_site_label
_atom_site_fract_x
_atom_site_fract_y
_atom_site_fract_z
Si Si1 0.790049 0.809822 0.284564
Si Si2 0.286670 0.311005 0.711509
Si Si3 0.072382 0.617430 0.718521
Si Si4 0.707975 0.067930 0.784954
Si Si5 0.927479 0.762244 0.281162
Si Si6 0.427244 0.124171 0.780695
Si Si7 0.788743 0.431855 0.279934
Si Si8 0.572254 0.267799 0.216264
O O1 0.792123 0.804315 0.500000
O O2 0.745899 0.752318 0.215211
O O3 0.756978 0.875544 0.248686
O O4 0.864444 0.800408 0.219141
O O5 0.271211 0.311114 0.500000
O O6 0.254659 0.373907 0.783356
O O7 0.364658 0.306567 0.729621
O O8 0.071774 0.615425 0.500000
O O9 0.080961 0.689829 0.767838
O O10 0.136014 0.579997 0.776066
O O11 0.000000 0.596879 0.778660
O O12 0.635336 0.086005 0.717460
O O13 0.728166 0.000000 0.718150
O O14 0.702565 0.064207 0.000000
O O15 0.928033 0.763828 0.500000
O O16 0.000000 0.782400 0.221238
O O17 0.500000 0.103255 0.724697
O O18 0.419009 0.196109 0.726071
O O19 0.426992 0.123186 0.000000
O O20 0.787834 0.431561 0.500000
O O21 0.766647 0.500000 0.222566
O O22 0.500000 0.288596 0.277809
O O23 0.571266 0.267071 0.000000
#
# Coordination Sequence:
#
# PCOD9381645 Si02
#       8
#     8   8   8   8   8   8   8   8
#     4  10  18  29  47  69  92 120 153 189 227 267
#     4  10  18  28  45  70  95 121 153 187 227 272
#     4   8  12  19  33  56  88 123 155 185 219 263
#     4  10  20  32  47  68  93 121 152 185 225 273
#     4   8  13  23  41  64  89 116 149 189 227 263
#     4   8  14  26  44  66  90 114 143 177 212 257
#     4   9  16  25  37  58  93 130 157 184 223 273
#     4   9  17  30  49  70  90 115 150 191 231 269
#
# _framework density 19.539541
#
# number of rings (size 3 to 8) (size 9 to 14) (size 15 to 20)
#    0.000    3.000    2.500    1.500    0.000    1.000 
#    0.000    2.500    0.000    1.875    0.000    6.125 
#    0.000    0.500    0.000    1.125    0.000    1.250 
#
# Total GULP energy -356897.265610 kJ/mol
# GULP energy per Si atom -5576.519775 kJ/mol
# Density = 1.949507 g / cm^3
# Si number density = 19.539541 Si / 1000 Ang^3
#
#
#
# Elastic Constant Matrix: (Units=GPa)
#
#
# Indices 1 2 3 4 5 6 
#
# 1 146.6830 95.4519 0.9352 0.0000 0.0000 0.0000
# 2 95.4519 139.3099 6.4181 0.0000 0.0000 0.0000
# 3 0.9352 6.4181 58.0824 0.0000 0.0000 0.0000
# 4 0.0000 0.0000 0.0000 24.9831 0.0000 0.0000
# 5 0.0000 0.0000 0.0000 0.0000 16.6136 0.0000
# 6 0.0000 0.0000 0.0000 0.0000 0.0000 20.9609
#
#
#
# Elastic Compliance Matrix: (Units=1/GPa)
#
#
# Indices 1 2 3 4 5 6 
#
# 1 0.012334 -0.008485 0.000739 0.000000 0.000000 0.000000
# 2 -0.008485 0.013052 -0.001306 0.000000 0.000000 0.000000
# 3 0.000739 -0.001306 0.017349 0.000000 0.000000 0.000000
# 4 0.000000 0.000000 0.000000 0.040027 0.000000 0.000000
# 5 0.000000 0.000000 0.000000 0.000000 0.060192 0.000000
# 6 0.000000 0.000000 0.000000 0.000000 0.000000 0.047708
#
#
# Mechanical properties :
#
#
# Convention : Reuss Voigt Hill
#
# Bulk Modulus (GPa) = 40.59734 61.07619 50.83676
# Shear Modulus (GPa) = 23.04392 28.59621 25.82006
#
# Velocity S-wave (km/s) = 3.43789 3.82973 3.63909
# Velocity P-wave (km/s) = 6.04821 7.13312 6.61295
#
# Compressibility (1/GPa) = 0.02463216
#
# Stress axis : x y z
#
# Youngs Moduli (GPa) = 81.07416 76.61479 57.63923
#
# Poissons Ratio (x) = 0.65010 -0.04260
# Poissons Ratio (y) = 0.68794 0.07526
# Poissons Ratio (z) = -0.05992 0.10003
#
# Static dielectric constant tensor:
#      x y z
#    x 1.695330 0.000000 0.000000 
#    y 0.000000 1.670170 0.000000 
#    z 0.000000 0.000000 1.780440 
# 
# From -- ./inp_files/18799.got.cif
#   From: 2010.05.17/outbox.cif.g08.bks.cpg/sg47_10_cif.got.tgz:18799.got - 2010.06.03 20:15:42.
