data_PCOD9381816
_publ_section_title
;
Structure prediction by ZEFSAII (Michael W. Deem and Ramdas Pophale) SiO2 
 PCOD9381816
Probable space group: P M M M
;
_chemical_formula_sum "Si O2"
_cell_formula_units_Z 64
_cell_length_a 20.987830
_cell_length_b 7.639898
_cell_length_c 20.573715
_cell_angle_alpha 90.000000
_cell_angle_beta 90.000000
_cell_angle_gamma 90.000000
_cell_volume 3298.889872
_symmetry_space_group_name_H-M "P M M M"
_symmetry_group_IT_number 47
_symmetry_cell_setting 'orthorhombic'
loop_
_space_group_symop_operation_xyz
x,y,z
-x,-y,z
x,-y,-z
-x,y,-z
-x,-y,-z
x,y,-z
-x,y,z
x,-y,z
loop_
_atom_site_type_symbol
_atom_site_label
_atom_site_fract_x
_atom_site_fract_y
_atom_site_fract_z
Si Si1 0.900403 0.293958 0.787222
Si Si2 0.198551 0.703143 0.425975
Si Si3 0.314476 0.201974 0.337602
Si Si4 0.094510 0.293252 0.929398
Si Si5 0.931142 0.796871 0.357281
Si Si6 0.427304 0.214091 0.425926
Si Si7 0.244707 0.788151 0.930761
Si Si8 0.249588 0.786973 0.209717
O O1 0.915376 0.500000 0.785612
O O2 0.923543 0.223608 0.857760
O O3 0.926132 0.213862 0.720931
O O4 0.823763 0.271876 0.784211
O O5 0.194019 0.768665 0.500000
O O6 0.217119 0.500000 0.427853
O O7 0.253125 0.795944 0.384591
O O8 0.130718 0.714873 0.390076
O O9 0.374453 0.279200 0.375773
O O10 0.291276 0.280274 0.269449
O O11 0.331277 0.000000 0.323917
O O12 0.079055 0.500000 0.929348
O O13 0.171206 0.273082 0.929989
O O14 0.072861 0.221537 0.000000
O O15 0.000000 0.721790 0.376715
O O16 0.929706 0.000000 0.375879
O O17 0.412487 0.268266 0.500000
O O18 0.500000 0.265046 0.410879
O O19 0.425508 0.000000 0.425998
O O20 0.273267 0.732917 0.861882
O O21 0.243635 0.000000 0.930675
O O22 0.272809 0.730209 0.000000
O O23 0.247920 0.000000 0.212721
#
# Coordination Sequence:
#
# PCOD9381816 Si02
#       8
#     8   8   8   8   8   8   8   8
#     4  10  18  29  48  70  93 122 154 191 236 282
#     4  11  24  39  55  76  99 121 148 187 236 290
#     4  10  18  29  49  74  99 127 158 195 236 278
#     4   8  14  24  39  62  90 118 149 184 224 272
#     4  11  24  40  56  72  91 119 156 197 239 285
#     4   8  14  25  42  66  95 126 161 198 234 274
#     4   8  13  21  33  52  82 118 151 184 225 270
#     4   9  16  25  40  64  92 120 153 192 232 276
#
# _framework density 19.400465000000001
#
# number of rings (size 3 to 8) (size 9 to 14) (size 15 to 20)
#    0.000    2.625    1.250    1.875    0.000    3.250 
#    0.000    1.250    0.000    0.750    0.000    4.375 
#    0.000    0.500    0.000    7.000    0.000    0.000 
#
# Total GULP energy -356797.535565 kJ/mol
# GULP energy per Si atom -5574.961493 kJ/mol
# Density = 1.935631 g / cm^3
# Si number density = 19.400465 Si / 1000 Ang^3
#
#
#
# Elastic Constant Matrix: (Units=GPa)
#
#
# Indices 1 2 3 4 5 6 
#
# 1 87.9760 -3.7452 65.6766 0.0000 0.0000 0.0000
# 2 -3.7452 43.1183 -2.6203 0.0000 0.0000 0.0000
# 3 65.6766 -2.6203 164.4873 0.0000 0.0000 0.0000
# 4 0.0000 0.0000 0.0000 12.4810 0.0000 0.0000
# 5 0.0000 0.0000 0.0000 0.0000 83.8318 0.0000
# 6 0.0000 0.0000 0.0000 0.0000 0.0000 60.6018
#
#
#
# Elastic Compliance Matrix: (Units=1/GPa)
#
#
# Indices 1 2 3 4 5 6 
#
# 1 0.016238 0.001017 -0.006467 0.000000 0.000000 0.000000
# 2 0.001017 0.023278 -0.000035 0.000000 0.000000 0.000000
# 3 -0.006467 -0.000035 0.008661 0.000000 0.000000 0.000000
# 4 0.000000 0.000000 0.000000 0.080122 0.000000 0.000000
# 5 0.000000 0.000000 0.000000 0.000000 0.011929 0.000000
# 6 0.000000 0.000000 0.000000 0.000000 0.000000 0.016501
#
#
# Mechanical properties :
#
#
# Convention : Reuss Voigt Hill
#
# Bulk Modulus (GPa) = 26.87679 46.02264 36.44972
# Shear Modulus (GPa) = 27.76203 47.13427 37.44815
#
# Velocity S-wave (km/s) = 3.78696 4.93439 4.39825
# Velocity P-wave (km/s) = 5.74501 7.49921 6.67995
#
# Compressibility (1/GPa) = 0.03720682
#
# Stress axis : x y z
#
# Youngs Moduli (GPa) = 61.58344 42.95864 115.45704
#
# Poissons Ratio (x) = -0.04371 0.74670
# Poissons Ratio (y) = -0.06266 0.00409
# Poissons Ratio (z) = 0.39828 0.00152
#
# Static dielectric constant tensor:
#      x y z
#    x 1.650270 0.000000 0.000000 
#    y 0.000000 1.710520 0.000000 
#    z 0.000000 0.000000 1.742810 
# 
# From -- ./inp_files/11786.got.cif
#   From: 2010.05.17/outbox.cif.g08.bks.cpg/sg47_6_cif.got.tgz:11786.got - 2010.06.03 20:15:42.
