data_PCOD9381732
_publ_section_title
;
Structure prediction by ZEFSAII (Michael W. Deem and Ramdas Pophale) SiO2 
 PCOD9381732
Probable space group: P M M M
;
_chemical_formula_sum "Si O2"
_cell_formula_units_Z 64
_cell_length_a 19.705168
_cell_length_b 24.699261
_cell_length_c 7.809491
_cell_angle_alpha 90.000000
_cell_angle_beta 90.000000
_cell_angle_gamma 90.000000
_cell_volume 3800.903381
_symmetry_space_group_name_H-M "P M M M"
_symmetry_group_IT_number 47
_symmetry_cell_setting 'orthorhombic'
loop_
_space_group_symop_operation_xyz
x,y,z
-x,-y,z
x,-y,-z
-x,y,-z
-x,-y,-z
x,y,-z
-x,y,z
x,-y,z
loop_
_atom_site_type_symbol
_atom_site_label
_atom_site_fract_x
_atom_site_fract_y
_atom_site_fract_z
Si Si1 0.075174 0.893120 0.798447
Si Si2 0.783617 0.939507 0.210185
Si Si3 0.578309 0.438876 0.290909
Si Si4 0.784565 0.271396 0.203631
Si Si5 0.924463 0.769450 0.296876
Si Si6 0.657685 0.334816 0.705085
Si Si7 0.704466 0.834589 0.794338
Si Si8 0.576819 0.228802 0.293709
O O1 0.140161 0.924754 0.729977
O O2 0.088566 0.828737 0.782950
O O3 0.000000 0.903647 0.724032
O O4 0.071639 0.906063 0.000000
O O5 0.733725 0.891593 0.267575
O O6 0.764690 0.000000 0.262961
O O7 0.784356 0.938544 0.000000
O O8 0.579845 0.439252 0.500000
O O9 0.500000 0.427188 0.243038
O O10 0.595123 0.500000 0.234727
O O11 0.628086 0.391546 0.230245
O O12 0.862774 0.270304 0.256332
O O13 0.735603 0.320157 0.257813
O O14 0.749756 0.215859 0.272498
O O15 0.782431 0.268848 0.000000
O O16 0.925935 0.777481 0.500000
O O17 0.000000 0.751861 0.240789
O O18 0.650017 0.335483 0.500000
O O19 0.612596 0.284140 0.770419
O O20 0.627282 0.819929 0.751485
O O21 0.710907 0.834596 0.000000
O O22 0.574442 0.232295 0.500000
O O23 0.500000 0.223435 0.230549
#
# Coordination Sequence:
#
# PCOD9381732 Si02
#       8
#     8   8   8   8   8   8   8   8
#     4   9  16  27  43  62  84 110 139 170 205 247
#     4   9  16  27  43  62  83 106 136 175 212 249
#     4   8  13  22  39  64  93 125 159 190 216 245
#     4  10  18  29  44  62  86 114 144 178 216 257
#     4  10  19  29  43  63  86 113 143 174 211 256
#     4   9  16  26  42  65  91 117 146 182 217 249
#     4   9  17  29  43  61  82 105 134 169 211 256
#     4   9  17  28  43  63  84 107 135 171 215 257
#
# _framework density 16.838103
#
# number of rings (size 3 to 8) (size 9 to 14) (size 15 to 20)
#    0.000    2.875    1.250    1.500    0.000    3.250 
#    0.000    1.250    0.000    3.375    0.000    5.250 
#    0.000    0.500    0.000    5.750    0.000    1.625 
#
# Total GULP energy -356627.579670 kJ/mol
# GULP energy per Si atom -5572.305932 kJ/mol
# Density = 1.679978 g / cm^3
# Si number density = 16.838103 Si / 1000 Ang^3
#
#
#
# Elastic Constant Matrix: (Units=GPa)
#
#
# Indices 1 2 3 4 5 6 
#
# 1 118.0652 69.5686 0.1864 0.0000 0.0000 0.0000
# 2 69.5686 103.9834 6.6347 0.0000 0.0000 0.0000
# 3 0.1864 6.6347 19.7870 0.0000 0.0000 0.0000
# 4 0.0000 0.0000 0.0000 8.5775 0.0000 0.0000
# 5 0.0000 0.0000 0.0000 0.0000 14.6873 0.0000
# 6 0.0000 0.0000 0.0000 0.0000 0.0000 20.8549
#
#
#
# Elastic Compliance Matrix: (Units=1/GPa)
#
#
# Indices 1 2 3 4 5 6 
#
# 1 0.014167 -0.009677 0.003111 0.000000 0.000000 0.000000
# 2 -0.009677 0.016437 -0.005420 0.000000 0.000000 0.000000
# 3 0.003111 -0.005420 0.052326 0.000000 0.000000 0.000000
# 4 0.000000 0.000000 0.000000 0.116584 0.000000 0.000000
# 5 0.000000 0.000000 0.000000 0.000000 0.068086 0.000000
# 6 0.000000 0.000000 0.000000 0.000000 0.000000 0.047950
#
#
# Mechanical properties :
#
#
# Convention : Reuss Voigt Hill
#
# Bulk Modulus (GPa) = 16.96100 43.84608 30.40354
# Shear Modulus (GPa) = 13.92082 19.85368 16.88725
#
# Velocity S-wave (km/s) = 2.87844 3.43752 3.17033
# Velocity P-wave (km/s) = 4.59805 6.46929 5.61221
#
# Compressibility (1/GPa) = 0.05895880
#
# Stress axis : x y z
#
# Youngs Moduli (GPa) = 70.58751 60.83933 19.11080
#
# Poissons Ratio (x) = 0.58872 -0.05946
# Poissons Ratio (y) = 0.68305 0.10358
# Poissons Ratio (z) = -0.21961 0.32976
#
# Static dielectric constant tensor:
#      x y z
#    x 1.597420 0.000000 0.000000 
#    y 0.000000 1.558560 0.000000 
#    z 0.000000 0.000000 1.623350 
# 
# From -- ./inp_files/10205.got.cif
#   From: 2010.05.17/outbox.cif.g08.bks.cpg/sg47_6_cif.got.tgz:10205.got - 2010.06.03 20:15:42.
