data_PCOD9381893
_publ_section_title
;
Structure prediction by ZEFSAII (Michael W. Deem and Ramdas Pophale) SiO2 
 PCOD9381893
Probable space group: P M M M
;
_chemical_formula_sum "Si O2"
_cell_formula_units_Z 52
_cell_length_a 10.553201
_cell_length_b 20.643162
_cell_length_c 14.623932
_cell_angle_alpha 90.000000
_cell_angle_beta 90.000000
_cell_angle_gamma 90.000000
_cell_volume 3185.844613
_symmetry_space_group_name_H-M "P M M M"
_symmetry_group_IT_number 47
_symmetry_cell_setting 'orthorhombic'
loop_
_space_group_symop_operation_xyz
x,y,z
-x,-y,z
x,-y,-z
-x,y,-z
-x,-y,-z
x,y,-z
-x,y,z
x,-y,z
loop_
_atom_site_type_symbol
_atom_site_label
_atom_site_fract_x
_atom_site_fract_y
_atom_site_fract_z
Si Si1 0.847932 0.721842 0.898357
Si Si2 0.153824 0.803310 0.394908
Si Si3 0.146876 0.071479 0.287286
Si Si4 0.500000 0.073277 0.889895
Si Si5 0.847439 0.667692 0.705540
Si Si6 0.230178 0.129828 0.106725
Si Si7 0.355225 0.577247 0.609010
O O1 0.818338 0.676242 0.813155
O O2 0.793172 0.793751 0.884301
O O3 0.000000 0.729942 0.897482
O O4 0.810402 0.699001 0.000000
O O5 0.196352 0.800718 0.500000
O O6 0.201984 0.867700 0.343329
O O7 0.182215 0.737085 0.341533
O O8 0.000000 0.806562 0.395088
O O9 0.149902 0.090694 0.180557
O O10 0.000000 0.067253 0.315175
O O11 0.204351 0.000000 0.301008
O O12 0.626724 0.111346 0.867312
O O13 0.500000 0.000000 0.853078
O O14 0.500000 0.068322 0.000000
O O15 0.755882 0.615082 0.660501
O O16 0.000000 0.655427 0.694194
O O17 0.206460 0.112649 0.000000
O O18 0.343170 0.588736 0.500000
O O19 0.500000 0.596360 0.635430
O O20 0.344185 0.500000 0.623670
#
# Coordination Sequence:
#
# PCOD9381893 Si02
#       7
#     8   8   8   4   8   8   8
#     4   9  17  30  49  72 100 132 163 202 254 304
#     4   9  17  29  44  64  92 124 157 197 244 287
#     4  10  19  29  42  63  89 117 155 199 243 296
#     4   9  18  30  42  58  83 117 156 201 255 309
#     4  10  18  31  53  79 105 133 170 214 253 295
#     4  10  18  30  46  62  86 120 157 200 250 304
#     4   9  19  36  56  80 112 143 167 199 248 301
#
# _framework density 16.322202999999998
#
# number of rings (size 3 to 8) (size 9 to 14) (size 15 to 20)
#    0.000    2.538    1.538    1.846    0.000    3.385 
#    1.385    3.077    0.000    0.462    0.000    3.231 
#    0.000    1.846    0.000    0.000    0.000    0.000 
#
# Total GULP energy -289497.410589 kJ/mol
# GULP energy per Si atom -5567.257896 kJ/mol
# Density = 1.628505 g / cm^3
# Si number density = 16.322203 Si / 1000 Ang^3
#
#
#
# Elastic Constant Matrix: (Units=GPa)
#
#
# Indices 1 2 3 4 5 6 
#
# 1 48.9499 43.6346 35.8500 0.0000 0.0000 0.0000
# 2 43.6346 77.4164 52.5015 0.0000 0.0000 0.0000
# 3 35.8500 52.5015 95.1466 0.0000 0.0000 0.0000
# 4 0.0000 0.0000 0.0000 19.3479 0.0000 0.0000
# 5 0.0000 0.0000 0.0000 0.0000 7.8311 0.0000
# 6 0.0000 0.0000 0.0000 0.0000 0.0000 16.5523
#
#
#
# Elastic Compliance Matrix: (Units=1/GPa)
#
#
# Indices 1 2 3 4 5 6 
#
# 1 0.042197 -0.020776 -0.004435 0.000000 0.000000 0.000000
# 2 -0.020776 0.030871 -0.009206 0.000000 0.000000 0.000000
# 3 -0.004435 -0.009206 0.017261 0.000000 0.000000 0.000000
# 4 0.000000 0.000000 0.000000 0.051685 0.000000 0.000000
# 5 0.000000 0.000000 0.000000 0.000000 0.127696 0.000000
# 6 0.000000 0.000000 0.000000 0.000000 0.000000 0.060415
#
#
# Mechanical properties :
#
#
# Convention : Reuss Voigt Hill
#
# Bulk Modulus (GPa) = 46.52411 53.94279 50.23345
# Shear Modulus (GPa) = 12.31149 14.71472 13.51311
#
# Velocity S-wave (km/s) = 2.74939 3.00578 2.88044
# Velocity P-wave (km/s) = 6.21646 6.72062 6.47345
#
# Compressibility (1/GPa) = 0.02149423
#
# Stress axis : x y z
#
# Youngs Moduli (GPa) = 23.69815 32.39334 57.93350
#
# Poissons Ratio (x) = 0.67300 0.25695
# Poissons Ratio (y) = 0.49235 0.53334
# Poissons Ratio (z) = 0.10511 0.29822
#
# Static dielectric constant tensor:
#      x y z
#    x 1.835770 0.000000 0.000000 
#    y 0.000000 1.543020 0.000000 
#    z 0.000000 0.000000 1.571910 
# 
# From -- ./inp_files/17779.got.cif
#   From: 2010.05.17/outbox.cif.g08.bks.cpg/sg47_9_cif.got.tgz:17779.got - 2010.06.03 20:15:42.
