data_PCOD9381119
_publ_section_title
;
Structure prediction by ZEFSAII (Michael W. Deem and Ramdas Pophale) SiO2 
 PCOD9381119
Probable space group: I M A 2
;
_chemical_formula_sum "Si O2"
_cell_formula_units_Z 32
_cell_length_a 9.000000
_cell_length_b 18.000000
_cell_length_c 21.000000
_cell_angle_alpha 90.000000
_cell_angle_beta 90.000000
_cell_angle_gamma 90.000000
_cell_volume 3402.000000
_symmetry_space_group_name_H-M "I M A 2"
_symmetry_group_IT_number 46
_symmetry_cell_setting 'orthorhombic'
loop_
_space_group_symop_operation_xyz
x,y,z
-x,-y,z
1/2-x,y,z
1/2+x,-y,z
1/2+x,1/2+y,1/2+z
1/2-x,1/2-y,1/2+z
-x,1/2+y,1/2+z
x,1/2-y,1/2+z
loop_
_atom_site_type_symbol
_atom_site_label
_atom_site_fract_x
_atom_site_fract_y
_atom_site_fract_z
Si Si1 0.925460 0.323874 0.684280
Si Si2 0.573040 0.665249 0.193790
Si Si3 0.074452 0.419439 0.577088
Si Si4 0.576573 0.919937 0.933004
Si Si5 0.919052 0.160230 0.820690
Si Si6 0.571209 0.919389 0.568923
Si Si7 0.083767 0.838907 0.322886
Si Si8 0.924572 0.920160 0.430845
O O1 0.750000 0.306271 0.679676
O O2 0.945704 0.366209 0.751340
O O3 0.021330 0.249730 0.688365
O O4 0.984913 0.369877 0.625810
O O5 0.750000 0.660587 0.199048
O O6 0.498657 0.632717 0.256882
O O7 0.520731 0.626125 0.129586
O O8 0.250000 0.423212 0.592318
O O9 0.059501 0.391015 0.504894
O O10 0.000000 0.500000 0.578498
O O11 0.750000 0.928983 0.920125
O O12 0.503862 0.866529 0.882313
O O13 0.500000 0.000000 0.928996
O O14 0.750000 0.134131 0.822006
O O15 0.918568 0.249720 0.819364
O O16 0.750000 0.924782 0.572140
O O17 0.531137 0.887155 0.499714
O O18 0.500000 0.000000 0.571449
O O19 0.250000 0.862316 0.342052
O O20 0.969963 0.868112 0.373640
O O21 0.750000 0.931785 0.431699
O O22 0.000000 0.000000 0.423377
#
# Coordination Sequence:
#
# PCOD9381119 Si02
#       8
#     8   8   8   8   8   8   8   8
#     4  10  21  37  56  79 108 142 181 222 267 321
#     4  10  20  36  56  79 109 142 179 223 269 317
#     4  10  21  37  57  81 109 141 179 223 270 322
#     4  10  21  37  57  81 109 142 180 222 269 321
#     4  10  21  37  56  80 110 142 179 221 266 320
#     4   9  20  36  54  78 106 137 174 216 261 312
#     4   9  20  37  54  76 106 139 176 217 260 311
#     4  10  20  35  55  78 105 137 174 216 262 312
#
# _framework density 9.4062319999999993
#
# number of rings (size 3 to 8) (size 9 to 14) (size 15 to 20)
#    0.000    2.250    0.000    3.000    0.000    8.000 
#    0.000    5.000    0.000    0.000    0.000    0.000 
#    0.000    0.000    0.000    0.000    0.000    0.000 
#
# Total GULP energy -178398.991100 kJ/mol
# GULP energy per Si atom -5574.968472 kJ/mol
# Density = 0.938482 g / cm^3
# Si number density = 9.406232 Si / 1000 Ang^3
#
#
#
# Elastic Constant Matrix: (Units=GPa)
#
#
# Indices 1 2 3 4 5 6 
#
# 1 69.4060 13.8942 69.7855 0.0000 0.0000 0.0000
# 2 13.8942 5.6709 28.8545 0.0000 0.0000 0.0000
# 3 69.7855 28.8545 75.8374 0.0000 0.0000 0.0000
# 4 0.0000 0.0000 0.0000 23.7245 0.0000 0.0000
# 5 0.0000 0.0000 0.0000 0.0000 23.8318 0.0000
# 6 0.0000 0.0000 0.0000 0.0000 0.0000 24.9646
#
#
#
# Elastic Compliance Matrix: (Units=1/GPa)
#
#
# Indices 1 2 3 4 5 6 
#
# 1 0.028268 -0.067414 -0.000363 0.000000 0.000000 0.000000
# 2 -0.067414 -0.027639 0.072550 0.000000 0.000000 0.000000
# 3 -0.000363 0.072550 -0.014084 0.000000 0.000000 0.000000
# 4 0.000000 0.000000 0.000000 0.042151 0.000000 0.000000
# 5 0.000000 0.000000 0.000000 0.000000 0.041961 0.000000
# 6 0.000000 0.000000 0.000000 0.000000 0.000000 0.040057
#
#
# Mechanical properties :
#
#
# Convention : Reuss Voigt Hill
#
# Bulk Modulus (GPa) = -255.92699 41.77586 -107.07556
# Shear Modulus (GPa) = 50.06802 17.06284 33.56543
#
# Velocity S-wave (km/s) = 5.16450 3.01491 4.22858
# Velocity P-wave (km/s) = 10.03861 5.86295 5.76192
#
# Compressibility (1/GPa) = -0.00390736
#
# Stress axis : x y z
#
# Youngs Moduli (GPa) = 35.37551 -36.18137 -71.00256
#
# Poissons Ratio (x) = -2.43913 -0.02575
# Poissons Ratio (y) = 2.38481 5.15126
# Poissons Ratio (z) = 0.01283 2.62497
#
# Static dielectric constant tensor:
#      x y z
#    x 1.628840 0.000000 0.000000 
#    y 0.000000 1.603490 0.000000 
#    z 0.000000 0.000000 1.676500 
# 
# From -- ./inp_files/21318.got.cif
#   From: 2010.05.17/outbox.ucp.g08.bks.cvg/sg46_11_cif.got.tgz:21318.got - 2010.06.11 16:34:52.
