data_PCOD9381764
_publ_section_title
;
Structure prediction by ZEFSAII (Michael W. Deem and Ramdas Pophale) SiO2 
 PCOD9381764
Probable space group: P M M M
;
_chemical_formula_sum "Si O2"
_cell_formula_units_Z 64
_cell_length_a 9.047972
_cell_length_b 24.120101
_cell_length_c 19.498131
_cell_angle_alpha 90.000000
_cell_angle_beta 90.000000
_cell_angle_gamma 90.000000
_cell_volume 4255.233084
_symmetry_space_group_name_H-M "P M M M"
_symmetry_group_IT_number 47
_symmetry_cell_setting 'orthorhombic'
loop_
_space_group_symop_operation_xyz
x,y,z
-x,-y,z
x,-y,-z
-x,y,-z
-x,-y,-z
x,y,-z
-x,y,z
x,-y,z
loop_
_atom_site_type_symbol
_atom_site_label
_atom_site_fract_x
_atom_site_fract_y
_atom_site_fract_z
Si Si1 0.323896 0.222443 0.285822
Si Si2 0.676885 0.333616 0.199567
Si Si3 0.177589 0.272290 0.078684
Si Si4 0.822811 0.388373 0.577468
Si Si5 0.177044 0.743193 0.577950
Si Si6 0.678215 0.437383 0.711035
Si Si7 0.322764 0.935188 0.079514
Si Si8 0.823203 0.161593 0.836732
O O1 0.500000 0.215270 0.286238
O O2 0.290525 0.282530 0.251237
O O3 0.259400 0.224409 0.362137
O O4 0.248414 0.177786 0.235964
O O5 0.500000 0.335332 0.190400
O O6 0.752458 0.318201 0.128106
O O7 0.726660 0.390647 0.234694
O O8 0.215299 0.212569 0.111844
O O9 0.000000 0.277106 0.080432
O O10 0.226896 0.275638 0.000000
O O11 0.780250 0.405106 0.500000
O O12 0.789921 0.322658 0.584725
O O13 0.743388 0.421579 0.637172
O O14 0.000000 0.394636 0.583378
O O15 0.216647 0.759466 0.500000
O O16 0.000000 0.749172 0.585511
O O17 0.500000 0.434484 0.707161
O O18 0.720365 0.500000 0.729920
O O19 0.500000 0.928320 0.085844
O O20 0.240533 0.894068 0.130425
O O21 0.289179 0.000000 0.091955
O O22 0.283346 0.922852 0.000000
O O23 0.000000 0.159168 0.830748
#
# Coordination Sequence:
#
# PCOD9381764 Si02
#       8
#     8   8   8   8   8   8   8   8
#     4  10  18  29  46  67  91 119 153 191 231 275
#     4   9  18  31  45  64  86 110 142 179 223 273
#     4   9  18  31  47  68  91 114 141 179 226 271
#     4   9  18  31  46  64  87 115 147 182 219 265
#     4   9  17  29  45  65  90 120 151 184 226 274
#     4  10  20  33  47  63  85 112 145 186 226 268
#     4   9  18  32  48  67  96 134 170 201 232 266
#     4  10  19  30  46  69  97 126 157 194 231 270
#
# _framework density 15.040304000000001
#
# number of rings (size 3 to 8) (size 9 to 14) (size 15 to 20)
#    0.000    2.625    1.250    2.250    0.000    3.750 
#    0.000    3.125    0.000    0.375    0.000    2.625 
#    0.000    0.500    0.000    5.250    0.000    2.250 
#
# Total GULP energy -356796.606306 kJ/mol
# GULP energy per Si atom -5574.946974 kJ/mol
# Density = 1.500607 g / cm^3
# Si number density = 15.040304 Si / 1000 Ang^3
#
#
#
# Elastic Constant Matrix: (Units=GPa)
#
#
# Indices 1 2 3 4 5 6 
#
# 1 25.2995 35.0283 42.0028 0.0000 0.0000 0.0000
# 2 35.0283 81.8823 56.5739 0.0000 0.0000 0.0000
# 3 42.0028 56.5739 119.7401 0.0000 0.0000 0.0000
# 4 0.0000 0.0000 0.0000 26.2963 0.0000 0.0000
# 5 0.0000 0.0000 0.0000 0.0000 28.3561 0.0000
# 6 0.0000 0.0000 0.0000 0.0000 0.0000 20.5939
#
#
#
# Elastic Compliance Matrix: (Units=1/GPa)
#
#
# Indices 1 2 3 4 5 6 
#
# 1 0.156597 -0.043110 -0.034563 0.000000 0.000000 0.000000
# 2 -0.043110 0.029999 0.000948 0.000000 0.000000 0.000000
# 3 -0.034563 0.000948 0.020028 0.000000 0.000000 0.000000
# 4 0.000000 0.000000 0.000000 0.038028 0.000000 0.000000
# 5 0.000000 0.000000 0.000000 0.000000 0.035266 0.000000
# 6 0.000000 0.000000 0.000000 0.000000 0.000000 0.048558
#
#
# Mechanical properties :
#
#
# Convention : Reuss Voigt Hill
#
# Bulk Modulus (GPa) = 18.80615 54.90355 36.85485
# Shear Modulus (GPa) = 10.00700 21.27039 15.63869
#
# Velocity S-wave (km/s) = 2.58223 3.76470 3.22807
# Velocity P-wave (km/s) = 4.62834 7.44854 6.20090
#
# Compressibility (1/GPa) = 0.05317410
#
# Stress axis : x y z
#
# Youngs Moduli (GPa) = 6.38582 33.33409 49.93119
#
# Poissons Ratio (x) = 1.43703 1.72579
# Poissons Ratio (y) = 0.27529 -0.04736
# Poissons Ratio (z) = 0.22072 -0.03161
#
# Static dielectric constant tensor:
#      x y z
#    x 1.498910 0.000000 0.000000 
#    y 0.000000 1.485270 0.000000 
#    z 0.000000 0.000000 1.488810 
# 
# From -- ./inp_files/10000.got.cif
#   From: 2010.05.17/outbox.cif.g08.bks.cpg/sg47_5_cif.got.tgz:10000.got - 2010.06.03 20:15:42.
