data_PCOD9381469
_publ_section_title
;
Structure prediction by ZEFSAII (Michael W. Deem and Ramdas Pophale) SiO2 
 PCOD9381469
Probable space group: P M M M
;
_chemical_formula_sum "Si O2"
_cell_formula_units_Z 64
_cell_length_a 20.919683
_cell_length_b 7.804446
_cell_length_c 20.469663
_cell_angle_alpha 90.000000
_cell_angle_beta 90.000000
_cell_angle_gamma 90.000000
_cell_volume 3342.010977
_symmetry_space_group_name_H-M "P M M M"
_symmetry_group_IT_number 47
_symmetry_cell_setting 'orthorhombic'
loop_
_space_group_symop_operation_xyz
x,y,z
-x,-y,z
x,-y,-z
-x,y,-z
-x,-y,-z
x,y,-z
-x,y,z
x,-y,z
loop_
_atom_site_type_symbol
_atom_site_label
_atom_site_fract_x
_atom_site_fract_y
_atom_site_fract_z
Si Si1 0.901970 0.300735 0.787005
Si Si2 0.199184 0.699729 0.425281
Si Si3 0.314338 0.198487 0.336143
Si Si4 0.096757 0.292618 0.929316
Si Si5 0.930456 0.800679 0.357352
Si Si6 0.426822 0.209633 0.425693
Si Si7 0.249316 0.705479 0.929668
Si Si8 0.244807 0.798743 0.210829
O O1 0.920392 0.500000 0.782913
O O2 0.924685 0.231165 0.857761
O O3 0.924826 0.212634 0.721134
O O4 0.824558 0.289698 0.787176
O O5 0.195680 0.761045 0.500000
O O6 0.217146 0.500000 0.425584
O O7 0.253336 0.794226 0.383986
O O8 0.130695 0.715850 0.390404
O O9 0.374885 0.273919 0.374114
O O10 0.290303 0.272624 0.267436
O O11 0.330483 0.000000 0.322922
O O12 0.088019 0.500000 0.928701
O O13 0.172979 0.259533 0.930322
O O14 0.072007 0.230894 0.000000
O O15 0.000000 0.729722 0.376685
O O16 0.928193 0.000000 0.375524
O O17 0.410846 0.262604 0.500000
O O18 0.500000 0.259393 0.411762
O O19 0.424943 0.000000 0.425647
O O20 0.256248 0.500000 0.927138
O O21 0.273298 0.779755 0.861631
O O22 0.274933 0.766066 0.000000
O O23 0.232613 0.000000 0.223762
#
# Coordination Sequence:
#
# PCOD9381469 Si02
#       8
#     8   8   8   8   8   8   8   8
#     4  10  18  30  50  71  94 125 161 201 242 289
#     4  11  24  39  56  78 100 124 158 200 246 300
#     4  10  19  31  50  76 106 136 165 202 246 292
#     4   7  11  21  39  64  90 116 149 188 229 274
#     4  11  24  40  56  73  94 123 160 203 253 307
#     4   8  14  26  46  72 100 133 174 211 240 278
#     4   8  14  25  40  59  87 125 165 201 241 290
#     4  10  18  26  41  68 100 130 161 198 245 296
#
# _framework density 19.150145999999999
#
# number of rings (size 3 to 8) (size 9 to 14) (size 15 to 20)
#    0.000    2.625    1.250    3.750    0.000    3.500 
#    0.000    1.250    0.000    1.875    0.000    4.375 
#    0.000    0.500    0.000    6.250    0.000    1.125 
#
# Total GULP energy -356846.591287 kJ/mol
# GULP energy per Si atom -5575.727989 kJ/mol
# Density = 1.910656 g / cm^3
# Si number density = 19.150146 Si / 1000 Ang^3
#
#
#
# Elastic Constant Matrix: (Units=GPa)
#
#
# Indices 1 2 3 4 5 6 
#
# 1 81.7408 -3.5411 56.4082 0.0000 0.0000 0.0000
# 2 -3.5411 28.0933 -1.5415 0.0000 0.0000 0.0000
# 3 56.4082 -1.5415 145.2383 0.0000 0.0000 0.0000
# 4 0.0000 0.0000 0.0000 42.4434 0.0000 0.0000
# 5 0.0000 0.0000 0.0000 0.0000 148.1970 0.0000
# 6 0.0000 0.0000 0.0000 0.0000 0.0000 30.8745
#
#
#
# Elastic Compliance Matrix: (Units=1/GPa)
#
#
# Indices 1 2 3 4 5 6 
#
# 1 0.016800 0.001761 -0.006506 0.000000 0.000000 0.000000
# 2 0.001761 0.035801 -0.000304 0.000000 0.000000 0.000000
# 3 -0.006506 -0.000304 0.009409 0.000000 0.000000 0.000000
# 4 0.000000 0.000000 0.000000 0.023561 0.000000 0.000000
# 5 0.000000 0.000000 0.000000 0.000000 0.006748 0.000000
# 6 0.000000 0.000000 0.000000 0.000000 0.000000 0.032389
#
#
# Mechanical properties :
#
#
# Convention : Reuss Voigt Hill
#
# Bulk Modulus (GPa) = 19.26372 39.74707 29.50540
# Shear Modulus (GPa) = 32.87101 57.88611 45.37856
#
# Velocity S-wave (km/s) = 4.14755 5.50392 4.87315
# Velocity P-wave (km/s) = 5.74607 7.82249 6.86326
#
# Compressibility (1/GPa) = 0.05191105
#
# Stress axis : x y z
#
# Youngs Moduli (GPa) = 59.52443 27.93219 106.28271
#
# Poissons Ratio (x) = -0.04918 0.69148
# Poissons Ratio (y) = -0.10480 0.03229
# Poissons Ratio (z) = 0.38727 0.00849
#
# Static dielectric constant tensor:
#      x y z
#    x 1.652760 0.000000 0.000000 
#    y 0.000000 1.696230 0.000000 
#    z 0.000000 0.000000 1.725620 
# 
# From -- ./inp_files/31548.got.cif
#   From: 2010.05.17/outbox.cif.g08.bks.cpg/sg47_16_cif.got.tgz:31548.got - 2010.06.03 20:15:42.
