data_PCOD9381632
_publ_section_title
;
Structure prediction by ZEFSAII (Michael W. Deem and Ramdas Pophale) SiO2 
 PCOD9381632
Probable space group: P M M M
;
_chemical_formula_sum "Si O2"
_cell_formula_units_Z 64
_cell_length_a 14.723811
_cell_length_b 7.521170
_cell_length_c 29.414852
_cell_angle_alpha 90.000000
_cell_angle_beta 90.000000
_cell_angle_gamma 90.000000
_cell_volume 3257.409111
_symmetry_space_group_name_H-M "P M M M"
_symmetry_group_IT_number 47
_symmetry_cell_setting 'orthorhombic'
loop_
_space_group_symop_operation_xyz
x,y,z
-x,-y,z
x,-y,-z
-x,y,-z
-x,-y,-z
x,y,-z
-x,y,z
x,-y,z
loop_
_atom_site_type_symbol
_atom_site_label
_atom_site_fract_x
_atom_site_fract_y
_atom_site_fract_z
Si Si1 0.602779 0.784389 0.786872
Si Si2 0.896806 0.290449 0.808868
Si Si3 0.103948 0.716803 0.450237
Si Si4 0.246977 0.285629 0.622004
Si Si5 0.731549 0.708532 0.870015
Si Si6 0.397711 0.282898 0.052759
Si Si7 0.232761 0.791106 0.272255
Si Si8 0.604757 0.716807 0.449011
O O1 0.500000 0.720499 0.782556
O O2 0.651569 0.725359 0.832925
O O3 0.671665 0.722078 0.747688
O O4 0.600256 0.000000 0.786583
O O5 0.903703 0.500000 0.818439
O O6 0.822568 0.217120 0.845400
O O7 0.849518 0.277954 0.759115
O O8 0.000000 0.217800 0.809992
O O9 0.138667 0.770709 0.500000
O O10 0.105274 0.500000 0.449838
O O11 0.163645 0.778271 0.408708
O O12 0.000000 0.772227 0.446289
O O13 0.249052 0.500000 0.620946
O O14 0.232823 0.237035 0.674115
O O15 0.335037 0.223526 0.593588
O O16 0.749639 0.500000 0.878193
O O17 0.684665 0.782023 0.915598
O O18 0.500000 0.227695 0.067668
O O19 0.397316 0.500000 0.054667
O O20 0.386983 0.232913 0.000000
O O21 0.230987 0.000000 0.263757
O O22 0.635585 0.771284 0.500000
O O23 0.500000 0.769658 0.444010
O O24 0.607667 0.500000 0.449216
#
# Coordination Sequence:
#
# PCOD9381632 Si02
#       8
#     8   8   8   8   8   8   8   8
#     4   9  18  32  47  62  85 118 151 184 224 266
#     4   9  18  33  51  68  87 113 148 193 238 271
#     4   8  14  25  42  64  85 103 128 163 201 244
#     4  10  18  28  45  67  88 111 140 175 216 259
#     4   9  16  27  46  70  91 115 153 194 225 259
#     4   8  13  21  36  63  98 129 153 180 218 264
#     4  10  21  34  46  64  90 118 148 180 219 272
#     4   8  14  25  42  65  90 114 144 183 221 255
#
# _framework density 19.647518000000002
#
# number of rings (size 3 to 8) (size 9 to 14) (size 15 to 20)
#    0.000    3.125    0.000    2.250    0.000    4.000 
#    0.000    1.250    0.000    2.250    0.000    6.125 
#    0.000    0.000    0.000    6.250    0.000    6.750 
#
# Total GULP energy -356590.317735 kJ/mol
# GULP energy per Si atom -5571.723715 kJ/mol
# Density = 1.960280 g / cm^3
# Si number density = 19.647518 Si / 1000 Ang^3
#
#
#
# Elastic Constant Matrix: (Units=GPa)
#
#
# Indices 1 2 3 4 5 6 
#
# 1 165.9606 6.1955 86.4209 0.0000 0.0000 0.0000
# 2 6.1955 49.3670 -2.8307 0.0000 0.0000 0.0000
# 3 86.4209 -2.8307 135.6451 0.0000 0.0000 0.0000
# 4 0.0000 0.0000 0.0000 117.4657 0.0000 0.0000
# 5 0.0000 0.0000 0.0000 0.0000 29.5930 0.0000
# 6 0.0000 0.0000 0.0000 0.0000 0.0000 2.7431
#
#
#
# Elastic Compliance Matrix: (Units=1/GPa)
#
#
# Indices 1 2 3 4 5 6 
#
# 1 0.009124 -0.001480 -0.005844 0.000000 0.000000 0.000000
# 2 -0.001480 0.020521 0.001371 0.000000 0.000000 0.000000
# 3 -0.005844 0.001371 0.011124 0.000000 0.000000 0.000000
# 4 0.000000 0.000000 0.000000 0.008513 0.000000 0.000000
# 5 0.000000 0.000000 0.000000 0.000000 0.033792 0.000000
# 6 0.000000 0.000000 0.000000 0.000000 0.000000 0.364555
#
#
# Mechanical properties :
#
#
# Convention : Reuss Voigt Hill
#
# Bulk Modulus (GPa) = 34.64612 58.94935 46.79774
# Shear Modulus (GPa) = 10.65747 47.37282 29.01514
#
# Velocity S-wave (km/s) = 2.33155 4.91566 3.84706
# Velocity P-wave (km/s) = 4.99202 7.89220 6.60330
#
# Compressibility (1/GPa) = 0.02886326
#
# Stress axis : x y z
#
# Youngs Moduli (GPa) = 109.60331 48.73102 89.89637
#
# Poissons Ratio (x) = 0.07213 0.52533
# Poissons Ratio (y) = 0.16222 -0.12327
# Poissons Ratio (z) = 0.64050 -0.06682
#
# Static dielectric constant tensor:
#      x y z
#    x 1.706540 0.000000 0.000000 
#    y 0.000000 1.753500 0.000000 
#    z 0.000000 0.000000 1.686650 
# 
# From -- ./inp_files/34673.got.cif
#   From: 2010.05.17/outbox.cif.g08.bks.cpg/sg47_18_cif.got.tgz:34673.got - 2010.06.03 20:15:42.
