data_PCOD9381546
_publ_section_title
;
Structure prediction by ZEFSAII (Michael W. Deem and Ramdas Pophale) SiO2 
 PCOD9381546
Probable space group: P M M M
;
_chemical_formula_sum "Si O2"
_cell_formula_units_Z 64
_cell_length_a 21.566299
_cell_length_b 17.782562
_cell_length_c 7.407868
_cell_angle_alpha 90.000000
_cell_angle_beta 90.000000
_cell_angle_gamma 90.000000
_cell_volume 2840.947373
_symmetry_space_group_name_H-M "P M M M"
_symmetry_group_IT_number 47
_symmetry_cell_setting 'orthorhombic'
loop_
_space_group_symop_operation_xyz
x,y,z
-x,-y,z
x,-y,-z
-x,y,-z
-x,-y,-z
x,y,-z
-x,y,z
x,-y,z
loop_
_atom_site_type_symbol
_atom_site_label
_atom_site_fract_x
_atom_site_fract_y
_atom_site_fract_z
Si Si1 0.199948 0.616523 0.706812
Si Si2 0.431050 0.707038 0.281935
Si Si3 0.568112 0.882238 0.791460
Si Si4 0.296106 0.082328 0.779145
Si Si5 0.933370 0.381633 0.719586
Si Si6 0.202995 0.790305 0.791373
Si Si7 0.335339 0.582441 0.279260
Si Si8 0.066812 0.796646 0.716750
O O1 0.199561 0.590097 0.500000
O O2 0.133689 0.591877 0.786192
O O3 0.201845 0.707870 0.703733
O O4 0.264790 0.590421 0.786266
O O5 0.427669 0.711624 0.500000
O O6 0.500000 0.679226 0.234690
O O7 0.425514 0.791810 0.212965
O O8 0.378189 0.650729 0.218094
O O9 0.500000 0.900645 0.712591
O O10 0.632761 0.911677 0.715116
O O11 0.566256 0.906804 0.000000
O O12 0.253434 0.151377 0.717683
O O13 0.271291 0.000000 0.730111
O O14 0.297033 0.086212 0.000000
O O15 0.932612 0.388527 0.500000
O O16 0.934091 0.292408 0.761291
O O17 0.000000 0.412497 0.780512
O O18 0.133504 0.824584 0.781714
O O19 0.217843 0.776051 0.000000
O O20 0.334049 0.586483 0.500000
O O21 0.359709 0.500000 0.231152
O O22 0.067768 0.802231 0.500000
O O23 0.000000 0.828032 0.779266
#
# Coordination Sequence:
#
# PCOD9381546 Si02
#       8
#     8   8   8   8   8   8   8   8
#     4   9  16  27  44  62  83 114 147 181 222 263
#     4   9  17  29  46  67  90 115 141 176 226 275
#     4   9  17  30  50  72  90 113 149 190 226 265
#     4   9  18  31  45  64  92 122 150 184 227 269
#     4   7  10  18  34  56  78 100 129 163 201 246
#     4  10  18  27  44  68  91 116 148 187 225 266
#     4   9  17  28  43  64  87 113 150 190 220 254
#     4   8  14  26  44  65  90 118 146 181 226 269
#
# _framework density 22.527697
#
# number of rings (size 3 to 8) (size 9 to 14) (size 15 to 20)
#    0.000    3.250    0.000    2.625    0.000    0.750 
#    0.000    3.125    0.000    5.625    0.000    8.750 
#    0.000    0.000    0.000    6.250    0.000    7.875 
#
# Total GULP energy -356903.325745 kJ/mol
# GULP energy per Si atom -5576.614465 kJ/mol
# Density = 2.247642 g / cm^3
# Si number density = 22.527697 Si / 1000 Ang^3
#
#
#
# Elastic Constant Matrix: (Units=GPa)
#
#
# Indices 1 2 3 4 5 6 
#
# 1 139.4162 55.3105 5.2015 0.0000 0.0000 0.0000
# 2 55.3105 83.7695 -0.1828 0.0000 0.0000 0.0000
# 3 5.2015 -0.1828 74.8400 0.0000 0.0000 0.0000
# 4 0.0000 0.0000 0.0000 19.3109 0.0000 0.0000
# 5 0.0000 0.0000 0.0000 0.0000 2.9962 0.0000
# 6 0.0000 0.0000 0.0000 0.0000 0.0000 -70.3452
#
#
#
# Elastic Compliance Matrix: (Units=1/GPa)
#
#
# Indices 1 2 3 4 5 6 
#
# 1 0.009754 -0.006442 -0.000694 0.000000 0.000000 0.000000
# 2 -0.006442 0.016192 0.000487 0.000000 0.000000 0.000000
# 3 -0.000694 0.000487 0.013411 0.000000 0.000000 0.000000
# 4 0.000000 0.000000 0.000000 0.051784 0.000000 0.000000
# 5 0.000000 0.000000 0.000000 0.000000 0.333757 0.000000
# 6 0.000000 0.000000 0.000000 0.000000 0.000000 -0.014216
#
#
# Mechanical properties :
#
#
# Convention : Reuss Voigt Hill
#
# Bulk Modulus (GPa) = 38.37177 46.52044 42.44610
# Shear Modulus (GPa) = 11.55623 6.23881 8.89752
#
# Velocity S-wave (km/s) = 2.26736 1.66596 1.98951
# Velocity P-wave (km/s) = 4.89129 4.93920 4.91530
#
# Compressibility (1/GPa) = 0.02606083
#
# Stress axis : x y z
#
# Youngs Moduli (GPa) = 102.51785 61.75865 74.56427
#
# Poissons Ratio (x) = 0.39785 0.05172
# Poissons Ratio (y) = 0.66042 -0.03633
# Poissons Ratio (z) = 0.07111 -0.03009
#
# Static dielectric constant tensor:
#      x y z
#    x 1.876120 0.000000 0.000000 
#    y 0.000000 1.779230 0.000000 
#    z 0.000000 0.000000 1.870400 
# 
# From -- ./inp_files/12862.got.cif
#   From: 2010.05.17/outbox.cif.g08.bks.cpg/sg47_7_cif.got.tgz:12862.got - 2010.06.03 20:15:42.
