data_PCOD9381326
_publ_section_title
;
Structure prediction by ZEFSAII (Michael W. Deem and Ramdas Pophale) SiO2 
 PCOD9381326
Probable space group: P M M M
;
_chemical_formula_sum "Si O2"
_cell_formula_units_Z 56
_cell_length_a 8.870158
_cell_length_b 21.110609
_cell_length_c 17.598223
_cell_angle_alpha 90.000000
_cell_angle_beta 90.000000
_cell_angle_gamma 90.000000
_cell_volume 3295.345345
_symmetry_space_group_name_H-M "P M M M"
_symmetry_group_IT_number 47
_symmetry_cell_setting 'orthorhombic'
loop_
_space_group_symop_operation_xyz
x,y,z
-x,-y,z
x,-y,-z
-x,y,-z
-x,-y,-z
x,y,-z
-x,y,z
x,-y,z
loop_
_atom_site_type_symbol
_atom_site_label
_atom_site_fract_x
_atom_site_fract_y
_atom_site_fract_z
Si Si1 0.817487 0.810821 0.811496
Si Si2 0.174021 0.606577 0.500000
Si Si3 0.183585 0.072197 0.086849
Si Si4 0.825691 0.760788 0.500000
Si Si5 0.320483 0.610845 0.341661
Si Si6 0.183724 0.690097 0.087002
Si Si7 0.181499 0.430107 0.184865
Si Si8 0.679460 0.761504 0.341657
O O1 0.767687 0.875376 0.852792
O O2 0.772412 0.751790 0.865063
O O3 0.750924 0.798565 0.728610
O O4 0.000000 0.810961 0.806533
O O5 0.180453 0.683729 0.500000
O O6 0.253738 0.587251 0.421722
O O7 0.000000 0.587187 0.500000
O O8 0.000000 0.072740 0.087078
O O9 0.230955 0.000000 0.103386
O O10 0.228951 0.088036 0.000000
O O11 0.745287 0.782011 0.422883
O O12 0.000000 0.779378 0.500000
O O13 0.500000 0.603447 0.342543
O O14 0.249722 0.578103 0.268442
O O15 0.285346 0.686204 0.333625
O O16 0.233458 0.626823 0.130737
O O17 0.000000 0.689376 0.085494
O O18 0.235447 0.692548 0.000000
O O19 0.218730 0.500000 0.154805
O O20 0.000000 0.425541 0.191088
O O21 0.500000 0.767921 0.341433
#
# Coordination Sequence:
#
# PCOD9381326 Si02
#       8
#     8   4   8   4   8   8   8   8
#     4  10  17  27  48  74  99 129 165 202 240 285
#     4   9  17  29  50  74  97 122 152 193 240 289
#     4   8  14  25  43  71 105 135 165 205 249 288
#     4   9  17  29  47  72  99 128 161 196 238 288
#     4  10  19  32  49  69  95 126 159 195 239 291
#     4   9  17  29  47  71  95 119 155 203 247 286
#     4  10  20  33  49  68  92 123 159 201 248 293
#     4  10  19  30  46  70 101 131 160 198 243 287
#
# _framework density 16.993665
#
# number of rings (size 3 to 8) (size 9 to 14) (size 15 to 20)
#    0.000    2.571    1.429    2.143    0.000    5.143 
#    0.000    1.786    0.000    5.571    0.000    2.500 
#    0.000    4.000    0.000    0.000    0.000    0.000 
#
# Total GULP energy -312307.219428 kJ/mol
# GULP energy per Si atom -5576.914633 kJ/mol
# Density = 1.695499 g / cm^3
# Si number density = 16.993665 Si / 1000 Ang^3
#
#
#
# Elastic Constant Matrix: (Units=GPa)
#
#
# Indices 1 2 3 4 5 6 
#
# 1 15.3348 26.6712 26.9883 0.0000 0.0000 0.0000
# 2 26.6712 91.1457 67.6240 0.0000 0.0000 0.0000
# 3 26.9883 67.6240 148.2196 0.0000 0.0000 0.0000
# 4 0.0000 0.0000 0.0000 4.7754 0.0000 0.0000
# 5 0.0000 0.0000 0.0000 0.0000 -14.8955 0.0000
# 6 0.0000 0.0000 0.0000 0.0000 0.0000 8.3631
#
#
#
# Elastic Compliance Matrix: (Units=1/GPa)
#
#
# Indices 1 2 3 4 5 6 
#
# 1 0.142827 -0.034012 -0.010488 0.000000 0.000000 0.000000
# 2 -0.034012 0.024685 -0.005069 0.000000 0.000000 0.000000
# 3 -0.010488 -0.005069 0.010969 0.000000 0.000000 0.000000
# 4 0.000000 0.000000 0.000000 0.209408 0.000000 0.000000
# 5 0.000000 0.000000 0.000000 0.000000 -0.067134 0.000000
# 6 0.000000 0.000000 0.000000 0.000000 0.000000 0.119573
#
#
# Mechanical properties :
#
#
# Convention : Reuss Voigt Hill
#
# Bulk Modulus (GPa) = 12.60383 55.25188 33.92786
# Shear Modulus (GPa) = 8.83525 8.54304 8.68914
#
# Velocity S-wave (km/s) = 2.28264 2.24457 2.26368
# Velocity P-wave (km/s) = 3.79211 6.26907 5.18080
#
# Compressibility (1/GPa) = 0.07934095
#
# Stress axis : x y z
#
# Youngs Moduli (GPa) = 7.00149 40.50987 91.16282
#
# Poissons Ratio (x) = 1.37784 0.95616
# Poissons Ratio (y) = 0.23814 0.46214
# Poissons Ratio (z) = 0.07343 0.20536
#
# Static dielectric constant tensor:
#      x y z
#    x 1.562630 0.000000 0.000000 
#    y 0.000000 1.581520 0.000000 
#    z 0.000000 0.000000 1.554140 
# 
# From -- ./inp_files/7402.got.cif
#   From: 2010.05.17/outbox.cif.g08.bks.cpg/sg47_4_cif.got.tgz:7402.got - 2010.06.03 20:15:42.
