data_PCOD9381678
_publ_section_title
;
Structure prediction by ZEFSAII (Michael W. Deem and Ramdas Pophale) SiO2 
 PCOD9381678
Probable space group: P M M M
;
_chemical_formula_sum "Si O2"
_cell_formula_units_Z 32
_cell_length_a 13.362801
_cell_length_b 7.298968
_cell_length_c 14.697266
_cell_angle_alpha 90.000000
_cell_angle_beta 90.000000
_cell_angle_gamma 90.000000
_cell_volume 1433.492797
_symmetry_space_group_name_H-M "P M M M"
_symmetry_group_IT_number 47
_symmetry_cell_setting 'orthorhombic'
loop_
_space_group_symop_operation_xyz
x,y,z
-x,-y,z
x,-y,-z
-x,y,-z
-x,-y,-z
x,y,-z
-x,y,z
x,-y,z
loop_
_atom_site_type_symbol
_atom_site_label
_atom_site_fract_x
_atom_site_fract_y
_atom_site_fract_z
Si Si1 0.000000 0.777122 0.106343
Si Si2 0.802974 0.795106 0.205903
Si Si3 0.881715 0.279998 0.598889
Si Si4 0.621214 0.784014 0.500000
Si Si5 0.384590 0.775349 0.298343
O O1 0.897058 0.710730 0.152953
O O2 0.000000 0.000000 0.118252
O O3 0.000000 0.735912 0.000000
O O4 0.838103 0.804799 0.310761
O O5 0.692693 0.713132 0.220626
O O6 0.789769 0.000000 0.167744
O O7 0.841042 0.221794 0.500000
O O8 0.871959 0.500000 0.604804
O O9 0.000000 0.239637 0.598653
O O10 0.500000 0.767718 0.500000
O O11 0.649040 0.711354 0.600189
O O12 0.642895 0.000000 0.500000
O O13 0.500000 0.723240 0.284154
O O14 0.381959 0.000000 0.299860
#
# Coordination Sequence:
#
# PCOD9381678 Si02
#       5
#     4   8   8   4   8
#     4   9  18  32  46  65  94 118 139 181 248 297
#     4  10  18  28  47  70  87 114 157 194 220 256
#     4   9  18  31  44  61  93 131 152 172 222 278
#     4   7  10  18  30  47  78 115 138 161 208 252
#     4   8  14  23  36  59  90 118 146 182 222 257
#
# _framework density 22.323098000000002
#
# number of rings (size 3 to 8) (size 9 to 14) (size 15 to 20)
#    0.000    3.250    1.250    2.250    1.750    0.500 
#    0.000    1.250    0.000    3.000    0.000    7.000 
#    0.000    0.000    0.000    2.250    0.000    2.500 
#
# Total GULP energy -178494.213113 kJ/mol
# GULP energy per Si atom -5577.944160 kJ/mol
# Density = 2.227229 g / cm^3
# Si number density = 22.323098 Si / 1000 Ang^3
#
#
#
# Elastic Constant Matrix: (Units=GPa)
#
#
# Indices 1 2 3 4 5 6 
#
# 1 177.2113 5.3707 72.6907 0.0000 0.0000 0.0000
# 2 5.3707 85.9379 3.4457 0.0000 0.0000 0.0000
# 3 72.6907 3.4457 88.1504 0.0000 0.0000 0.0000
# 4 0.0000 0.0000 0.0000 81.0613 0.0000 0.0000
# 5 0.0000 0.0000 0.0000 0.0000 21.4683 0.0000
# 6 0.0000 0.0000 0.0000 0.0000 0.0000 -99.6181
#
#
#
# Elastic Compliance Matrix: (Units=1/GPa)
#
#
# Indices 1 2 3 4 5 6 
#
# 1 0.008533 -0.000252 -0.007027 0.000000 0.000000 0.000000
# 2 -0.000252 0.011662 -0.000248 0.000000 0.000000 0.000000
# 3 -0.007027 -0.000248 0.017148 0.000000 0.000000 0.000000
# 4 0.000000 0.000000 0.000000 0.012336 0.000000 0.000000
# 5 0.000000 0.000000 0.000000 0.000000 0.046580 0.000000
# 6 0.000000 0.000000 0.000000 0.000000 0.000000 -0.010038
#
#
# Mechanical properties :
#
#
# Convention : Reuss Voigt Hill
#
# Bulk Modulus (GPa) = 44.86310 57.14596 51.00453
# Shear Modulus (GPa) = 45.99632 18.56847 32.28240
#
# Velocity S-wave (km/s) = 4.54418 2.88723 3.80694
# Velocity P-wave (km/s) = 6.90460 6.06382 6.49782
#
# Compressibility (1/GPa) = 0.02229003
#
# Stress axis : x y z
#
# Youngs Moduli (GPa) = 117.19438 85.74865 58.31521
#
# Poissons Ratio (x) = 0.02157 0.40975
# Poissons Ratio (y) = 0.02948 0.01449
# Poissons Ratio (z) = 0.82347 0.02130
#
# Static dielectric constant tensor:
#      x y z
#    x 1.931950 0.000000 0.000000 
#    y 0.000000 1.822080 0.000000 
#    z 0.000000 0.000000 1.763380 
# 
# From -- ./inp_files/23198.got.cif
#   From: 2010.05.17/outbox.cif.g08.bks.cpg/sg47_12_cif.got.tgz:23198.got - 2010.06.03 20:15:42.
