data_PCOD9381900
_publ_section_title
;
Structure prediction by ZEFSAII (Michael W. Deem and Ramdas Pophale) SiO2 
 PCOD9381900
Probable space group: P M M M
;
_chemical_formula_sum "Si O2"
_cell_formula_units_Z 52
_cell_length_a 22.874375
_cell_length_b 16.841057
_cell_length_c 7.863845
_cell_angle_alpha 90.000000
_cell_angle_beta 90.000000
_cell_angle_gamma 90.000000
_cell_volume 3029.378418
_symmetry_space_group_name_H-M "P M M M"
_symmetry_group_IT_number 47
_symmetry_cell_setting 'orthorhombic'
loop_
_space_group_symop_operation_xyz
x,y,z
-x,-y,z
x,-y,-z
-x,y,-z
-x,-y,-z
x,y,-z
-x,y,z
x,-y,z
loop_
_atom_site_type_symbol
_atom_site_label
_atom_site_fract_x
_atom_site_fract_y
_atom_site_fract_z
Si Si1 0.737678 0.500000 0.304990
Si Si2 0.125961 0.676157 0.299603
Si Si3 0.866637 0.500000 0.191235
Si Si4 0.245763 0.245873 0.702538
Si Si5 0.348655 0.350439 0.298230
Si Si6 0.430627 0.595219 0.000000
Si Si7 0.182703 0.910446 0.205935
Si Si8 0.935986 0.830391 0.200590
O O1 0.759847 0.500000 0.500000
O O2 0.795803 0.500000 0.195511
O O3 0.696742 0.576092 0.283462
O O4 0.125520 0.692287 0.500000
O O5 0.114978 0.583503 0.272303
O O6 0.190672 0.701560 0.232284
O O7 0.080544 0.737745 0.219621
O O8 0.888264 0.500000 0.000000
O O9 0.247033 0.258513 0.500000
O O10 0.308875 0.276115 0.760277
O O11 0.229473 0.155431 0.740159
O O12 0.365064 0.344593 0.500000
O O13 0.400784 0.368284 0.168774
O O14 0.419623 0.500000 0.000000
O O15 0.500000 0.607743 0.000000
O O16 0.119336 0.879474 0.269551
O O17 0.194189 0.000000 0.263107
O O18 0.181206 0.910089 0.000000
O O19 0.000000 0.846903 0.274477
O O20 0.938489 0.848511 0.000000
#
# Coordination Sequence:
#
# PCOD9381900 Si02
#       8
#     4   8   4   8   8   4   8   8
#     4  10  18  30  46  70 101 131 165 211 255 298
#     4  10  19  32  47  66  94 121 156 205 254 301
#     4  12  22  28  45  71  97 123 157 204 258 311
#     4   9  18  31  49  72  97 129 164 204 256 305
#     4  10  20  34  52  74 104 140 182 223 260 303
#     4  11  24  36  50  76 109 149 194 225 253 291
#     4   9  18  31  48  74 104 130 157 195 250 310
#     4   9  18  33  50  67  91 125 165 203 240 293
#
# _framework density 17.165237999999999
#
# number of rings (size 3 to 8) (size 9 to 14) (size 15 to 20)
#    0.000    2.231    2.308    1.154    2.154    1.846 
#    0.000    2.692    0.000    2.308    0.000    4.308 
#    0.000    1.231    0.000    3.385    0.000    0.000 
#
# Total GULP energy -289929.438618 kJ/mol
# GULP energy per Si atom -5575.566127 kJ/mol
# Density = 1.712617 g / cm^3
# Si number density = 17.165238 Si / 1000 Ang^3
#
#
#
# Elastic Constant Matrix: (Units=GPa)
#
#
# Indices 1 2 3 4 5 6 
#
# 1 86.6701 38.5317 28.4957 0.0000 0.0000 0.0000
# 2 38.5317 104.2183 2.3864 0.0000 0.0000 0.0000
# 3 28.4957 2.3864 40.1276 0.0000 0.0000 0.0000
# 4 0.0000 0.0000 0.0000 16.9811 0.0000 0.0000
# 5 0.0000 0.0000 0.0000 0.0000 8.5156 0.0000
# 6 0.0000 0.0000 0.0000 0.0000 0.0000 12.0968
#
#
#
# Elastic Compliance Matrix: (Units=1/GPa)
#
#
# Indices 1 2 3 4 5 6 
#
# 1 0.018728 -0.006629 -0.012905 0.000000 0.000000 0.000000
# 2 -0.006629 0.011954 0.003996 0.000000 0.000000 0.000000
# 3 -0.012905 0.003996 0.033847 0.000000 0.000000 0.000000
# 4 0.000000 0.000000 0.000000 0.058889 0.000000 0.000000
# 5 0.000000 0.000000 0.000000 0.000000 0.117432 0.000000
# 6 0.000000 0.000000 0.000000 0.000000 0.000000 0.082666
#
#
# Mechanical properties :
#
#
# Convention : Reuss Voigt Hill
#
# Bulk Modulus (GPa) = 29.89120 41.09373 35.49247
# Shear Modulus (GPa) = 13.67081 18.29217 15.98149
#
# Velocity S-wave (km/s) = 2.82516 3.26797 3.05460
# Velocity P-wave (km/s) = 5.30034 6.18317 5.75870
#
# Compressibility (1/GPa) = 0.03345466
#
# Stress axis : x y z
#
# Youngs Moduli (GPa) = 53.39630 83.65074 29.54468
#
# Poissons Ratio (x) = 0.55449 0.38127
# Poissons Ratio (y) = 0.35394 -0.11807
# Poissons Ratio (z) = 0.68908 -0.33429
#
# Static dielectric constant tensor:
#      x y z
#    x 1.574590 0.000000 0.000000 
#    y 0.000000 1.597370 0.000000 
#    z 0.000000 0.000000 1.573950 
# 
# From -- ./inp_files/12603.got.cif
#   From: 2010.05.17/outbox.cif.g08.bks.cpg/sg47_7_cif.got.tgz:12603.got - 2010.06.03 20:15:42.
