data_PCOD9381309
_publ_section_title
;
Structure prediction by ZEFSAII (Michael W. Deem and Ramdas Pophale) SiO2 
 PCOD9381309
Probable space group: P M M M
;
_chemical_formula_sum "Si O2"
_cell_formula_units_Z 56
_cell_length_a 20.760507
_cell_length_b 16.006610
_cell_length_c 7.543141
_cell_angle_alpha 90.000000
_cell_angle_beta 90.000000
_cell_angle_gamma 90.000000
_cell_volume 2506.626027
_symmetry_space_group_name_H-M "P M M M"
_symmetry_group_IT_number 47
_symmetry_cell_setting 'orthorhombic'
loop_
_space_group_symop_operation_xyz
x,y,z
-x,-y,z
x,-y,-z
-x,y,-z
-x,-y,-z
x,y,-z
-x,y,z
x,-y,z
loop_
_atom_site_type_symbol
_atom_site_label
_atom_site_fract_x
_atom_site_fract_y
_atom_site_fract_z
Si Si1 0.208452 0.869798 0.797557
Si Si2 0.930510 0.864996 0.784110
Si Si3 0.425773 0.252482 0.282899
Si Si4 0.660869 0.406649 0.716620
Si Si5 0.791801 0.322348 0.706545
Si Si6 0.351346 0.909855 0.705690
Si Si7 0.930904 0.666960 0.786962
O O1 0.138911 0.897087 0.721499
O O2 0.207490 0.768423 0.797028
O O3 0.274338 0.897827 0.709648
O O4 0.211761 0.898704 0.000000
O O5 0.931373 0.765941 0.740900
O O6 0.000000 0.899478 0.725530
O O7 0.929308 0.871428 0.000000
O O8 0.424028 0.252810 0.500000
O O9 0.500000 0.249727 0.229400
O O10 0.389343 0.336299 0.225755
O O11 0.386382 0.171443 0.219063
O O12 0.660208 0.407828 0.500000
O O13 0.646280 0.500000 0.777155
O O14 0.732541 0.377833 0.770347
O O15 0.780403 0.303790 0.500000
O O16 0.861839 0.364701 0.723657
O O17 0.370936 0.912811 0.500000
O O18 0.367205 0.000000 0.786368
O O19 0.000000 0.631767 0.725048
O O20 0.930284 0.661505 0.000000
#
# Coordination Sequence:
#
# PCOD9381309 Si02
#       7
#     8   8   8   8   8   8   8
#     4  10  18  29  49  73  99 135 176 213 256 309
#     4   7  11  21  38  62  90 120 158 204 247 286
#     4   9  17  31  52  78 106 134 166 205 254 312
#     4   9  17  29  47  74 107 138 168 209 259 307
#     4  10  17  27  46  71 102 135 172 217 265 313
#     4  10  20  34  52  76 106 136 167 209 260 307
#     4   8  14  25  41  64  96 133 175 220 263 309
#
# _framework density 22.340786999999999
#
# number of rings (size 3 to 8) (size 9 to 14) (size 15 to 20)
#    0.000    3.000    1.429    2.571    0.000    1.143 
#    0.000    2.857    0.000    4.286    0.000    7.000 
#    0.000    1.143    0.000    0.000    0.000    0.000 
#
# Total GULP energy -312331.522648 kJ/mol
# GULP energy per Si atom -5577.348619 kJ/mol
# Density = 2.228994 g / cm^3
# Si number density = 22.340787 Si / 1000 Ang^3
#
#
#
# Elastic Constant Matrix: (Units=GPa)
#
#
# Indices 1 2 3 4 5 6 
#
# 1 194.7767 98.5798 -0.0820 0.0000 0.0000 0.0000
# 2 98.5798 135.0920 4.3154 0.0000 0.0000 0.0000
# 3 -0.0820 4.3154 54.6916 0.0000 0.0000 0.0000
# 4 0.0000 0.0000 0.0000 82.9365 0.0000 0.0000
# 5 0.0000 0.0000 0.0000 0.0000 26.8394 0.0000
# 6 0.0000 0.0000 0.0000 0.0000 0.0000 -30.9052
#
#
#
# Elastic Compliance Matrix: (Units=1/GPa)
#
#
# Indices 1 2 3 4 5 6 
#
# 1 0.008153 -0.005965 0.000483 0.000000 0.000000 0.000000
# 2 -0.005965 0.011785 -0.000939 0.000000 0.000000 0.000000
# 3 0.000483 -0.000939 0.018359 0.000000 0.000000 0.000000
# 4 0.000000 0.000000 0.000000 0.012057 0.000000 0.000000
# 5 0.000000 0.000000 0.000000 0.000000 0.037259 0.000000
# 6 0.000000 0.000000 0.000000 0.000000 0.000000 -0.032357
#
#
# Mechanical properties :
#
#
# Convention : Reuss Voigt Hill
#
# Bulk Modulus (GPa) = 39.28410 65.57629 52.43020
# Shear Modulus (GPa) = 65.28777 34.55728 49.92253
#
# Velocity S-wave (km/s) = 5.41175 3.93724 4.73227
# Velocity P-wave (km/s) = 7.52805 7.07711 7.30606
#
# Compressibility (1/GPa) = 0.02545559
#
# Stress axis : x y z
#
# Youngs Moduli (GPa) = 122.64936 84.85203 54.46876
#
# Poissons Ratio (x) = 0.50615 -0.02630
# Poissons Ratio (y) = 0.73162 0.05114
# Poissons Ratio (z) = -0.05923 0.07966
#
# Static dielectric constant tensor:
#      x y z
#    x 1.834960 0.000000 0.000000 
#    y 0.000000 1.820510 0.000000 
#    z 0.000000 0.000000 1.853320 
# 
# From -- ./inp_files/11204.got.cif
#   From: 2010.05.17/outbox.cif.g08.bks.cpg/sg47_6_cif.got.tgz:11204.got - 2010.06.03 20:15:42.
