data_PCOD9381733
_publ_section_title
;
Structure prediction by ZEFSAII (Michael W. Deem and Ramdas Pophale) SiO2 
 PCOD9381733
Probable space group: P M M M
;
_chemical_formula_sum "Si O2"
_cell_formula_units_Z 44
_cell_length_a 13.259040
_cell_length_b 13.982050
_cell_length_c 14.788767
_cell_angle_alpha 90.000000
_cell_angle_beta 90.000000
_cell_angle_gamma 90.000000
_cell_volume 2741.668222
_symmetry_space_group_name_H-M "P M M M"
_symmetry_group_IT_number 47
_symmetry_cell_setting 'orthorhombic'
loop_
_space_group_symop_operation_xyz
x,y,z
-x,-y,z
x,-y,-z
-x,y,-z
-x,-y,-z
x,y,-z
-x,y,z
x,-y,z
loop_
_atom_site_type_symbol
_atom_site_label
_atom_site_fract_x
_atom_site_fract_y
_atom_site_fract_z
Si Si1 0.304666 0.384880 0.783139
Si Si2 0.885728 0.383544 0.103925
Si Si3 0.621487 0.704751 0.397105
Si Si4 0.381569 0.116620 0.097369
Si Si5 0.500000 0.616628 0.895984
Si Si6 0.622359 0.891687 0.704610
O O1 0.304402 0.500000 0.787743
O O2 0.200799 0.350696 0.828052
O O3 0.324020 0.355143 0.680435
O O4 0.400125 0.351887 0.843272
O O5 0.885884 0.500000 0.105535
O O6 0.000000 0.352702 0.125630
O O7 0.862613 0.356458 0.000000
O O8 0.648650 0.681752 0.500000
O O9 0.500000 0.691396 0.387688
O O10 0.644949 0.814838 0.371969
O O11 0.500000 0.143577 0.096691
O O12 0.339536 0.142287 0.196266
O O13 0.379266 0.000000 0.097652
O O14 0.337859 0.148344 0.000000
O O15 0.500000 0.500000 0.895646
O O16 0.500000 0.646506 0.000000
O O17 0.500000 0.894810 0.711665
O O18 0.656311 0.000000 0.686658
#
# Coordination Sequence:
#
# PCOD9381733 Si02
#       6
#     8   8   8   8   4   8
#     4  10  18  29  44  62  88 120 150 180 215 257
#     4   8  14  26  46  70  92 115 143 176 219 269
#     4  10  20  31  41  55  80 114 157 200 225 253
#     4   7   9  15  29  47  66  89 116 150 196 249
#     4   9  16  26  41  61  86 117 147 175 209 249
#     4   8  14  25  40  55  74 103 141 184 227 265
#
# _framework density 16.048624
#
# number of rings (size 3 to 8) (size 9 to 14) (size 15 to 20)
#    0.000    3.364    0.909    2.727    0.000    2.909 
#    0.000    4.545    0.000    0.545    0.000    2.545 
#    0.000    0.727    0.000    3.636    0.000    0.364 
#
# Total GULP energy -244971.231997 kJ/mol
# GULP energy per Si atom -5567.528000 kJ/mol
# Density = 1.601210 g / cm^3
# Si number density = 16.048624 Si / 1000 Ang^3
#
#
#
# Elastic Constant Matrix: (Units=GPa)
#
#
# Indices 1 2 3 4 5 6 
#
# 1 73.7645 20.2248 67.2354 0.0000 0.0000 0.0000
# 2 20.2248 31.6169 11.5276 0.0000 0.0000 0.0000
# 3 67.2354 11.5276 136.3577 0.0000 0.0000 0.0000
# 4 0.0000 0.0000 0.0000 27.5821 0.0000 0.0000
# 5 0.0000 0.0000 0.0000 0.0000 15.3125 0.0000
# 6 0.0000 0.0000 0.0000 0.0000 0.0000 4.8524
#
#
#
# Elastic Compliance Matrix: (Units=1/GPa)
#
#
# Indices 1 2 3 4 5 6 
#
# 1 0.029663 -0.014076 -0.013436 0.000000 0.000000 0.000000
# 2 -0.014076 0.039314 0.003617 0.000000 0.000000 0.000000
# 3 -0.013436 0.003617 0.013653 0.000000 0.000000 0.000000
# 4 0.000000 0.000000 0.000000 0.036255 0.000000 0.000000
# 5 0.000000 0.000000 0.000000 0.000000 0.065306 0.000000
# 6 0.000000 0.000000 0.000000 0.000000 0.000000 0.206083
#
#
# Mechanical properties :
#
#
# Convention : Reuss Voigt Hill
#
# Bulk Modulus (GPa) = 28.70297 48.85720 38.78009
# Shear Modulus (GPa) = 11.11905 19.06616 15.09260
#
# Velocity S-wave (km/s) = 2.63503 3.45051 3.06997
# Velocity P-wave (km/s) = 5.21361 6.81058 6.06489
#
# Compressibility (1/GPa) = 0.03483960
#
# Stress axis : x y z
#
# Youngs Moduli (GPa) = 33.71194 25.43614 73.24360
#
# Poissons Ratio (x) = 0.35804 0.98412
# Poissons Ratio (y) = 0.47453 -0.26493
# Poissons Ratio (z) = 0.45296 -0.09200
#
# Static dielectric constant tensor:
#      x y z
#    x 1.514810 0.000000 0.000000 
#    y 0.000000 1.599070 0.000000 
#    z 0.000000 0.000000 1.558290 
# 
# From -- ./inp_files/22598.got.cif
#   From: 2010.05.17/outbox.cif.g08.bks.cpg/sg47_12_cif.got.tgz:22598.got - 2010.06.03 20:15:42.
