data_PCOD9381072
_publ_section_title
;
Structure prediction by ZEFSAII (Michael W. Deem and Ramdas Pophale) SiO2 
 PCOD9381072
Probable space group: I M A 2
;
_chemical_formula_sum "Si O2"
_cell_formula_units_Z 48
_cell_length_a 14.118834
_cell_length_b 12.080612
_cell_length_c 11.898602
_cell_angle_alpha 90.000000
_cell_angle_beta 90.000000
_cell_angle_gamma 90.000000
_cell_volume 2029.475001
_symmetry_space_group_name_H-M "I M A 2"
_symmetry_group_IT_number 46
_symmetry_cell_setting 'orthorhombic'
loop_
_space_group_symop_operation_xyz
x,y,z
-x,-y,z
1/2-x,y,z
1/2+x,-y,z
1/2+x,1/2+y,1/2+z
1/2-x,1/2-y,1/2+z
-x,1/2+y,1/2+z
x,1/2-y,1/2+z
loop_
_atom_site_type_symbol
_atom_site_label
_atom_site_fract_x
_atom_site_fract_y
_atom_site_fract_z
Si Si1 0.357805 0.836021 0.635670
Si Si2 0.857805 0.836021 0.708981
Si Si3 0.640768 0.923115 0.275328
Si Si4 0.471460 0.135664 0.484448
Si Si5 0.971460 0.364336 0.360203
Si Si6 0.140768 0.923115 0.069322
O O1 0.250000 0.873909 0.620517
O O2 0.433551 0.895557 0.554154
O O3 0.393902 0.846032 0.762828
O O4 0.361507 0.705000 0.607568
O O5 0.750000 0.873909 0.724134
O O6 0.861507 0.705000 0.737083
O O7 0.893902 0.846032 0.581822
O O8 0.933551 0.895557 0.790497
O O9 0.750000 0.952278 0.300982
O O10 0.577656 0.932589 0.385330
O O11 0.609962 1.000000 0.172325
O O12 0.500000 0.250000 0.422325
O O13 0.922344 0.432589 0.459321
O O14 0.250000 0.952278 0.043668
#
# Coordination Sequence:
#
# PCOD9381072 Si02
#       6
#     8   8   8   8   8   8
#     4   9  17  30  50  77 111 155 201 241 289 352
#     4   9  17  30  50  77 111 155 201 241 289 352
#     4   9  17  30  51  82 118 152 189 239 294 347
#     4   9  17  30  48  77 112 150 193 238 290 349
#     4   9  17  30  48  77 112 150 193 238 290 349
#     4   9  17  30  51  82 118 152 189 239 294 347
#
# _framework density 23.651439
#
# number of rings (size 3 to 8) (size 9 to 14) (size 15 to 20)
#    0.000    3.000    0.000    1.000    0.000    1.333 
#    0.000   13.333    0.000    1.000    0.000   39.667 
#    0.000   98.667    0.000    0.000    0.000    0.667 
#
# Total GULP energy -134259.467018 kJ/mol
# GULP energy per Si atom -5594.144459 kJ/mol
# Density = 2.359761 g / cm^3
# Si number density = 23.651439 Si / 1000 Ang^3
#
#
#
# Elastic Constant Matrix: (Units=GPa)
#
#
# Indices 1 2 3 4 5 6 
#
# 1 227.5014 30.3576 131.8341 0.0000 0.0000 0.0000
# 2 30.3576 56.2828 45.9036 0.0000 0.0000 0.0000
# 3 131.8341 45.9036 240.2861 0.0000 0.0000 0.0000
# 4 0.0000 0.0000 0.0000 54.8488 0.0000 0.0000
# 5 0.0000 0.0000 0.0000 0.0000 37.7772 0.0000
# 6 0.0000 0.0000 0.0000 0.0000 0.0000 25.5326
#
#
#
# Elastic Compliance Matrix: (Units=1/GPa)
#
#
# Indices 1 2 3 4 5 6 
#
# 1 0.006468 -0.000704 -0.003414 0.000000 0.000000 0.000000
# 2 -0.000704 0.021123 -0.003649 0.000000 0.000000 0.000000
# 3 -0.003414 -0.003649 0.006732 0.000000 0.000000 0.000000
# 4 0.000000 0.000000 0.000000 0.018232 0.000000 0.000000
# 5 0.000000 0.000000 0.000000 0.000000 0.026471 0.000000
# 6 0.000000 0.000000 0.000000 0.000000 0.000000 0.039166
#
#
# Mechanical properties :
#
#
# Convention : Reuss Voigt Hill
#
# Bulk Modulus (GPa) = 53.22353 104.47343 78.84848
# Shear Modulus (GPa) = 35.71695 44.69670 40.20683
#
# Velocity S-wave (km/s) = 3.89027 4.35191 4.12755
# Velocity P-wave (km/s) = 6.53690 8.33788 7.49170
#
# Compressibility (1/GPa) = 0.01878868
#
# Stress axis : x y z
#
# Youngs Moduli (GPa) = 154.60698 47.34104 148.54383
#
# Poissons Ratio (x) = 0.03333 0.50716
# Poissons Ratio (y) = 0.10886 0.54204
# Poissons Ratio (z) = 0.52786 0.17275
#
# Static dielectric constant tensor:
#      x y z
#    x 1.879140 0.000000 0.000000 
#    y 0.000000 2.129080 0.000000 
#    z 0.000000 0.000000 1.816390 
# 
# From -- ./inp_files/11073.got.cif
#   From: 2010.05.17/outbox.cif.g08.bks.cpg/sg46_6_cif.got.tgz:11073.got - 2010.06.03 19:58:25.
