data_PCOD9381874
_publ_section_title
;
Structure prediction by ZEFSAII (Michael W. Deem and Ramdas Pophale) SiO2 
 PCOD9381874
Probable space group: P M M M
;
_chemical_formula_sum "Si O2"
_cell_formula_units_Z 52
_cell_length_a 9.643962
_cell_length_b 28.392695
_cell_length_c 11.788986
_cell_angle_alpha 90.000000
_cell_angle_beta 90.000000
_cell_angle_gamma 90.000000
_cell_volume 3228.037413
_symmetry_space_group_name_H-M "P M M M"
_symmetry_group_IT_number 47
_symmetry_cell_setting 'orthorhombic'
loop_
_space_group_symop_operation_xyz
x,y,z
-x,-y,z
x,-y,-z
-x,y,-z
-x,-y,-z
x,y,-z
-x,y,z
x,-y,z
loop_
_atom_site_type_symbol
_atom_site_label
_atom_site_fract_x
_atom_site_fract_y
_atom_site_fract_z
Si Si1 0.664662 0.174064 0.633659
Si Si2 0.830912 0.000000 0.867353
Si Si3 0.340422 0.553320 0.362161
Si Si4 0.844973 0.840227 0.000000
Si Si5 0.160649 0.642175 0.637107
Si Si6 0.838034 0.900237 0.229626
Si Si7 0.335145 0.748233 0.000000
Si Si8 0.666215 0.725450 0.747927
O O1 0.691248 0.180819 0.500000
O O2 0.500000 0.166225 0.649140
O O3 0.748999 0.129986 0.682583
O O4 0.699880 0.222263 0.700679
O O5 0.789130 0.047069 0.800396
O O6 0.000000 0.000000 0.871265
O O7 0.785745 0.000000 0.000000
O O8 0.338603 0.553176 0.500000
O O9 0.500000 0.563332 0.328601
O O10 0.304830 0.500000 0.325927
O O11 0.236216 0.594001 0.324876
O O12 0.831688 0.872327 0.889363
O O13 0.735365 0.798956 0.000000
O O14 0.000000 0.819345 0.000000
O O15 0.164174 0.643104 0.500000
O O16 0.247438 0.686225 0.682623
O O17 0.000000 0.643876 0.672271
O O18 0.000000 0.902073 0.264699
O O19 0.300008 0.723366 0.881670
O O20 0.500000 0.754880 0.000000
O O21 0.500000 0.718640 0.732276
#
# Coordination Sequence:
#
# PCOD9381874 Si02
#       8
#     8   4   8   4   8   8   4   8
#     4  10  21  36  53  72  97 132 168 201 242 291
#     4   9  16  30  52  77 102 126 157 198 243 292
#     4   8  14  26  45  68  95 130 170 208 246 289
#     4  10  18  29  50  78 102 123 151 194 249 296
#     4  10  20  31  45  70 103 136 168 203 243 287
#     4  10  19  32  53  78 101 127 159 198 244 292
#     4  10  20  34  53  75  96 123 160 204 247 291
#     4  10  20  34  52  72  95 126 163 202 245 293
#
# _framework density 16.108858000000001
#
# number of rings (size 3 to 8) (size 9 to 14) (size 15 to 20)
#    0.000    2.385    2.308    1.385    0.000    3.385 
#    0.000    2.308    0.000    2.769    0.000    0.538 
#    0.000    4.308    0.000    0.000    0.000    0.000 
#
# Total GULP energy -289812.205406 kJ/mol
# GULP energy per Si atom -5573.311642 kJ/mol
# Density = 1.607219 g / cm^3
# Si number density = 16.108858 Si / 1000 Ang^3
#
#
#
# Elastic Constant Matrix: (Units=GPa)
#
#
# Indices 1 2 3 4 5 6 
#
# 1 51.4372 61.7578 34.4090 0.0000 0.0000 0.0000
# 2 61.7578 118.3495 31.0277 0.0000 0.0000 0.0000
# 3 34.4090 31.0277 59.2627 0.0000 0.0000 0.0000
# 4 0.0000 0.0000 0.0000 4.5453 0.0000 0.0000
# 5 0.0000 0.0000 0.0000 0.0000 20.6265 0.0000
# 6 0.0000 0.0000 0.0000 0.0000 0.0000 27.6527
#
#
#
# Elastic Compliance Matrix: (Units=1/GPa)
#
#
# Indices 1 2 3 4 5 6 
#
# 1 0.078622 -0.033682 -0.028015 0.000000 0.000000 0.000000
# 2 -0.033682 0.024224 0.006874 0.000000 0.000000 0.000000
# 3 -0.028015 0.006874 0.029541 0.000000 0.000000 0.000000
# 4 0.000000 0.000000 0.000000 0.220007 0.000000 0.000000
# 5 0.000000 0.000000 0.000000 0.000000 0.048481 0.000000
# 6 0.000000 0.000000 0.000000 0.000000 0.000000 0.036163
#
#
# Mechanical properties :
#
#
# Convention : Reuss Voigt Hill
#
# Bulk Modulus (GPa) = 43.97411 53.71537 48.84474
# Shear Modulus (GPa) = 9.02097 17.35523 13.18810
#
# Velocity S-wave (km/s) = 2.36900 3.28590 2.86437
# Velocity P-wave (km/s) = 5.90256 6.91475 6.42861
#
# Compressibility (1/GPa) = 0.02274066
#
# Stress axis : x y z
#
# Youngs Moduli (GPa) = 12.71906 41.28185 33.85139
#
# Poissons Ratio (x) = 1.39047 0.94833
# Poissons Ratio (y) = 0.42841 -0.23270
# Poissons Ratio (z) = 0.35632 -0.28377
#
# Static dielectric constant tensor:
#      x y z
#    x 1.538700 0.000000 0.000000 
#    y 0.000000 1.525820 0.000000 
#    z 0.000000 0.000000 1.536700 
# 
# From -- ./inp_files/15518.got.cif
#   From: 2010.05.17/outbox.cif.g08.bks.cpg/sg47_8_cif.got.tgz:15518.got - 2010.06.03 20:15:42.
