data_PCOD9381290
_publ_section_title
;
Structure prediction by ZEFSAII (Michael W. Deem and Ramdas Pophale) SiO2 
 PCOD9381290
Probable space group: P M M M
;
_chemical_formula_sum "Si O2"
_cell_formula_units_Z 52
_cell_length_a 14.850493
_cell_length_b 7.438100
_cell_length_c 24.376444
_cell_angle_alpha 90.000000
_cell_angle_beta 90.000000
_cell_angle_gamma 90.000000
_cell_volume 2692.608646
_symmetry_space_group_name_H-M "P M M M"
_symmetry_group_IT_number 47
_symmetry_cell_setting 'orthorhombic'
loop_
_space_group_symop_operation_xyz
x,y,z
-x,-y,z
x,-y,-z
-x,y,-z
-x,-y,-z
x,y,-z
-x,y,z
x,-y,z
loop_
_atom_site_type_symbol
_atom_site_label
_atom_site_fract_x
_atom_site_fract_y
_atom_site_fract_z
Si Si1 0.900472 0.708689 0.098262
Si Si2 0.287813 0.286637 0.725555
Si Si3 0.390684 0.291918 0.500000
Si Si4 0.604666 0.279624 0.620052
Si Si5 0.100003 0.785814 0.225490
Si Si6 0.290699 0.279986 0.939682
Si Si7 0.396433 0.719818 0.831867
O O1 0.905302 0.500000 0.081712
O O2 0.883904 0.713636 0.163931
O O3 0.811900 0.783685 0.069707
O O4 0.000000 0.787909 0.088243
O O5 0.303718 0.500000 0.724824
O O6 0.331990 0.218022 0.669517
O O7 0.181873 0.259990 0.734727
O O8 0.338993 0.217322 0.779650
O O9 0.360989 0.500000 0.500000
O O10 0.500000 0.291467 0.500000
O O11 0.365613 0.215791 0.440546
O O12 0.500000 0.229403 0.629629
O O13 0.605557 0.500000 0.618226
O O14 0.000000 0.724764 0.242862
O O15 0.098139 0.000000 0.220184
O O16 0.289249 0.500000 0.938023
O O17 0.351264 0.221709 0.888722
O O18 0.322967 0.227323 0.000000
O O19 0.500000 0.774309 0.827495
O O20 0.394542 0.500000 0.831764
#
# Coordination Sequence:
#
# PCOD9381290 Si02
#       7
#     8   8   4   8   8   8   8
#     4   9  16  28  46  65  84 106 135 175 221 266
#     4  10  17  27  45  68  90 113 144 180 215 252
#     4   7  10  18  32  56  94 129 150 172 207 249
#     4   8  13  21  37  64  96 126 151 176 209 251
#     4  10  20  32  46  64  86 112 140 174 220 269
#     4   9  16  25  38  60  87 112 140 173 212 256
#     4   9  16  25  38  59  87 114 140 175 214 247
#
# _framework density 19.312127
#
# number of rings (size 3 to 8) (size 9 to 14) (size 15 to 20)
#    0.000    3.000    1.538    1.846    0.000    3.385 
#    0.000    3.077    0.000    2.308    0.000    3.231 
#    0.000    7.385    0.000    0.000    0.000    0.000 
#
# Total GULP energy -289990.895376 kJ/mol
# GULP energy per Si atom -5576.747988 kJ/mol
# Density = 1.926817 g / cm^3
# Si number density = 19.312127 Si / 1000 Ang^3
#
#
#
# Elastic Constant Matrix: (Units=GPa)
#
#
# Indices 1 2 3 4 5 6 
#
# 1 113.2987 -1.8231 82.5357 0.0000 0.0000 0.0000
# 2 -1.8231 59.0233 5.7116 0.0000 0.0000 0.0000
# 3 82.5357 5.7116 161.1640 0.0000 0.0000 0.0000
# 4 0.0000 0.0000 0.0000 -33.3142 0.0000 0.0000
# 5 0.0000 0.0000 0.0000 0.0000 21.8343 0.0000
# 6 0.0000 0.0000 0.0000 0.0000 0.0000 -172.9416
#
#
#
# Elastic Compliance Matrix: (Units=1/GPa)
#
#
# Indices 1 2 3 4 5 6 
#
# 1 0.014155 0.001143 -0.007290 0.000000 0.000000 0.000000
# 2 0.001143 0.017093 -0.001191 0.000000 0.000000 0.000000
# 3 -0.007290 -0.001191 0.009980 0.000000 0.000000 0.000000
# 4 0.000000 0.000000 0.000000 -0.030017 0.000000 0.000000
# 5 0.000000 0.000000 0.000000 0.000000 0.045800 0.000000
# 6 0.000000 0.000000 0.000000 0.000000 0.000000 -0.005782
#
#
# Mechanical properties :
#
#
# Convention : Reuss Voigt Hill
#
# Bulk Modulus (GPa) = 37.66139 56.25937 46.96038
# Shear Modulus (GPa) = 66.88549 -20.41353 23.23598
#
# Velocity S-wave (km/s) = 5.89144 -3.25473 3.47245
# Velocity P-wave (km/s) = 8.11311 3.88208 6.35976
#
# Compressibility (1/GPa) = 0.02655239
#
# Stress axis : x y z
#
# Youngs Moduli (GPa) = 70.64702 58.50352 100.19846
#
# Poissons Ratio (x) = -0.06685 0.73040
# Poissons Ratio (y) = -0.08072 0.11933
# Poissons Ratio (z) = 0.51498 0.06967
#
# Static dielectric constant tensor:
#      x y z
#    x 1.677460 0.000000 0.000000 
#    y 0.000000 1.747010 0.000000 
#    z 0.000000 0.000000 1.676270 
# 
# From -- ./inp_files/31975.got.cif
#   From: 2010.05.17/outbox.cif.g08.bks.cpg/sg47_16_cif.got.tgz:31975.got - 2010.06.03 20:15:42.
