data_PCOD9381939
_publ_section_title
;
Structure prediction by ZEFSAII (Michael W. Deem and Ramdas Pophale) SiO2 
 PCOD9381939
Probable space group: P M M M
;
_chemical_formula_sum "Si O2"
_cell_formula_units_Z 56
_cell_length_a 7.360311
_cell_length_b 20.180412
_cell_length_c 16.512810
_cell_angle_alpha 90.000000
_cell_angle_beta 90.000000
_cell_angle_gamma 90.000000
_cell_volume 2452.715511
_symmetry_space_group_name_H-M "P M M M"
_symmetry_group_IT_number 47
_symmetry_cell_setting 'orthorhombic'
loop_
_space_group_symop_operation_xyz
x,y,z
-x,-y,z
x,-y,-z
-x,y,-z
-x,-y,-z
x,y,-z
-x,y,z
x,-y,z
loop_
_atom_site_type_symbol
_atom_site_label
_atom_site_fract_x
_atom_site_fract_y
_atom_site_fract_z
Si Si1 0.280424 0.790421 0.332465
Si Si2 0.209255 0.785867 0.852810
Si Si3 0.279084 0.072578 0.405310
Si Si4 0.219327 0.071761 0.903913
Si Si5 0.708759 0.644664 0.911939
Si Si6 0.721466 0.343929 0.410674
Si Si7 0.278169 0.576903 0.251736
O O1 0.500000 0.791768 0.332208
O O2 0.220887 0.772316 0.242482
O O3 0.215240 0.863248 0.357305
O O4 0.225933 0.732193 0.393288
O O5 0.287185 0.859468 0.866901
O O6 0.292882 0.723890 0.898949
O O7 0.000000 0.787706 0.879311
O O8 0.229446 0.078472 0.500000
O O9 0.500000 0.072983 0.402758
O O10 0.219621 0.000000 0.375589
O O11 0.000000 0.071117 0.893804
O O12 0.285526 0.000000 0.872723
O O13 0.255813 0.073993 0.000000
O O14 0.500000 0.621834 0.914809
O O15 0.787230 0.612364 0.830525
O O16 0.790501 0.629425 0.000000
O O17 0.781112 0.365406 0.500000
O O18 0.500000 0.345956 0.410697
O O19 0.782056 0.387143 0.334101
O O20 0.500000 0.581361 0.252048
O O21 0.228960 0.500000 0.251599
#
# Coordination Sequence:
#
# PCOD9381939 Si02
#       7
#     8   8   8   8   8   8   8
#     4  10  18  30  48  70 100 133 169 212 258 305
#     4  11  21  32  50  75 102 133 172 214 255 300
#     4   8  14  25  43  69  98 129 170 218 264 311
#     4   8  15  29  47  66  90 122 162 207 250 292
#     4  10  20  35  55  78 105 137 169 205 253 304
#     4   9  16  27  47  74 102 133 168 207 252 296
#     4   9  17  30  49  77 110 136 163 204 251 302
#
# _framework density 22.831835000000002
#
# number of rings (size 3 to 8) (size 9 to 14) (size 15 to 20)
#    0.000    2.714    1.429    2.143    0.000    3.714 
#    0.000    2.857    0.000    3.429    0.000    7.000 
#    0.000    1.143    0.000    0.000    0.000    0.000 
#
# Total GULP energy -312702.431272 kJ/mol
# GULP energy per Si atom -5583.971987 kJ/mol
# Density = 2.277987 g / cm^3
# Si number density = 22.831835 Si / 1000 Ang^3
#
#
#
# Elastic Constant Matrix: (Units=GPa)
#
#
# Indices 1 2 3 4 5 6 
#
# 1 82.9378 4.1123 2.0478 0.0000 0.0000 0.0000
# 2 4.1123 140.7604 80.8228 0.0000 0.0000 0.0000
# 3 2.0478 80.8228 165.7143 0.0000 0.0000 0.0000
# 4 0.0000 0.0000 0.0000 14.1532 0.0000 0.0000
# 5 0.0000 0.0000 0.0000 0.0000 -5.4043 0.0000
# 6 0.0000 0.0000 0.0000 0.0000 0.0000 69.9467
#
#
#
# Elastic Compliance Matrix: (Units=1/GPa)
#
#
# Indices 1 2 3 4 5 6 
#
# 1 0.012075 -0.000371 0.000032 0.000000 0.000000 0.000000
# 2 -0.000371 0.009879 -0.004814 0.000000 0.000000 0.000000
# 3 0.000032 -0.004814 0.008382 0.000000 0.000000 0.000000
# 4 0.000000 0.000000 0.000000 0.070655 0.000000 0.000000
# 5 0.000000 0.000000 0.000000 0.000000 -0.185039 0.000000
# 6 0.000000 0.000000 0.000000 0.000000 0.000000 0.014297
#
#
# Mechanical properties :
#
#
# Convention : Reuss Voigt Hill
#
# Bulk Modulus (GPa) = 49.92541 62.59758 56.26149
# Shear Modulus (GPa) = -94.75333 35.90111 -29.42611
#
# Velocity S-wave (km/s) = -6.44908 3.96967 -3.59391
# Velocity P-wave (km/s) = 5.79138 6.96329 2.73379
#
# Compressibility (1/GPa) = 0.02002988
#
# Stress axis : x y z
#
# Youngs Moduli (GPa) = 82.81685 101.22423 119.30568
#
# Poissons Ratio (x) = 0.03755 -0.00378
# Poissons Ratio (y) = 0.03072 0.57430
# Poissons Ratio (z) = -0.00263 0.48726
#
# Static dielectric constant tensor:
#      x y z
#    x 1.879560 0.000000 0.000000 
#    y 0.000000 1.829550 0.000000 
#    z 0.000000 0.000000 1.811280 
# 
# From -- ./inp_files/7207.got.cif
#   From: 2010.05.17/outbox.cif.g08.bks.cpg/sg47_4_cif.got.tgz:7207.got - 2010.06.03 20:15:42.
