data_PCOD9381648
_publ_section_title
;
Structure prediction by ZEFSAII (Michael W. Deem and Ramdas Pophale) SiO2 
 PCOD9381648
Probable space group: P M M M
;
_chemical_formula_sum "Si O2"
_cell_formula_units_Z 36
_cell_length_a 7.658352
_cell_length_b 23.247127
_cell_length_c 12.208818
_cell_angle_alpha 90.000000
_cell_angle_beta 90.000000
_cell_angle_gamma 90.000000
_cell_volume 2173.593025
_symmetry_space_group_name_H-M "P M M M"
_symmetry_group_IT_number 47
_symmetry_cell_setting 'orthorhombic'
loop_
_space_group_symop_operation_xyz
x,y,z
-x,-y,z
x,-y,-z
-x,y,-z
-x,-y,-z
x,y,-z
-x,y,z
x,-y,z
loop_
_atom_site_type_symbol
_atom_site_label
_atom_site_fract_x
_atom_site_fract_y
_atom_site_fract_z
Si Si1 0.213648 0.432584 0.500000
Si Si2 0.209393 0.390864 0.734625
Si Si3 0.213916 0.500000 0.874633
Si Si4 0.000000 0.933931 0.133671
Si Si5 0.709475 0.719913 0.124357
Si Si6 0.300028 0.847712 0.133117
O O1 0.264335 0.500000 0.500000
O O2 0.273139 0.401526 0.611126
O O3 0.000000 0.432254 0.500000
O O4 0.272654 0.443116 0.811015
O O5 0.248789 0.330605 0.791974
O O6 0.000000 0.395926 0.730294
O O7 0.000000 0.500000 0.874528
O O8 0.270929 0.500000 0.000000
O O9 0.170030 0.897850 0.168543
O O10 0.000000 0.000000 0.169869
O O11 0.000000 0.934368 0.000000
O O12 0.500000 0.724139 0.117102
O O13 0.767764 0.783612 0.160670
O O14 0.774574 0.707648 0.000000
O O15 0.500000 0.855345 0.170813
O O16 0.304173 0.848206 0.000000
#
# Coordination Sequence:
#
# PCOD9381648 Si02
#       6
#     4   8   4   4   8   8
#     4   9  16  30  47  63  85 113 145 182 229 282
#     4  10  18  28  46  65  82 111 147 186 227 272
#     4   9  16  25  38  62  87 103 136 185 226 266
#     4   9  16  24  38  62  88 118 159 194 216 254
#     4   9  18  31  44  61  87 116 147 185 231 277
#     4   8  15  27  40  56  85 122 153 186 227 268
#
# _framework density 16.562438
#
# number of rings (size 3 to 8) (size 9 to 14) (size 15 to 20)
#    0.000    3.000    1.111    2.000    1.556    1.778 
#    0.000    3.333    0.000    2.667    0.000    0.000 
#    0.000    0.000    0.000    2.000    0.000    9.778 
#
# Total GULP energy -200600.218066 kJ/mol
# GULP energy per Si atom -5572.228280 kJ/mol
# Density = 1.652474 g / cm^3
# Si number density = 16.562438 Si / 1000 Ang^3
#
#
#
# Elastic Constant Matrix: (Units=GPa)
#
#
# Indices 1 2 3 4 5 6 
#
# 1 48.6133 42.4778 19.6653 0.0000 0.0000 0.0000
# 2 42.4778 173.7282 69.4113 0.0000 0.0000 0.0000
# 3 19.6653 69.4113 95.7233 0.0000 0.0000 0.0000
# 4 0.0000 0.0000 0.0000 1.1843 0.0000 0.0000
# 5 0.0000 0.0000 0.0000 0.0000 5.3500 0.0000
# 6 0.0000 0.0000 0.0000 0.0000 0.0000 47.4628
#
#
#
# Elastic Compliance Matrix: (Units=1/GPa)
#
#
# Indices 1 2 3 4 5 6 
#
# 1 0.026233 -0.005999 -0.001039 0.000000 0.000000 0.000000
# 2 -0.005999 0.009476 -0.005639 0.000000 0.000000 0.000000
# 3 -0.001039 -0.005639 0.014749 0.000000 0.000000 0.000000
# 4 0.000000 0.000000 0.000000 0.844346 0.000000 0.000000
# 5 0.000000 0.000000 0.000000 0.000000 0.186916 0.000000
# 6 0.000000 0.000000 0.000000 0.000000 0.000000 0.021069
#
#
# Mechanical properties :
#
#
# Convention : Reuss Voigt Hill
#
# Bulk Modulus (GPa) = 39.83469 64.57483 52.20476
# Shear Modulus (GPa) = 4.39943 23.23346 13.81645
#
# Velocity S-wave (km/s) = 1.63158 3.74943 2.89139
# Velocity P-wave (km/s) = 5.25860 7.60380 6.53722
#
# Compressibility (1/GPa) = 0.02510375
#
# Stress axis : x y z
#
# Youngs Moduli (GPa) = 38.12047 105.53246 67.80093
#
# Poissons Ratio (x) = 0.63307 0.07047
# Poissons Ratio (y) = 0.22868 0.38231
# Poissons Ratio (z) = 0.03962 0.59507
#
# Static dielectric constant tensor:
#      x y z
#    x 1.612350 0.000000 0.000000 
#    y 0.000000 1.560040 0.000000 
#    z 0.000000 0.000000 1.535310 
# 
# From -- ./inp_files/15210.got.cif
#   From: 2010.05.17/outbox.cif.g08.bks.cpg/sg47_8_cif.got.tgz:15210.got - 2010.06.03 20:15:42.
