data_PCOD9381729
_publ_section_title
;
Structure prediction by ZEFSAII (Michael W. Deem and Ramdas Pophale) SiO2 
 PCOD9381729
Probable space group: P M M M
;
_chemical_formula_sum "Si O2"
_cell_formula_units_Z 44
_cell_length_a 16.965531
_cell_length_b 16.743119
_cell_length_c 7.330904
_cell_angle_alpha 90.000000
_cell_angle_beta 90.000000
_cell_angle_gamma 90.000000
_cell_volume 2082.386566
_symmetry_space_group_name_H-M "P M M M"
_symmetry_group_IT_number 47
_symmetry_cell_setting 'orthorhombic'
loop_
_space_group_symop_operation_xyz
x,y,z
-x,-y,z
x,-y,-z
-x,y,-z
-x,-y,-z
x,y,-z
-x,y,z
x,-y,z
loop_
_atom_site_type_symbol
_atom_site_label
_atom_site_fract_x
_atom_site_fract_y
_atom_site_fract_z
Si Si1 0.914776 0.114600 0.212658
Si Si2 0.000000 0.590026 0.277316
Si Si3 0.592459 0.411207 0.221809
Si Si4 0.866641 0.708210 0.281018
Si Si5 0.737520 0.912825 0.777014
Si Si6 0.311826 0.740804 0.208080
O O1 0.909166 0.210044 0.226283
O O2 0.829283 0.088675 0.285220
O O3 0.000000 0.090046 0.289880
O O4 0.915295 0.091710 0.000000
O O5 0.921613 0.636316 0.219996
O O6 0.000000 0.500000 0.216261
O O7 0.000000 0.591558 0.500000
O O8 0.500000 0.405548 0.267034
O O9 0.620721 0.500000 0.281117
O O10 0.637750 0.332191 0.288569
O O11 0.598671 0.411238 0.000000
O O12 0.860696 0.706979 0.500000
O O13 0.778500 0.711039 0.207107
O O14 0.694578 0.831357 0.714290
O O15 0.704080 0.000000 0.728284
O O16 0.739517 0.908118 0.000000
O O17 0.340171 0.750865 0.000000
#
# Coordination Sequence:
#
# PCOD9381729 Si02
#       6
#     8   4   8   8   8   8
#     4   9  16  26  42  60  79 105 142 189 227 255
#     4   9  18  30  41  55  78 111 148 180 211 255
#     4   8  14  26  46  71  95 116 139 172 217 266
#     4  10  18  29  44  60  81 114 150 180 216 262
#     4   8  14  24  38  59  86 115 145 176 214 259
#     4   9  17  29  46  67  88 112 144 181 217 255
#
# _framework density 21.129601000000001
#
# number of rings (size 3 to 8) (size 9 to 14) (size 15 to 20)
#    0.000    3.182    0.909    2.182    0.000    1.091 
#    0.000    1.818    0.000   13.636    0.000   10.182 
#    0.000    0.000    0.000    6.545    0.000    7.273 
#
# Total GULP energy -245198.299546 kJ/mol
# GULP energy per Si atom -5572.688626 kJ/mol
# Density = 2.108151 g / cm^3
# Si number density = 21.129601 Si / 1000 Ang^3
#
#
#
# Elastic Constant Matrix: (Units=GPa)
#
#
# Indices 1 2 3 4 5 6 
#
# 1 62.1443 71.2536 -2.3826 0.0000 0.0000 0.0000
# 2 71.2536 240.9135 3.6976 0.0000 0.0000 0.0000
# 3 -2.3826 3.6976 86.7671 0.0000 0.0000 0.0000
# 4 0.0000 0.0000 0.0000 4.9892 0.0000 0.0000
# 5 0.0000 0.0000 0.0000 0.0000 372.2379 0.0000
# 6 0.0000 0.0000 0.0000 0.0000 0.0000 -11.3505
#
#
#
# Elastic Compliance Matrix: (Units=1/GPa)
#
#
# Indices 1 2 3 4 5 6 
#
# 1 0.024432 -0.007241 0.000979 0.000000 0.000000 0.000000
# 2 -0.007241 0.006300 -0.000467 0.000000 0.000000 0.000000
# 3 0.000979 -0.000467 0.011572 0.000000 0.000000 0.000000
# 4 0.000000 0.000000 0.000000 0.200434 0.000000 0.000000
# 5 0.000000 0.000000 0.000000 0.000000 0.002686 0.000000
# 6 0.000000 0.000000 0.000000 0.000000 0.000000 -0.088102
#
#
# Mechanical properties :
#
#
# Convention : Reuss Voigt Hill
#
# Bulk Modulus (GPa) = 34.66751 59.44022 47.05387
# Shear Modulus (GPa) = 27.71693 94.32572 61.02133
#
# Velocity S-wave (km/s) = 3.62575 6.68868 5.37980
# Velocity P-wave (km/s) = 5.82845 9.37249 7.80430
#
# Compressibility (1/GPa) = 0.02884546
#
# Stress axis : x y z
#
# Youngs Moduli (GPa) = 40.93066 158.73831 86.41613
#
# Poissons Ratio (x) = 1.14943 -0.08464
# Poissons Ratio (y) = 0.29638 0.04038
# Poissons Ratio (z) = -0.04009 0.07418
#
# Static dielectric constant tensor:
#      x y z
#    x 1.713160 0.000000 0.000000 
#    y 0.000000 1.787970 0.000000 
#    z 0.000000 0.000000 1.795550 
# 
# From -- ./inp_files/18478.got.cif
#   From: 2010.05.17/outbox.cif.g08.bks.cpg/sg47_10_cif.got.tgz:18478.got - 2010.06.03 20:15:42.
