data_PCOD9381388
_publ_section_title
;
Structure prediction by ZEFSAII (Michael W. Deem and Ramdas Pophale) SiO2 
 PCOD9381388
Probable space group: P M M M
;
_chemical_formula_sum "Si O2"
_cell_formula_units_Z 52
_cell_length_a 29.206396
_cell_length_b 12.255930
_cell_length_c 7.804996
_cell_angle_alpha 90.000000
_cell_angle_beta 90.000000
_cell_angle_gamma 90.000000
_cell_volume 2793.810376
_symmetry_space_group_name_H-M "P M M M"
_symmetry_group_IT_number 47
_symmetry_cell_setting 'orthorhombic'
loop_
_space_group_symop_operation_xyz
x,y,z
-x,-y,z
x,-y,-z
-x,y,-z
-x,-y,-z
x,y,-z
-x,y,z
x,-y,z
loop_
_atom_site_type_symbol
_atom_site_label
_atom_site_fract_x
_atom_site_fract_y
_atom_site_fract_z
Si Si1 0.143959 0.224299 0.207160
Si Si2 0.226185 0.623685 0.702950
Si Si3 0.051751 0.126306 0.791001
Si Si4 0.703265 0.000000 0.790384
Si Si5 0.500000 0.624795 0.703836
Si Si6 0.401266 0.624141 0.205334
Si Si7 0.315702 0.238745 0.204947
Si Si8 0.809166 0.000000 0.208441
O O1 0.176682 0.322634 0.261941
O O2 0.091282 0.209897 0.264215
O O3 0.167442 0.111338 0.265922
O O4 0.144046 0.225692 0.000000
O O5 0.231929 0.617968 0.500000
O O6 0.229741 0.500000 0.773155
O O7 0.267043 0.701690 0.767428
O O8 0.000000 0.151299 0.734540
O O9 0.062311 0.000000 0.742045
O O10 0.051683 0.126473 0.000000
O O11 0.683507 0.885095 0.728880
O O12 0.756517 0.000000 0.743030
O O13 0.701162 0.000000 0.000000
O O14 0.500000 0.500000 0.775268
O O15 0.500000 0.619620 0.500000
O O16 0.548616 0.673540 0.758532
O O17 0.400474 0.500000 0.273823
O O18 0.358034 0.690773 0.273417
O O19 0.396719 0.617784 0.000000
O O20 0.321193 0.231765 0.000000
O O21 0.811944 0.000000 0.000000
#
# Coordination Sequence:
#
# PCOD9381388 Si02
#       8
#     8   8   8   4   4   8   8   4
#     4  10  17  29  51  73  97 128 160 193 234 289
#     4  11  24  37  47  65  96 130 164 204 245 283
#     4   8  13  22  42  75 106 125 147 188 242 291
#     4   9  16  28  48  74 101 124 154 196 234 278
#     4   9  17  29  47  70  95 126 162 199 242 287
#     4   9  17  29  47  72  99 125 157 199 240 279
#     4  10  19  33  54  76  99 128 161 196 239 292
#     4   9  14  24  45  74  98 121 154 193 233 275
#
# _framework density 18.612572
#
# number of rings (size 3 to 8) (size 9 to 14) (size 15 to 20)
#    0.000    2.538    2.308    1.615    0.000    3.385 
#    0.000    3.077    0.000    1.385    0.000    7.538 
#    0.000    0.000    0.000    0.000    0.000    0.000 
#
# Total GULP energy -289812.062331 kJ/mol
# GULP energy per Si atom -5573.308891 kJ/mol
# Density = 1.857021 g / cm^3
# Si number density = 18.612572 Si / 1000 Ang^3
#
#
#
# Elastic Constant Matrix: (Units=GPa)
#
#
# Indices 1 2 3 4 5 6 
#
# 1 145.1371 63.8267 -0.2700 0.0000 0.0000 0.0000
# 2 63.8267 112.2817 3.8209 0.0000 0.0000 0.0000
# 3 -0.2700 3.8209 21.7235 0.0000 0.0000 0.0000
# 4 0.0000 0.0000 0.0000 43.4457 0.0000 0.0000
# 5 0.0000 0.0000 0.0000 0.0000 -24.2014 0.0000
# 6 0.0000 0.0000 0.0000 0.0000 0.0000 24.3117
#
#
#
# Elastic Compliance Matrix: (Units=1/GPa)
#
#
# Indices 1 2 3 4 5 6 
#
# 1 0.009210 -0.005271 0.001042 0.000000 0.000000 0.000000
# 2 -0.005271 0.011976 -0.002172 0.000000 0.000000 0.000000
# 3 0.001042 -0.002172 0.046428 0.000000 0.000000 0.000000
# 4 0.000000 0.000000 0.000000 0.023017 0.000000 0.000000
# 5 0.000000 0.000000 0.000000 0.000000 -0.041320 0.000000
# 6 0.000000 0.000000 0.000000 0.000000 0.000000 0.041133
#
#
# Mechanical properties :
#
#
# Convention : Reuss Voigt Hill
#
# Bulk Modulus (GPa) = 18.24431 45.98864 32.11648
# Shear Modulus (GPa) = 41.14642 22.82883 31.98762
#
# Velocity S-wave (km/s) = 4.70689 3.50598 4.15010
# Velocity P-wave (km/s) = 6.27400 6.41492 6.34485
#
# Compressibility (1/GPa) = 0.05481160
#
# Stress axis : x y z
#
# Youngs Moduli (GPa) = 108.57848 83.49820 21.53873
#
# Poissons Ratio (x) = 0.44011 -0.02243
# Poissons Ratio (y) = 0.57230 0.04678
# Poissons Ratio (z) = -0.11309 0.18136
#
# Static dielectric constant tensor:
#      x y z
#    x 1.661110 0.000000 0.000000 
#    y 0.000000 1.649830 0.000000 
#    z 0.000000 0.000000 1.672230 
# 
# From -- ./inp_files/13308.got.cif
#   From: 2010.05.17/outbox.cif.g08.bks.cpg/sg47_7_cif.got.tgz:13308.got - 2010.06.03 20:15:42.
