data_PCOD9381051
_publ_section_title
;
Structure prediction by ZEFSAII (Michael W. Deem and Ramdas Pophale) SiO2 
 PCOD9381051
Probable space group: I M A 2
;
_chemical_formula_sum "Si O2"
_cell_formula_units_Z 32
_cell_length_a 14.830452
_cell_length_b 11.073408
_cell_length_c 7.428692
_cell_angle_alpha 90.000000
_cell_angle_beta 90.000000
_cell_angle_gamma 90.000000
_cell_volume 1219.966884
_symmetry_space_group_name_H-M "I M A 2"
_symmetry_group_IT_number 46
_symmetry_cell_setting 'orthorhombic'
loop_
_space_group_symop_operation_xyz
x,y,z
-x,-y,z
1/2-x,y,z
1/2+x,-y,z
1/2+x,1/2+y,1/2+z
1/2-x,1/2-y,1/2+z
-x,1/2+y,1/2+z
x,1/2-y,1/2+z
loop_
_atom_site_type_symbol
_atom_site_label
_atom_site_fract_x
_atom_site_fract_y
_atom_site_fract_z
Si Si1 0.149447 0.171361 0.086180
Si Si2 0.895720 0.454453 0.793030
Si Si3 0.532086 0.626093 0.254695
Si Si4 0.647578 0.281033 0.134373
O O1 0.250000 0.189744 0.016394
O O2 0.099091 0.294733 0.135655
O O3 0.152214 0.081914 0.256267
O O4 0.084581 0.110443 0.939548
O O5 0.865558 0.364763 0.628596
O O6 0.000000 0.500000 0.792547
O O7 0.865759 0.375210 0.967947
O O8 0.500000 0.500000 0.179068
O O9 0.437370 0.694167 0.265094
O O10 0.750000 0.301231 0.201362
#
# Coordination Sequence:
#
# PCOD9381051 Si02
#       4
#     8   8   8   8
#     4  12  28  53  83 119 165 216 271 337 408 486
#     4  12  27  51  80 120 166 210 270 339 405 479
#     4  12  29  51  78 122 160 212 270 340 405 481
#     4  12  27  50  82 119 160 214 269 330 406 482
#
# _framework density 26.230221
#
# number of rings (size 3 to 8) (size 9 to 14) (size 15 to 20)
#    0.000    0.000    2.500    6.000    7.000    2.000 
#    0.000    0.000    0.000    0.000    0.000    0.000 
#    0.000    0.000    0.000    0.000    0.000    0.000 
#
# Total GULP energy -89398.439911 kJ/mol
# GULP energy per Si atom -5587.402494 kJ/mol
# Density = 2.617052 g / cm^3
# Si number density = 26.230221 Si / 1000 Ang^3
#
#
#
# Elastic Constant Matrix: (Units=GPa)
#
#
# Indices 1 2 3 4 5 6 
#
# 1 267.5019 63.6804 49.6656 0.0000 0.0000 0.0000
# 2 63.6804 151.4062 31.2326 0.0000 0.0000 0.0000
# 3 49.6656 31.2326 103.0822 0.0000 0.0000 0.0000
# 4 0.0000 0.0000 0.0000 25.0488 0.0000 0.0000
# 5 0.0000 0.0000 0.0000 0.0000 18.3646 0.0000
# 6 0.0000 0.0000 0.0000 0.0000 0.0000 -7.9997
#
#
#
# Elastic Compliance Matrix: (Units=1/GPa)
#
#
# Indices 1 2 3 4 5 6 
#
# 1 0.004407 -0.001510 -0.001666 0.000000 0.000000 0.000000
# 2 -0.001510 0.007562 -0.001564 0.000000 0.000000 0.000000
# 3 -0.001666 -0.001564 0.010977 0.000000 0.000000 0.000000
# 4 0.000000 0.000000 0.000000 0.039922 0.000000 0.000000
# 5 0.000000 0.000000 0.000000 0.000000 0.054453 0.000000
# 6 0.000000 0.000000 0.000000 0.000000 0.000000 -0.125005
#
#
# Mechanical properties :
#
#
# Convention : Reuss Voigt Hill
#
# Bulk Modulus (GPa) = 74.25189 90.12751 82.18970
# Shear Modulus (GPa) = 795.54815 32.24352 413.89584
#
# Velocity S-wave (km/s) = 17.43425 3.50987 12.57522
# Velocity P-wave (km/s) = 20.82402 7.13165 15.56438
#
# Compressibility (1/GPa) = 0.01346767
#
# Stress axis : x y z
#
# Youngs Moduli (GPa) = 226.91041 132.23305 91.09608
#
# Poissons Ratio (x) = 0.19966 0.15175
# Poissons Ratio (y) = 0.34262 0.14246
# Poissons Ratio (z) = 0.37800 0.20679
#
# Static dielectric constant tensor:
#      x y z
#    x 2.017530 0.000000 0.000000 
#    y 0.000000 2.185000 0.000000 
#    z 0.000000 0.000000 2.243610 
# 
# From -- ./inp_files/5215.got.cif
#   From: 2010.05.17/outbox.cif.g08.bks.cpg/sg46_3_cif.got.tgz:5215.got - 2010.06.03 19:58:25.
