data_PCOD9381613
_publ_section_title
;
Structure prediction by ZEFSAII (Michael W. Deem and Ramdas Pophale) SiO2 
 PCOD9381613
Probable space group: P M M M
;
_chemical_formula_sum "Si O2"
_cell_formula_units_Z 52
_cell_length_a 28.793261
_cell_length_b 14.164873
_cell_length_c 7.980564
_cell_angle_alpha 90.000000
_cell_angle_beta 90.000000
_cell_angle_gamma 90.000000
_cell_volume 3254.896054
_symmetry_space_group_name_H-M "P M M M"
_symmetry_group_IT_number 47
_symmetry_cell_setting 'orthorhombic'
loop_
_space_group_symop_operation_xyz
x,y,z
-x,-y,z
x,-y,-z
-x,y,-z
-x,-y,-z
x,y,-z
-x,y,z
x,-y,z
loop_
_atom_site_type_symbol
_atom_site_label
_atom_site_fract_x
_atom_site_fract_y
_atom_site_fract_z
Si Si1 0.051947 0.108469 0.797877
Si Si2 0.854479 0.793755 0.300735
Si Si3 0.712509 0.706116 0.799434
Si Si4 0.447007 0.385481 0.000000
Si Si5 0.617875 0.387325 0.689990
Si Si6 0.806423 0.605346 0.297033
Si Si7 0.762105 0.104898 0.800081
O O1 0.094020 0.173475 0.741750
O O2 0.000000 0.136659 0.741971
O O3 0.059928 0.000000 0.742197
O O4 0.051741 0.107695 0.000000
O O5 0.848948 0.795257 0.500000
O O6 0.840922 0.688665 0.240307
O O7 0.815340 0.864112 0.229600
O O8 0.665785 0.668142 0.717010
O O9 0.755241 0.636166 0.761066
O O10 0.729859 0.809201 0.737532
O O11 0.705689 0.709453 0.000000
O O12 0.418580 0.358462 0.166626
O O13 0.448681 0.500000 0.000000
O O14 0.500000 0.351073 0.000000
O O15 0.600768 0.373117 0.500000
O O16 0.626918 0.500000 0.710799
O O17 0.806429 0.604707 0.500000
O O18 0.817898 0.500000 0.238666
O O19 0.753425 0.000000 0.731402
O O20 0.755212 0.101603 0.000000
#
# Coordination Sequence:
#
# PCOD9381613 Si02
#       7
#     8   8   8   4   8   8   8
#     4   9  18  32  48  64  83 109 139 171 213 268
#     4  10  19  29  44  66  88 111 142 181 223 264
#     4  10  18  28  44  66  92 121 156 195 228 265
#     4   9  18  32  48  68  95 127 165 203 235 276
#     4  10  19  30  46  68  96 129 160 195 239 280
#     4   9  18  31  44  60  86 119 151 182 218 264
#     4   9  18  31  45  62  89 125 156 181 218 272
#
# _framework density 15.975934000000001
#
# number of rings (size 3 to 8) (size 9 to 14) (size 15 to 20)
#    0.000    2.538    0.769    2.308    0.000    6.462 
#    0.000    2.308    0.000    0.462    0.000    3.231 
#    0.000    1.231    0.000    1.385    0.000    0.154 
#
# Total GULP energy -289863.608111 kJ/mol
# GULP energy per Si atom -5574.300156 kJ/mol
# Density = 1.593957 g / cm^3
# Si number density = 15.975934 Si / 1000 Ang^3
#
#
#
# Elastic Constant Matrix: (Units=GPa)
#
#
# Indices 1 2 3 4 5 6 
#
# 1 117.8214 49.9405 29.2115 0.0000 0.0000 0.0000
# 2 49.9405 90.5058 22.7357 0.0000 0.0000 0.0000
# 3 29.2115 22.7357 43.3330 0.0000 0.0000 0.0000
# 4 0.0000 0.0000 0.0000 15.3718 0.0000 0.0000
# 5 0.0000 0.0000 0.0000 0.0000 3.3652 0.0000
# 6 0.0000 0.0000 0.0000 0.0000 0.0000 17.3104
#
#
#
# Elastic Compliance Matrix: (Units=1/GPa)
#
#
# Indices 1 2 3 4 5 6 
#
# 1 0.012065 -0.005315 -0.005345 0.000000 0.000000 0.000000
# 2 -0.005315 0.015068 -0.004323 0.000000 0.000000 0.000000
# 3 -0.005345 -0.004323 0.028948 0.000000 0.000000 0.000000
# 4 0.000000 0.000000 0.000000 0.065054 0.000000 0.000000
# 5 0.000000 0.000000 0.000000 0.000000 0.297162 0.000000
# 6 0.000000 0.000000 0.000000 0.000000 0.000000 0.057769
#
#
# Mechanical properties :
#
#
# Convention : Reuss Voigt Hill
#
# Bulk Modulus (GPa) = 38.29042 50.60393 44.44718
# Shear Modulus (GPa) = 9.71370 17.19430 13.45400
#
# Velocity S-wave (km/s) = 2.46848 3.28420 2.90512
# Velocity P-wave (km/s) = 5.66958 6.79155 6.25577
#
# Compressibility (1/GPa) = 0.02611619
#
# Stress axis : x y z
#
# Youngs Moduli (GPa) = 82.88165 66.36727 34.54442
#
# Poissons Ratio (x) = 0.35274 0.18464
# Poissons Ratio (y) = 0.44051 0.14933
# Poissons Ratio (z) = 0.44299 0.28689
#
# Static dielectric constant tensor:
#      x y z
#    x 1.506900 0.000000 0.000000 
#    y 0.000000 1.549420 0.000000 
#    z 0.000000 0.000000 1.570570 
# 
# From -- ./inp_files/12557.got.cif
#   From: 2010.05.17/outbox.cif.g08.bks.cpg/sg47_7_cif.got.tgz:12557.got - 2010.06.03 20:15:42.
