data_PCOD9381430
_publ_section_title
;
Structure prediction by ZEFSAII (Michael W. Deem and Ramdas Pophale) SiO2 
 PCOD9381430
Probable space group: P M M M
;
_chemical_formula_sum "Si O2"
_cell_formula_units_Z 52
_cell_length_a 19.379341
_cell_length_b 17.491263
_cell_length_c 8.051242
_cell_angle_alpha 90.000000
_cell_angle_beta 90.000000
_cell_angle_gamma 90.000000
_cell_volume 2729.122659
_symmetry_space_group_name_H-M "P M M M"
_symmetry_group_IT_number 47
_symmetry_cell_setting 'orthorhombic'
loop_
_space_group_symop_operation_xyz
x,y,z
-x,-y,z
x,-y,-z
-x,y,-z
-x,-y,-z
x,y,-z
-x,y,z
x,-y,z
loop_
_atom_site_type_symbol
_atom_site_label
_atom_site_fract_x
_atom_site_fract_y
_atom_site_fract_z
Si Si1 0.853392 0.000000 0.301987
Si Si2 0.417471 0.589376 0.500000
Si Si3 0.308769 0.000000 0.298036
Si Si4 0.658255 0.667894 0.192530
Si Si5 0.686092 0.832997 0.306423
Si Si6 0.159598 0.159735 0.190111
Si Si7 0.802704 0.586854 0.800913
Si Si8 0.078101 0.694316 0.304222
O O1 0.879165 0.919088 0.234856
O O2 0.858535 0.000000 0.500000
O O3 0.772213 0.000000 0.252198
O O4 0.396376 0.500000 0.500000
O O5 0.500000 0.593133 0.500000
O O6 0.389049 0.629865 0.666701
O O7 0.336871 0.917339 0.244464
O O8 0.311228 0.000000 0.500000
O O9 0.658395 0.759530 0.210722
O O10 0.735753 0.638500 0.233169
O O11 0.642942 0.646502 0.000000
O O12 0.667036 0.825199 0.500000
O O13 0.769922 0.832696 0.295220
O O14 0.111594 0.232353 0.217247
O O15 0.182490 0.156733 0.000000
O O16 0.791105 0.500000 0.744390
O O17 0.870934 0.623851 0.726251
O O18 0.810808 0.586475 0.000000
O O19 0.076923 0.710744 0.500000
O O20 0.000000 0.679825 0.247518
#
# Coordination Sequence:
#
# PCOD9381430 Si02
#       8
#     4   4   4   8   8   8   8   8
#     4   9  17  31  50  72 103 145 188 237 298 357
#     4  11  26  46  68  97 130 168 208 244 296 364
#     4   7  14  25  45  78 118 157 193 240 295 348
#     4  11  22  39  64  97 129 162 204 253 303 357
#     4  10  17  31  54  85 123 161 201 247 300 356
#     4  11  20  32  51  78 109 145 192 246 300 357
#     4  10  22  39  59  84 112 145 191 245 301 357
#     4  11  24  39  54  75 106 147 193 242 301 364
#
# _framework density 19.053742
#
# number of rings (size 3 to 8) (size 9 to 14) (size 15 to 20)
#    0.000    1.769    2.308    3.923    1.077    3.077 
#    0.000    3.846    0.000    2.308    0.000    1.077 
#    0.000    1.231    0.000    0.000    0.000    0.000 
#
# Total GULP energy -290169.603692 kJ/mol
# GULP energy per Si atom -5580.184686 kJ/mol
# Density = 1.901037 g / cm^3
# Si number density = 19.053742 Si / 1000 Ang^3
#
#
#
# Elastic Constant Matrix: (Units=GPa)
#
#
# Indices 1 2 3 4 5 6 
#
# 1 41.4407 23.2997 21.1802 0.0000 0.0000 0.0000
# 2 23.2997 144.5214 29.0459 0.0000 0.0000 0.0000
# 3 21.1802 29.0459 64.2104 0.0000 0.0000 0.0000
# 4 0.0000 0.0000 0.0000 27.1350 0.0000 0.0000
# 5 0.0000 0.0000 0.0000 0.0000 8.6300 0.0000
# 6 0.0000 0.0000 0.0000 0.0000 0.0000 20.0437
#
#
#
# Elastic Compliance Matrix: (Units=1/GPa)
#
#
# Indices 1 2 3 4 5 6 
#
# 1 0.030283 -0.003162 -0.008559 0.000000 0.000000 0.000000
# 2 -0.003162 0.007942 -0.002549 0.000000 0.000000 0.000000
# 3 -0.008559 -0.002549 0.019550 0.000000 0.000000 0.000000
# 4 0.000000 0.000000 0.000000 0.036853 0.000000 0.000000
# 5 0.000000 0.000000 0.000000 0.000000 0.115875 0.000000
# 6 0.000000 0.000000 0.000000 0.000000 0.000000 0.049891
#
#
# Mechanical properties :
#
#
# Convention : Reuss Voigt Hill
#
# Bulk Modulus (GPa) = 34.20620 44.13604 39.17112
# Shear Modulus (GPa) = 16.74038 22.93817 19.83928
#
# Velocity S-wave (km/s) = 2.96731 3.47344 3.23031
# Velocity P-wave (km/s) = 5.45265 6.26902 5.87503
#
# Compressibility (1/GPa) = 0.02923447
#
# Stress axis : x y z
#
# Youngs Moduli (GPa) = 33.02182 125.91988 51.15054
#
# Poissons Ratio (x) = 0.39817 0.43778
# Poissons Ratio (y) = 0.10442 0.13040
# Poissons Ratio (z) = 0.28262 0.32102
#
# Static dielectric constant tensor:
#      x y z
#    x 1.623650 0.000000 0.000000 
#    y 0.000000 1.701780 0.000000 
#    z 0.000000 0.000000 1.668290 
# 
# From -- ./inp_files/9650.got.cif
#   From: 2010.05.17/outbox.cif.g08.bks.cpg/sg47_5_cif.got.tgz:9650.got - 2010.06.03 20:15:42.
