data_PCOD9381676
_publ_section_title
;
Structure prediction by ZEFSAII (Michael W. Deem and Ramdas Pophale) SiO2 
 PCOD9381676
Probable space group: P M M M
;
_chemical_formula_sum "Si O2"
_cell_formula_units_Z 60
_cell_length_a 12.809004
_cell_length_b 19.870654
_cell_length_c 14.070111
_cell_angle_alpha 90.000000
_cell_angle_beta 90.000000
_cell_angle_gamma 90.000000
_cell_volume 3581.170894
_symmetry_space_group_name_H-M "P M M M"
_symmetry_group_IT_number 47
_symmetry_cell_setting 'orthorhombic'
loop_
_space_group_symop_operation_xyz
x,y,z
-x,-y,z
x,-y,-z
-x,y,-z
-x,-y,-z
x,y,-z
-x,y,z
x,-y,z
loop_
_atom_site_type_symbol
_atom_site_label
_atom_site_fract_x
_atom_site_fract_y
_atom_site_fract_z
Si Si1 0.126843 0.500000 0.611041
Si Si2 0.716064 0.925587 0.234503
Si Si3 0.883928 0.098615 0.389189
Si Si4 0.879208 0.371736 0.262704
Si Si5 0.116578 0.851174 0.112569
Si Si6 0.235492 0.287677 0.886891
Si Si7 0.187140 0.750453 0.389163
Si Si8 0.380045 0.782611 0.256213
O O1 0.162551 0.500000 0.500000
O O2 0.157070 0.434929 0.673603
O O3 0.000000 0.500000 0.606606
O O4 0.787072 0.927596 0.329167
O O5 0.800988 0.902116 0.156821
O O6 0.637287 0.862799 0.240683
O O7 0.672699 0.000000 0.216318
O O8 0.872978 0.081915 0.500000
O O9 0.874213 0.179427 0.380098
O O10 0.000000 0.077443 0.358601
O O11 0.809648 0.351054 0.171536
O O12 0.870345 0.307953 0.332600
O O13 0.000000 0.382397 0.234543
O O14 0.154861 0.774711 0.129707
O O15 0.000000 0.860463 0.150685
O O16 0.114722 0.860417 0.000000
O O17 0.339327 0.258819 0.835917
O O18 0.245740 0.298129 0.000000
O O19 0.197339 0.734355 0.500000
O O20 0.299511 0.761799 0.339368
O O21 0.500000 0.768567 0.277051
#
# Coordination Sequence:
#
# PCOD9381676 Si02
#       8
#     4   8   8   8   8   8   8   8
#     4   9  18  30  43  67 108 151 179 193 209 245
#     4  10  20  31  43  61  87 118 151 186 227 282
#     4   9  17  28  42  62  88 117 151 192 235 278
#     4  10  18  28  46  73 105 139 169 189 213 261
#     4   9  17  29  45  65  89 116 146 184 232 282
#     4   9  18  32  50  71  93 119 156 203 248 283
#     4   9  17  29  47  70  93 119 155 200 244 281
#     4   9  19  34  50  68  88 112 149 199 252 300
#
# _framework density 16.754297000000001
#
# number of rings (size 3 to 8) (size 9 to 14) (size 15 to 20)
#    0.000    2.733    0.000    2.400    0.000    4.533 
#    0.000    1.667    0.000    1.200    0.000   14.933 
#    0.000   17.067    0.000    0.000    0.000    0.000 
#
# Total GULP energy -334336.517175 kJ/mol
# GULP energy per Si atom -5572.275286 kJ/mol
# Density = 1.671616 g / cm^3
# Si number density = 16.754297 Si / 1000 Ang^3
#
#
#
# Elastic Constant Matrix: (Units=GPa)
#
#
# Indices 1 2 3 4 5 6 
#
# 1 66.4864 0.6081 13.9788 0.0000 0.0000 0.0000
# 2 0.6081 71.6058 27.1245 0.0000 0.0000 0.0000
# 3 13.9788 27.1245 88.3529 0.0000 0.0000 0.0000
# 4 0.0000 0.0000 0.0000 11.1065 0.0000 0.0000
# 5 0.0000 0.0000 0.0000 0.0000 9.7880 0.0000
# 6 0.0000 0.0000 0.0000 0.0000 0.0000 12.1393
#
#
#
# Elastic Compliance Matrix: (Units=1/GPa)
#
#
# Indices 1 2 3 4 5 6 
#
# 1 0.015610 0.000909 -0.002749 0.000000 0.000000 0.000000
# 2 0.000909 0.015856 -0.005012 0.000000 0.000000 0.000000
# 3 -0.002749 -0.005012 0.013292 0.000000 0.000000 0.000000
# 4 0.000000 0.000000 0.000000 0.090037 0.000000 0.000000
# 5 0.000000 0.000000 0.000000 0.000000 0.102166 0.000000
# 6 0.000000 0.000000 0.000000 0.000000 0.000000 0.082377
#
#
# Mechanical properties :
#
#
# Convention : Reuss Voigt Hill
#
# Bulk Modulus (GPa) = 32.20126 34.42975 33.31550
# Shear Modulus (GPa) = 14.56059 18.92236 16.74148
#
# Velocity S-wave (km/s) = 2.95119 3.36431 3.16450
# Velocity P-wave (km/s) = 5.55645 5.97376 5.76888
#
# Compressibility (1/GPa) = 0.03105469
#
# Stress axis : x y z
#
# Youngs Moduli (GPa) = 64.06032 63.06747 75.23485
#
# Poissons Ratio (x) = -0.05731 0.20680
# Poissons Ratio (y) = -0.05821 0.37705
# Poissons Ratio (z) = 0.17609 0.31607
#
# Static dielectric constant tensor:
#      x y z
#    x 1.532060 0.000000 0.000000 
#    y 0.000000 1.585260 0.000000 
#    z 0.000000 0.000000 1.590010 
# 
# From -- ./inp_files/23081.got.cif
#   From: 2010.05.17/outbox.cif.g08.bks.cpg/sg47_12_cif.got.tgz:23081.got - 2010.06.03 20:15:42.
