data_PCOD9381151
_publ_section_title
;
Structure prediction by ZEFSAII (Michael W. Deem and Ramdas Pophale) SiO2 
 PCOD9381151
Probable space group: I M A 2
;
_chemical_formula_sum "Si O2"
_cell_formula_units_Z 32
_cell_length_a 9.000000
_cell_length_b 24.000000
_cell_length_c 15.000000
_cell_angle_alpha 90.000000
_cell_angle_beta 90.000000
_cell_angle_gamma 90.000000
_cell_volume 3240.000000
_symmetry_space_group_name_H-M "I M A 2"
_symmetry_group_IT_number 46
_symmetry_cell_setting 'orthorhombic'
loop_
_space_group_symop_operation_xyz
x,y,z
-x,-y,z
1/2-x,y,z
1/2+x,-y,z
1/2+x,1/2+y,1/2+z
1/2-x,1/2-y,1/2+z
-x,1/2+y,1/2+z
x,1/2-y,1/2+z
loop_
_atom_site_type_symbol
_atom_site_label
_atom_site_fract_x
_atom_site_fract_y
_atom_site_fract_z
Si Si1 0.571657 0.353004 0.256140
Si Si2 0.925891 0.247021 0.489227
Si Si3 0.572727 0.754645 0.181722
Si Si4 0.927316 0.640644 0.433739
Si Si5 0.424095 0.383163 0.737601
Si Si6 0.072717 0.940841 0.602730
Si Si7 0.073724 0.878965 0.421823
Si Si8 0.072861 0.559610 0.576600
O O1 0.750000 0.347040 0.263411
O O2 0.495451 0.292962 0.243998
O O3 0.500824 0.380559 0.343006
O O4 0.535245 0.392272 0.172635
O O5 0.750000 0.260265 0.485477
O O6 0.946990 0.185836 0.448520
O O7 0.983976 0.246904 0.590076
O O8 0.020077 0.295570 0.443682
O O9 0.750000 0.746407 0.169956
O O10 0.550647 0.817654 0.215614
O O11 0.750000 0.636807 0.434418
O O12 0.998453 0.605792 0.513526
O O13 0.250000 0.394963 0.721596
O O14 0.472165 0.392453 0.838425
O O15 0.525461 0.420987 0.674885
O O16 0.250000 0.947457 0.606195
O O17 0.034032 0.917568 0.505363
O O18 0.000000 0.000000 0.622093
O O19 0.250000 0.885971 0.401950
O O20 0.250000 0.558130 0.566030
O O21 0.000000 0.500000 0.556916
#
# Coordination Sequence:
#
# PCOD9381151 Si02
#       8
#     8   8   8   8   8   8   8   8
#     4  11  23  42  65  92 128 169 214 261 318 384
#     4  11  21  38  65  94 128 170 210 254 317 382
#     4  11  22  37  62  95 132 167 207 259 318 379
#     4  12  25  42  64  97 133 164 209 262 316 382
#     4  11  24  41  63  96 131 166 206 258 316 378
#     4  10  23  43  64  89 121 161 212 264 312 368
#     4  10  22  41  63  92 127 167 212 260 311 377
#     4  12  26  46  70  93 123 167 214 264 319 376
#
# _framework density 9.8765429999999999
#
# number of rings (size 3 to 8) (size 9 to 14) (size 15 to 20)
#    0.000    1.000    2.500    4.500    0.000    7.000 
#    0.000    2.500    0.000    0.000    0.000    0.000 
#    0.000    0.000    0.000    0.000    0.000    0.000 
#
# Total GULP energy -178933.907530 kJ/mol
# GULP energy per Si atom -5591.684610 kJ/mol
# Density = 0.985406 g / cm^3
# Si number density = 9.876543 Si / 1000 Ang^3
#
#
#
# Elastic Constant Matrix: (Units=GPa)
#
#
# Indices 1 2 3 4 5 6 
#
# 1 48.1745 2.4699 -8.9335 0.0000 0.0000 0.0000
# 2 2.4699 39.5431 -18.6376 0.0001 0.0000 0.0000
# 3 -8.9335 -18.6376 64.3630 0.0001 0.0000 0.0000
# 4 0.0000 0.0001 0.0001 -20.7265 0.0000 0.0000
# 5 0.0000 0.0000 0.0000 0.0000 25.9672 0.0000
# 6 0.0000 0.0000 0.0000 0.0000 0.0000 31.2554
#
#
#
# Elastic Compliance Matrix: (Units=1/GPa)
#
#
# Indices 1 2 3 4 5 6 
#
# 1 0.021306 0.000073 0.002978 0.000000 0.000000 0.000000
# 2 0.000073 0.029286 0.008491 0.000000 0.000000 0.000000
# 3 0.002978 0.008491 0.018409 0.000000 0.000000 0.000000
# 4 0.000000 0.000000 0.000000 -0.048247 0.000000 0.000000
# 5 0.000000 0.000000 0.000000 0.000000 0.038510 0.000000
# 6 0.000000 0.000000 0.000000 0.000000 0.000000 0.031994
#
#
# Mechanical properties :
#
#
# Convention : Reuss Voigt Hill
#
# Bulk Modulus (GPa) = 10.85951 11.31981 11.08966
# Shear Modulus (GPa) = 50.57156 19.11134 34.84145
#
# Velocity S-wave (km/s) = 5.06532 3.11386 4.20438
# Velocity P-wave (km/s) = 6.30234 4.32102 5.40327
#
# Compressibility (1/GPa) = 0.09208518
#
# Stress axis : x y z
#
# Youngs Moduli (GPa) = 46.93416 34.14590 54.32160
#
# Poissons Ratio (x) = -0.00249 -0.16179
# Poissons Ratio (y) = -0.00342 -0.46122
# Poissons Ratio (z) = -0.13979 -0.28992
#
# Static dielectric constant tensor:
#      x y z
#    x 1.647850 0.000000 0.000000 
#    y 0.000000 1.709540 0.000000 
#    z 0.000000 0.000000 1.815960 
# 
# From -- ./inp_files/14483.got.cif
#   From: 2010.05.17/outbox.ucp.g08.bks.cvg/sg46_8_cif.got.tgz:14483.got - 2010.06.11 16:34:52.
