data_PCOD9381054
_publ_section_title
;
Structure prediction by ZEFSAII (Michael W. Deem and Ramdas Pophale) SiO2 
 PCOD9381054
Probable space group: I M A 2
;
_chemical_formula_sum "Si O2"
_cell_formula_units_Z 56
_cell_length_a 7.280617
_cell_length_b 31.858921
_cell_length_c 11.942551
_cell_angle_alpha 90.000000
_cell_angle_beta 90.000000
_cell_angle_gamma 90.000000
_cell_volume 2770.105777
_symmetry_space_group_name_H-M "I M A 2"
_symmetry_group_IT_number 46
_symmetry_cell_setting 'orthorhombic'
loop_
_space_group_symop_operation_xyz
x,y,z
-x,-y,z
1/2-x,y,z
1/2+x,-y,z
1/2+x,1/2+y,1/2+z
1/2-x,1/2-y,1/2+z
-x,1/2+y,1/2+z
x,1/2-y,1/2+z
loop_
_atom_site_type_symbol
_atom_site_label
_atom_site_fract_x
_atom_site_fract_y
_atom_site_fract_z
Si Si1 0.974992 0.328838 0.495230
Si Si2 0.969152 0.049181 0.627463
Si Si3 0.042217 0.606820 0.317388
Si Si4 0.525850 0.258225 0.321211
Si Si5 0.973281 0.332685 0.751815
Si Si6 0.457141 0.681970 0.134707
Si Si7 0.474749 0.881747 0.454504
O O1 0.750000 0.328974 0.492643
O O2 0.037562 0.369888 0.425426
O O3 0.030852 0.287087 0.426024
O O4 0.033760 0.330713 0.623485
O O5 0.750000 0.055898 0.632307
O O6 0.041432 0.069274 0.743939
O O7 0.034254 0.076694 0.521209
O O8 0.000000 0.000000 0.616934
O O9 0.250000 0.594142 0.348562
O O10 0.053615 0.644865 0.227302
O O11 0.750000 0.260064 0.319677
O O12 0.472561 0.210041 0.315392
O O13 0.462180 0.279964 0.205058
O O14 0.750000 0.332814 0.748429
O O15 0.029645 0.372258 0.827609
O O16 0.250000 0.695088 0.101623
O O17 0.537308 0.658099 0.029047
O O18 0.250000 0.881613 0.457538
#
# Coordination Sequence:
#
# PCOD9381054 Si02
#       7
#     8   8   8   8   8   8   8
#     4   8  13  20  27  40  64  96 133 162 182 214
#     4   9  16  27  44  62  77  96 124 160 199 237
#     4   7  11  21  34  47  65  91 121 150 185 227
#     4   8  13  17  23  37  59  91 132 166 181 202
#     4   9  15  18  25  41  64  98 134 160 181 217
#     4   7  10  17  27  37  56  87 122 152 178 213
#     4   8  14  22  31  46  69  97 126 154 190 232
#
# _framework density 20.215834000000001
#
# number of rings (size 3 to 8) (size 9 to 14) (size 15 to 20)
#    0.000    4.000    0.000    3.429    2.000    0.000 
#    0.000    0.000    0.000    0.857    0.000    0.000 
#    0.000    0.000    0.000   11.571    1.714   12.857 
#
# Total GULP energy -155886.544395 kJ/mol
# GULP energy per Si atom -5567.376586 kJ/mol
# Density = 2.016982 g / cm^3
# Si number density = 20.215834 Si / 1000 Ang^3
#
#
#
# Elastic Constant Matrix: (Units=GPa)
#
#
# Indices 1 2 3 4 5 6 
#
# 1 84.0149 2.1693 4.7252 0.0000 0.0000 0.0000
# 2 2.1693 131.2241 85.1996 0.0000 0.0000 0.0000
# 3 4.7252 85.1996 163.8096 0.0000 0.0000 0.0000
# 4 0.0000 0.0000 0.0000 22.4424 0.0000 0.0000
# 5 0.0000 0.0000 0.0000 0.0000 -23.2105 0.0000
# 6 0.0000 0.0000 0.0000 0.0000 0.0000 -7.4942
#
#
#
# Elastic Compliance Matrix: (Units=1/GPa)
#
#
# Indices 1 2 3 4 5 6 
#
# 1 0.011922 0.000040 -0.000364 0.000000 0.000000 0.000000
# 2 0.000040 0.011506 -0.005986 0.000000 0.000000 0.000000
# 3 -0.000364 -0.005986 0.009228 0.000000 0.000000 0.000000
# 4 0.000000 0.000000 0.000000 0.044559 0.000000 0.000000
# 5 0.000000 0.000000 0.000000 0.000000 -0.043084 0.000000
# 6 0.000000 0.000000 0.000000 0.000000 0.000000 -0.133437
#
#
# Mechanical properties :
#
#
# Convention : Reuss Voigt Hill
#
# Bulk Modulus (GPa) = 49.91132 62.58186 56.24659
# Shear Modulus (GPa) = -62.49534 17.47784 -22.50875
#
# Velocity S-wave (km/s) = -5.56607 2.94353 -3.34042
# Velocity P-wave (km/s) = 4.07006 6.52507 3.60633
#
# Compressibility (1/GPa) = 0.02003554
#
# Stress axis : x y z
#
# Youngs Moduli (GPa) = 83.87764 86.90963 108.36117
#
# Poissons Ratio (x) = -0.00344 0.03949
# Poissons Ratio (y) = -0.00332 0.64862
# Poissons Ratio (z) = 0.03057 0.52021
#
# Static dielectric constant tensor:
#      x y z
#    x 1.903870 0.000000 0.000000 
#    y 0.000000 1.697760 0.000000 
#    z 0.000000 0.000000 1.744240 
# 
# From -- ./inp_files/10556.got.cif
#   From: 2010.05.17/outbox.cif.g08.bks.cpg/sg46_6_cif.got.tgz:10556.got - 2010.06.03 19:58:25.
