data_PCOD9381974
_publ_section_title
;
Structure prediction by ZEFSAII (Michael W. Deem and Ramdas Pophale) SiO2 
 PCOD9381974
Probable space group: P M M M
;
_chemical_formula_sum "Si O2"
_cell_formula_units_Z 40
_cell_length_a 7.373845
_cell_length_b 12.422582
_cell_length_c 20.997969
_cell_angle_alpha 90.000000
_cell_angle_beta 90.000000
_cell_angle_gamma 90.000000
_cell_volume 1923.460033
_symmetry_space_group_name_H-M "P M M M"
_symmetry_group_IT_number 47
_symmetry_cell_setting 'orthorhombic'
loop_
_space_group_symop_operation_xyz
x,y,z
-x,-y,z
x,-y,-z
-x,y,-z
-x,-y,-z
x,y,-z
-x,y,z
x,-y,z
loop_
_atom_site_type_symbol
_atom_site_label
_atom_site_fract_x
_atom_site_fract_y
_atom_site_fract_z
Si Si1 0.778724 0.000000 0.726676
Si Si2 0.778804 0.230592 0.071610
Si Si3 0.221795 0.376355 0.189845
Si Si4 0.213601 0.233154 0.692049
Si Si5 0.718009 0.378691 0.572072
Si Si6 0.220483 0.000000 0.875379
O O1 0.714785 0.888469 0.695579
O O2 0.728254 0.000000 0.801194
O O3 0.000000 0.000000 0.723882
O O4 0.722377 0.314427 0.125803
O O5 0.721041 0.110075 0.091083
O O6 0.000000 0.230228 0.072005
O O7 0.721033 0.256976 0.000000
O O8 0.280540 0.500000 0.192092
O O9 0.285002 0.308839 0.251228
O O10 0.000000 0.377267 0.190515
O O11 0.232849 0.292298 0.624937
O O12 0.000000 0.223991 0.705222
O O13 0.780315 0.354735 0.500000
O O14 0.500000 0.382053 0.570301
O O15 0.780562 0.500000 0.589155
O O16 0.000000 0.000000 0.876969
#
# Coordination Sequence:
#
# PCOD9381974 Si02
#       6
#     4   8   8   8   8   4
#     4   9  16  27  44  65  93 126 157 196 244 280
#     4   9  15  21  31  49  77 116 158 194 230 278
#     4   9  16  24  35  55  84 117 153 193 237 280
#     4  10  18  30  49  72  96 125 162 199 234 277
#     4   9  19  36  55  74  98 126 153 186 232 281
#     4   9  13  22  35  50  76 115 159 196 229 272
#
# _framework density 20.795857000000002
#
# number of rings (size 3 to 8) (size 9 to 14) (size 15 to 20)
#    0.000    2.800    2.000    1.500    0.000    3.200 
#    0.000    4.000    0.000    3.000    0.000    0.000 
#    0.000    0.800    0.000    6.000    0.000    6.000 
#
# Total GULP energy -223345.492822 kJ/mol
# GULP energy per Si atom -5583.637321 kJ/mol
# Density = 2.074852 g / cm^3
# Si number density = 20.795857 Si / 1000 Ang^3
#
#
#
# Elastic Constant Matrix: (Units=GPa)
#
#
# Indices 1 2 3 4 5 6 
#
# 1 70.5440 9.5140 -3.0093 0.0000 0.0000 0.0000
# 2 9.5140 219.3853 129.2730 0.0000 0.0000 0.0000
# 3 -3.0093 129.2730 163.1343 0.0000 0.0000 0.0000
# 4 0.0000 0.0000 0.0000 36.4056 0.0000 0.0000
# 5 0.0000 0.0000 0.0000 0.0000 62.9429 0.0000
# 6 0.0000 0.0000 0.0000 0.0000 0.0000 -0.8555
#
#
#
# Elastic Compliance Matrix: (Units=1/GPa)
#
#
# Indices 1 2 3 4 5 6 
#
# 1 0.014435 -0.001469 0.001430 0.000000 0.000000 0.000000
# 2 -0.001469 0.008700 -0.006922 0.000000 0.000000 0.000000
# 3 0.001430 -0.006922 0.011641 0.000000 0.000000 0.000000
# 4 0.000000 0.000000 0.000000 0.027468 0.000000 0.000000
# 5 0.000000 0.000000 0.000000 0.000000 0.015887 0.000000
# 6 0.000000 0.000000 0.000000 0.000000 0.000000 -1.168869
#
#
# Mechanical properties :
#
#
# Convention : Reuss Voigt Hill
#
# Bulk Modulus (GPa) = 47.94804 80.51323 64.23064
# Shear Modulus (GPa) = -4.67349 40.85100 18.08876
#
# Velocity S-wave (km/s) = -1.50073 4.43694 2.95248
# Velocity P-wave (km/s) = 4.48371 8.06528 6.52504
#
# Compressibility (1/GPa) = 0.02085591
#
# Stress axis : x y z
#
# Youngs Moduli (GPa) = 69.27788 114.93652 85.90162
#
# Poissons Ratio (x) = 0.16880 -0.12285
# Poissons Ratio (y) = 0.10175 0.59458
# Poissons Ratio (z) = -0.09907 0.79555
#
# Static dielectric constant tensor:
#      x y z
#    x 1.824630 0.000000 0.000000 
#    y 0.000000 1.719900 0.000000 
#    z 0.000000 0.000000 1.698430 
# 
# From -- ./inp_files/10735.got.cif
#   From: 2010.05.17/outbox.cif.g08.bks.cpg/sg47_6_cif.got.tgz:10735.got - 2010.06.03 20:15:42.
