data_PCOD9381486
_publ_section_title
;
Structure prediction by ZEFSAII (Michael W. Deem and Ramdas Pophale) SiO2 
 PCOD9381486
Probable space group: P M M M
;
_chemical_formula_sum "Si O2"
_cell_formula_units_Z 60
_cell_length_a 25.346529
_cell_length_b 8.148214
_cell_length_c 18.930789
_cell_angle_alpha 90.000000
_cell_angle_beta 90.000000
_cell_angle_gamma 90.000000
_cell_volume 3909.755832
_symmetry_space_group_name_H-M "P M M M"
_symmetry_group_IT_number 47
_symmetry_cell_setting 'orthorhombic'
loop_
_space_group_symop_operation_xyz
x,y,z
-x,-y,z
x,-y,-z
-x,y,-z
-x,-y,-z
x,y,-z
-x,y,z
x,-y,z
loop_
_atom_site_type_symbol
_atom_site_label
_atom_site_fract_x
_atom_site_fract_y
_atom_site_fract_z
Si Si1 0.726988 0.198584 0.919237
Si Si2 0.835922 0.809561 0.849672
Si Si3 0.212624 0.689904 0.286664
Si Si4 0.436858 0.500000 0.417577
Si Si5 0.058172 0.303253 0.080553
Si Si6 0.379822 0.185563 0.648217
Si Si7 0.670883 0.689224 0.783826
Si Si8 0.271185 0.301669 0.581853
O O1 0.784403 0.259909 0.891168
O O2 0.682567 0.253356 0.863349
O O3 0.728179 0.000000 0.917523
O O4 0.718494 0.251181 0.000000
O O5 0.824310 0.785999 0.766838
O O6 0.891540 0.738900 0.873011
O O7 0.837386 0.000000 0.867217
O O8 0.195912 0.500000 0.286349
O O9 0.271340 0.698432 0.252808
O O10 0.223083 0.745646 0.366538
O O11 0.500000 0.500000 0.416390
O O12 0.418914 0.500000 0.500000
O O13 0.415428 0.664719 0.379915
O O14 0.055711 0.500000 0.077575
O O15 0.000000 0.244393 0.104420
O O16 0.066451 0.243141 0.000000
O O17 0.366982 0.210640 0.731548
O O18 0.324071 0.212231 0.607742
O O19 0.399172 0.000000 0.635390
O O20 0.654039 0.500000 0.783017
O O21 0.261397 0.270685 0.500000
O O22 0.279468 0.500000 0.591528
#
# Coordination Sequence:
#
# PCOD9381486 Si02
#       8
#     8   8   8   4   8   8   8   8
#     4   9  17  27  39  62  96 127 155 189 229 275
#     4  10  18  27  40  57  82 116 148 182 223 266
#     4   8  15  26  40  59  84 116 148 178 215 263
#     4  11  24  40  54  72 101 129 159 203 239 270
#     4   9  18  31  44  57  74 100 139 185 226 264
#     4  11  20  33  53  73  95 129 165 195 236 281
#     4   9  16  29  46  65  90 122 160 196 228 270
#     4   9  16  28  46  68  94 120 150 188 224 263
#
# _framework density 15.346227000000001
#
# number of rings (size 3 to 8) (size 9 to 14) (size 15 to 20)
#    0.000    2.600    1.333    2.800    0.000    6.400 
#    0.000    1.333    0.000    0.000    0.000    0.000 
#    0.000    1.600    0.000    8.933    0.000    1.733 
#
# Total GULP energy -334107.064393 kJ/mol
# GULP energy per Si atom -5568.451073 kJ/mol
# Density = 1.531130 g / cm^3
# Si number density = 15.346227 Si / 1000 Ang^3
#
#
#
# Elastic Constant Matrix: (Units=GPa)
#
#
# Indices 1 2 3 4 5 6 
#
# 1 47.8242 25.5975 30.8183 0.0000 0.0000 0.0000
# 2 25.5975 58.7902 25.2987 0.0000 0.0000 0.0000
# 3 30.8183 25.2987 110.9202 0.0000 0.0000 0.0000
# 4 0.0000 0.0000 0.0000 14.2389 0.0000 0.0000
# 5 0.0000 0.0000 0.0000 0.0000 17.6820 0.0000
# 6 0.0000 0.0000 0.0000 0.0000 0.0000 6.0350
#
#
#
# Elastic Compliance Matrix: (Units=1/GPa)
#
#
# Indices 1 2 3 4 5 6 
#
# 1 0.030526 -0.010691 -0.006043 0.000000 0.000000 0.000000
# 2 -0.010691 0.022605 -0.002185 0.000000 0.000000 0.000000
# 3 -0.006043 -0.002185 0.011193 0.000000 0.000000 0.000000
# 4 0.000000 0.000000 0.000000 0.070230 0.000000 0.000000
# 5 0.000000 0.000000 0.000000 0.000000 0.056555 0.000000
# 6 0.000000 0.000000 0.000000 0.000000 0.000000 0.165699
#
#
# Mechanical properties :
#
#
# Convention : Reuss Voigt Hill
#
# Bulk Modulus (GPa) = 37.75645 42.32930 40.04287
# Shear Modulus (GPa) = 12.39233 16.64585 14.51909
#
# Velocity S-wave (km/s) = 2.84477 3.29703 3.07921
# Velocity P-wave (km/s) = 5.95372 6.49127 6.22830
#
# Compressibility (1/GPa) = 0.02648554
#
# Stress axis : x y z
#
# Youngs Moduli (GPa) = 32.75862 44.23825 89.34184
#
# Poissons Ratio (x) = 0.47294 0.53990
# Poissons Ratio (y) = 0.35022 0.19524
# Poissons Ratio (z) = 0.19796 0.09668
#
# Static dielectric constant tensor:
#      x y z
#    x 1.490660 0.000000 0.000000 
#    y 0.000000 1.543970 0.000000 
#    z 0.000000 0.000000 1.536780 
# 
# From -- ./inp_files/28894.got.cif
#   From: 2010.05.17/outbox.cif.g08.bks.cpg/sg47_15_cif.got.tgz:28894.got - 2010.06.03 20:15:42.
