data_PCOD9381343
_publ_section_title
;
Structure prediction by ZEFSAII (Michael W. Deem and Ramdas Pophale) SiO2 
 PCOD9381343
Probable space group: P M M M
;
_chemical_formula_sum "Si O2"
_cell_formula_units_Z 37
_cell_length_a 12.295760
_cell_length_b 11.919739
_cell_length_c 15.583752
_cell_angle_alpha 90.000000
_cell_angle_beta 90.000000
_cell_angle_gamma 90.000000
_cell_volume 2283.989757
_symmetry_space_group_name_H-M "P M M M"
_symmetry_group_IT_number 47
_symmetry_cell_setting 'orthorhombic'
loop_
_space_group_symop_operation_xyz
x,y,z
-x,-y,z
x,-y,-z
-x,y,-z
-x,-y,-z
x,y,-z
-x,y,z
x,-y,z
loop_
_atom_site_type_symbol
_atom_site_label
_atom_site_fract_x
_atom_site_fract_y
_atom_site_fract_z
Si Si1 0.000000 0.000000 0.000000
Si Si2 0.868631 0.000000 0.672776
Si Si3 0.867853 0.760814 0.595943
Si Si4 0.207390 0.000000 0.130864
Si Si5 0.869301 0.369707 0.234938
Si Si6 0.278116 0.246746 0.100261
Si Si7 0.500000 0.370651 0.103995
O O1 0.096898 0.000000 0.925384
O O2 0.836781 0.112938 0.622899
O O3 0.822487 0.000000 0.768634
O O4 0.000000 0.000000 0.678940
O O5 0.829660 0.732978 0.500000
O O6 0.834273 0.678287 0.672490
O O7 0.000000 0.757712 0.594039
O O8 0.273399 0.112899 0.109872
O O9 0.840373 0.500000 0.225918
O O10 0.815395 0.297886 0.159912
O O11 0.000000 0.359442 0.229799
O O12 0.391413 0.303317 0.128162
O O13 0.259309 0.274323 0.000000
O O14 0.500000 0.500000 0.134305
O O15 0.500000 0.374236 0.000000
#
# Coordination Sequence:
#
# PCOD9381343 Si02
#       7
#     1   4   8   4   8   8   4
#     4  12  24  32  48  82 120 160 184 192 282 338
#     4  10  17  28  47  70 104 139 173 211 252 308
#     4   9  17  29  47  70 100 137 175 215 261 314
#     4  12  22  32  51  80 111 148 175 217 261 324
#     4  10  21  33  48  74 107 141 177 217 264 319
#     4  11  22  36  55  77 104 140 180 222 264 315
#     4   9  20  39  59  75  98 136 182 230 272 308
#
# _framework density 16.199722999999999
#
# number of rings (size 3 to 8) (size 9 to 14) (size 15 to 20)
#    0.000    1.838    3.784    0.973    1.514    3.892 
#    0.000    4.865    0.000    0.000    0.000    0.757 
#    0.000    4.324    0.000    0.000    0.000    0.000 
#
# Total GULP energy -206048.770875 kJ/mol
# GULP energy per Si atom -5568.885699 kJ/mol
# Density = 1.616285 g / cm^3
# Si number density = 16.199723 Si / 1000 Ang^3
#
#
#
# Elastic Constant Matrix: (Units=GPa)
#
#
# Indices 1 2 3 4 5 6 
#
# 1 34.7715 37.3496 13.4598 0.0000 0.0000 0.0000
# 2 37.3496 123.5468 36.8511 0.0000 0.0000 0.0000
# 3 13.4598 36.8511 110.2317 0.0000 0.0000 0.0000
# 4 0.0000 0.0000 0.0000 14.8640 0.0000 0.0000
# 5 0.0000 0.0000 0.0000 0.0000 3.9577 0.0000
# 6 0.0000 0.0000 0.0000 0.0000 0.0000 15.0417
#
#
#
# Elastic Compliance Matrix: (Units=1/GPa)
#
#
# Indices 1 2 3 4 5 6 
#
# 1 0.042687 -0.012607 -0.000998 0.000000 0.000000 0.000000
# 2 -0.012607 0.012714 -0.002711 0.000000 0.000000 0.000000
# 3 -0.000998 -0.002711 0.010100 0.000000 0.000000 0.000000
# 4 0.000000 0.000000 0.000000 0.067277 0.000000 0.000000
# 5 0.000000 0.000000 0.000000 0.000000 0.252673 0.000000
# 6 0.000000 0.000000 0.000000 0.000000 0.000000 0.066482
#
#
# Mechanical properties :
#
#
# Convention : Reuss Voigt Hill
#
# Bulk Modulus (GPa) = 30.42326 49.31898 39.87112
# Shear Modulus (GPa) = 10.09038 18.83198 14.46118
#
# Velocity S-wave (km/s) = 2.49845 3.41323 2.99102
# Velocity P-wave (km/s) = 5.20998 6.78557 6.04929
#
# Compressibility (1/GPa) = 0.03286959
#
# Stress axis : x y z
#
# Youngs Moduli (GPa) = 23.42607 78.65307 99.01080
#
# Poissons Ratio (x) = 0.99161 0.09878
# Poissons Ratio (y) = 0.29534 0.26842
# Poissons Ratio (z) = 0.02337 0.21323
#
# Static dielectric constant tensor:
#      x y z
#    x 1.519180 0.000000 0.000000 
#    y 0.000000 1.563120 0.000000 
#    z 0.000000 0.000000 1.545080 
# 
# From -- ./inp_files/17279.got.cif
#   From: 2010.05.17/outbox.cif.g08.bks.cpg/sg47_9_cif.got.tgz:17279.got - 2010.06.03 20:15:42.
