data_PCOD9381731
_publ_section_title
;
Structure prediction by ZEFSAII (Michael W. Deem and Ramdas Pophale) SiO2 
 PCOD9381731
Probable space group: P M M M
;
_chemical_formula_sum "Si O2"
_cell_formula_units_Z 56
_cell_length_a 14.406386
_cell_length_b 14.245953
_cell_length_c 18.636297
_cell_angle_alpha 90.000000
_cell_angle_beta 90.000000
_cell_angle_gamma 90.000000
_cell_volume 3824.777511
_symmetry_space_group_name_H-M "P M M M"
_symmetry_group_IT_number 47
_symmetry_cell_setting 'orthorhombic'
loop_
_space_group_symop_operation_xyz
x,y,z
-x,-y,z
x,-y,-z
-x,y,-z
-x,-y,-z
x,y,-z
-x,y,z
x,-y,z
loop_
_atom_site_type_symbol
_atom_site_label
_atom_site_fract_x
_atom_site_fract_y
_atom_site_fract_z
Si Si1 0.227845 0.109053 0.915509
Si Si2 0.708131 0.613362 0.644667
Si Si3 0.889016 0.274229 0.860918
Si Si4 0.609865 0.750557 0.081559
Si Si5 0.388128 0.391582 0.207394
Si Si6 0.886679 0.392763 0.000000
Si Si7 0.608083 0.614751 0.500000
Si Si8 0.107164 0.388122 0.284180
O O1 0.160650 0.174657 0.869095
O O2 0.329092 0.156324 0.909447
O O3 0.227019 0.000000 0.895839
O O4 0.200497 0.116241 0.000000
O O5 0.700689 0.500000 0.642479
O O6 0.655398 0.641825 0.717564
O O7 0.660224 0.647543 0.572003
O O8 0.816441 0.635754 0.656058
O O9 0.858195 0.337066 0.928851
O O10 0.870661 0.330042 0.787636
O O11 0.000000 0.262356 0.866037
O O12 0.500000 0.768851 0.089156
O O13 0.637695 0.674481 0.141061
O O14 0.625453 0.715640 0.000000
O O15 0.500000 0.390646 0.213716
O O16 0.359421 0.500000 0.195247
O O17 0.854176 0.500000 0.000000
O O18 0.000000 0.395166 0.000000
O O19 0.609972 0.500000 0.500000
O O20 0.500000 0.641872 0.500000
O O21 0.115069 0.500000 0.268603
O O22 0.000000 0.370302 0.304340
#
# Coordination Sequence:
#
# PCOD9381731 Si02
#       8
#     8   8   8   8   8   4   4   8
#     4  10  20  32  44  57  77 105 142 189 231 265
#     4   9  16  26  40  58  83 113 146 179 211 247
#     4  10  18  29  44  62  84 110 141 178 219 262
#     4   9  18  31  45  60  80 108 145 184 219 260
#     4   9  16  26  42  63  86 112 139 172 218 266
#     4   9  16  26  41  61  84 109 139 177 217 253
#     4   9  16  26  41  61  83 109 145 186 218 246
#     4   9  17  28  42  60  84 115 146 173 207 255
#
# _framework density 14.641374000000001
#
# number of rings (size 3 to 8) (size 9 to 14) (size 15 to 20)
#    0.000    2.714    0.714    1.714    0.000    4.286 
#    0.000    4.643    0.000    2.143    0.000    0.000 
#    0.000    0.000    0.000   10.286    0.000   64.000 
#
# Total GULP energy -312046.662474 kJ/mol
# GULP energy per Si atom -5572.261830 kJ/mol
# Density = 1.460805 g / cm^3
# Si number density = 14.641374 Si / 1000 Ang^3
#
#
#
# Elastic Constant Matrix: (Units=GPa)
#
#
# Indices 1 2 3 4 5 6 
#
# 1 74.9740 32.4261 60.9467 0.0000 0.0000 0.0000
# 2 32.4261 68.0237 41.3737 0.0000 0.0000 0.0000
# 3 60.9467 41.3737 98.1339 0.0000 0.0000 0.0000
# 4 0.0000 0.0000 0.0000 4.4720 0.0000 0.0000
# 5 0.0000 0.0000 0.0000 0.0000 23.2592 0.0000
# 6 0.0000 0.0000 0.0000 0.0000 0.0000 16.1146
#
#
#
# Elastic Compliance Matrix: (Units=1/GPa)
#
#
# Indices 1 2 3 4 5 6 
#
# 1 0.027604 -0.003673 -0.015595 0.000000 0.000000 0.000000
# 2 -0.003673 0.020259 -0.006260 0.000000 0.000000 0.000000
# 3 -0.015595 -0.006260 0.022515 0.000000 0.000000 0.000000
# 4 0.000000 0.000000 0.000000 0.223614 0.000000 0.000000
# 5 0.000000 0.000000 0.000000 0.000000 0.042994 0.000000
# 6 0.000000 0.000000 0.000000 0.000000 0.000000 0.062056
#
#
# Mechanical properties :
#
#
# Convention : Reuss Voigt Hill
#
# Bulk Modulus (GPa) = 51.75608 56.73606 54.24607
# Shear Modulus (GPa) = 10.95198 15.86149 13.40673
#
# Velocity S-wave (km/s) = 2.73796 3.29497 3.02929
# Velocity P-wave (km/s) = 6.73952 7.30140 7.02608
#
# Compressibility (1/GPa) = 0.01932140
#
# Stress axis : x y z
#
# Youngs Moduli (GPa) = 36.22693 49.36008 44.41524
#
# Poissons Ratio (x) = 0.18131 0.69265
# Poissons Ratio (y) = 0.13307 0.27805
# Poissons Ratio (z) = 0.56496 0.30900
#
# Static dielectric constant tensor:
#      x y z
#    x 1.526130 0.000000 0.000000 
#    y 0.000000 1.450800 0.000000 
#    z 0.000000 0.000000 1.474580 
# 
# From -- ./inp_files/28313.got.cif
#   From: 2010.05.17/outbox.cif.g08.bks.cpg/sg47_15_cif.got.tgz:28313.got - 2010.06.03 20:15:42.
