data_PCOD9381636
_publ_section_title
;
Structure prediction by ZEFSAII (Michael W. Deem and Ramdas Pophale) SiO2 
 PCOD9381636
Probable space group: P M M M
;
_chemical_formula_sum "Si O2"
_cell_formula_units_Z 64
_cell_length_a 29.928108
_cell_length_b 7.621933
_cell_length_c 15.073734
_cell_angle_alpha 90.000000
_cell_angle_beta 90.000000
_cell_angle_gamma 90.000000
_cell_volume 3438.469975
_symmetry_space_group_name_H-M "P M M M"
_symmetry_group_IT_number 47
_symmetry_cell_setting 'orthorhombic'
loop_
_space_group_symop_operation_xyz
x,y,z
-x,-y,z
x,-y,-z
-x,y,-z
-x,-y,-z
x,y,-z
-x,y,z
x,-y,z
loop_
_atom_site_type_symbol
_atom_site_label
_atom_site_fract_x
_atom_site_fract_y
_atom_site_fract_z
Si Si1 0.451966 0.288891 0.396679
Si Si2 0.767927 0.292112 0.899707
Si Si3 0.190151 0.786353 0.601405
Si Si4 0.868655 0.210178 0.899530
Si Si5 0.912145 0.785853 0.599233
Si Si6 0.951029 0.214802 0.781544
Si Si7 0.271822 0.209903 0.719046
Si Si8 0.646319 0.791304 0.601779
O O1 0.451515 0.231469 0.500000
O O2 0.500000 0.229044 0.358540
O O3 0.452512 0.500000 0.395995
O O4 0.403756 0.235119 0.361147
O O5 0.766674 0.500000 0.906515
O O6 0.818080 0.242912 0.868608
O O7 0.733177 0.241424 0.823585
O O8 0.761476 0.219229 0.000000
O O9 0.201769 0.738570 0.500000
O O10 0.139131 0.731547 0.618362
O O11 0.227420 0.722059 0.669175
O O12 0.189697 0.000000 0.605116
O O13 0.908858 0.276432 0.838898
O O14 0.873504 0.000000 0.902791
O O15 0.871875 0.279143 0.000000
O O16 0.924301 0.727978 0.500000
O O17 0.943111 0.730913 0.679917
O O18 0.912369 0.000000 0.597998
O O19 0.000000 0.269749 0.813542
O O20 0.950357 0.000000 0.783173
O O21 0.315486 0.277781 0.667491
O O22 0.271707 0.000000 0.708100
O O23 0.649140 0.720602 0.500000
O O24 0.652808 0.000000 0.594479
#
# Coordination Sequence:
#
# PCOD9381636 Si02
#       8
#     8   8   8   8   8   8   8   8
#     4   8  14  25  40  57  81 120 168 207 232 256
#     4  10  21  35  49  65  85 110 142 180 220 261
#     4   8  13  22  38  60  85 113 143 172 203 244
#     4   9  17  30  48  66  82 103 132 165 205 256
#     4   8  13  20  30  47  74 107 137 162 192 232
#     4   9  16  24  36  58  85 107 129 162 203 245
#     4  10  18  28  45  67  91 118 146 177 216 263
#     4   9  17  27  40  64  97 127 154 186 225 266
#
# _framework density 18.612929000000001
#
# number of rings (size 3 to 8) (size 9 to 14) (size 15 to 20)
#    0.000    3.125    0.000    2.625    0.000    5.500 
#    0.000    3.750    0.000    1.500    0.000    1.750 
#    0.000    0.500    0.000   10.000    0.000    8.250 
#
# Total GULP energy -356635.108032 kJ/mol
# GULP energy per Si atom -5572.423563 kJ/mol
# Density = 1.857057 g / cm^3
# Si number density = 18.612929 Si / 1000 Ang^3
#
#
#
# Elastic Constant Matrix: (Units=GPa)
#
#
# Indices 1 2 3 4 5 6 
#
# 1 106.4076 2.5695 68.7877 0.0000 0.0000 0.0000
# 2 2.5695 35.5232 1.8105 0.0000 0.0000 0.0000
# 3 68.7877 1.8105 75.5801 0.0000 0.0000 0.0000
# 4 0.0000 0.0000 0.0000 -3.4324 0.0000 0.0000
# 5 0.0000 0.0000 0.0000 0.0000 32.9380 0.0000
# 6 0.0000 0.0000 0.0000 0.0000 0.0000 52.1883
#
#
#
# Elastic Compliance Matrix: (Units=1/GPa)
#
#
# Indices 1 2 3 4 5 6 
#
# 1 0.022843 -0.000593 -0.020775 0.000000 0.000000 0.000000
# 2 -0.000593 0.028200 -0.000135 0.000000 0.000000 0.000000
# 3 -0.020775 -0.000135 0.032143 0.000000 0.000000 0.000000
# 4 0.000000 0.000000 0.000000 -0.291338 0.000000 0.000000
# 5 0.000000 0.000000 0.000000 0.000000 0.030360 0.000000
# 6 0.000000 0.000000 0.000000 0.000000 0.000000 0.019161
#
#
# Mechanical properties :
#
#
# Convention : Reuss Voigt Hill
#
# Bulk Modulus (GPa) = 24.88992 40.42737 32.65864
# Shear Modulus (GPa) = -48.90928 25.96164 -11.47382
#
# Velocity S-wave (km/s) = -5.13168 3.73878 -2.48552
# Velocity P-wave (km/s) = 4.65948 6.35650 3.05732
#
# Compressibility (1/GPa) = 0.04017691
#
# Stress axis : x y z
#
# Youngs Moduli (GPa) = 43.77788 35.46047 31.11132
#
# Poissons Ratio (x) = 0.02104 0.64635
# Poissons Ratio (y) = 0.02598 0.00421
# Poissons Ratio (z) = 0.90951 0.00480
#
# Static dielectric constant tensor:
#      x y z
#    x 1.661170 0.000000 0.000000 
#    y 0.000000 1.710370 0.000000 
#    z 0.000000 0.000000 1.618970 
# 
# From -- ./inp_files/8319.got.cif
#   From: 2010.05.17/outbox.cif.g08.bks.cpg/sg47_5_cif.got.tgz:8319.got - 2010.06.03 20:15:42.
