data_PCOD9381569
_publ_section_title
;
Structure prediction by ZEFSAII (Michael W. Deem and Ramdas Pophale) SiO2 
 PCOD9381569
Probable space group: P M M M
;
_chemical_formula_sum "Si O2"
_cell_formula_units_Z 64
_cell_length_a 9.223361
_cell_length_b 26.655949
_cell_length_c 18.578529
_cell_angle_alpha 90.000000
_cell_angle_beta 90.000000
_cell_angle_gamma 90.000000
_cell_volume 4567.669587
_symmetry_space_group_name_H-M "P M M M"
_symmetry_group_IT_number 47
_symmetry_cell_setting 'orthorhombic'
loop_
_space_group_symop_operation_xyz
x,y,z
-x,-y,z
x,-y,-z
-x,y,-z
-x,-y,-z
x,y,-z
-x,y,z
x,-y,z
loop_
_atom_site_type_symbol
_atom_site_label
_atom_site_fract_x
_atom_site_fract_y
_atom_site_fract_z
Si Si1 0.331452 0.055993 0.587369
Si Si2 0.673593 0.749974 0.658433
Si Si3 0.835127 0.597200 0.290676
Si Si4 0.174681 0.443739 0.858676
Si Si5 0.169514 0.156261 0.413153
Si Si6 0.671137 0.654441 0.083985
Si Si7 0.833206 0.705349 0.789903
Si Si8 0.326316 0.644056 0.417864
O O1 0.327401 0.055487 0.500000
O O2 0.500000 0.063745 0.607582
O O3 0.233391 0.102453 0.610509
O O4 0.286483 0.000000 0.611198
O O5 0.500000 0.753402 0.663872
O O6 0.740341 0.798686 0.621328
O O7 0.745579 0.741198 0.736311
O O8 0.708165 0.700282 0.610702
O O9 0.786027 0.561030 0.226180
O O10 0.835705 0.651489 0.251071
O O11 0.740939 0.604864 0.361608
O O12 0.000000 0.584333 0.310380
O O13 0.204883 0.500000 0.884603
O O14 0.257933 0.399942 0.900030
O O15 0.000000 0.435079 0.863206
O O16 0.183178 0.159131 0.500000
O O17 0.000000 0.160637 0.395173
O O18 0.500000 0.652851 0.101429
O O19 0.751926 0.693746 0.135769
O O20 0.688352 0.666297 0.000000
O O21 0.000000 0.720942 0.800037
O O22 0.275933 0.637902 0.500000
O O23 0.500000 0.639539 0.416458
#
# Coordination Sequence:
#
# PCOD9381569 Si02
#       8
#     8   8   8   8   8   8   8   8
#     4   8  14  25  39  52  68  96 136 179 221 263
#     4  10  18  28  42  58  79 106 135 168 207 248
#     4   8  15  27  42  59  76  96 124 157 191 229
#     4   9  18  32  48  64  82 105 132 161 194 232
#     4  10  19  27  36  54  80 108 140 180 221 256
#     4  10  20  32  46  66  90 111 132 158 186 222
#     4   9  17  30  46  62  81 105 133 162 193 233
#     4   9  17  27  39  56  76  98 125 158 196 237
#
# _framework density 14.011521
#
# number of rings (size 3 to 8) (size 9 to 14) (size 15 to 20)
#    0.000    2.875    0.000    3.000    0.000    6.750 
#    0.000    2.500    0.000    0.375    0.000    2.625 
#    0.000    0.000    0.000    0.000    0.000    0.625 
#
# Total GULP energy -356423.415525 kJ/mol
# GULP energy per Si atom -5569.115868 kJ/mol
# Density = 1.397963 g / cm^3
# Si number density = 14.011521 Si / 1000 Ang^3
#
#
#
# Elastic Constant Matrix: (Units=GPa)
#
#
# Indices 1 2 3 4 5 6 
#
# 1 61.6216 18.9818 34.3161 0.0000 0.0000 0.0000
# 2 18.9818 26.3037 4.8822 0.0000 0.0000 0.0000
# 3 34.3161 4.8822 60.7402 0.0000 0.0000 0.0000
# 4 0.0000 0.0000 0.0000 9.0669 0.0000 0.0000
# 5 0.0000 0.0000 0.0000 0.0000 21.0806 0.0000
# 6 0.0000 0.0000 0.0000 0.0000 0.0000 19.0534
#
#
#
# Elastic Compliance Matrix: (Units=1/GPa)
#
#
# Indices 1 2 3 4 5 6 
#
# 1 0.031176 -0.019520 -0.016044 0.000000 0.000000 0.000000
# 2 -0.019520 0.050815 0.006944 0.000000 0.000000 0.000000
# 3 -0.016044 0.006944 0.024970 0.000000 0.000000 0.000000
# 4 0.000000 0.000000 0.000000 0.110292 0.000000 0.000000
# 5 0.000000 0.000000 0.000000 0.000000 0.047437 0.000000
# 6 0.000000 0.000000 0.000000 0.000000 0.000000 0.052484
#
#
# Mechanical properties :
#
#
# Convention : Reuss Voigt Hill
#
# Bulk Modulus (GPa) = 20.11276 29.44730 24.78003
# Shear Modulus (GPa) = 12.78814 15.87253 14.33033
#
# Velocity S-wave (km/s) = 3.02435 3.36939 3.20152
# Velocity P-wave (km/s) = 5.15569 6.01657 5.60269
#
# Compressibility (1/GPa) = 0.04971969
#
# Stress axis : x y z
#
# Youngs Moduli (GPa) = 32.07632 19.67928 40.04832
#
# Poissons Ratio (x) = 0.38413 0.64254
# Poissons Ratio (y) = 0.62612 -0.27808
# Poissons Ratio (z) = 0.51464 -0.13664
#
# Static dielectric constant tensor:
#      x y z
#    x 1.471470 0.000000 0.000000 
#    y 0.000000 1.453960 0.000000 
#    z 0.000000 0.000000 1.454790 
# 
# From -- ./inp_files/10195.got.cif
#   From: 2010.05.17/outbox.cif.g08.bks.cpg/sg47_6_cif.got.tgz:10195.got - 2010.06.03 20:15:42.
