data_PCOD9381877
_publ_section_title
;
Structure prediction by ZEFSAII (Michael W. Deem and Ramdas Pophale) SiO2 
 PCOD9381877
Probable space group: P M M M
;
_chemical_formula_sum "Si O2"
_cell_formula_units_Z 56
_cell_length_a 15.801014
_cell_length_b 20.831360
_cell_length_c 7.791254
_cell_angle_alpha 90.000000
_cell_angle_beta 90.000000
_cell_angle_gamma 90.000000
_cell_volume 2564.542762
_symmetry_space_group_name_H-M "P M M M"
_symmetry_group_IT_number 47
_symmetry_cell_setting 'orthorhombic'
loop_
_space_group_symop_operation_xyz
x,y,z
-x,-y,z
x,-y,-z
-x,y,-z
-x,-y,-z
x,y,-z
-x,y,z
x,-y,z
loop_
_atom_site_type_symbol
_atom_site_label
_atom_site_fract_x
_atom_site_fract_y
_atom_site_fract_z
Si Si1 0.907137 0.156551 0.707502
Si Si2 0.139989 0.431283 0.201896
Si Si3 0.644060 0.291775 0.300627
Si Si4 0.752895 0.072014 0.702921
Si Si5 0.840107 0.294476 0.205568
Si Si6 0.661110 0.430520 0.291205
Si Si7 0.591943 0.152908 0.800777
O O1 0.905595 0.154111 0.500000
O O2 0.831780 0.112066 0.775897
O O3 0.890333 0.230124 0.756678
O O4 0.000000 0.136024 0.766060
O O5 0.110906 0.500000 0.276655
O O6 0.116340 0.360717 0.268512
O O7 0.242428 0.430819 0.222507
O O8 0.118340 0.432624 0.000000
O O9 0.619927 0.287360 0.500000
O O10 0.746341 0.288397 0.285444
O O11 0.620358 0.363153 0.235355
O O12 0.607346 0.229242 0.211628
O O13 0.768610 0.066055 0.500000
O O14 0.668918 0.114219 0.721098
O O15 0.744189 0.000000 0.773767
O O16 0.828647 0.300162 0.000000
O O17 0.665633 0.427986 0.500000
O O18 0.623003 0.500000 0.244347
O O19 0.500000 0.137990 0.724517
O O20 0.591264 0.135269 0.000000
#
# Coordination Sequence:
#
# PCOD9381877 Si02
#       7
#     8   8   8   8   8   8   8
#     4  10  21  37  58  85 117 152 188 227 274 330
#     4   8  14  24  39  64  99 138 182 230 277 326
#     4  10  18  30  52  79 109 147 190 235 283 333
#     4  10  22  41  65  91 117 147 183 224 274 334
#     4  10  18  29  50  78 109 147 189 233 282 333
#     4   8  14  24  40  67 102 138 179 228 280 332
#     4  11  24  40  59  85 117 153 191 231 278 330
#
# _framework density 21.836251000000001
#
# number of rings (size 3 to 8) (size 9 to 14) (size 15 to 20)
#    0.000    2.429    1.429    1.286    0.000    3.429 
#    0.000    2.857    0.000    0.857    0.000    8.000 
#    0.000    0.000    0.000    0.000    0.000    0.000 
#
# Total GULP energy -312357.284313 kJ/mol
# GULP energy per Si atom -5577.808648 kJ/mol
# Density = 2.178655 g / cm^3
# Si number density = 21.836251 Si / 1000 Ang^3
#
#
#
# Elastic Constant Matrix: (Units=GPa)
#
#
# Indices 1 2 3 4 5 6 
#
# 1 98.2149 70.2278 -0.6744 0.0000 0.0000 0.0000
# 2 70.2278 182.6426 4.6925 0.0000 0.0000 0.0000
# 3 -0.6744 4.6925 35.4243 0.0000 0.0000 0.0000
# 4 0.0000 0.0000 0.0000 -1.0902 0.0000 0.0000
# 5 0.0000 0.0000 0.0000 0.0000 11.1538 0.0000
# 6 0.0000 0.0000 0.0000 0.0000 0.0000 -12.5698
#
#
#
# Elastic Compliance Matrix: (Units=1/GPa)
#
#
# Indices 1 2 3 4 5 6 
#
# 1 0.014077 -0.005438 0.000988 0.000000 0.000000 0.000000
# 2 -0.005438 0.007595 -0.001110 0.000000 0.000000 0.000000
# 3 0.000988 -0.001110 0.028395 0.000000 0.000000 0.000000
# 4 0.000000 0.000000 0.000000 -0.917232 0.000000 0.000000
# 5 0.000000 0.000000 0.000000 0.000000 0.089655 0.000000
# 6 0.000000 0.000000 0.000000 0.000000 0.000000 -0.079556
#
#
# Mechanical properties :
#
#
# Convention : Reuss Voigt Hill
#
# Bulk Modulus (GPa) = 25.67524 51.64151 38.65837
# Shear Modulus (GPa) = -6.00266 15.63448 4.81591
#
# Velocity S-wave (km/s) = -1.65979 2.67870 1.48669
# Velocity P-wave (km/s) = 2.84787 5.76784 4.54854
#
# Compressibility (1/GPa) = 0.03894803
#
# Stress axis : x y z
#
# Youngs Moduli (GPa) = 71.03762 131.67074 35.21750
#
# Poissons Ratio (x) = 0.71605 -0.03481
# Poissons Ratio (y) = 0.38631 0.03908
# Poissons Ratio (z) = -0.07021 0.14610
#
# Static dielectric constant tensor:
#      x y z
#    x 1.800710 0.000000 0.000000 
#    y 0.000000 1.833550 0.000000 
#    z 0.000000 0.000000 1.853890 
# 
# From -- ./inp_files/7244.got.cif
#   From: 2010.05.17/outbox.cif.g08.bks.cpg/sg47_4_cif.got.tgz:7244.got - 2010.06.03 20:15:42.
