data_PCOD9381321
_publ_section_title
;
Structure prediction by ZEFSAII (Michael W. Deem and Ramdas Pophale) SiO2 
 PCOD9381321
Probable space group: P M M M
;
_chemical_formula_sum "Si O2"
_cell_formula_units_Z 64
_cell_length_a 16.018478
_cell_length_b 25.799559
_cell_length_c 7.596711
_cell_angle_alpha 90.000000
_cell_angle_beta 90.000000
_cell_angle_gamma 90.000000
_cell_volume 3139.490235
_symmetry_space_group_name_H-M "P M M M"
_symmetry_group_IT_number 47
_symmetry_cell_setting 'orthorhombic'
loop_
_space_group_symop_operation_xyz
x,y,z
-x,-y,z
x,-y,-z
-x,y,-z
-x,-y,-z
x,y,-z
-x,y,z
x,-y,z
loop_
_atom_site_type_symbol
_atom_site_label
_atom_site_fract_x
_atom_site_fract_y
_atom_site_fract_z
Si Si1 0.590466 0.663543 0.203998
Si Si2 0.371992 0.220629 0.292554
Si Si3 0.236346 0.942208 0.288773
Si Si4 0.224908 0.352337 0.209999
Si Si5 0.409995 0.894480 0.715359
Si Si6 0.181335 0.759989 0.212468
Si Si7 0.908396 0.139699 0.788342
Si Si8 0.906289 0.559052 0.711937
O O1 0.500000 0.648821 0.282660
O O2 0.596481 0.726209 0.208443
O O3 0.679658 0.644743 0.280800
O O4 0.588743 0.646942 0.000000
O O5 0.390149 0.224888 0.500000
O O6 0.405973 0.165750 0.229078
O O7 0.272807 0.219464 0.262726
O O8 0.243169 0.944740 0.500000
O O9 0.326743 0.923093 0.222693
O O10 0.164184 0.900964 0.251774
O O11 0.216824 0.000000 0.223250
O O12 0.180700 0.299459 0.276467
O O13 0.165997 0.401212 0.238911
O O14 0.234369 0.345604 0.000000
O O15 0.407306 0.894328 0.500000
O O16 0.500000 0.916745 0.767190
O O17 0.116303 0.802776 0.276941
O O18 0.174889 0.758664 0.000000
O O19 0.000000 0.124145 0.723246
O O20 0.911955 0.142663 0.000000
O O21 0.908675 0.557842 0.500000
O O22 0.890710 0.500000 0.772695
O O23 0.000000 0.574415 0.772450
#
# Coordination Sequence:
#
# PCOD9381321 Si02
#       8
#     8   8   8   8   8   8   8   8
#     4   9  18  32  48  70 106 146 177 207 249 301
#     4  10  17  27  47  73 102 132 166 207 248 294
#     4  10  21  37  55  74  98 129 166 211 260 307
#     4   9  18  31  51  80 107 134 172 214 254 299
#     4   9  17  29  47  73 101 127 159 201 249 300
#     4   9  18  33  51  73 104 136 166 201 250 306
#     4  10  21  37  57  77  99 131 168 206 253 310
#     4   9  19  36  55  75 103 139 176 214 259 309
#
# _framework density 20.385473999999999
#
# number of rings (size 3 to 8) (size 9 to 14) (size 15 to 20)
#    0.000    2.625    1.250    1.875    0.000    4.750 
#    0.000    4.375    0.000    1.500    0.000    3.500 
#    0.000    0.000    0.000    0.000    0.000    0.000 
#
# Total GULP energy -356870.520331 kJ/mol
# GULP energy per Si atom -5576.101880 kJ/mol
# Density = 2.033908 g / cm^3
# Si number density = 20.385474 Si / 1000 Ang^3
#
#
#
# Elastic Constant Matrix: (Units=GPa)
#
#
# Indices 1 2 3 4 5 6 
#
# 1 178.4589 94.7761 -3.9748 0.0000 0.0000 0.0000
# 2 94.7761 109.4798 4.8886 0.0000 0.0000 0.0000
# 3 -3.9748 4.8886 33.0522 0.0000 0.0000 0.0000
# 4 0.0000 0.0000 0.0000 18.4484 0.0000 0.0000
# 5 0.0000 0.0000 0.0000 0.0000 9.2264 0.0000
# 6 0.0000 0.0000 0.0000 0.0000 0.0000 5.0323
#
#
#
# Elastic Compliance Matrix: (Units=1/GPa)
#
#
# Indices 1 2 3 4 5 6 
#
# 1 0.010598 -0.009293 0.002649 0.000000 0.000000 0.000000
# 2 -0.009293 0.017343 -0.003683 0.000000 0.000000 0.000000
# 3 0.002649 -0.003683 0.031118 0.000000 0.000000 0.000000
# 4 0.000000 0.000000 0.000000 0.054205 0.000000 0.000000
# 5 0.000000 0.000000 0.000000 0.000000 0.108385 0.000000
# 6 0.000000 0.000000 0.000000 0.000000 0.000000 0.198715
#
#
# Mechanical properties :
#
#
# Convention : Reuss Voigt Hill
#
# Bulk Modulus (GPa) = 26.03734 56.93008 41.48371
# Shear Modulus (GPa) = 11.01761 21.56148 16.28954
#
# Velocity S-wave (km/s) = 2.32731 3.25574 2.82986
# Velocity P-wave (km/s) = 4.47460 6.49003 5.57416
#
# Compressibility (1/GPa) = 0.03840638
#
# Stress axis : x y z
#
# Youngs Moduli (GPa) = 94.36040 57.65971 32.13534
#
# Poissons Ratio (x) = 0.53581 -0.08512
# Poissons Ratio (y) = 0.87686 0.11834
# Poissons Ratio (z) = -0.24995 0.21234
#
# Static dielectric constant tensor:
#      x y z
#    x 1.750390 0.000000 0.000000 
#    y 0.000000 1.701450 0.000000 
#    z 0.000000 0.000000 1.805520 
# 
# From -- ./inp_files/7934.got.cif
#   From: 2010.05.17/outbox.cif.g08.bks.cpg/sg47_4_cif.got.tgz:7934.got - 2010.06.03 20:15:42.
