data_PCOD9381563
_publ_section_title
;
Structure prediction by ZEFSAII (Michael W. Deem and Ramdas Pophale) SiO2 
 PCOD9381563
Probable space group: P M M M
;
_chemical_formula_sum "Si O2"
_cell_formula_units_Z 40
_cell_length_a 19.036763
_cell_length_b 19.504019
_cell_length_c 7.479754
_cell_angle_alpha 90.000000
_cell_angle_beta 90.000000
_cell_angle_gamma 90.000000
_cell_volume 2777.183198
_symmetry_space_group_name_H-M "P M M M"
_symmetry_group_IT_number 47
_symmetry_cell_setting 'orthorhombic'
loop_
_space_group_symop_operation_xyz
x,y,z
-x,-y,z
x,-y,-z
-x,y,-z
-x,-y,-z
x,y,-z
-x,y,z
x,-y,z
loop_
_atom_site_type_symbol
_atom_site_label
_atom_site_fract_x
_atom_site_fract_y
_atom_site_fract_z
Si Si1 0.915887 0.311279 0.288251
Si Si2 0.729419 0.079832 0.280945
Si Si3 0.575492 0.918038 0.715325
Si Si4 0.000000 0.921996 0.213610
Si Si5 0.085228 0.422070 0.000000
Si Si6 0.861602 0.165798 0.288819
O O1 0.903364 0.320893 0.500000
O O2 0.878446 0.241987 0.221427
O O3 0.000000 0.300599 0.266203
O O4 0.895006 0.377168 0.172918
O O5 0.729692 0.079746 0.500000
O O6 0.652178 0.105606 0.222288
O O7 0.793632 0.126291 0.216990
O O8 0.738593 0.000000 0.228345
O O9 0.574868 0.909371 0.500000
O O10 0.500000 0.891169 0.782739
O O11 0.575681 0.000000 0.748013
O O12 0.069532 0.881103 0.268323
O O13 0.000000 0.000000 0.282674
O O14 0.000000 0.924767 0.000000
O O15 0.111499 0.500000 0.000000
O O16 0.000000 0.425437 0.000000
O O17 0.849886 0.174349 0.500000
#
# Coordination Sequence:
#
# PCOD9381563 Si02
#       6
#     8   8   8   4   4   8
#     4   9  17  28  42  60  78 100 129 157 191 237
#     4   8  13  20  31  48  69  94 127 165 196 226
#     4   7   9  14  25  42  65  91 117 149 192 234
#     4  11  23  31  37  51  69  96 133 172 208 234
#     4   9  18  30  46  64  78  98 121 152 197 231
#     4  10  18  28  41  54  70  98 131 162 198 234
#
# _framework density 14.403081999999999
#
# number of rings (size 3 to 8) (size 9 to 14) (size 15 to 20)
#    0.000    3.200    1.000    2.700    1.400    2.000 
#    0.000    2.000    0.000    0.000    0.000    0.000 
#    0.000    0.800    0.000    7.400    0.000    8.000 
#
# Total GULP energy -222689.175149 kJ/mol
# GULP energy per Si atom -5567.229379 kJ/mol
# Density = 1.437030 g / cm^3
# Si number density = 14.403082 Si / 1000 Ang^3
#
#
#
# Elastic Constant Matrix: (Units=GPa)
#
#
# Indices 1 2 3 4 5 6 
#
# 1 118.4721 53.2467 14.7794 0.0000 0.0000 0.0000
# 2 53.2467 110.6797 25.8262 0.0000 0.0000 0.0000
# 3 14.7794 25.8262 46.5920 0.0000 0.0000 0.0000
# 4 0.0000 0.0000 0.0000 13.6104 0.0000 0.0000
# 5 0.0000 0.0000 0.0000 0.0000 -14.8203 0.0000
# 6 0.0000 0.0000 0.0000 0.0000 0.0000 3.7105
#
#
#
# Elastic Compliance Matrix: (Units=1/GPa)
#
#
# Indices 1 2 3 4 5 6 
#
# 1 0.010785 -0.005043 -0.000626 0.000000 0.000000 0.000000
# 2 -0.005043 0.012735 -0.005460 0.000000 0.000000 0.000000
# 3 -0.000626 -0.005460 0.024688 0.000000 0.000000 0.000000
# 4 0.000000 0.000000 0.000000 0.073473 0.000000 0.000000
# 5 0.000000 0.000000 0.000000 0.000000 -0.067475 0.000000
# 6 0.000000 0.000000 0.000000 0.000000 0.000000 0.269507
#
#
# Mechanical properties :
#
#
# Convention : Reuss Voigt Hill
#
# Bulk Modulus (GPa) = 38.53313 51.49427 45.01370
# Shear Modulus (GPa) = 14.09960 12.62621 13.36290
#
# Velocity S-wave (km/s) = 3.13218 2.96401 3.04925
# Velocity P-wave (km/s) = 6.31603 6.89519 6.61195
#
# Compressibility (1/GPa) = 0.02595169
#
# Stress axis : x y z
#
# Youngs Moduli (GPa) = 92.71898 78.52407 40.50591
#
# Poissons Ratio (x) = 0.39596 0.02536
# Poissons Ratio (y) = 0.46754 0.22114
# Poissons Ratio (z) = 0.05805 0.42870
#
# Static dielectric constant tensor:
#      x y z
#    x 1.475360 0.000000 0.000000 
#    y 0.000000 1.451330 0.000000 
#    z 0.000000 0.000000 1.533220 
# 
# From -- ./inp_files/9356.got.cif
#   From: 2010.05.17/outbox.cif.g08.bks.cpg/sg47_5_cif.got.tgz:9356.got - 2010.06.03 20:15:42.
