data_PCOD9381616
_publ_section_title
;
Structure prediction by ZEFSAII (Michael W. Deem and Ramdas Pophale) SiO2 
 PCOD9381616
Probable space group: P M M M
;
_chemical_formula_sum "Si O2"
_cell_formula_units_Z 52
_cell_length_a 7.472570
_cell_length_b 28.856084
_cell_length_c 12.418382
_cell_angle_alpha 90.000000
_cell_angle_beta 90.000000
_cell_angle_gamma 90.000000
_cell_volume 2677.764629
_symmetry_space_group_name_H-M "P M M M"
_symmetry_group_IT_number 47
_symmetry_cell_setting 'orthorhombic'
loop_
_space_group_symop_operation_xyz
x,y,z
-x,-y,z
x,-y,-z
-x,y,-z
-x,-y,-z
x,y,-z
-x,y,z
x,-y,z
loop_
_atom_site_type_symbol
_atom_site_label
_atom_site_fract_x
_atom_site_fract_y
_atom_site_fract_z
Si Si1 0.208892 0.639711 0.233283
Si Si2 0.788149 0.723814 0.378065
Si Si3 0.707842 0.000000 0.869247
Si Si4 0.797111 0.357839 0.000000
Si Si5 0.715305 0.197033 0.215379
Si Si6 0.280837 0.898744 0.125741
Si Si7 0.716287 0.551724 0.375867
Si Si8 0.717717 0.748818 0.000000
O O1 0.286115 0.683238 0.300145
O O2 0.288408 0.630435 0.115134
O O3 0.218885 0.593756 0.304053
O O4 0.000000 0.651293 0.213534
O O5 0.715733 0.722812 0.500000
O O6 0.767215 0.773035 0.318876
O O7 0.000000 0.714759 0.386564
O O8 0.783232 0.050236 0.838803
O O9 0.500000 0.000000 0.835053
O O10 0.709747 0.000000 0.000000
O O11 0.796493 0.302126 0.000000
O O12 0.000000 0.377193 0.000000
O O13 0.500000 0.195934 0.214031
O O14 0.776832 0.144182 0.199212
O O15 0.772382 0.224498 0.107904
O O16 0.500000 0.900001 0.125783
O O17 0.230824 0.890769 0.000000
O O18 0.772053 0.558237 0.500000
O O19 0.500000 0.552525 0.374126
O O20 0.772981 0.500000 0.341485
O O21 0.500000 0.745697 0.000000
#
# Coordination Sequence:
#
# PCOD9381616 Si02
#       8
#     8   8   4   4   8   8   8   4
#     4  10  20  34  53  75  97 124 157 193 233 275
#     4  10  21  35  49  67  93 124 159 198 236 276
#     4   7  10  16  30  54  86 121 150 178 221 274
#     4  10  20  34  51  71  97 128 161 194 225 272
#     4  10  18  28  45  69  96 124 155 191 231 277
#     4   8  12  20  35  59  91 122 150 183 225 275
#     4   9  19  36  56  77 100 126 158 196 235 274
#     4  10  18  28  44  68  97 126 156 189 225 272
#
# _framework density 19.419183
#
# number of rings (size 3 to 8) (size 9 to 14) (size 15 to 20)
#    0.000    2.692    2.308    1.846    0.000    2.769 
#    0.000    1.154    0.000    2.308    0.000    1.077 
#    0.000    6.154    0.000    0.000    0.000    0.000 
#
# Total GULP energy -289928.514670 kJ/mol
# GULP energy per Si atom -5575.548359 kJ/mol
# Density = 1.937498 g / cm^3
# Si number density = 19.419183 Si / 1000 Ang^3
#
#
#
# Elastic Constant Matrix: (Units=GPa)
#
#
# Indices 1 2 3 4 5 6 
#
# 1 54.2964 -5.5220 4.3435 0.0000 0.0000 0.0000
# 2 -5.5220 137.4019 67.0074 0.0000 0.0000 0.0000
# 3 4.3435 67.0074 126.4613 0.0000 0.0000 0.0000
# 4 0.0000 0.0000 0.0000 10.6312 0.0000 0.0000
# 5 0.0000 0.0000 0.0000 0.0000 9.7966 0.0000
# 6 0.0000 0.0000 0.0000 0.0000 0.0000 19.3561
#
#
#
# Elastic Compliance Matrix: (Units=1/GPa)
#
#
# Indices 1 2 3 4 5 6 
#
# 1 0.018675 0.001434 -0.001401 0.000000 0.000000 0.000000
# 2 0.001434 0.009924 -0.005308 0.000000 0.000000 0.000000
# 3 -0.001401 -0.005308 0.010768 0.000000 0.000000 0.000000
# 4 0.000000 0.000000 0.000000 0.094063 0.000000 0.000000
# 5 0.000000 0.000000 0.000000 0.000000 0.102076 0.000000
# 6 0.000000 0.000000 0.000000 0.000000 0.000000 0.051663
#
#
# Mechanical properties :
#
#
# Convention : Reuss Voigt Hill
#
# Bulk Modulus (GPa) = 34.70118 49.97968 42.34043
# Shear Modulus (GPa) = 16.26942 24.77883 20.52412
#
# Velocity S-wave (km/s) = 2.89762 3.57599 3.25453
# Velocity P-wave (km/s) = 5.39474 6.54549 5.99778
#
# Compressibility (1/GPa) = 0.02881746
#
# Stress axis : x y z
#
# Youngs Moduli (GPa) = 53.54650 100.76661 92.86788
#
# Poissons Ratio (x) = -0.14449 0.13012
# Poissons Ratio (y) = -0.07678 0.49290
# Poissons Ratio (z) = 0.07503 0.53483
#
# Static dielectric constant tensor:
#      x y z
#    x 1.754580 0.000000 0.000000 
#    y 0.000000 1.683460 0.000000 
#    z 0.000000 0.000000 1.679870 
# 
# From -- ./inp_files/15712.got.cif
#   From: 2010.05.17/outbox.cif.g08.bks.cpg/sg47_8_cif.got.tgz:15712.got - 2010.06.03 20:15:42.
