data_PCOD9381020
_publ_section_title
;
Structure prediction by ZEFSAII (Michael W. Deem and Ramdas Pophale) SiO2 
 PCOD9381020
Probable space group: I M A 2
;
_chemical_formula_sum "Si O2"
_cell_formula_units_Z 32
_cell_length_a 14.596445
_cell_length_b 4.957325
_cell_length_c 20.012694
_cell_angle_alpha 90.000000
_cell_angle_beta 90.000000
_cell_angle_gamma 90.000000
_cell_volume 1448.104963
_symmetry_space_group_name_H-M "I M A 2"
_symmetry_group_IT_number 46
_symmetry_cell_setting 'orthorhombic'
loop_
_space_group_symop_operation_xyz
x,y,z
-x,-y,z
1/2-x,y,z
1/2+x,-y,z
1/2+x,1/2+y,1/2+z
1/2-x,1/2-y,1/2+z
-x,1/2+y,1/2+z
x,1/2-y,1/2+z
loop_
_atom_site_type_symbol
_atom_site_label
_atom_site_fract_x
_atom_site_fract_y
_atom_site_fract_z
Si Si1 0.935993 0.260702 0.656320
Si Si2 0.143293 0.942699 0.014367
Si Si3 0.400191 0.068577 0.426659
Si Si4 0.250000 0.273499 0.325157
Si Si5 0.750000 0.226849 0.238177
O O1 0.902059 0.348415 0.582883
O O2 0.843237 0.215052 0.698106
O O3 0.000000 0.500000 0.684416
O O4 0.000000 0.000000 0.652884
O O5 0.250000 0.013947 0.025646
O O6 0.138841 0.700049 0.961058
O O7 0.093995 0.204054 0.984092
O O8 0.336353 0.192348 0.370069
O O9 0.500000 0.000000 0.399874
O O10 0.250000 0.582752 0.303338
O O11 0.250000 0.084868 0.259989
#
# Coordination Sequence:
#
# PCOD9381020 Si02
#       5
#     8   8   8   4   4
#     4  12  26  46  74 105 140 181 231 291 352 414
#     4  12  22  44  72 105 141 176 217 286 359 415
#     4  12  25  43  71 104 139 177 225 283 346 414
#     4  12  26  46  70  98 142 188 234 282 334 404
#     4  12  28  48  70 100 140 190 242 284 336 406
#
# _framework density 22.097842
#
# number of rings (size 3 to 8) (size 9 to 14) (size 15 to 20)
#    0.000    0.000    3.750    7.500    0.000    3.000 
#    0.000    0.000    0.000    0.000    0.000    0.000 
#    0.000    0.000    0.000    0.000    0.000    0.000 
#
# Total GULP energy -89694.133712 kJ/mol
# GULP energy per Si atom -5605.883357 kJ/mol
# Density = 2.204755 g / cm^3
# Si number density = 22.097842 Si / 1000 Ang^3
#
#
#
# Elastic Constant Matrix: (Units=GPa)
#
#
# Indices 1 2 3 4 5 6 
#
# 1 173.9804 22.3305 46.7474 0.0000 0.0000 0.0000
# 2 22.3305 97.3550 1.0603 0.0000 0.0000 0.0000
# 3 46.7474 1.0603 61.4203 0.0000 0.0000 0.0000
# 4 0.0000 0.0000 0.0000 33.6757 0.0000 0.0000
# 5 0.0000 0.0000 0.0000 0.0000 -5.5373 0.0000
# 6 0.0000 0.0000 0.0000 0.0000 0.0000 29.8252
#
#
#
# Elastic Compliance Matrix: (Units=1/GPa)
#
#
# Indices 1 2 3 4 5 6 
#
# 1 0.007483 -0.001655 -0.005667 0.000000 0.000000 0.000000
# 2 -0.001655 0.010639 0.001076 0.000000 0.000000 0.000000
# 3 -0.005667 0.001076 0.020576 0.000000 0.000000 0.000000
# 4 0.000000 0.000000 0.000000 0.029695 0.000000 0.000000
# 5 0.000000 0.000000 0.000000 0.000000 -0.180594 0.000000
# 6 0.000000 0.000000 0.000000 0.000000 0.000000 0.033529
#
#
# Mechanical properties :
#
#
# Convention : Reuss Voigt Hill
#
# Bulk Modulus (GPa) = 38.15817 52.55914 45.35865
# Shear Modulus (GPa) = -87.03899 29.10055 -28.96922
#
# Velocity S-wave (km/s) = -6.28280 3.63284 -3.62464
# Velocity P-wave (km/s) = 5.94357 6.43685 1.74743
#
# Compressibility (1/GPa) = 0.02620671
#
# Stress axis : x y z
#
# Youngs Moduli (GPa) = 133.64119 93.98944 48.60134
#
# Poissons Ratio (x) = 0.15552 0.27540
# Poissons Ratio (y) = 0.22112 -0.05228
# Poissons Ratio (z) = 0.75729 -0.10110
#
# Static dielectric constant tensor:
#      x y z
#    x 1.829090 0.000000 0.000000 
#    y 0.000000 1.781070 0.000000 
#    z 0.000000 0.000000 1.792810 
# 
# From -- ./inp_files/19111.got.cif
#   From: 2010.05.17/outbox.cif.g08.bks.cpg/sg46_10_cif.got.tgz:19111.got - 2010.06.03 19:58:25.
