data_PCOD9381152
_publ_section_title
;
Structure prediction by ZEFSAII (Michael W. Deem and Ramdas Pophale) SiO2 
 PCOD9381152
Probable space group: I M A 2
;
_chemical_formula_sum "Si O2"
_cell_formula_units_Z 32
_cell_length_a 15.000000
_cell_length_b 24.000000
_cell_length_c 9.000000
_cell_angle_alpha 90.000000
_cell_angle_beta 90.000000
_cell_angle_gamma 90.000000
_cell_volume 3240.000000
_symmetry_space_group_name_H-M "I M A 2"
_symmetry_group_IT_number 46
_symmetry_cell_setting 'orthorhombic'
loop_
_space_group_symop_operation_xyz
x,y,z
-x,-y,z
1/2-x,y,z
1/2+x,-y,z
1/2+x,1/2+y,1/2+z
1/2-x,1/2-y,1/2+z
-x,1/2+y,1/2+z
x,1/2-y,1/2+z
loop_
_atom_site_type_symbol
_atom_site_label
_atom_site_fract_x
_atom_site_fract_y
_atom_site_fract_z
Si Si1 0.853217 0.394699 0.720540
Si Si2 0.639579 0.711754 0.473424
Si Si3 0.449488 0.314680 0.150484
Si Si4 0.104860 0.513715 0.200563
Si Si5 0.354562 0.413214 0.987425
Si Si6 0.850080 0.989104 0.041290
Si Si7 0.444173 0.113598 0.167461
Si Si8 0.144273 0.634927 0.073198
O O1 0.750000 0.375988 0.678610
O O2 0.857611 0.457766 0.652867
O O3 0.949975 0.371090 0.665196
O O4 0.859208 0.382746 0.898019
O O5 0.750000 0.715485 0.456675
O O6 0.586582 0.699694 0.317533
O O7 0.594738 0.767514 0.543536
O O8 0.613154 0.662433 0.589311
O O9 0.557651 0.325277 0.119515
O O10 0.401070 0.371971 0.104615
O O11 0.142446 0.503440 0.366505
O O12 0.126411 0.577463 0.160664
O O13 0.000000 0.500000 0.206429
O O14 0.140124 0.473837 0.066728
O O15 0.250000 0.400345 0.963223
O O16 0.408628 0.402215 0.833656
O O17 0.750000 0.965683 0.067553
O O18 0.923835 0.942897 0.076984
O O19 0.250000 0.653180 0.100101
#
# Coordination Sequence:
#
# PCOD9381152 Si02
#       8
#     8   8   8   8   8   8   8   8
#     4  10  22  41  65  94 134 183 223 270 327 393
#     4  12  27  47  74 101 134 171 220 287 352 414
#     4  12  26  48  70 101 132 174 225 280 349 409
#     4  12  22  39  62 100 141 187 230 278 336 395
#     4  12  23  39  66  97 137 179 226 278 336 406
#     4  11  23  37  60  98 144 184 225 275 333 401
#     4  12  23  42  64 102 134 180 229 275 339 402
#     4  11  24  46  70  99 139 185 230 278 335 404
#
# _framework density 9.8765429999999999
#
# number of rings (size 3 to 8) (size 9 to 14) (size 15 to 20)
#    0.000    0.500    2.500    6.750    1.750    1.000 
#    0.000    1.250    0.000    0.000    0.000    0.000 
#    0.000    0.000    0.000    0.000    0.000    0.000 
#
# Total GULP energy -178580.159645 kJ/mol
# GULP energy per Si atom -5580.629989 kJ/mol
# Density = 0.985406 g / cm^3
# Si number density = 9.876543 Si / 1000 Ang^3
#
#
#
# Elastic Constant Matrix: (Units=GPa)
#
#
# Indices 1 2 3 4 5 6 
#
# 1 203.3931 29.0067 31.7910 0.0000 0.0000 0.0000
# 2 29.0067 71.2515 30.2849 0.0000 0.0000 0.0000
# 3 31.7910 30.2849 114.8967 0.0004 -0.0001 0.0002
# 4 0.0000 0.0000 0.0004 36.6753 0.0000 0.0000
# 5 0.0000 0.0000 -0.0001 0.0000 40.6683 0.0000
# 6 0.0000 0.0000 0.0002 0.0000 0.0000 37.8164
#
#
#
# Elastic Compliance Matrix: (Units=1/GPa)
#
#
# Indices 1 2 3 4 5 6 
#
# 1 0.005323 -0.001735 -0.001015 0.000000 0.000000 0.000000
# 2 -0.001735 0.016371 -0.003835 0.000000 0.000000 0.000000
# 3 -0.001015 -0.003835 0.009995 0.000000 0.000000 0.000000
# 4 0.000000 0.000000 0.000000 0.027266 0.000000 0.000000
# 5 0.000000 0.000000 0.000000 0.000000 0.024589 0.000000
# 6 0.000000 0.000000 0.000000 0.000000 0.000000 0.026444
#
#
# Mechanical properties :
#
#
# Convention : Reuss Voigt Hill
#
# Bulk Modulus (GPa) = 54.00200 63.52296 58.76248
# Shear Modulus (GPa) = 38.66004 42.92926 40.79465
#
# Velocity S-wave (km/s) = 4.42878 4.66692 4.54941
# Velocity P-wave (km/s) = 7.31779 7.82742 7.57689
#
# Compressibility (1/GPa) = 0.01851783
#
# Stress axis : x y z
#
# Youngs Moduli (GPa) = 187.87195 61.08245 100.04733
#
# Poissons Ratio (x) = 0.10600 0.10158
# Poissons Ratio (y) = 0.32602 0.38369
# Poissons Ratio (z) = 0.19076 0.23425
#
# Static dielectric constant tensor:
#      x y z
#    x 1.738000 0.000000 0.000000 
#    y 0.000000 1.706170 0.000000 
#    z 0.000000 0.000000 1.709650 
# 
# From -- ./inp_files/6084.got.cif
#   From: 2010.05.17/outbox.ucp.g08.bks.cvg/sg46_4_cif.got.tgz:6084.got - 2010.06.11 16:34:52.
