data_PCOD9381004
_publ_section_title
;
Structure prediction by ZEFSAII (Michael W. Deem and Ramdas Pophale) SiO2 
 PCOD9381004
Probable space group: I M A 2
;
_chemical_formula_sum "Si O2"
_cell_formula_units_Z 36
_cell_length_a 18.570586
_cell_length_b 8.753516
_cell_length_c 9.703064
_cell_angle_alpha 90.000000
_cell_angle_beta 90.000000
_cell_angle_gamma 90.000000
_cell_volume 1577.309918
_symmetry_space_group_name_H-M "I M A 2"
_symmetry_group_IT_number 46
_symmetry_cell_setting 'orthorhombic'
loop_
_space_group_symop_operation_xyz
x,y,z
-x,-y,z
1/2-x,y,z
1/2+x,-y,z
1/2+x,1/2+y,1/2+z
1/2-x,1/2-y,1/2+z
-x,1/2+y,1/2+z
x,1/2-y,1/2+z
loop_
_atom_site_type_symbol
_atom_site_label
_atom_site_fract_x
_atom_site_fract_y
_atom_site_fract_z
Si Si1 0.902803 0.616923 0.800950
Si Si2 0.250000 0.907281 0.920572
Si Si3 0.250000 0.144772 0.167576
Si Si4 0.872908 0.168075 0.471995
Si Si5 0.250000 0.021652 0.622631
Si Si6 0.483811 0.333139 0.514937
O O1 0.819932 0.641677 0.762499
O O2 0.906039 0.445004 0.858372
O O3 0.944430 0.639435 0.658713
O O4 0.934373 0.731988 0.914489
O O5 0.319880 0.798329 0.914734
O O6 0.250000 0.013017 0.787469
O O7 0.250000 0.002461 0.062119
O O8 0.250000 0.301980 0.082679
O O9 0.940892 0.247658 0.541696
O O10 0.820644 0.064849 0.566502
O O11 0.500000 0.500000 0.451721
#
# Coordination Sequence:
#
# PCOD9381004 Si02
#       6
#     8   4   4   8   4   8
#     4  12  29  50  78 114 153 207 252 326 376 461
#     4  11  28  45  81 111 151 208 246 317 387 450
#     4  12  28  49  76 112 153 197 261 307 382 458
#     4  11  27  49  75 115 153 198 258 312 383 463
#     4  11  28  46  81 111 150 205 249 322 371 470
#     4  12  28  48  80 111 157 203 254 318 388 453
#
# _framework density 22.823671000000001
#
# number of rings (size 3 to 8) (size 9 to 14) (size 15 to 20)
#    0.000    0.444    0.000    6.000   21.778    1.778 
#    0.000    0.000    0.000    0.000    0.000    0.000 
#    0.000    0.000    0.000    0.000    0.000    0.000 
#
# Total GULP energy -100931.767324 kJ/mol
# GULP energy per Si atom -5607.320407 kJ/mol
# Density = 2.277172 g / cm^3
# Si number density = 22.823671 Si / 1000 Ang^3
#
#
#
# Elastic Constant Matrix: (Units=GPa)
#
#
# Indices 1 2 3 4 5 6 
#
# 1 158.7822 58.6589 50.0984 0.0000 0.0000 0.0000
# 2 58.6589 154.1203 48.5265 0.0000 0.0000 0.0000
# 3 50.0984 48.5265 100.5545 0.0000 0.0000 0.0000
# 4 0.0000 0.0000 0.0000 33.5948 0.0000 0.0000
# 5 0.0000 0.0000 0.0000 0.0000 16.3235 0.0000
# 6 0.0000 0.0000 0.0000 0.0000 0.0000 34.1108
#
#
#
# Elastic Compliance Matrix: (Units=1/GPa)
#
#
# Indices 1 2 3 4 5 6 
#
# 1 0.008018 -0.002115 -0.002974 0.000000 0.000000 0.000000
# 2 -0.002115 0.008209 -0.002908 0.000000 0.000000 0.000000
# 3 -0.002974 -0.002908 0.012830 0.000000 0.000000 0.000000
# 4 0.000000 0.000000 0.000000 0.029766 0.000000 0.000000
# 5 0.000000 0.000000 0.000000 0.000000 0.061261 0.000000
# 6 0.000000 0.000000 0.000000 0.000000 0.000000 0.029316
#
#
# Mechanical properties :
#
#
# Convention : Reuss Voigt Hill
#
# Bulk Modulus (GPa) = 76.55272 80.89162 78.72217
# Shear Modulus (GPa) = 29.45538 33.88403 31.66971
#
# Velocity S-wave (km/s) = 3.59634 3.85723 3.72907
# Velocity P-wave (km/s) = 7.13152 7.44020 7.28750
#
# Compressibility (1/GPa) = 0.01306289
#
# Stress axis : x y z
#
# Youngs Moduli (GPa) = 124.72501 121.81697 77.94418
#
# Poissons Ratio (x) = 0.25767 0.23179
# Poissons Ratio (y) = 0.26382 0.22664
# Poissons Ratio (z) = 0.37090 0.35421
#
# Static dielectric constant tensor:
#      x y z
#    x 1.848260 0.000000 0.000000 
#    y 0.000000 1.856250 0.000000 
#    z 0.000000 0.000000 1.809440 
# 
# From -- ./inp_files/7187.got.cif
#   From: 2010.05.17/outbox.cif.g08.bks.cpg/sg46_4_cif.got.tgz:7187.got - 2010.06.03 19:58:25.
