data_PCOD9381106
_publ_section_title
;
Structure prediction by ZEFSAII (Michael W. Deem and Ramdas Pophale) SiO2 
 PCOD9381106
Probable space group: I M A 2
;
_chemical_formula_sum "Si O2"
_cell_formula_units_Z 32
_cell_length_a 9.000000
_cell_length_b 18.000000
_cell_length_c 21.000000
_cell_angle_alpha 90.000000
_cell_angle_beta 90.000000
_cell_angle_gamma 90.000000
_cell_volume 3402.000000
_symmetry_space_group_name_H-M "I M A 2"
_symmetry_group_IT_number 46
_symmetry_cell_setting 'orthorhombic'
loop_
_space_group_symop_operation_xyz
x,y,z
-x,-y,z
1/2-x,y,z
1/2+x,-y,z
1/2+x,1/2+y,1/2+z
1/2-x,1/2-y,1/2+z
-x,1/2+y,1/2+z
x,1/2-y,1/2+z
loop_
_atom_site_type_symbol
_atom_site_label
_atom_site_fract_x
_atom_site_fract_y
_atom_site_fract_z
Si Si1 0.926892 0.628734 0.012720
Si Si2 0.428436 0.921782 0.643553
Si Si3 0.926655 0.694156 0.505503
Si Si4 0.578652 0.125717 0.380388
Si Si5 0.573054 0.809195 0.742989
Si Si6 0.072384 0.367940 0.749196
Si Si7 0.429013 0.076500 0.111880
Si Si8 0.078892 0.693495 0.374685
O O1 0.750000 0.614979 0.017361
O O2 0.951971 0.718110 0.016733
O O3 0.012633 0.593121 0.071930
O O4 0.988722 0.603836 0.943785
O O5 0.250000 0.924856 0.644779
O O6 0.488762 0.856409 0.689431
O O7 0.500000 0.000000 0.664800
O O8 0.750000 0.685637 0.495065
O O9 0.970195 0.644805 0.566006
O O10 0.011133 0.669136 0.441917
O O11 0.750000 0.102224 0.385146
O O12 0.506819 0.103647 0.313058
O O13 0.574736 0.216199 0.377763
O O14 0.750000 0.820465 0.736750
O O15 0.544309 0.720402 0.738531
O O16 0.515508 0.830625 0.813417
O O17 0.250000 0.375962 0.757328
O O18 0.023882 0.407938 0.684535
O O19 0.250000 0.071377 0.111561
O O20 0.500000 0.000000 0.089134
O O21 0.250000 0.670904 0.367454
#
# Coordination Sequence:
#
# PCOD9381106 Si02
#       8
#     8   8   8   8   8   8   8   8
#     4  10  19  35  59  83 107 139 178 219 266 320
#     4  12  25  40  56  78 110 144 179 220 266 318
#     4   9  18  34  56  80 107 141 180 221 267 321
#     4   9  17  30  51  82 113 137 170 220 271 317
#     4  10  19  35  59  83 107 139 178 219 266 320
#     4   9  18  34  56  80 107 141 180 221 267 321
#     4  10  21  36  52  74 106 142 181 222 264 312
#     4   9  17  30  51  82 113 137 170 220 271 317
#
# _framework density 9.4062319999999993
#
# number of rings (size 3 to 8) (size 9 to 14) (size 15 to 20)
#    0.000    2.250    0.000    3.375    0.000    7.000 
#    0.000    2.500    0.000    3.000    0.000    0.000 
#    0.000    0.000    0.000    0.000    0.000    0.000 
#
# Total GULP energy -178690.274841 kJ/mol
# GULP energy per Si atom -5584.071089 kJ/mol
# Density = 0.938482 g / cm^3
# Si number density = 9.406232 Si / 1000 Ang^3
#
#
#
# Elastic Constant Matrix: (Units=GPa)
#
#
# Indices 1 2 3 4 5 6 
#
# 1 84.2993 20.2337 30.1701 0.0000 0.0000 0.0000
# 2 20.2337 23.9028 3.4602 0.0000 0.0000 0.0000
# 3 30.1701 3.4602 88.1574 0.0000 0.0000 0.0000
# 4 0.0000 0.0000 0.0000 -3.4090 0.0000 0.0000
# 5 0.0000 0.0000 0.0000 0.0000 37.5019 0.0000
# 6 0.0000 0.0000 0.0000 0.0000 0.0000 20.9776
#
#
#
# Elastic Compliance Matrix: (Units=1/GPa)
#
#
# Indices 1 2 3 4 5 6 
#
# 1 0.017034 -0.013653 -0.005294 0.000000 0.000000 0.000000
# 2 -0.013653 0.053018 0.002591 0.000000 0.000000 0.000000
# 3 -0.005294 0.002591 0.013053 0.000000 0.000000 0.000000
# 4 0.000000 0.000000 0.000000 -0.293345 0.000000 0.000000
# 5 0.000000 0.000000 0.000000 0.000000 0.026665 0.000000
# 6 0.000000 0.000000 0.000000 0.000000 0.000000 0.047670
#
#
# Mechanical properties :
#
#
# Convention : Reuss Voigt Hill
#
# Bulk Modulus (GPa) = 19.84318 33.78752 26.81535
# Shear Modulus (GPa) = -57.87375 20.51381 -18.67997
#
# Velocity S-wave (km/s) = -5.55250 3.30576 -3.15454
# Velocity P-wave (km/s) = 5.52596 5.70700 1.00837
#
# Compressibility (1/GPa) = 0.05039514
#
# Stress axis : x y z
#
# Youngs Moduli (GPa) = 58.70577 18.86144 76.60902
#
# Poissons Ratio (x) = 0.25752 0.40554
# Poissons Ratio (y) = 0.80151 -0.19853
# Poissons Ratio (z) = 0.31077 -0.04888
#
# Static dielectric constant tensor:
#      x y z
#    x 1.630920 0.000000 0.000000 
#    y 0.000000 1.644590 0.000000 
#    z 0.000000 0.000000 1.637720 
# 
# From -- ./inp_files/21329.got.cif
#   From: 2010.05.17/outbox.ucp.g08.bks.cvg/sg46_11_cif.got.tgz:21329.got - 2010.06.11 16:34:52.
