data_PCOD9381517
_publ_section_title
;
Structure prediction by ZEFSAII (Michael W. Deem and Ramdas Pophale) SiO2 
 PCOD9381517
Probable space group: P M M M
;
_chemical_formula_sum "Si O2"
_cell_formula_units_Z 64
_cell_length_a 7.469710
_cell_length_b 30.100749
_cell_length_c 15.009674
_cell_angle_alpha 90.000000
_cell_angle_beta 90.000000
_cell_angle_gamma 90.000000
_cell_volume 3374.833127
_symmetry_space_group_name_H-M "P M M M"
_symmetry_group_IT_number 47
_symmetry_cell_setting 'orthorhombic'
loop_
_space_group_symop_operation_xyz
x,y,z
-x,-y,z
x,-y,-z
-x,y,-z
-x,-y,-z
x,y,-z
-x,y,z
x,-y,z
loop_
_atom_site_type_symbol
_atom_site_label
_atom_site_fract_x
_atom_site_fract_y
_atom_site_fract_z
Si Si1 0.206900 0.778159 0.228067
Si Si2 0.789903 0.451117 0.720830
Si Si3 0.716139 0.404420 0.100920
Si Si4 0.782191 0.370140 0.603138
Si Si5 0.211073 0.854140 0.101688
Si Si6 0.715447 0.952239 0.896080
Si Si7 0.283664 0.303510 0.102950
Si Si8 0.219069 0.730063 0.602195
O O1 0.288126 0.817515 0.168579
O O2 0.211612 0.733656 0.168439
O O3 0.284000 0.764552 0.323799
O O4 0.000000 0.790491 0.244589
O O5 0.713096 0.500000 0.703486
O O6 0.775840 0.438469 0.824396
O O7 0.714390 0.409672 0.665253
O O8 0.000000 0.453203 0.697922
O O9 0.500000 0.404243 0.100298
O O10 0.773801 0.353959 0.124276
O O11 0.775396 0.414132 0.000000
O O12 0.734831 0.377959 0.500000
O O13 0.723963 0.320202 0.627170
O O14 0.000000 0.369540 0.607960
O O15 0.228249 0.904241 0.138697
O O16 0.000000 0.844700 0.093429
O O17 0.285127 0.852290 0.000000
O O18 0.500000 0.952481 0.894711
O O19 0.775776 0.000000 0.857706
O O20 0.772517 0.952045 0.000000
O O21 0.500000 0.302236 0.107337
O O22 0.233159 0.294411 0.000000
O O23 0.272044 0.738631 0.500000
O O24 0.000000 0.730126 0.603762
#
# Coordination Sequence:
#
# PCOD9381517 Si02
#       8
#     8   8   8   8   8   8   8   8
#     4  10  18  27  42  64  90 117 143 173 210 252
#     4  10  20  31  45  68  91 107 130 168 210 248
#     4   9  19  35  50  62  80 110 145 174 202 243
#     4   8  14  26  44  65  88 111 134 163 203 251
#     4   9  17  26  35  54  86 118 145 172 205 248
#     4   8  14  25  40  56  75 105 147 187 216 244
#     4   9  18  31  45  62  84 110 141 174 206 244
#     4   8  14  25  42  63  84 108 140 174 206 244
#
# _framework density 18.963901
#
# number of rings (size 3 to 8) (size 9 to 14) (size 15 to 20)
#    0.000    3.125    0.000    3.000    0.000    4.000 
#    0.000    6.250    0.000    0.750    0.000    4.375 
#    0.000    0.500    0.000    6.250    0.000    1.250 
#
# Total GULP energy -356816.439006 kJ/mol
# GULP energy per Si atom -5575.256859 kJ/mol
# Density = 1.892074 g / cm^3
# Si number density = 18.963901 Si / 1000 Ang^3
#
#
#
# Elastic Constant Matrix: (Units=GPa)
#
#
# Indices 1 2 3 4 5 6 
#
# 1 53.5298 5.0174 1.5484 0.0000 0.0000 0.0000
# 2 5.0174 125.7420 80.7190 0.0000 0.0000 0.0000
# 3 1.5484 80.7190 83.0392 0.0000 0.0000 0.0000
# 4 0.0000 0.0000 0.0000 18.3621 0.0000 0.0000
# 5 0.0000 0.0000 0.0000 0.0000 22.1863 0.0000
# 6 0.0000 0.0000 0.0000 0.0000 0.0000 12.7402
#
#
#
# Elastic Compliance Matrix: (Units=1/GPa)
#
#
# Indices 1 2 3 4 5 6 
#
# 1 0.018783 -0.001395 0.001006 0.000000 0.000000 0.000000
# 2 -0.001395 0.021255 -0.020635 0.000000 0.000000 0.000000
# 3 0.001006 -0.020635 0.032082 0.000000 0.000000 0.000000
# 4 0.000000 0.000000 0.000000 0.054460 0.000000 0.000000
# 5 0.000000 0.000000 0.000000 0.000000 0.045073 0.000000
# 6 0.000000 0.000000 0.000000 0.000000 0.000000 0.078492
#
#
# Mechanical properties :
#
#
# Convention : Reuss Voigt Hill
#
# Bulk Modulus (GPa) = 33.25410 48.54230 40.89820
# Shear Modulus (GPa) = 16.54439 22.32613 19.43526
#
# Velocity S-wave (km/s) = 2.95687 3.43490 3.20481
# Velocity P-wave (km/s) = 5.40657 6.43305 5.94202
#
# Compressibility (1/GPa) = 0.03007148
#
# Stress axis : x y z
#
# Youngs Moduli (GPa) = 53.24004 47.04775 31.16984
#
# Poissons Ratio (x) = 0.06565 -0.03136
# Poissons Ratio (y) = 0.07429 0.64319
# Poissons Ratio (z) = -0.05356 0.97084
#
# Static dielectric constant tensor:
#      x y z
#    x 1.758260 0.000000 0.000000 
#    y 0.000000 1.677630 0.000000 
#    z 0.000000 0.000000 1.651750 
# 
# From -- ./inp_files/8338.got.cif
#   From: 2010.05.17/outbox.cif.g08.bks.cpg/sg47_5_cif.got.tgz:8338.got - 2010.06.03 20:15:42.
