data_PCOD9381853
_publ_section_title
;
Structure prediction by ZEFSAII (Michael W. Deem and Ramdas Pophale) SiO2 
 PCOD9381853
Probable space group: P M M M
;
_chemical_formula_sum "Si O2"
_cell_formula_units_Z 52
_cell_length_a 28.734094
_cell_length_b 9.175074
_cell_length_c 12.069594
_cell_angle_alpha 90.000000
_cell_angle_beta 90.000000
_cell_angle_gamma 90.000000
_cell_volume 3181.996849
_symmetry_space_group_name_H-M "P M M M"
_symmetry_group_IT_number 47
_symmetry_cell_setting 'orthorhombic'
loop_
_space_group_symop_operation_xyz
x,y,z
-x,-y,z
x,-y,-z
-x,y,-z
-x,-y,-z
x,y,-z
-x,y,z
x,-y,z
loop_
_atom_site_type_symbol
_atom_site_label
_atom_site_fract_x
_atom_site_fract_y
_atom_site_fract_z
Si Si1 0.814591 0.324297 0.227976
Si Si2 0.905838 0.325867 0.370514
Si Si3 0.300781 0.666712 0.000000
Si Si4 0.724570 0.677599 0.372937
Si Si5 0.204763 0.826973 0.000000
Si Si6 0.639868 0.328849 0.224649
Si Si7 0.000000 0.168086 0.634723
Si Si8 0.446772 0.824747 0.129037
O O1 0.812407 0.500000 0.212212
O O2 0.860162 0.290656 0.300232
O O3 0.768159 0.280149 0.295971
O O4 0.815863 0.244477 0.110835
O O5 0.898057 0.287963 0.500000
O O6 0.913035 0.500000 0.365492
O O7 0.952586 0.247160 0.330149
O O8 0.331730 0.682987 0.890680
O O9 0.281674 0.500000 0.000000
O O10 0.258926 0.779521 0.000000
O O11 0.730062 0.724939 0.500000
O O12 0.724301 0.500000 0.372370
O O13 0.675700 0.724259 0.318689
O O14 0.199582 0.000000 0.000000
O O15 0.630350 0.500000 0.243394
O O16 0.591942 0.244730 0.207070
O O17 0.000000 0.174897 0.500000
O O18 0.000000 0.000000 0.668031
O O19 0.500000 0.783126 0.156107
O O20 0.443809 0.000000 0.133378
O O21 0.438297 0.781850 0.000000
#
# Coordination Sequence:
#
# PCOD9381853 Si02
#       8
#     8   8   4   8   4   8   4   8
#     4  10  19  34  54  74 101 134 166 205 250 294
#     4   9  17  30  52  80 104 130 170 214 251 293
#     4  10  18  32  49  71  97 128 166 202 245 292
#     4   9  17  30  50  75 100 127 161 200 244 292
#     4  12  24  34  48  72 102 136 172 205 240 290
#     4  10  18  29  49  73  98 125 157 200 244 290
#     4   9  17  29  47  72 105 142 171 203 253 301
#     4   9  18  31  46  67  96 127 158 196 244 294
#
# _framework density 16.341940000000001
#
# number of rings (size 3 to 8) (size 9 to 14) (size 15 to 20)
#    0.000    2.385    2.308    1.846    0.000    4.308 
#    0.000    0.769    0.000    3.692    0.000    6.462 
#    0.000    0.000    0.000    0.000    0.000    0.000 
#
# Total GULP energy -289923.926191 kJ/mol
# GULP energy per Si atom -5575.460119 kJ/mol
# Density = 1.630474 g / cm^3
# Si number density = 16.341940 Si / 1000 Ang^3
#
#
#
# Elastic Constant Matrix: (Units=GPa)
#
#
# Indices 1 2 3 4 5 6 
#
# 1 148.0599 53.9060 62.7824 0.0000 0.0000 0.0000
# 2 53.9060 36.7492 36.9858 0.0000 0.0000 0.0000
# 3 62.7824 36.9858 102.5897 0.0000 0.0000 0.0000
# 4 0.0000 0.0000 0.0000 11.8265 0.0000 0.0000
# 5 0.0000 0.0000 0.0000 0.0000 21.8467 0.0000
# 6 0.0000 0.0000 0.0000 0.0000 0.0000 5.4246
#
#
#
# Elastic Compliance Matrix: (Units=1/GPa)
#
#
# Indices 1 2 3 4 5 6 
#
# 1 0.014733 -0.019677 -0.001922 0.000000 0.000000 0.000000
# 2 -0.019677 0.068986 -0.012830 0.000000 0.000000 0.000000
# 3 -0.001922 -0.012830 0.015549 0.000000 0.000000 0.000000
# 4 0.000000 0.000000 0.000000 0.084556 0.000000 0.000000
# 5 0.000000 0.000000 0.000000 0.000000 0.045774 0.000000
# 6 0.000000 0.000000 0.000000 0.000000 0.000000 0.184347
#
#
# Mechanical properties :
#
#
# Convention : Reuss Voigt Hill
#
# Bulk Modulus (GPa) = 32.88203 66.08302 49.48252
# Shear Modulus (GPa) = 10.14325 16.73454 13.43889
#
# Velocity S-wave (km/s) = 2.49406 3.20351 2.87079
# Velocity P-wave (km/s) = 5.33467 7.36266 6.42913
#
# Compressibility (1/GPa) = 0.03041175
#
# Stress axis : x y z
#
# Youngs Moduli (GPa) = 67.87449 14.49564 64.31127
#
# Poissons Ratio (x) = 0.28522 0.12364
# Poissons Ratio (y) = 1.33553 0.82508
# Poissons Ratio (z) = 0.13049 0.18597
#
# Static dielectric constant tensor:
#      x y z
#    x 1.541310 0.000000 0.000000 
#    y 0.000000 1.544360 0.000000 
#    z 0.000000 0.000000 1.541800 
# 
# From -- ./inp_files/13290.got.cif
#   From: 2010.05.17/outbox.cif.g08.bks.cpg/sg47_7_cif.got.tgz:13290.got - 2010.06.03 20:15:42.
