data_PCOD9381478
_publ_section_title
;
Structure prediction by ZEFSAII (Michael W. Deem and Ramdas Pophale) SiO2 
 PCOD9381478
Probable space group: P M M M
;
_chemical_formula_sum "Si O2"
_cell_formula_units_Z 52
_cell_length_a 7.761292
_cell_length_b 18.530752
_cell_length_c 17.750506
_cell_angle_alpha 90.000000
_cell_angle_beta 90.000000
_cell_angle_gamma 90.000000
_cell_volume 2552.923520
_symmetry_space_group_name_H-M "P M M M"
_symmetry_group_IT_number 47
_symmetry_cell_setting 'orthorhombic'
loop_
_space_group_symop_operation_xyz
x,y,z
-x,-y,z
x,-y,-z
-x,y,-z
-x,-y,-z
x,y,-z
-x,y,z
x,-y,z
loop_
_atom_site_type_symbol
_atom_site_label
_atom_site_fract_x
_atom_site_fract_y
_atom_site_fract_z
Si Si1 0.793182 0.281853 0.414428
Si Si2 0.211215 0.000000 0.587038
Si Si3 0.707707 0.648472 0.838287
Si Si4 0.707528 0.814961 0.161620
Si Si5 0.800947 0.663244 0.000000
Si Si6 0.292025 0.419947 0.316589
Si Si7 0.696726 0.826628 0.000000
Si Si8 0.793003 0.858151 0.324938
O O1 0.727268 0.278669 0.500000
O O2 0.755664 0.357505 0.374639
O O3 0.726679 0.215461 0.363719
O O4 0.000000 0.274432 0.417815
O O5 0.269168 0.928314 0.630498
O O6 0.264632 0.000000 0.500000
O O7 0.000000 0.000000 0.587377
O O8 0.500000 0.648646 0.836554
O O9 0.767889 0.731770 0.829332
O O10 0.769093 0.602888 0.767000
O O11 0.761696 0.623862 0.921648
O O12 0.500000 0.812015 0.155323
O O13 0.751206 0.857644 0.236731
O O14 0.774786 0.844855 0.081486
O O15 0.695400 0.738510 0.000000
O O16 0.000000 0.684286 0.000000
O O17 0.500000 0.421853 0.313970
O O18 0.230109 0.500000 0.336652
O O19 0.500000 0.853595 0.000000
O O20 0.000000 0.857503 0.331312
#
# Coordination Sequence:
#
# PCOD9381478 Si02
#       8
#     8   4   8   8   4   8   4   8
#     4  10  21  36  54  77 105 135 168 211 266 322
#     4   9  18  34  55  78 107 142 176 211 255 311
#     4   9  17  32  50  70 100 137 172 210 260 311
#     4   9  16  29  51  75 102 136 172 211 258 306
#     4  10  18  26  45  75 103 132 171 216 256 301
#     4  10  21  37  56  76  99 133 178 222 261 306
#     4   8  16  30  46  70 104 142 174 207 253 304
#     4  10  19  32  54  81 106 135 175 215 254 306
#
# _framework density 20.368803
#
# number of rings (size 3 to 8) (size 9 to 14) (size 15 to 20)
#    0.000    2.538    1.538    2.077    0.000    5.846 
#    0.000    2.308    0.000    4.615    0.000    3.231 
#    0.000    0.000    0.000    0.000    0.000    0.000 
#
# Total GULP energy -290074.162532 kJ/mol
# GULP energy per Si atom -5578.349279 kJ/mol
# Density = 2.032244 g / cm^3
# Si number density = 20.368803 Si / 1000 Ang^3
#
#
#
# Elastic Constant Matrix: (Units=GPa)
#
#
# Indices 1 2 3 4 5 6 
#
# 1 31.7124 2.7625 4.5547 0.0000 0.0000 0.0000
# 2 2.7625 106.6094 86.5162 0.0000 0.0000 0.0000
# 3 4.5547 86.5162 206.5161 0.0000 0.0000 0.0000
# 4 0.0000 0.0000 0.0000 8.9436 0.0000 0.0000
# 5 0.0000 0.0000 0.0000 0.0000 25.2247 0.0000
# 6 0.0000 0.0000 0.0000 0.0000 0.0000 6.8405
#
#
#
# Elastic Compliance Matrix: (Units=1/GPa)
#
#
# Indices 1 2 3 4 5 6 
#
# 1 0.031644 -0.000384 -0.000537 0.000000 0.000000 0.000000
# 2 -0.000384 0.014216 -0.005947 0.000000 0.000000 0.000000
# 3 -0.000537 -0.005947 0.007346 0.000000 0.000000 0.000000
# 4 0.000000 0.000000 0.000000 0.111812 0.000000 0.000000
# 5 0.000000 0.000000 0.000000 0.000000 0.039644 0.000000
# 6 0.000000 0.000000 0.000000 0.000000 0.000000 0.146189
#
#
# Mechanical properties :
#
#
# Convention : Reuss Voigt Hill
#
# Bulk Modulus (GPa) = 25.33629 59.16720 42.25175
# Shear Modulus (GPa) = 13.23651 24.93540 19.08595
#
# Velocity S-wave (km/s) = 2.55197 3.50265 3.06440
# Velocity P-wave (km/s) = 4.59882 6.74307 5.77140
#
# Compressibility (1/GPa) = 0.03946908
#
# Stress axis : x y z
#
# Youngs Moduli (GPa) = 31.60162 70.34192 136.13700
#
# Poissons Ratio (x) = 0.02703 0.07310
# Poissons Ratio (y) = 0.01214 0.80963
# Poissons Ratio (z) = 0.01697 0.41834
#
# Static dielectric constant tensor:
#      x y z
#    x 1.764580 0.000000 0.000000 
#    y 0.000000 1.698740 0.000000 
#    z 0.000000 0.000000 1.744720 
# 
# From -- ./inp_files/26829.got.cif
#   From: 2010.05.17/outbox.cif.g08.bks.cpg/sg47_14_cif.got.tgz:26829.got - 2010.06.03 20:15:42.
