data_PCOD9381201
_publ_section_title
;
Structure prediction by ZEFSAII (Michael W. Deem and Ramdas Pophale) SiO2 
 PCOD9381201
Probable space group: P M M M
;
_chemical_formula_sum "Si O2"
_cell_formula_units_Z 60
_cell_length_a 15.166107
_cell_length_b 7.418289
_cell_length_c 27.261864
_cell_angle_alpha 90.000000
_cell_angle_beta 90.000000
_cell_angle_gamma 90.000000
_cell_volume 3067.138667
_symmetry_space_group_name_H-M "P M M M"
_symmetry_group_IT_number 47
_symmetry_cell_setting 'orthorhombic'
loop_
_space_group_symop_operation_xyz
x,y,z
-x,-y,z
x,-y,-z
-x,y,-z
-x,-y,-z
x,y,-z
-x,y,z
x,-y,z
loop_
_atom_site_type_symbol
_atom_site_label
_atom_site_fract_x
_atom_site_fract_y
_atom_site_fract_z
Si Si1 0.900535 0.784330 0.356952
Si Si2 0.606831 0.206606 0.000000
Si Si3 0.730500 0.792595 0.192503
Si Si4 0.600937 0.282268 0.279971
Si Si5 0.101918 0.220380 0.246966
Si Si6 0.230150 0.285103 0.446128
Si Si7 0.400703 0.719980 0.607741
Si Si8 0.398072 0.778467 0.107964
O O1 0.872995 0.721374 0.302524
O O2 0.837642 0.743991 0.402053
O O3 0.000000 0.718154 0.366045
O O4 0.904420 0.000000 0.353462
O O5 0.629368 0.283216 0.946702
O O6 0.500000 0.202189 0.000000
O O7 0.638860 0.000000 0.000000
O O8 0.669892 0.789329 0.241032
O O9 0.824864 0.714694 0.208579
O O10 0.670216 0.715197 0.149106
O O11 0.746970 0.000000 0.178398
O O12 0.500000 0.228608 0.268225
O O13 0.604290 0.500000 0.278277
O O14 0.619548 0.227029 0.336039
O O15 0.000000 0.272192 0.238162
O O16 0.104145 0.000000 0.246304
O O17 0.204102 0.216130 0.500000
O O18 0.238476 0.500000 0.450101
O O19 0.325220 0.215802 0.428562
O O20 0.500000 0.777234 0.595721
O O21 0.400813 0.500000 0.607388
O O22 0.500000 0.724919 0.117795
O O23 0.399109 0.000000 0.107642
#
# Coordination Sequence:
#
# PCOD9381201 Si02
#       8
#     8   4   8   8   8   8   8   8
#     4   9  18  33  50  63  78 106 138 161 190 244
#     4   7  10  18  30  44  72 112 140 161 195 233
#     4  10  17  24  40  64  84 103 132 173 210 234
#     4   9  17  28  41  58  83 113 136 155 191 244
#     4   8  15  28  44  62  83 105 131 164 203 246
#     4  10  20  31  45  67  88 103 126 166 208 235
#     4   8  15  29  46  61  80 109 140 162 185 231
#     4   8  13  20  31  52  81 108 135 167 200 233
#
# _framework density 19.562206
#
# number of rings (size 3 to 8) (size 9 to 14) (size 15 to 20)
#    0.000    3.267    0.000    3.600    0.000    1.867 
#    0.000    2.667    0.000    2.400    0.000    1.867 
#    0.000    6.400    0.000    0.000    0.000    1.333 
#
# Total GULP energy -334537.930133 kJ/mol
# GULP energy per Si atom -5575.632169 kJ/mol
# Density = 1.951768 g / cm^3
# Si number density = 19.562206 Si / 1000 Ang^3
#
#
#
# Elastic Constant Matrix: (Units=GPa)
#
#
# Indices 1 2 3 4 5 6 
#
# 1 115.8336 3.8195 103.3633 0.0000 0.0000 0.0000
# 2 3.8195 61.6205 8.4710 0.0000 0.0000 0.0000
# 3 103.3633 8.4710 134.9072 0.0000 0.0000 0.0000
# 4 0.0000 0.0000 0.0000 15.0944 0.0000 0.0000
# 5 0.0000 0.0000 0.0000 0.0000 -27.7772 0.0000
# 6 0.0000 0.0000 0.0000 0.0000 0.0000 5.4217
#
#
#
# Elastic Compliance Matrix: (Units=1/GPa)
#
#
# Indices 1 2 3 4 5 6 
#
# 1 0.027381 0.001197 -0.021054 0.000000 0.000000 0.000000
# 2 0.001197 0.016422 -0.001948 0.000000 0.000000 0.000000
# 3 -0.021054 -0.001948 0.023666 0.000000 0.000000 0.000000
# 4 0.000000 0.000000 0.000000 0.066250 0.000000 0.000000
# 5 0.000000 0.000000 0.000000 0.000000 -0.036001 0.000000
# 6 0.000000 0.000000 0.000000 0.000000 0.000000 0.184444
#
#
# Mechanical properties :
#
#
# Convention : Reuss Voigt Hill
#
# Bulk Modulus (GPa) = 41.91371 60.40766 51.16068
# Shear Modulus (GPa) = 14.98240 11.66162 13.32201
#
# Velocity S-wave (km/s) = 2.77046 2.44423 2.61244
# Velocity P-wave (km/s) = 5.63084 6.23799 5.94217
#
# Compressibility (1/GPa) = 0.02385854
#
# Stress axis : x y z
#
# Youngs Moduli (GPa) = 36.52187 60.89390 42.25490
#
# Poissons Ratio (x) = -0.07290 0.88963
# Poissons Ratio (y) = -0.04372 0.08233
# Poissons Ratio (z) = 0.76893 0.11864
#
# Static dielectric constant tensor:
#      x y z
#    x 1.678920 0.000000 0.000000 
#    y 0.000000 1.818100 0.000000 
#    z 0.000000 0.000000 1.698300 
# 
# From -- ./inp_files/33731.got.cif
#   From: 2010.05.17/outbox.cif.g08.bks.cpg/sg47_17_cif.got.tgz:33731.got - 2010.06.03 20:15:42.
