data_PCOD9381896
_publ_section_title
;
Structure prediction by ZEFSAII (Michael W. Deem and Ramdas Pophale) SiO2 
 PCOD9381896
Probable space group: P M M M
;
_chemical_formula_sum "Si O2"
_cell_formula_units_Z 64
_cell_length_a 7.804322
_cell_length_b 32.006736
_cell_length_c 14.992776
_cell_angle_alpha 90.000000
_cell_angle_beta 90.000000
_cell_angle_gamma 90.000000
_cell_volume 3745.058619
_symmetry_space_group_name_H-M "P M M M"
_symmetry_group_IT_number 47
_symmetry_cell_setting 'orthorhombic'
loop_
_space_group_symop_operation_xyz
x,y,z
-x,-y,z
x,-y,-z
-x,y,-z
-x,-y,-z
x,y,-z
-x,y,z
x,-y,z
loop_
_atom_site_type_symbol
_atom_site_label
_atom_site_fract_x
_atom_site_fract_y
_atom_site_fract_z
Si Si1 0.704610 0.136017 0.898118
Si Si2 0.702536 0.628022 0.211407
Si Si3 0.793651 0.045042 0.104406
Si Si4 0.290812 0.246952 0.598695
Si Si5 0.792958 0.452822 0.102118
Si Si6 0.701393 0.787985 0.781849
Si Si7 0.291316 0.655332 0.401641
Si Si8 0.201249 0.709285 0.898157
O O1 0.500000 0.141770 0.904807
O O2 0.734506 0.089616 0.859612
O O3 0.775294 0.173076 0.836803
O O4 0.773658 0.138071 0.000000
O O5 0.500000 0.636072 0.214009
O O6 0.733509 0.583260 0.167585
O O7 0.768171 0.631666 0.313070
O O8 0.777472 0.664811 0.150115
O O9 0.000000 0.045163 0.106500
O O10 0.735720 0.000000 0.142202
O O11 0.740438 0.045256 0.000000
O O12 0.236061 0.232924 0.500000
O O13 0.500000 0.246009 0.599952
O O14 0.225896 0.221590 0.683835
O O15 0.244526 0.295816 0.608787
O O16 0.737194 0.500000 0.125400
O O17 0.000000 0.452583 0.102001
O O18 0.737351 0.444190 0.000000
O O19 0.500000 0.796893 0.768818
O O20 0.715033 0.745951 0.840380
O O21 0.232156 0.641207 0.500000
O O22 0.500000 0.653442 0.403322
O O23 0.000000 0.718874 0.901340
O O24 0.266889 0.707842 0.000000
#
# Coordination Sequence:
#
# PCOD9381896 Si02
#       8
#     8   8   8   8   8   8   8   8
#     4   9  17  26  37  57  85 115 143 175 218 262
#     4  11  20  31  51  75  93 114 148 189 225 255
#     4   8  14  25  40  56  75 104 144 184 216 252
#     4   8  13  24  44  66  86 111 145 183 221 260
#     4   9  19  36  54  70  93 125 152 176 216 267
#     4  10  18  30  46  64  87 116 151 187 220 257
#     4   8  14  26  45  69  93 115 143 180 222 264
#     4  11  23  34  43  60  90 126 156 180 213 260
#
# _framework density 17.089185000000001
#
# number of rings (size 3 to 8) (size 9 to 14) (size 15 to 20)
#    0.000    2.750    1.250    3.000    0.000    4.250 
#    0.000    3.125    0.000    3.000    0.000    2.625 
#    0.000    0.500    0.000    6.250    0.000    1.250 
#
# Total GULP energy -356598.247933 kJ/mol
# GULP energy per Si atom -5571.847624 kJ/mol
# Density = 1.705029 g / cm^3
# Si number density = 17.089185 Si / 1000 Ang^3
#
#
#
# Elastic Constant Matrix: (Units=GPa)
#
#
# Indices 1 2 3 4 5 6 
#
# 1 18.2109 -6.7103 1.2241 0.0000 0.0000 0.0000
# 2 -6.7103 111.0063 74.3562 0.0000 0.0000 0.0000
# 3 1.2241 74.3562 139.1578 0.0000 0.0000 0.0000
# 4 0.0000 0.0000 0.0000 6.4738 0.0000 0.0000
# 5 0.0000 0.0000 0.0000 0.0000 439.7815 0.0000
# 6 0.0000 0.0000 0.0000 0.0000 0.0000 22.4143
#
#
#
# Elastic Compliance Matrix: (Units=1/GPa)
#
#
# Indices 1 2 3 4 5 6 
#
# 1 0.057342 0.005925 -0.003670 0.000000 0.000000 0.000000
# 2 0.005925 0.014642 -0.007876 0.000000 0.000000 0.000000
# 3 -0.003670 -0.007876 0.011427 0.000000 0.000000 0.000000
# 4 0.000000 0.000000 0.000000 0.154468 0.000000 0.000000
# 5 0.000000 0.000000 0.000000 0.000000 0.002274 0.000000
# 6 0.000000 0.000000 0.000000 0.000000 0.000000 0.044614
#
#
# Mechanical properties :
#
#
# Convention : Reuss Voigt Hill
#
# Bulk Modulus (GPa) = 13.85652 45.12389 29.49020
# Shear Modulus (GPa) = 15.62180 107.03426 61.32803
#
# Velocity S-wave (km/s) = 3.02674 7.92267 5.99708
# Velocity P-wave (km/s) = 4.51009 10.49542 8.07758
#
# Compressibility (1/GPa) = 0.07216820
#
# Stress axis : x y z
#
# Youngs Moduli (GPa) = 17.43924 68.29563 87.51425
#
# Poissons Ratio (x) = -0.40464 0.32119
# Poissons Ratio (y) = -0.10332 0.68925
# Poissons Ratio (z) = 0.06401 0.53789
#
# Static dielectric constant tensor:
#      x y z
#    x 1.631840 0.000000 0.000000 
#    y 0.000000 1.574800 0.000000 
#    z 0.000000 0.000000 1.597600 
# 
# From -- ./inp_files/8215.got.cif
#   From: 2010.05.17/outbox.cif.g08.bks.cpg/sg47_5_cif.got.tgz:8215.got - 2010.06.03 20:15:42.
