data_PCOD9381270
_publ_section_title
;
Structure prediction by ZEFSAII (Michael W. Deem and Ramdas Pophale) SiO2 
 PCOD9381270
Probable space group: P M M M
;
_chemical_formula_sum "Si O2"
_cell_formula_units_Z 60
_cell_length_a 7.533787
_cell_length_b 20.461968
_cell_length_c 20.111808
_cell_angle_alpha 90.000000
_cell_angle_beta 90.000000
_cell_angle_gamma 90.000000
_cell_volume 3100.358056
_symmetry_space_group_name_H-M "P M M M"
_symmetry_group_IT_number 47
_symmetry_cell_setting 'orthorhombic'
loop_
_space_group_symop_operation_xyz
x,y,z
-x,-y,z
x,-y,-z
-x,y,-z
-x,-y,-z
x,y,-z
-x,y,z
x,-y,z
loop_
_atom_site_type_symbol
_atom_site_label
_atom_site_fract_x
_atom_site_fract_y
_atom_site_fract_z
Si Si1 0.706008 0.074952 0.799893
Si Si2 0.216147 0.000000 0.426767
Si Si3 0.717546 0.329430 0.923906
Si Si4 0.287822 0.787394 0.830452
Si Si5 0.288296 0.573161 0.188342
Si Si6 0.789323 0.311625 0.711710
Si Si7 0.216601 0.742544 0.423112
Si Si8 0.214910 0.125427 0.654038
O O1 0.500000 0.068899 0.819578
O O2 0.785081 0.138736 0.837290
O O3 0.712732 0.104847 0.725625
O O4 0.779634 0.000000 0.802024
O O5 0.269005 0.935278 0.390269
O O6 0.284482 0.000000 0.500000
O O7 0.000000 0.000000 0.427782
O O8 0.500000 0.329268 0.923370
O O9 0.776079 0.263588 0.886023
O O10 0.777360 0.389618 0.877712
O O11 0.774425 0.333177 0.000000
O O12 0.500000 0.792436 0.837383
O O13 0.260485 0.750104 0.759374
O O14 0.500000 0.568176 0.180854
O O15 0.217246 0.500000 0.197239
O O16 0.259459 0.622674 0.249386
O O17 0.724640 0.307403 0.635346
O O18 0.000000 0.308567 0.708215
O O19 0.277666 0.735941 0.500000
O O20 0.267314 0.810607 0.387193
O O21 0.000000 0.741260 0.426649
O O22 0.000000 0.128769 0.661421
#
# Coordination Sequence:
#
# PCOD9381270 Si02
#       8
#     8   4   8   8   8   8   8   8
#     4  10  19  29  42  60  87 121 153 189 235 280
#     4   9  16  24  37  57  79 107 142 181 228 278
#     4   8  14  26  47  74  97 119 152 188 218 255
#     4   9  17  30  47  65  90 123 156 191 231 275
#     4   9  18  32  50  73 101 130 153 175 212 264
#     4  10  18  29  49  72  93 119 154 194 230 268
#     4   9  17  28  43  65  90 114 146 193 242 278
#     4  10  17  27  43  61  81 108 146 190 232 277
#
# _framework density 19.352603999999999
#
# number of rings (size 3 to 8) (size 9 to 14) (size 15 to 20)
#    0.000    2.733    2.000    1.600    0.000    2.133 
#    0.000    1.333    0.000   12.400    0.000    9.333 
#    0.000    0.000    0.000    6.000    0.000    6.667 
#
# Total GULP energy -334037.186500 kJ/mol
# GULP energy per Si atom -5567.286442 kJ/mol
# Density = 1.930856 g / cm^3
# Si number density = 19.352604 Si / 1000 Ang^3
#
#
#
# Elastic Constant Matrix: (Units=GPa)
#
#
# Indices 1 2 3 4 5 6 
#
# 1 48.2057 7.6096 0.4703 0.0000 0.0000 0.0000
# 2 7.6096 182.4202 80.8417 0.0000 0.0000 0.0000
# 3 0.4703 80.8417 119.6901 0.0000 0.0000 0.0000
# 4 0.0000 0.0000 0.0000 27.7749 0.0000 0.0000
# 5 0.0000 0.0000 0.0000 0.0000 13.0910 0.0000
# 6 0.0000 0.0000 0.0000 0.0000 0.0000 5.2231
#
#
#
# Elastic Compliance Matrix: (Units=1/GPa)
#
#
# Indices 1 2 3 4 5 6 
#
# 1 0.020926 -0.001194 0.000724 0.000000 0.000000 0.000000
# 2 -0.001194 0.007892 -0.005326 0.000000 0.000000 0.000000
# 3 0.000724 -0.005326 0.011949 0.000000 0.000000 0.000000
# 4 0.000000 0.000000 0.000000 0.036004 0.000000 0.000000
# 5 0.000000 0.000000 0.000000 0.000000 0.076388 0.000000
# 6 0.000000 0.000000 0.000000 0.000000 0.000000 0.191459
#
#
# Mechanical properties :
#
#
# Convention : Reuss Voigt Hill
#
# Bulk Modulus (GPa) = 34.27468 58.68436 46.47952
# Shear Modulus (GPa) = 13.66370 26.64410 20.15390
#
# Velocity S-wave (km/s) = 2.66002 3.71451 3.23058
# Velocity P-wave (km/s) = 5.21377 6.98472 6.16319
#
# Compressibility (1/GPa) = 0.02917605
#
# Stress axis : x y z
#
# Youngs Moduli (GPa) = 47.78789 126.71472 83.68834
#
# Poissons Ratio (x) = 0.15127 -0.06060
# Poissons Ratio (y) = 0.05705 0.44569
# Poissons Ratio (z) = -0.03460 0.67483
#
# Static dielectric constant tensor:
#      x y z
#    x 1.738070 0.000000 0.000000 
#    y 0.000000 1.668990 0.000000 
#    z 0.000000 0.000000 1.692820 
# 
# From -- ./inp_files/27017.got.cif
#   From: 2010.05.17/outbox.cif.g08.bks.cpg/sg47_14_cif.got.tgz:27017.got - 2010.06.03 20:15:42.
