data_PCOD9381861
_publ_section_title
;
Structure prediction by ZEFSAII (Michael W. Deem and Ramdas Pophale) SiO2 
 PCOD9381861
Probable space group: P M M M
;
_chemical_formula_sum "Si O2"
_cell_formula_units_Z 52
_cell_length_a 7.710287
_cell_length_b 24.528146
_cell_length_c 14.697016
_cell_angle_alpha 90.000000
_cell_angle_beta 90.000000
_cell_angle_gamma 90.000000
_cell_volume 2779.485634
_symmetry_space_group_name_H-M "P M M M"
_symmetry_group_IT_number 47
_symmetry_cell_setting 'orthorhombic'
loop_
_space_group_symop_operation_xyz
x,y,z
-x,-y,z
x,-y,-z
-x,y,-z
-x,-y,-z
x,y,-z
-x,y,z
x,-y,z
loop_
_atom_site_type_symbol
_atom_site_label
_atom_site_fract_x
_atom_site_fract_y
_atom_site_fract_z
Si Si1 0.793156 0.775680 0.208543
Si Si2 0.792436 0.118412 0.895681
Si Si3 0.212472 0.332664 0.105621
Si Si4 0.709849 0.605398 0.602174
Si Si5 0.204968 0.440644 0.206806
Si Si6 0.708786 0.268815 0.398902
Si Si7 0.294071 0.000000 0.103441
O O1 0.724796 0.831205 0.163663
O O2 0.726014 0.721287 0.158291
O O3 0.762461 0.768582 0.315486
O O4 0.000000 0.775768 0.194508
O O5 0.000000 0.123715 0.901187
O O6 0.757604 0.058226 0.856180
O O7 0.724515 0.120736 0.000000
O O8 0.275432 0.387882 0.154209
O O9 0.000000 0.332672 0.109644
O O10 0.260996 0.330977 0.000000
O O11 0.763960 0.589022 0.500000
O O12 0.500000 0.604352 0.603912
O O13 0.774410 0.569910 0.685693
O O14 0.766324 0.668412 0.616836
O O15 0.278849 0.500000 0.182772
O O16 0.000000 0.442205 0.186460
O O17 0.768563 0.252441 0.500000
O O18 0.500000 0.270181 0.400442
O O19 0.500000 0.000000 0.097860
O O20 0.219572 0.000000 0.000000
#
# Coordination Sequence:
#
# PCOD9381861 Si02
#       7
#     8   8   8   8   8   8   4
#     4  10  18  29  49  75  97 122 158 197 236 278
#     4   9  17  29  46  70 101 134 165 197 234 276
#     4   9  17  30  47  67  93 122 153 192 235 279
#     4   9  18  33  51  68  88 118 153 188 234 292
#     4  10  20  32  47  69  93 118 153 196 240 283
#     4   9  18  32  49  69  94 123 153 189 237 289
#     4   9  17  29  45  67  98 135 172 203 231 268
#
# _framework density 18.708499
#
# number of rings (size 3 to 8) (size 9 to 14) (size 15 to 20)
#    0.000    2.692    1.538    1.615    0.000    4.923 
#    0.000    4.615    0.000    2.769    0.000    1.615 
#    0.000    4.308    0.000    0.000    0.000    0.000 
#
# Total GULP energy -289987.373660 kJ/mol
# GULP energy per Si atom -5576.680263 kJ/mol
# Density = 1.866592 g / cm^3
# Si number density = 18.708499 Si / 1000 Ang^3
#
#
#
# Elastic Constant Matrix: (Units=GPa)
#
#
# Indices 1 2 3 4 5 6 
#
# 1 29.7298 9.5288 -2.6117 0.0000 0.0000 0.0000
# 2 9.5288 172.6349 81.1829 0.0000 0.0000 0.0000
# 3 -2.6117 81.1829 100.3396 0.0000 0.0000 0.0000
# 4 0.0000 0.0000 0.0000 19.2218 0.0000 0.0000
# 5 0.0000 0.0000 0.0000 0.0000 42.2127 0.0000
# 6 0.0000 0.0000 0.0000 0.0000 0.0000 4.1240
#
#
#
# Elastic Compliance Matrix: (Units=1/GPa)
#
#
# Indices 1 2 3 4 5 6 
#
# 1 0.035218 -0.003834 0.004018 0.000000 0.000000 0.000000
# 2 -0.003834 0.009767 -0.008002 0.000000 0.000000 0.000000
# 3 0.004018 -0.008002 0.016545 0.000000 0.000000 0.000000
# 4 0.000000 0.000000 0.000000 0.052024 0.000000 0.000000
# 5 0.000000 0.000000 0.000000 0.000000 0.023690 0.000000
# 6 0.000000 0.000000 0.000000 0.000000 0.000000 0.242483
#
#
# Mechanical properties :
#
#
# Convention : Reuss Voigt Hill
#
# Bulk Modulus (GPa) = 21.78861 53.21158 37.50009
# Shear Modulus (GPa) = 12.17549 27.41866 19.79707
#
# Velocity S-wave (km/s) = 2.55385 3.83243 3.25651
# Velocity P-wave (km/s) = 4.51307 6.93452 5.85045
#
# Compressibility (1/GPa) = 0.04589555
#
# Stress axis : x y z
#
# Youngs Moduli (GPa) = 28.39454 102.38198 60.44010
#
# Poissons Ratio (x) = 0.39249 -0.24287
# Poissons Ratio (y) = 0.10885 0.48366
# Poissons Ratio (z) = -0.11410 0.81930
#
# Static dielectric constant tensor:
#      x y z
#    x 1.690690 0.000000 0.000000 
#    y 0.000000 1.666690 0.000000 
#    z 0.000000 0.000000 1.637810 
# 
# From -- ./inp_files/7644.got.cif
#   From: 2010.05.17/outbox.cif.g08.bks.cpg/sg47_4_cif.got.tgz:7644.got - 2010.06.03 20:15:42.
