data_PCOD9381214
_publ_section_title
;
Structure prediction by ZEFSAII (Michael W. Deem and Ramdas Pophale) SiO2 
 PCOD9381214
Probable space group: P M M M
;
_chemical_formula_sum "Si O2"
_cell_formula_units_Z 64
_cell_length_a 7.618308
_cell_length_b 19.302963
_cell_length_c 22.590409
_cell_angle_alpha 90.000000
_cell_angle_beta 90.000000
_cell_angle_gamma 90.000000
_cell_volume 3322.053321
_symmetry_space_group_name_H-M "P M M M"
_symmetry_group_IT_number 47
_symmetry_cell_setting 'orthorhombic'
loop_
_space_group_symop_operation_xyz
x,y,z
-x,-y,z
x,-y,-z
-x,y,-z
-x,-y,-z
x,y,-z
-x,y,z
x,-y,z
loop_
_atom_site_type_symbol
_atom_site_label
_atom_site_fract_x
_atom_site_fract_y
_atom_site_fract_z
Si Si1 0.794334 0.275848 0.236577
Si Si2 0.285697 0.078843 0.567745
Si Si3 0.200877 0.924147 0.912155
Si Si4 0.293477 0.923014 0.222248
Si Si5 0.786737 0.224098 0.107995
Si Si6 0.292167 0.171055 0.325712
Si Si7 0.712080 0.424540 0.190297
Si Si8 0.708780 0.624367 0.063903
O O1 0.723516 0.237255 0.176419
O O2 0.728417 0.247939 0.299794
O O3 0.762758 0.357082 0.227095
O O4 0.000000 0.263670 0.235582
O O5 0.228217 0.090150 0.500000
O O6 0.500000 0.079503 0.566830
O O7 0.225063 0.138306 0.613285
O O8 0.235285 0.000000 0.585554
O O9 0.200744 0.923075 0.840614
O O10 0.277603 0.847352 0.922549
O O11 0.000000 0.924655 0.933293
O O12 0.279200 0.000000 0.928729
O O13 0.500000 0.908449 0.210518
O O14 0.217630 0.872463 0.270716
O O15 0.285046 0.000000 0.247727
O O16 0.736236 0.293505 0.073589
O O17 0.000000 0.220074 0.109258
O O18 0.500000 0.157123 0.326876
O O19 0.500000 0.424700 0.188392
O O20 0.770723 0.500000 0.211619
O O21 0.777835 0.411887 0.123074
O O22 0.500000 0.611201 0.062850
O O23 0.781181 0.603424 0.000000
#
# Coordination Sequence:
#
# PCOD9381214 Si02
#       8
#     8   8   8   8   8   8   8   8
#     4  10  19  30  44  65  92 120 150 182 222 270
#     4   8  14  25  41  62  90 126 168 210 246 276
#     4   9  16  26  39  55  78 107 140 178 219 263
#     4   9  16  23  33  54  82 109 139 178 223 265
#     4   9  17  29  43  60  84 114 146 181 223 267
#     4  10  17  25  41  63  88 118 155 197 233 268
#     4   9  18  33  52  72  95 121 144 171 213 264
#     4   9  18  31  48  70  91 113 143 177 214 258
#
# _framework density 19.265194000000001
#
# number of rings (size 3 to 8) (size 9 to 14) (size 15 to 20)
#    0.000    2.875    1.250    1.125    0.000    3.250 
#    0.000    1.250    0.000    1.875    0.000    7.000 
#    0.000    0.500    0.000    5.750    0.000    1.625 
#
# Total GULP energy -356522.340750 kJ/mol
# GULP energy per Si atom -5570.661574 kJ/mol
# Density = 1.922135 g / cm^3
# Si number density = 19.265194 Si / 1000 Ang^3
#
#
#
# Elastic Constant Matrix: (Units=GPa)
#
#
# Indices 1 2 3 4 5 6 
#
# 1 43.8480 2.6010 6.5901 0.0000 0.0000 0.0000
# 2 2.6010 104.3230 43.0886 0.0000 0.0000 0.0000
# 3 6.5901 43.0886 107.4717 0.0000 0.0000 0.0000
# 4 0.0000 0.0000 0.0000 105.2612 0.0000 0.0000
# 5 0.0000 0.0000 0.0000 0.0000 125.7803 0.0000
# 6 0.0000 0.0000 0.0000 0.0000 0.0000 -5.3037
#
#
#
# Elastic Compliance Matrix: (Units=1/GPa)
#
#
# Indices 1 2 3 4 5 6 
#
# 1 0.023018 0.000011 -0.001416 0.000000 0.000000 0.000000
# 2 0.000011 0.011488 -0.004607 0.000000 0.000000 0.000000
# 3 -0.001416 -0.004607 0.011238 0.000000 0.000000 0.000000
# 4 0.000000 0.000000 0.000000 0.009500 0.000000 0.000000
# 5 0.000000 0.000000 0.000000 0.000000 0.007950 0.000000
# 6 0.000000 0.000000 0.000000 0.000000 0.000000 -0.188549
#
#
# Mechanical properties :
#
#
# Convention : Reuss Voigt Hill
#
# Bulk Modulus (GPa) = 29.65447 40.02243 34.83845
# Shear Modulus (GPa) = -48.97610 58.70511 4.86451
#
# Velocity S-wave (km/s) = -5.04750 5.52614 1.59076
# Velocity P-wave (km/s) = 4.30621 7.84457 4.63647
#
# Compressibility (1/GPa) = 0.03372173
#
# Stress axis : x y z
#
# Youngs Moduli (GPa) = 43.44389 87.04746 88.97988
#
# Poissons Ratio (x) = -0.00095 0.12598
# Poissons Ratio (y) = -0.00047 0.40989
# Poissons Ratio (z) = 0.06151 0.40099
#
# Static dielectric constant tensor:
#      x y z
#    x 1.712040 0.000000 0.000000 
#    y 0.000000 1.741750 0.000000 
#    z 0.000000 0.000000 1.687910 
# 
# From -- ./inp_files/30131.got.cif
#   From: 2010.05.17/outbox.cif.g08.bks.cpg/sg47_16_cif.got.tgz:30131.got - 2010.06.03 20:15:42.
