data_PCOD9381078
_publ_section_title
;
Structure prediction by ZEFSAII (Michael W. Deem and Ramdas Pophale) SiO2 
 PCOD9381078
Probable space group: I M A 2
;
_chemical_formula_sum "Si O2"
_cell_formula_units_Z 32
_cell_length_a 9.000000
_cell_length_b 27.000000
_cell_length_c 18.000000
_cell_angle_alpha 90.000000
_cell_angle_beta 90.000000
_cell_angle_gamma 90.000000
_cell_volume 4374.000000
_symmetry_space_group_name_H-M "I M A 2"
_symmetry_group_IT_number 46
_symmetry_cell_setting 'orthorhombic'
loop_
_space_group_symop_operation_xyz
x,y,z
-x,-y,z
1/2-x,y,z
1/2+x,-y,z
1/2+x,1/2+y,1/2+z
1/2-x,1/2-y,1/2+z
-x,1/2+y,1/2+z
x,1/2-y,1/2+z
loop_
_atom_site_type_symbol
_atom_site_label
_atom_site_fract_x
_atom_site_fract_y
_atom_site_fract_z
Si Si1 0.578762 0.268566 0.891020
Si Si2 0.076098 0.861103 0.503590
Si Si3 0.576484 0.210373 0.028594
Si Si4 0.425129 0.862895 0.149651
Si Si5 0.569558 0.054266 0.393086
Si Si6 0.574556 0.726251 0.738853
Si Si7 0.924457 0.797800 0.617777
Si Si8 0.072164 0.446038 0.738482
O O1 0.750000 0.269867 0.864140
O O2 0.559440 0.315516 0.945649
O O3 0.465835 0.271805 0.824380
O O4 0.557546 0.219871 0.941695
O O5 0.250000 0.866700 0.517922
O O6 0.025145 0.909857 0.460339
O O7 0.000319 0.844582 0.579670
O O8 0.750000 0.223911 0.045056
O O9 0.552141 0.157386 0.065981
O O10 0.472320 0.249976 0.069205
O O11 0.250000 0.872441 0.161250
O O12 0.479235 0.817236 0.200956
O O13 0.521253 0.909650 0.173441
O O14 0.750000 0.052481 0.387377
O O15 0.500653 0.073543 0.315487
O O16 0.500000 0.000000 0.403304
O O17 0.750000 0.716790 0.726439
O O18 0.535743 0.778638 0.699780
O O19 0.750000 0.804969 0.613664
O O20 0.250000 0.449160 0.745292
O O21 0.000000 0.500000 0.727572
#
# Coordination Sequence:
#
# PCOD9381078 Si02
#       8
#     8   8   8   8   8   8   8   8
#     4   9  16  27  42  60  81 109 141 171 202 241
#     4   9  18  30  43  58  79 108 142 172 203 243
#     4   8  16  29  43  58  79 106 137 169 203 242
#     4  10  18  30  46  61  80 110 142 173 207 244
#     4  10  19  31  45  62  84 110 140 175 209 244
#     4  10  19  28  39  61  87 111 139 171 205 244
#     4   9  17  27  40  58  81 106 136 171 205 240
#     4  11  21  32  45  62  84 110 140 174 207 242
#
# _framework density 7.3159580000000002
#
# number of rings (size 3 to 8) (size 9 to 14) (size 15 to 20)
#    0.000    2.500    0.000    4.875    0.000    6.000 
#    0.000    0.000    0.000    0.000    0.000    0.000 
#    0.000    1.000    0.000    9.000    0.000    5.750 
#
# Total GULP energy -178149.700661 kJ/mol
# GULP energy per Si atom -5567.178146 kJ/mol
# Density = 0.729931 g / cm^3
# Si number density = 7.315958 Si / 1000 Ang^3
#
#
#
# Elastic Constant Matrix: (Units=GPa)
#
#
# Indices 1 2 3 4 5 6 
#
# 1 44.9118 15.9873 10.4954 0.0000 0.0000 0.0000
# 2 15.9873 41.8901 8.4023 0.0000 0.0000 0.0000
# 3 10.4954 8.4023 7.7688 0.0000 0.0000 0.0000
# 4 0.0000 0.0000 0.0000 21.9969 0.0000 0.0000
# 5 0.0000 0.0000 0.0000 0.0000 14.0867 0.0000
# 6 0.0000 0.0000 0.0000 0.0000 0.0000 21.2606
#
#
#
# Elastic Compliance Matrix: (Units=1/GPa)
#
#
# Indices 1 2 3 4 5 6 
#
# 1 0.033247 -0.004699 -0.039833 0.000000 0.000000 0.000000
# 2 -0.004699 0.031149 -0.027341 0.000000 0.000000 0.000000
# 3 -0.039833 -0.027341 0.212104 0.000000 0.000000 0.000000
# 4 0.000000 0.000000 0.000000 0.045461 0.000000 0.000000
# 5 0.000000 0.000000 0.000000 0.000000 0.070989 0.000000
# 6 0.000000 0.000000 0.000000 0.000000 0.000000 0.047035
#
#
# Mechanical properties :
#
#
# Convention : Reuss Voigt Hill
#
# Bulk Modulus (GPa) = 7.53278 18.26007 12.89643
# Shear Modulus (GPa) = 7.96199 15.44789 11.70494
#
# Velocity S-wave (km/s) = 2.33524 3.25278 2.83142
# Velocity P-wave (km/s) = 3.52569 5.15889 4.41841
#
# Compressibility (1/GPa) = 0.13275307
#
# Stress axis : x y z
#
# Youngs Moduli (GPa) = 30.07774 32.10337 4.71467
#
# Poissons Ratio (x) = 0.15085 0.18780
# Poissons Ratio (y) = 0.14133 0.12890
# Poissons Ratio (z) = 1.19810 0.87774
#
# Static dielectric constant tensor:
#      x y z
#    x 1.502100 0.000000 0.000000 
#    y 0.000000 1.491710 0.000000 
#    z 0.000000 0.000000 1.512150 
# 
# From -- ./inp_files/18665.got.cif
#   From: 2010.05.17/outbox.ucp.g08.bks.cvg/sg46_10_cif.got.tgz:18665.got - 2010.06.11 16:34:52.
