data_PCOD9381705
_publ_section_title
;
Structure prediction by ZEFSAII (Michael W. Deem and Ramdas Pophale) SiO2 
 PCOD9381705
Probable space group: P M M M
;
_chemical_formula_sum "Si O2"
_cell_formula_units_Z 64
_cell_length_a 24.795530
_cell_length_b 7.942194
_cell_length_c 15.206881
_cell_angle_alpha 90.000000
_cell_angle_beta 90.000000
_cell_angle_gamma 90.000000
_cell_volume 2994.704907
_symmetry_space_group_name_H-M "P M M M"
_symmetry_group_IT_number 47
_symmetry_cell_setting 'orthorhombic'
loop_
_space_group_symop_operation_xyz
x,y,z
-x,-y,z
x,-y,-z
-x,y,-z
-x,-y,-z
x,y,-z
-x,y,z
x,-y,z
loop_
_atom_site_type_symbol
_atom_site_label
_atom_site_fract_x
_atom_site_fract_y
_atom_site_fract_z
Si Si1 0.722131 0.205195 0.899639
Si Si2 0.564551 0.192128 0.907152
Si Si3 0.222835 0.300535 0.399175
Si Si4 0.155834 0.200942 0.901656
Si Si5 0.439852 0.793550 0.290114
Si Si6 0.102786 0.196511 0.400241
Si Si7 0.058422 0.304004 0.220616
Si Si8 0.324546 0.796837 0.717046
O O1 0.783688 0.261591 0.879483
O O2 0.684660 0.259881 0.818651
O O3 0.721290 0.000000 0.900247
O O4 0.709304 0.257941 0.000000
O O5 0.500000 0.176917 0.914151
O O6 0.568867 0.266244 0.810593
O O7 0.586885 0.000000 0.903953
O O8 0.583162 0.269341 0.000000
O O9 0.235932 0.253500 0.500000
O O10 0.213011 0.500000 0.395470
O O11 0.166170 0.213827 0.376717
O O12 0.272449 0.256670 0.337309
O O13 0.109335 0.236152 0.832531
O O14 0.160624 0.000000 0.906779
O O15 0.142111 0.264013 0.000000
O O16 0.500000 0.738824 0.320469
O O17 0.381446 0.744045 0.328123
O O18 0.442161 0.000000 0.289842
O O19 0.096171 0.262664 0.500000
O O20 0.069106 0.283215 0.324203
O O21 0.088582 0.000000 0.400411
O O22 0.056359 0.500000 0.199712
O O23 0.000000 0.226981 0.198019
O O24 0.325401 0.000000 0.719262
#
# Coordination Sequence:
#
# PCOD9381705 Si02
#       8
#     8   8   8   8   8   8   8   8
#     4   8  15  28  46  72 104 133 165 209 261 312
#     4   7   9  14  25  43  73 115 157 193 230 274
#     4  10  21  37  57  80 105 131 161 206 267 326
#     4   9  18  34  55  75  99 138 188 240 287 325
#     4   8  14  23  35  58  94 131 166 205 250 299
#     4  10  21  38  61  86 110 137 171 213 261 316
#     4  11  24  38  53  78 113 151 187 223 265 314
#     4  10  18  28  49  77 102 134 173 213 257 306
#
# _framework density 21.371054999999998
#
# number of rings (size 3 to 8) (size 9 to 14) (size 15 to 20)
#    0.000    2.875    0.000    3.750    0.000    4.750 
#    0.000    5.000    0.000    1.875    0.000    2.625 
#    0.000    0.000    0.000    4.250    0.000    3.750 
#
# Total GULP energy -356540.305246 kJ/mol
# GULP energy per Si atom -5570.942269 kJ/mol
# Density = 2.132241 g / cm^3
# Si number density = 21.371055 Si / 1000 Ang^3
#
#
#
# Elastic Constant Matrix: (Units=GPa)
#
#
# Indices 1 2 3 4 5 6 
#
# 1 120.9508 5.2725 37.2807 0.0000 0.0000 0.0000
# 2 5.2725 16.7167 0.3882 0.0000 0.0000 0.0000
# 3 37.2807 0.3882 38.7846 0.0000 0.0000 0.0000
# 4 0.0000 0.0000 0.0000 120.4556 0.0000 0.0000
# 5 0.0000 0.0000 0.0000 0.0000 2.3994 0.0000
# 6 0.0000 0.0000 0.0000 0.0000 0.0000 14.8298
#
#
#
# Elastic Compliance Matrix: (Units=1/GPa)
#
#
# Indices 1 2 3 4 5 6 
#
# 1 0.011950 -0.003503 -0.011452 0.000000 0.000000 0.000000
# 2 -0.003503 0.060861 0.002758 0.000000 0.000000 0.000000
# 3 -0.011452 0.002758 0.036764 0.000000 0.000000 0.000000
# 4 0.000000 0.000000 0.000000 0.008302 0.000000 0.000000
# 5 0.000000 0.000000 0.000000 0.000000 0.416765 0.000000
# 6 0.000000 0.000000 0.000000 0.000000 0.000000 0.067432
#
#
# Mechanical properties :
#
#
# Convention : Reuss Voigt Hill
#
# Bulk Modulus (GPa) = 11.73960 29.14830 20.44395
# Shear Modulus (GPa) = 7.63520 36.43767 22.03643
#
# Velocity S-wave (km/s) = 1.89220 4.13365 3.21461
# Velocity P-wave (km/s) = 3.20610 6.03750 4.83376
#
# Compressibility (1/GPa) = 0.08518179
#
# Stress axis : x y z
#
# Youngs Moduli (GPa) = 83.67944 16.43076 27.20075
#
# Poissons Ratio (x) = 0.05756 0.31150
# Poissons Ratio (y) = 0.29315 -0.07503
# Poissons Ratio (z) = 0.95829 -0.04532
#
# Static dielectric constant tensor:
#      x y z
#    x 1.836030 0.000000 0.000000 
#    y 0.000000 1.817160 0.000000 
#    z 0.000000 0.000000 1.812780 
# 
# From -- ./inp_files/25608.got.cif
#   From: 2010.05.17/outbox.cif.g08.bks.cpg/sg47_13_cif.got.tgz:25608.got - 2010.06.03 20:15:42.
