data_PCOD9381038
_publ_section_title
;
Structure prediction by ZEFSAII (Michael W. Deem and Ramdas Pophale) SiO2 
 PCOD9381038
Probable space group: I M A 2
;
_chemical_formula_sum "Si O2"
_cell_formula_units_Z 32
_cell_length_a 16.383887
_cell_length_b 4.834128
_cell_length_c 17.278165
_cell_angle_alpha 90.000000
_cell_angle_beta 90.000000
_cell_angle_gamma 90.000000
_cell_volume 1368.461888
_symmetry_space_group_name_H-M "I M A 2"
_symmetry_group_IT_number 46
_symmetry_cell_setting 'orthorhombic'
loop_
_space_group_symop_operation_xyz
x,y,z
-x,-y,z
1/2-x,y,z
1/2+x,-y,z
1/2+x,1/2+y,1/2+z
1/2-x,1/2-y,1/2+z
-x,1/2+y,1/2+z
x,1/2-y,1/2+z
loop_
_atom_site_type_symbol
_atom_site_label
_atom_site_fract_x
_atom_site_fract_y
_atom_site_fract_z
Si Si1 0.592561 0.897156 0.219400
Si Si2 0.844606 0.605603 0.554191
Si Si3 0.908344 0.392008 0.964483
Si Si4 0.655876 0.394246 0.309233
O O1 0.623617 0.789604 0.136857
O O2 0.604218 0.658504 0.282840
O O3 0.500000 0.000000 0.215853
O O4 0.646599 0.159746 0.243865
O O5 0.750000 0.523794 0.558447
O O6 0.898534 0.343212 0.529566
O O7 0.855507 0.845886 0.491051
O O8 0.877117 0.247906 0.886714
O O9 0.000000 0.500000 0.956236
O O10 0.750000 0.476228 0.318563
#
# Coordination Sequence:
#
# PCOD9381038 Si02
#       4
#     8   8   8   8
#     4  12  26  45  70 103 142 187 234 288 348 415
#     4  12  25  46  72 104 142 186 233 288 349 416
#     4  12  26  46  72 104 141 185 233 289 350 416
#     4  12  25  45  70 103 141 186 236 289 347 415
#
# _framework density 23.383914999999998
#
# number of rings (size 3 to 8) (size 9 to 14) (size 15 to 20)
#    0.000    0.000    0.000   11.250    0.000    2.000 
#    0.000    0.000    0.000    0.000    0.000    0.000 
#    0.000    0.000    0.000    0.000    0.000    0.000 
#
# Total GULP energy -89781.883310 kJ/mol
# GULP energy per Si atom -5611.367707 kJ/mol
# Density = 2.333069 g / cm^3
# Si number density = 23.383915 Si / 1000 Ang^3
#
#
#
# Elastic Constant Matrix: (Units=GPa)
#
#
# Indices 1 2 3 4 5 6 
#
# 1 143.0743 21.9388 55.5408 0.0000 0.0000 0.0000
# 2 21.9388 108.9800 22.3551 0.0000 0.0000 0.0000
# 3 55.5408 22.3551 95.4602 0.0000 0.0000 0.0000
# 4 0.0000 0.0000 0.0000 52.3317 0.0000 0.0000
# 5 0.0000 0.0000 0.0000 0.0000 37.7607 0.0000
# 6 0.0000 0.0000 0.0000 0.0000 0.0000 35.4096
#
#
#
# Elastic Compliance Matrix: (Units=1/GPa)
#
#
# Indices 1 2 3 4 5 6 
#
# 1 0.009092 -0.000783 -0.005106 0.000000 0.000000 0.000000
# 2 -0.000783 0.009706 -0.001818 0.000000 0.000000 0.000000
# 3 -0.005106 -0.001818 0.013872 0.000000 0.000000 0.000000
# 4 0.000000 0.000000 0.000000 0.019109 0.000000 0.000000
# 5 0.000000 0.000000 0.000000 0.000000 0.026483 0.000000
# 6 0.000000 0.000000 0.000000 0.000000 0.000000 0.028241
#
#
# Mechanical properties :
#
#
# Convention : Reuss Voigt Hill
#
# Bulk Modulus (GPa) = 57.94851 60.79820 59.37336
# Shear Modulus (GPa) = 39.16387 41.61239 40.38813
#
# Velocity S-wave (km/s) = 4.09690 4.22302 4.16044
# Velocity P-wave (km/s) = 6.87129 7.05939 6.96597
#
# Compressibility (1/GPa) = 0.01725670
#
# Stress axis : x y z
#
# Youngs Moduli (GPa) = 109.99050 103.02445 72.08628
#
# Poissons Ratio (x) = 0.08064 0.36810
# Poissons Ratio (y) = 0.08610 0.13103
# Poissons Ratio (z) = 0.56166 0.18726
#
# Static dielectric constant tensor:
#      x y z
#    x 1.817660 0.000000 0.000000 
#    y 0.000000 1.852110 0.000000 
#    z 0.000000 0.000000 1.911950 
# 
# From -- ./inp_files/19109.got.cif
#   From: 2010.05.17/outbox.cif.g08.bks.cpg/sg46_10_cif.got.tgz:19109.got - 2010.06.03 19:58:25.
