data_PCOD9381576
_publ_section_title
;
Structure prediction by ZEFSAII (Michael W. Deem and Ramdas Pophale) SiO2 
 PCOD9381576
Probable space group: P M M M
;
_chemical_formula_sum "Si O2"
_cell_formula_units_Z 64
_cell_length_a 19.713734
_cell_length_b 24.626348
_cell_length_c 7.426793
_cell_angle_alpha 90.000000
_cell_angle_beta 90.000000
_cell_angle_gamma 90.000000
_cell_volume 3605.539219
_symmetry_space_group_name_H-M "P M M M"
_symmetry_group_IT_number 47
_symmetry_cell_setting 'orthorhombic'
loop_
_space_group_symop_operation_xyz
x,y,z
-x,-y,z
x,-y,-z
-x,y,-z
-x,-y,-z
x,y,-z
-x,y,z
x,-y,z
loop_
_atom_site_type_symbol
_atom_site_label
_atom_site_fract_x
_atom_site_fract_y
_atom_site_fract_z
Si Si1 0.078030 0.061327 0.719369
Si Si2 0.719385 0.559687 0.779673
Si Si3 0.210437 0.668987 0.210645
Si Si4 0.158390 0.166207 0.279342
Si Si5 0.575829 0.726296 0.281732
Si Si6 0.289461 0.776893 0.295086
Si Si7 0.076589 0.273092 0.717030
Si Si8 0.425154 0.401464 0.211534
O O1 0.078603 0.061665 0.500000
O O2 0.128055 0.108856 0.778849
O O3 0.000000 0.072533 0.772688
O O4 0.095469 0.000000 0.776137
O O5 0.742675 0.500000 0.723758
O O6 0.764684 0.610730 0.722018
O O7 0.642003 0.569800 0.717493
O O8 0.719027 0.560387 0.000000
O O9 0.250422 0.718938 0.299491
O O10 0.130921 0.681200 0.230889
O O11 0.227953 0.672462 0.000000
O O12 0.159880 0.166722 0.500000
O O13 0.233918 0.182023 0.215858
O O14 0.108482 0.215363 0.224738
O O15 0.577990 0.726798 0.500000
O O16 0.500000 0.742495 0.225131
O O17 0.637312 0.763456 0.213826
O O18 0.585628 0.663461 0.227491
O O19 0.301599 0.795045 0.500000
O O20 0.074780 0.271836 0.500000
O O21 0.000000 0.280609 0.782049
O O22 0.500000 0.413836 0.288134
O O23 0.428091 0.414872 0.000000
#
# Coordination Sequence:
#
# PCOD9381576 Si02
#       8
#     8   8   8   8   8   8   8   8
#     4   8  12  17  27  46  74 105 131 155 185 221
#     4   9  17  28  41  58  79 101 126 157 191 228
#     4  10  18  28  43  61  80 100 124 157 194 231
#     4   8  13  21  34  53  76 102 130 157 186 224
#     4   9  16  25  38  55  76 102 129 158 192 229
#     4   9  16  26  40  56  77 104 131 159 193 233
#     4   9  17  29  45  62  80 103 127 155 193 234
#     4   9  16  26  41  59  77  99 128 158 187 223
#
# _framework density 17.750464999999998
#
# number of rings (size 3 to 8) (size 9 to 14) (size 15 to 20)
#    0.000    3.125    1.250    1.875    0.000    2.000 
#    0.000    1.250    0.000    3.750    0.000    4.375 
#    0.000    8.500    0.000   34.500    0.000   25.000 
#
# Total GULP energy -356717.954467 kJ/mol
# GULP energy per Si atom -5573.718039 kJ/mol
# Density = 1.771006 g / cm^3
# Si number density = 17.750465 Si / 1000 Ang^3
#
#
#
# Elastic Constant Matrix: (Units=GPa)
#
#
# Indices 1 2 3 4 5 6 
#
# 1 117.2695 63.1583 -4.1076 0.0000 0.0000 0.0000
# 2 63.1583 111.1027 -2.7558 0.0000 0.0000 0.0000
# 3 -4.1076 -2.7558 57.9312 0.0000 0.0000 0.0000
# 4 0.0000 0.0000 0.0000 7.1744 0.0000 0.0000
# 5 0.0000 0.0000 0.0000 0.0000 3.9556 0.0000
# 6 0.0000 0.0000 0.0000 0.0000 0.0000 29.7324
#
#
#
# Elastic Compliance Matrix: (Units=1/GPa)
#
#
# Indices 1 2 3 4 5 6 
#
# 1 0.012307 -0.006983 0.000540 0.000000 0.000000 0.000000
# 2 -0.006983 0.012973 0.000122 0.000000 0.000000 0.000000
# 3 0.000540 0.000122 0.017306 0.000000 0.000000 0.000000
# 4 0.000000 0.000000 0.000000 0.139385 0.000000 0.000000
# 5 0.000000 0.000000 0.000000 0.000000 0.252805 0.000000
# 6 0.000000 0.000000 0.000000 0.000000 0.000000 0.033633
#
#
# Mechanical properties :
#
#
# Convention : Reuss Voigt Hill
#
# Bulk Modulus (GPa) = 33.39380 44.32145 38.85762
# Shear Modulus (GPa) = 10.18266 23.50639 16.84453
#
# Velocity S-wave (km/s) = 2.39771 3.64300 3.08387
# Velocity P-wave (km/s) = 5.14967 6.53595 5.88378
#
# Compressibility (1/GPa) = 0.02994568
#
# Stress axis : x y z
#
# Youngs Moduli (GPa) = 81.25444 77.08216 57.78348
#
# Poissons Ratio (x) = 0.53824 -0.03123
# Poissons Ratio (y) = 0.56738 -0.00705
# Poissons Ratio (z) = -0.04391 -0.00941
#
# Static dielectric constant tensor:
#      x y z
#    x 1.628970 0.000000 0.000000 
#    y 0.000000 1.578990 0.000000 
#    z 0.000000 0.000000 1.711960 
# 
# From -- ./inp_files/11926.got.cif
#   From: 2010.05.17/outbox.cif.g08.bks.cpg/sg47_6_cif.got.tgz:11926.got - 2010.06.03 20:15:42.
