data_PCOD9381359
_publ_section_title
;
Structure prediction by ZEFSAII (Michael W. Deem and Ramdas Pophale) SiO2 
 PCOD9381359
Probable space group: P M M M
;
_chemical_formula_sum "Si O2"
_cell_formula_units_Z 48
_cell_length_a 15.609904
_cell_length_b 7.709930
_cell_length_c 17.994546
_cell_angle_alpha 90.000000
_cell_angle_beta 90.000000
_cell_angle_gamma 90.000000
_cell_volume 2165.666413
_symmetry_space_group_name_H-M "P M M M"
_symmetry_group_IT_number 47
_symmetry_cell_setting 'orthorhombic'
loop_
_space_group_symop_operation_xyz
x,y,z
-x,-y,z
x,-y,-z
-x,y,-z
-x,-y,-z
x,y,-z
-x,y,z
x,-y,z
loop_
_atom_site_type_symbol
_atom_site_label
_atom_site_fract_x
_atom_site_fract_y
_atom_site_fract_z
Si Si1 0.161786 0.289841 0.676235
Si Si2 0.720169 0.204771 0.135108
Si Si3 0.403547 0.294457 0.000000
Si Si4 0.098423 0.797880 0.839584
Si Si5 0.591972 0.291411 0.264645
Si Si6 0.668039 0.711479 0.585667
Si Si7 0.000000 0.289021 0.418373
O O1 0.166354 0.500000 0.686223
O O2 0.134622 0.213543 0.755433
O O3 0.244530 0.239231 0.628374
O O4 0.083559 0.239451 0.624667
O O5 0.816182 0.279871 0.120622
O O6 0.673365 0.248625 0.213206
O O7 0.731738 0.000000 0.135233
O O8 0.652049 0.248444 0.071877
O O9 0.412223 0.500000 0.000000
O O10 0.500000 0.219432 0.000000
O O11 0.000000 0.725850 0.844460
O O12 0.090405 0.000000 0.860986
O O13 0.500000 0.229315 0.233989
O O14 0.590269 0.500000 0.265216
O O15 0.600805 0.234984 0.350626
O O16 0.660382 0.772306 0.500000
O O17 0.666379 0.500000 0.581562
O O18 0.000000 0.500000 0.421233
O O19 0.000000 0.218825 0.500000
#
# Coordination Sequence:
#
# PCOD9381359 Si02
#       7
#     8   8   4   8   8   8   4
#     4  10  17  28  49  74 101 141 193 245 293 342
#     4  11  23  40  64  91 120 155 192 232 280 339
#     4  11  25  45  70  99 128 154 181 223 280 335
#     4  10  21  37  57  82 115 153 192 233 280 335
#     4  10  20  34  55  83 115 152 194 243 298 350
#     4   9  17  29  47  74 109 148 193 246 298 346
#     4   9  16  24  39  69 103 132 177 244 305 347
#
# _framework density 22.164078
#
# number of rings (size 3 to 8) (size 9 to 14) (size 15 to 20)
#    0.000    2.000    2.500    1.750    0.000    6.000 
#    0.000    2.083    0.000    6.500    0.000    1.167 
#    0.000    0.000    0.000    0.000    0.000    0.000 
#
# Total GULP energy -267438.758702 kJ/mol
# GULP energy per Si atom -5571.640806 kJ/mol
# Density = 2.211363 g / cm^3
# Si number density = 22.164078 Si / 1000 Ang^3
#
#
#
# Elastic Constant Matrix: (Units=GPa)
#
#
# Indices 1 2 3 4 5 6 
#
# 1 213.4934 13.7895 52.7602 0.0000 0.0000 0.0000
# 2 13.7895 40.8964 -0.2731 0.0000 0.0000 0.0000
# 3 52.7602 -0.2731 94.4705 0.0000 0.0000 0.0000
# 4 0.0000 0.0000 0.0000 22.3222 0.0000 0.0000
# 5 0.0000 0.0000 0.0000 0.0000 16.9800 0.0000
# 6 0.0000 0.0000 0.0000 0.0000 0.0000 8.7584
#
#
#
# Elastic Compliance Matrix: (Units=1/GPa)
#
#
# Indices 1 2 3 4 5 6 
#
# 1 0.005578 -0.001902 -0.003121 0.000000 0.000000 0.000000
# 2 -0.001902 0.025101 0.001135 0.000000 0.000000 0.000000
# 3 -0.003121 0.001135 0.012331 0.000000 0.000000 0.000000
# 4 0.000000 0.000000 0.000000 0.044798 0.000000 0.000000
# 5 0.000000 0.000000 0.000000 0.000000 0.058893 0.000000
# 6 0.000000 0.000000 0.000000 0.000000 0.000000 0.114176
#
#
# Mechanical properties :
#
#
# Convention : Reuss Voigt Hill
#
# Bulk Modulus (GPa) = 28.38107 53.49038 40.93573
# Shear Modulus (GPa) = 17.83178 28.45103 23.14140
#
# Velocity S-wave (km/s) = 2.83951 3.58670 3.23475
# Velocity P-wave (km/s) = 4.85625 6.42952 5.69745
#
# Compressibility (1/GPa) = 0.03523475
#
# Stress axis : x y z
#
# Youngs Moduli (GPa) = 179.27457 39.83937 81.09331
#
# Poissons Ratio (x) = 0.07576 0.25307
# Poissons Ratio (y) = 0.34092 -0.09201
# Poissons Ratio (z) = 0.55947 -0.04520
#
# Static dielectric constant tensor:
#      x y z
#    x 1.889080 0.000000 0.000000 
#    y 0.000000 1.842550 0.000000 
#    z 0.000000 0.000000 1.818770 
# 
# From -- ./inp_files/27993.got.cif
#   From: 2010.05.17/outbox.cif.g08.bks.cpg/sg47_14_cif.got.tgz:27993.got - 2010.06.03 20:15:42.
