data_PCOD9381992
_publ_section_title
;
Structure prediction by ZEFSAII (Michael W. Deem and Ramdas Pophale) SiO2 
 PCOD9381992
Probable space group: P M M M
;
_chemical_formula_sum "Si O2"
_cell_formula_units_Z 60
_cell_length_a 14.717070
_cell_length_b 14.619624
_cell_length_c 14.530329
_cell_angle_alpha 90.000000
_cell_angle_beta 90.000000
_cell_angle_gamma 90.000000
_cell_volume 3126.316960
_symmetry_space_group_name_H-M "P M M M"
_symmetry_group_IT_number 47
_symmetry_cell_setting 'orthorhombic'
loop_
_space_group_symop_operation_xyz
x,y,z
-x,-y,z
x,-y,-z
-x,y,-z
-x,-y,-z
x,y,-z
-x,y,z
x,-y,z
loop_
_atom_site_type_symbol
_atom_site_label
_atom_site_fract_x
_atom_site_fract_y
_atom_site_fract_z
Si Si1 0.640291 0.899886 0.140178
Si Si2 0.403547 0.304218 0.894839
Si Si3 0.104125 0.000000 0.611442
Si Si4 0.897825 0.273109 0.763886
Si Si5 0.217466 0.391169 0.107773
Si Si6 0.142583 0.896902 0.891613
Si Si7 0.396114 0.894914 0.358297
Si Si8 0.207077 0.813652 0.605251
O O1 0.601996 0.805622 0.101999
O O2 0.748282 0.895584 0.122831
O O3 0.616600 0.897110 0.248087
O O4 0.609617 0.000000 0.106025
O O5 0.500000 0.329790 0.850211
O O6 0.310394 0.344032 0.856002
O O7 0.405143 0.338457 0.000000
O O8 0.159628 0.909344 0.636435
O O9 0.100720 0.000000 0.500000
O O10 0.000000 0.000000 0.644854
O O11 0.863187 0.353238 0.830131
O O12 0.895289 0.182090 0.827424
O O13 0.829499 0.258218 0.678870
O O14 0.000000 0.286923 0.730186
O O15 0.225554 0.500000 0.111490
O O16 0.204868 0.364103 0.000000
O O17 0.111894 0.000000 0.868140
O O18 0.123971 0.881235 0.000000
O O19 0.500000 0.868334 0.379951
O O20 0.314855 0.831629 0.392937
O O21 0.382650 0.000000 0.390696
O O22 0.179255 0.794521 0.500000
#
# Coordination Sequence:
#
# PCOD9381992 Si02
#       8
#     8   8   4   8   8   8   8   8
#     4  10  18  30  49  75 115 165 205 238 278 334
#     4  10  19  31  51  81 116 154 198 243 287 341
#     4   9  18  32  51  75 106 150 198 237 279 337
#     4  12  25  39  60  87 114 148 196 251 302 360
#     4  10  22  42  65  88 117 151 191 245 308 368
#     4  10  20  34  53  77 112 158 200 237 283 343
#     4  10  19  31  50  77 111 154 204 251 293 337
#     4  11  22  38  57  81 116 155 196 246 298 351
#
# _framework density 19.191913
#
# number of rings (size 3 to 8) (size 9 to 14) (size 15 to 20)
#    0.000    1.667    3.333    1.600    0.933    4.533 
#    0.000    4.000    0.000    0.400    0.000    0.933 
#    0.000    0.000    0.000    5.200    0.000    0.133 
#
# Total GULP energy -335027.994980 kJ/mol
# GULP energy per Si atom -5583.799916 kJ/mol
# Density = 1.914823 g / cm^3
# Si number density = 19.191913 Si / 1000 Ang^3
#
#
#
# Elastic Constant Matrix: (Units=GPa)
#
#
# Indices 1 2 3 4 5 6 
#
# 1 118.5670 19.7510 19.0012 0.0000 0.0000 0.0000
# 2 19.7510 53.0367 20.8545 0.0000 0.0000 0.0000
# 3 19.0012 20.8545 77.8231 0.0000 0.0000 0.0000
# 4 0.0000 0.0000 0.0000 13.1651 0.0000 0.0000
# 5 0.0000 0.0000 0.0000 0.0000 8.2997 0.0000
# 6 0.0000 0.0000 0.0000 0.0000 0.0000 -6.8562
#
#
#
# Elastic Compliance Matrix: (Units=1/GPa)
#
#
# Indices 1 2 3 4 5 6 
#
# 1 0.009141 -0.002824 -0.001475 0.000000 0.000000 0.000000
# 2 -0.002824 0.021948 -0.005192 0.000000 0.000000 0.000000
# 3 -0.001475 -0.005192 0.014601 0.000000 0.000000 0.000000
# 4 0.000000 0.000000 0.000000 0.075959 0.000000 0.000000
# 5 0.000000 0.000000 0.000000 0.000000 0.120486 0.000000
# 6 0.000000 0.000000 0.000000 0.000000 0.000000 -0.145853
#
#
# Mechanical properties :
#
#
# Convention : Reuss Voigt Hill
#
# Bulk Modulus (GPa) = 37.44216 40.96004 39.20110
# Shear Modulus (GPa) = 40.26839 15.57637 27.92238
#
# Velocity S-wave (km/s) = 4.58558 2.85197 3.81846
# Velocity P-wave (km/s) = 6.89843 5.67747 6.31752
#
# Compressibility (1/GPa) = 0.02670786
#
# Stress axis : x y z
#
# Youngs Moduli (GPa) = 109.39865 45.56198 68.48792
#
# Poissons Ratio (x) = 0.12867 0.10102
# Poissons Ratio (y) = 0.30895 0.35559
# Poissons Ratio (z) = 0.16137 0.23656
#
# Static dielectric constant tensor:
#      x y z
#    x 1.722600 0.000000 0.000000 
#    y 0.000000 1.645810 0.000000 
#    z 0.000000 0.000000 1.680420 
# 
# From -- ./inp_files/23942.got.cif
#   From: 2010.05.17/outbox.cif.g08.bks.cpg/sg47_12_cif.got.tgz:23942.got - 2010.06.03 20:15:42.
