data_PCOD9381349
_publ_section_title
;
Structure prediction by ZEFSAII (Michael W. Deem and Ramdas Pophale) SiO2 
 PCOD9381349
Probable space group: P M M M
;
_chemical_formula_sum "Si O2"
_cell_formula_units_Z 52
_cell_length_a 15.387777
_cell_length_b 23.672167
_cell_length_c 7.759959
_cell_angle_alpha 90.000000
_cell_angle_beta 90.000000
_cell_angle_gamma 90.000000
_cell_volume 2826.658394
_symmetry_space_group_name_H-M "P M M M"
_symmetry_group_IT_number 47
_symmetry_cell_setting 'orthorhombic'
loop_
_space_group_symop_operation_xyz
x,y,z
-x,-y,z
x,-y,-z
-x,y,-z
-x,-y,-z
x,y,-z
-x,y,z
x,-y,z
loop_
_atom_site_type_symbol
_atom_site_label
_atom_site_fract_x
_atom_site_fract_y
_atom_site_fract_z
Si Si1 0.099411 0.290813 0.204124
Si Si2 0.592558 0.933113 0.207074
Si Si3 0.899490 0.500000 0.288529
Si Si4 0.099147 0.163974 0.708363
Si Si5 0.781784 0.935783 0.297027
Si Si6 0.596798 0.566634 0.709577
Si Si7 0.782668 0.395239 0.704640
O O1 0.128298 0.226774 0.242146
O O2 0.167969 0.336484 0.269136
O O3 0.000000 0.298266 0.274429
O O4 0.094131 0.297762 0.000000
O O5 0.500000 0.908845 0.267109
O O6 0.683602 0.913062 0.278961
O O7 0.590871 0.000000 0.248819
O O8 0.595456 0.928382 0.000000
O O9 0.901113 0.500000 0.500000
O O10 0.845935 0.554972 0.229932
O O11 0.000000 0.500000 0.232578
O O12 0.100195 0.161749 0.500000
O O13 0.154770 0.111551 0.776285
O O14 0.000000 0.158430 0.767614
O O15 0.800557 0.940792 0.500000
O O16 0.787435 0.000000 0.224325
O O17 0.594635 0.570561 0.500000
O O18 0.500000 0.584513 0.770115
O O19 0.607324 0.500000 0.750504
O O20 0.683673 0.598657 0.771602
O O21 0.775734 0.404701 0.500000
#
# Coordination Sequence:
#
# PCOD9381349 Si02
#       7
#     8   8   4   8   8   8   8
#     4  10  21  35  49  66  90 122 159 197 236 277
#     4   8  14  25  41  62  90 124 157 184 215 264
#     4   9  16  24  38  66  98 121 147 187 228 267
#     4   9  18  33  51  69  91 122 158 191 226 276
#     4   9  17  28  45  72 100 121 146 187 239 286
#     4   8  13  23  42  70 100 124 151 190 231 271
#     4  10  17  28  48  72  95 123 157 191 231 276
#
# _framework density 18.396280000000001
#
# number of rings (size 3 to 8) (size 9 to 14) (size 15 to 20)
#    0.000    3.000    0.769    1.846    0.000    2.769 
#    0.000    3.462    0.000    2.769    0.000    7.538 
#    0.000    0.000    0.000    0.000    0.000    0.000 
#
# Total GULP energy -289554.638495 kJ/mol
# GULP energy per Si atom -5568.358433 kJ/mol
# Density = 1.835441 g / cm^3
# Si number density = 18.396280 Si / 1000 Ang^3
#
#
#
# Elastic Constant Matrix: (Units=GPa)
#
#
# Indices 1 2 3 4 5 6 
#
# 1 159.3212 97.6918 6.3823 0.0000 0.0000 0.0000
# 2 97.6918 103.9472 -3.5443 0.0000 0.0000 0.0000
# 3 6.3823 -3.5443 19.0889 0.0000 0.0000 0.0000
# 4 0.0000 0.0000 0.0000 -37.5407 0.0000 0.0000
# 5 0.0000 0.0000 0.0000 0.0000 73.4500 0.0000
# 6 0.0000 0.0000 0.0000 0.0000 0.0000 4.5543
#
#
#
# Elastic Compliance Matrix: (Units=1/GPa)
#
#
# Indices 1 2 3 4 5 6 
#
# 1 0.015991 -0.015308 -0.008189 0.000000 0.000000 0.000000
# 2 -0.015308 0.024336 0.009637 0.000000 0.000000 0.000000
# 3 -0.008189 0.009637 0.056914 0.000000 0.000000 0.000000
# 4 0.000000 0.000000 0.000000 -0.026638 0.000000 0.000000
# 5 0.000000 0.000000 0.000000 0.000000 0.013615 0.000000
# 6 0.000000 0.000000 0.000000 0.000000 0.000000 0.219574
#
#
# Mechanical properties :
#
#
# Convention : Reuss Voigt Hill
#
# Bulk Modulus (GPa) = 14.38436 53.71299 34.04867
# Shear Modulus (GPa) = 14.09701 20.21455 17.15578
#
# Velocity S-wave (km/s) = 2.77121 3.31847 3.05711
# Velocity P-wave (km/s) = 4.25154 6.62904 5.56865
#
# Compressibility (1/GPa) = 0.06951996
#
# Stress axis : x y z
#
# Youngs Moduli (GPa) = 62.53424 41.09178 17.57049
#
# Poissons Ratio (x) = 0.62904 0.14388
# Poissons Ratio (y) = 0.95728 -0.16932
# Poissons Ratio (z) = 0.51209 -0.39599
#
# Static dielectric constant tensor:
#      x y z
#    x 1.672860 0.000000 0.000000 
#    y 0.000000 1.605880 0.000000 
#    z 0.000000 0.000000 1.672150 
# 
# From -- ./inp_files/7658.got.cif
#   From: 2010.05.17/outbox.cif.g08.bks.cpg/sg47_4_cif.got.tgz:7658.got - 2010.06.03 20:15:42.
