data_PCOD9381209
_publ_section_title
;
Structure prediction by ZEFSAII (Michael W. Deem and Ramdas Pophale) SiO2 
 PCOD9381209
Probable space group: P M M M
;
_chemical_formula_sum "Si O2"
_cell_formula_units_Z 48
_cell_length_a 22.283193
_cell_length_b 11.640095
_cell_length_c 12.695485
_cell_angle_alpha 90.000000
_cell_angle_beta 90.000000
_cell_angle_gamma 90.000000
_cell_volume 3292.935646
_symmetry_space_group_name_H-M "P M M M"
_symmetry_group_IT_number 47
_symmetry_cell_setting 'orthorhombic'
loop_
_space_group_symop_operation_xyz
x,y,z
-x,-y,z
x,-y,-z
-x,y,-z
-x,-y,-z
x,y,-z
-x,y,z
x,-y,z
loop_
_atom_site_type_symbol
_atom_site_label
_atom_site_fract_x
_atom_site_fract_y
_atom_site_fract_z
Si Si1 0.255346 0.136303 0.122151
Si Si2 0.072042 0.135563 0.000000
Si Si3 0.378012 0.257162 0.872386
Si Si4 0.500000 0.865739 0.871257
Si Si5 0.928421 0.132162 0.624449
Si Si6 0.860932 0.746327 0.804408
Si Si7 0.325176 0.500000 0.128024
Si Si8 0.816933 0.500000 0.127573
O O1 0.321674 0.175973 0.152757
O O2 0.204172 0.194404 0.190286
O O3 0.250335 0.000000 0.125207
O O4 0.245692 0.174660 0.000000
O O5 0.099981 0.196055 0.102282
O O6 0.000000 0.144657 0.000000
O O7 0.088101 0.000000 0.000000
O O8 0.440347 0.201911 0.835973
O O9 0.359583 0.384921 0.836735
O O10 0.381975 0.261728 0.000000
O O11 0.500000 0.000000 0.839649
O O12 0.500000 0.865998 0.000000
O O13 0.916782 0.145435 0.500000
O O14 0.893285 0.221403 0.696252
O O15 0.000000 0.143853 0.640499
O O16 0.912574 0.000000 0.654405
O O17 0.849187 0.613354 0.828720
O O18 0.254363 0.500000 0.156226
O O19 0.325836 0.500000 0.000000
O O20 0.820039 0.500000 0.000000
#
# Coordination Sequence:
#
# PCOD9381209 Si02
#       8
#     8   4   8   4   8   8   4   4
#     4  10  17  25  40  64  90 115 153 199 242 287
#     4  11  22  33  47  71  99 119 147 198 249 293
#     4   9  16  25  37  54  79 116 157 194 233 275
#     4   9  16  25  35  51  79 114 154 201 244 273
#     4   9  19  37  58  76  95 121 155 198 247 296
#     4  12  20  32  50  71  94 128 162 196 240 291
#     4   9  16  27  40  54  80 120 161 197 230 271
#     4  11  20  34  46  66 101 136 162 197 239 289
#
# _framework density 14.576658999999999
#
# number of rings (size 3 to 8) (size 9 to 14) (size 15 to 20)
#    0.000    2.000    3.333    3.000    0.000    3.667 
#    0.000    4.167    0.000    1.000    0.000    0.000 
#    0.000    0.000    0.000    0.750    0.000   10.250 
#
# Total GULP energy -267602.071122 kJ/mol
# GULP energy per Si atom -5575.043148 kJ/mol
# Density = 1.454348 g / cm^3
# Si number density = 14.576659 Si / 1000 Ang^3
#
#
#
# Elastic Constant Matrix: (Units=GPa)
#
#
# Indices 1 2 3 4 5 6 
#
# 1 99.2488 66.0149 32.8310 0.0000 0.0000 0.0000
# 2 66.0149 125.6033 33.2791 0.0000 0.0000 0.0000
# 3 32.8310 33.2791 33.8918 0.0000 0.0000 0.0000
# 4 0.0000 0.0000 0.0000 15.2517 0.0000 0.0000
# 5 0.0000 0.0000 0.0000 0.0000 4.8540 0.0000
# 6 0.0000 0.0000 0.0000 0.0000 0.0000 -0.3270
#
#
#
# Elastic Compliance Matrix: (Units=1/GPa)
#
#
# Indices 1 2 3 4 5 6 
#
# 1 0.018127 -0.006589 -0.011090 0.000000 0.000000 0.000000
# 2 -0.006589 0.013156 -0.006536 0.000000 0.000000 0.000000
# 3 -0.011090 -0.006536 0.046666 0.000000 0.000000 0.000000
# 4 0.000000 0.000000 0.000000 0.065566 0.000000 0.000000
# 5 0.000000 0.000000 0.000000 0.000000 0.206017 0.000000
# 6 0.000000 0.000000 0.000000 0.000000 0.000000 -3.058321
#
#
# Mechanical properties :
#
#
# Convention : Reuss Voigt Hill
#
# Bulk Modulus (GPa) = 33.87500 58.11043 45.99271
# Shear Modulus (GPa) = -1.88642 12.39700 5.25529
#
# Velocity S-wave (km/s) = -1.13884 2.91944 1.90082
# Velocity P-wave (km/s) = 4.64332 7.16353 6.03641
#
# Compressibility (1/GPa) = 0.02952030
#
# Stress axis : x y z
#
# Youngs Moduli (GPa) = 55.16764 76.00959 21.42895
#
# Poissons Ratio (x) = 0.50081 0.23764
# Poissons Ratio (y) = 0.36349 0.14006
# Poissons Ratio (z) = 0.61178 0.49679
#
# Static dielectric constant tensor:
#      x y z
#    x 1.486360 0.000000 0.000000 
#    y 0.000000 1.493760 0.000000 
#    z 0.000000 0.000000 1.454260 
# 
# From -- ./inp_files/19130.got.cif
#   From: 2010.05.17/outbox.cif.g08.bks.cpg/sg47_10_cif.got.tgz:19130.got - 2010.06.03 20:15:42.
