data_PCOD9381212
_publ_section_title
;
Structure prediction by ZEFSAII (Michael W. Deem and Ramdas Pophale) SiO2 
 PCOD9381212
Probable space group: P M M M
;
_chemical_formula_sum "Si O2"
_cell_formula_units_Z 60
_cell_length_a 29.652236
_cell_length_b 7.248145
_cell_length_c 13.844649
_cell_angle_alpha 90.000000
_cell_angle_beta 90.000000
_cell_angle_gamma 90.000000
_cell_volume 2975.543273
_symmetry_space_group_name_H-M "P M M M"
_symmetry_group_IT_number 47
_symmetry_cell_setting 'orthorhombic'
loop_
_space_group_symop_operation_xyz
x,y,z
-x,-y,z
x,-y,-z
-x,y,-z
-x,-y,-z
x,y,-z
-x,y,z
x,-y,z
loop_
_atom_site_type_symbol
_atom_site_label
_atom_site_fract_x
_atom_site_fract_y
_atom_site_fract_z
Si Si1 0.702331 0.774899 0.110467
Si Si2 0.897055 0.224927 0.802717
Si Si3 0.450661 0.721608 0.887434
Si Si4 0.372894 0.204859 0.748010
Si Si5 0.052517 0.775805 0.391446
Si Si6 0.550058 0.776163 0.612848
Si Si7 0.052238 0.224391 0.000000
Si Si8 0.194396 0.776321 0.890049
O O1 0.669660 0.710506 0.196315
O O2 0.754161 0.719695 0.128128
O O3 0.700183 0.000000 0.110725
O O4 0.689816 0.719192 0.000000
O O5 0.919089 0.285401 0.701749
O O6 0.923880 0.281671 0.899922
O O7 0.845182 0.282037 0.818661
O O8 0.898272 0.000000 0.801894
O O9 0.500000 0.783481 0.854241
O O10 0.448301 0.500000 0.875535
O O11 0.409761 0.808554 0.832493
O O12 0.447505 0.760986 0.000000
O O13 0.405013 0.292081 0.666441
O O14 0.359208 0.000000 0.713706
O O15 0.067108 0.718543 0.500000
O O16 0.000000 0.723417 0.379590
O O17 0.053738 0.000000 0.391190
O O18 0.552985 0.734919 0.500000
O O19 0.500000 0.712623 0.645487
O O20 0.550151 0.000000 0.623856
O O21 0.000000 0.278870 0.000000
O O22 0.053982 0.000000 0.000000
O O23 0.194833 0.000000 0.889139
O O24 0.182584 0.722108 0.000000
#
# Coordination Sequence:
#
# PCOD9381212 Si02
#       8
#     8   8   8   8   8   8   4   8
#     4   8  14  22  32  48  69  86 103 137 178 210
#     4   9  13  17  25  34  45  64  89 115 150 200
#     4   9  18  30  40  53  79 110 128 141 176 229
#     4  10  17  25  41  61  75  92 126 163 188 211
#     4   8  13  19  24  30  42  62  89 122 160 198
#     4   8  14  24  37  54  75  95 115 144 184 225
#     4   9  14  16  20  34  50  60  80 118 154 181
#     4   8  12  19  28  38  54  75  95 116 158 214
#
# _framework density 20.164384999999999
#
# number of rings (size 3 to 8) (size 9 to 14) (size 15 to 20)
#    0.000    3.400    0.667    3.200    0.000    3.200 
#    0.000    0.667    0.000    1.200    0.000    7.467 
#    0.000    0.000    0.000    0.000    0.000    0.000 
#
# Total GULP energy -334454.351125 kJ/mol
# GULP energy per Si atom -5574.239185 kJ/mol
# Density = 2.011849 g / cm^3
# Si number density = 20.164385 Si / 1000 Ang^3
#
#
#
# Elastic Constant Matrix: (Units=GPa)
#
#
# Indices 1 2 3 4 5 6 
#
# 1 132.5181 2.0177 89.7863 0.0000 0.0000 0.0000
# 2 2.0177 87.1031 5.9402 0.0000 0.0000 0.0000
# 3 89.7863 5.9402 158.0399 0.0000 0.0000 0.0000
# 4 0.0000 0.0000 0.0000 4.1209 0.0000 0.0000
# 5 0.0000 0.0000 0.0000 0.0000 39.9678 0.0000
# 6 0.0000 0.0000 0.0000 0.0000 0.0000 -11.0773
#
#
#
# Elastic Compliance Matrix: (Units=1/GPa)
#
#
# Indices 1 2 3 4 5 6 
#
# 1 0.012272 0.000192 -0.006979 0.000000 0.000000 0.000000
# 2 0.000192 0.011513 -0.000542 0.000000 0.000000 0.000000
# 3 -0.006979 -0.000542 0.010313 0.000000 0.000000 0.000000
# 4 0.000000 0.000000 0.000000 0.242663 0.000000 0.000000
# 5 0.000000 0.000000 0.000000 0.000000 0.025020 0.000000
# 6 0.000000 0.000000 0.000000 0.000000 0.000000 -0.090275
#
#
# Mechanical properties :
#
#
# Convention : Reuss Voigt Hill
#
# Bulk Modulus (GPa) = 51.44111 63.68327 57.56219
# Shear Modulus (GPa) = 21.49206 25.26343 23.37775
#
# Velocity S-wave (km/s) = 3.26827 3.54344 3.40863
# Velocity P-wave (km/s) = 6.30939 6.95643 6.64079
#
# Compressibility (1/GPa) = 0.01943971
#
# Stress axis : x y z
#
# Youngs Moduli (GPa) = 81.48717 86.85723 96.96592
#
# Poissons Ratio (x) = -0.01665 0.67674
# Poissons Ratio (y) = -0.01562 0.05252
# Poissons Ratio (z) = 0.56871 0.04705
#
# Static dielectric constant tensor:
#      x y z
#    x 1.712690 0.000000 0.000000 
#    y 0.000000 1.835660 0.000000 
#    z 0.000000 0.000000 1.709460 
# 
# From -- ./inp_files/25645.got.cif
#   From: 2010.05.17/outbox.cif.g08.bks.cpg/sg47_13_cif.got.tgz:25645.got - 2010.06.03 20:15:42.
