data_PCOD9381721
_publ_section_title
;
Structure prediction by ZEFSAII (Michael W. Deem and Ramdas Pophale) SiO2 
 PCOD9381721
Probable space group: P M M M
;
_chemical_formula_sum "Si O2"
_cell_formula_units_Z 48
_cell_length_a 22.480694
_cell_length_b 11.721491
_cell_length_c 12.805360
_cell_angle_alpha 90.000000
_cell_angle_beta 90.000000
_cell_angle_gamma 90.000000
_cell_volume 3374.305230
_symmetry_space_group_name_H-M "P M M M"
_symmetry_group_IT_number 47
_symmetry_cell_setting 'orthorhombic'
loop_
_space_group_symop_operation_xyz
x,y,z
-x,-y,z
x,-y,-z
-x,y,-z
-x,-y,-z
x,y,-z
-x,y,z
x,-y,z
loop_
_atom_site_type_symbol
_atom_site_label
_atom_site_fract_x
_atom_site_fract_y
_atom_site_fract_z
Si Si1 0.432682 0.000000 0.754163
Si Si2 0.248836 0.759741 0.626037
Si Si3 0.639099 0.364601 0.294948
Si Si4 0.869785 0.367509 0.627201
Si Si5 0.000000 0.638366 0.619545
Si Si6 0.431650 0.236605 0.877465
Si Si7 0.689771 0.000000 0.375268
Si Si8 0.568151 0.360765 0.500000
O O1 0.428941 0.111226 0.827084
O O2 0.500000 0.000000 0.705791
O O3 0.375128 0.000000 0.678939
O O4 0.253940 0.745853 0.500000
O O5 0.294574 0.675484 0.682117
O O6 0.182506 0.719840 0.655370
O O7 0.271782 0.887062 0.651191
O O8 0.635202 0.500000 0.293114
O O9 0.611884 0.313814 0.190254
O O10 0.600890 0.321603 0.395084
O O11 0.872962 0.369145 0.500000
O O12 0.857336 0.500000 0.657759
O O13 0.935625 0.332028 0.666169
O O14 0.000000 0.500000 0.614835
O O15 0.000000 0.681448 0.500000
O O16 0.500000 0.277639 0.865464
O O17 0.417757 0.233904 0.000000
O O18 0.680687 0.000000 0.500000
O O19 0.569499 0.500000 0.500000
O O20 0.500000 0.324171 0.500000
#
# Coordination Sequence:
#
# PCOD9381721 Si02
#       8
#     4   8   8   8   4   8   4   4
#     4  10  19  35  54  67  80 106 149 192 229 267
#     4  10  18  29  43  61  88 118 148 181 220 266
#     4  11  20  30  46  66  89 116 145 177 220 274
#     4   8  13  21  37  59  84 115 149 182 213 246
#     4   7  10  18  32  55  83 111 148 186 210 234
#     4  10  21  36  52  67  83 108 145 187 228 270
#     4  10  20  32  45  65  90 115 144 183 229 273
#     4   9  18  30  42  59  85 114 142 172 210 263
#
# _framework density 14.225151
#
# number of rings (size 3 to 8) (size 9 to 14) (size 15 to 20)
#    0.000    2.500    2.500    2.250    0.000    3.167 
#    0.000    0.833    0.000    0.500    0.000    3.500 
#    0.000    0.000    0.000    0.750    0.000   10.583 
#
# Total GULP energy -267242.331776 kJ/mol
# GULP energy per Si atom -5567.548579 kJ/mol
# Density = 1.419277 g / cm^3
# Si number density = 14.225151 Si / 1000 Ang^3
#
#
#
# Elastic Constant Matrix: (Units=GPa)
#
#
# Indices 1 2 3 4 5 6 
#
# 1 142.5637 46.8682 39.1386 0.0000 0.0000 0.0000
# 2 46.8682 59.3267 20.7454 0.0000 0.0000 0.0000
# 3 39.1386 20.7454 34.9506 0.0000 0.0000 0.0000
# 4 0.0000 0.0000 0.0000 7.4803 0.0000 0.0000
# 5 0.0000 0.0000 0.0000 0.0000 7.2439 0.0000
# 6 0.0000 0.0000 0.0000 0.0000 0.0000 17.7556
#
#
#
# Elastic Compliance Matrix: (Units=1/GPa)
#
#
# Indices 1 2 3 4 5 6 
#
# 1 0.011514 -0.005789 -0.009458 0.000000 0.000000 0.000000
# 2 -0.005789 0.024181 -0.007870 0.000000 0.000000 0.000000
# 3 -0.009458 -0.007870 0.043874 0.000000 0.000000 0.000000
# 4 0.000000 0.000000 0.000000 0.133685 0.000000 0.000000
# 5 0.000000 0.000000 0.000000 0.000000 0.138047 0.000000
# 6 0.000000 0.000000 0.000000 0.000000 0.000000 0.056320
#
#
# Mechanical properties :
#
#
# Convention : Reuss Voigt Hill
#
# Bulk Modulus (GPa) = 29.99802 50.03837 40.01819
# Shear Modulus (GPa) = 10.75343 15.16853 12.96098
#
# Velocity S-wave (km/s) = 2.75243 3.26899 3.02177
# Velocity P-wave (km/s) = 5.58882 7.03568 6.35357
#
# Compressibility (1/GPa) = 0.03333554
#
# Stress axis : x y z
#
# Youngs Moduli (GPa) = 86.85110 41.35438 22.79240
#
# Poissons Ratio (x) = 0.23940 0.21556
# Poissons Ratio (y) = 0.50277 0.17939
# Poissons Ratio (z) = 0.82140 0.32548
#
# Static dielectric constant tensor:
#      x y z
#    x 1.491860 0.000000 0.000000 
#    y 0.000000 1.479830 0.000000 
#    z 0.000000 0.000000 1.443870 
# 
# From -- ./inp_files/19135.got.cif
#   From: 2010.05.17/outbox.cif.g08.bks.cpg/sg47_10_cif.got.tgz:19135.got - 2010.06.03 20:15:42.
