data_PCOD9381680
_publ_section_title
;
Structure prediction by ZEFSAII (Michael W. Deem and Ramdas Pophale) SiO2 
 PCOD9381680
Probable space group: P M M M
;
_chemical_formula_sum "Si O2"
_cell_formula_units_Z 56
_cell_length_a 15.039578
_cell_length_b 21.760400
_cell_length_c 9.382814
_cell_angle_alpha 90.000000
_cell_angle_beta 90.000000
_cell_angle_gamma 90.000000
_cell_volume 3070.687577
_symmetry_space_group_name_H-M "P M M M"
_symmetry_group_IT_number 47
_symmetry_cell_setting 'orthorhombic'
loop_
_space_group_symop_operation_xyz
x,y,z
-x,-y,z
x,-y,-z
-x,y,-z
-x,-y,-z
x,y,-z
-x,y,z
x,-y,z
loop_
_atom_site_type_symbol
_atom_site_label
_atom_site_fract_x
_atom_site_fract_y
_atom_site_fract_z
Si Si1 0.152853 0.500000 0.172567
Si Si2 0.657188 0.500000 0.669489
Si Si3 0.597069 0.269694 0.342475
Si Si4 0.102188 0.240042 0.329620
Si Si5 0.357650 0.617174 0.837464
Si Si6 0.735269 0.159693 0.334076
Si Si7 0.601254 0.073294 0.830272
Si Si8 0.856513 0.365005 0.163444
O O1 0.242212 0.500000 0.266838
O O2 0.108162 0.566309 0.201088
O O3 0.173571 0.500000 0.000000
O O4 0.656588 0.500000 0.500000
O O5 0.616097 0.438735 0.735979
O O6 0.607399 0.299151 0.500000
O O7 0.500000 0.239936 0.337995
O O8 0.603104 0.320315 0.222012
O O9 0.672381 0.219510 0.328486
O O10 0.116270 0.246774 0.500000
O O11 0.170458 0.186804 0.280750
O O12 0.118899 0.306660 0.258680
O O13 0.000000 0.222831 0.304068
O O14 0.250562 0.626766 0.831846
O O15 0.381770 0.604077 0.000000
O O16 0.744443 0.140742 0.500000
O O17 0.680773 0.108718 0.247761
O O18 0.500000 0.090916 0.784115
O O19 0.609090 0.000000 0.808535
O O20 0.606416 0.085031 0.000000
O O21 0.882406 0.352108 0.000000
#
# Coordination Sequence:
#
# PCOD9381680 Si02
#       8
#     4   4   8   8   8   8   8   8
#     4   8  16  30  47  72 101 128 168 221 277 340
#     4  10  18  28  47  70  93 127 170 215 269 323
#     4  10  20  33  50  75 105 135 171 216 264 316
#     4  10  21  36  54  77 107 142 183 231 276 321
#     4  10  19  32  49  70  98 131 171 216 265 322
#     4  10  20  35  56  81 112 146 182 222 266 315
#     4   9  19  36  58  87 122 154 183 217 258 308
#     4   9  17  31  51  73  99 132 172 222 276 333
#
# _framework density 18.236957
#
# number of rings (size 3 to 8) (size 9 to 14) (size 15 to 20)
#    0.000    2.429    1.429    2.786    0.000    5.143 
#    0.000    1.429    0.000    4.714    0.000    3.000 
#    0.000    0.000    0.000    0.000    0.000    0.000 
#
# Total GULP energy -312135.781597 kJ/mol
# GULP energy per Si atom -5573.853243 kJ/mol
# Density = 1.819545 g / cm^3
# Si number density = 18.236957 Si / 1000 Ang^3
#
#
#
# Elastic Constant Matrix: (Units=GPa)
#
#
# Indices 1 2 3 4 5 6 
#
# 1 98.7666 44.8915 33.0989 0.0000 0.0000 0.0000
# 2 44.8915 83.2019 46.4346 0.0000 0.0000 0.0000
# 3 33.0989 46.4346 74.4460 0.0000 0.0000 0.0000
# 4 0.0000 0.0000 0.0000 33.7900 0.0000 0.0000
# 5 0.0000 0.0000 0.0000 0.0000 14.2619 0.0000
# 6 0.0000 0.0000 0.0000 0.0000 0.0000 11.3419
#
#
#
# Elastic Compliance Matrix: (Units=1/GPa)
#
#
# Indices 1 2 3 4 5 6 
#
# 1 0.013659 -0.006106 -0.002264 0.000000 0.000000 0.000000
# 2 -0.006106 0.021166 -0.010488 0.000000 0.000000 0.000000
# 3 -0.002264 -0.010488 0.020981 0.000000 0.000000 0.000000
# 4 0.000000 0.000000 0.000000 0.029595 0.000000 0.000000
# 5 0.000000 0.000000 0.000000 0.000000 0.070117 0.000000
# 6 0.000000 0.000000 0.000000 0.000000 0.000000 0.088169
#
#
# Mechanical properties :
#
#
# Convention : Reuss Voigt Hill
#
# Bulk Modulus (GPa) = 55.27753 56.14047 55.70900
# Shear Modulus (GPa) = 17.39539 20.67805 19.03672
#
# Velocity S-wave (km/s) = 3.09180 3.37093 3.23438
# Velocity P-wave (km/s) = 6.56675 6.78245 6.67547
#
# Compressibility (1/GPa) = 0.01809053
#
# Stress axis : x y z
#
# Youngs Moduli (GPa) = 73.21176 47.24449 47.66280
#
# Poissons Ratio (x) = 0.28847 0.10792
# Poissons Ratio (y) = 0.44703 0.49987
# Poissons Ratio (z) = 0.16577 0.49548
#
# Static dielectric constant tensor:
#      x y z
#    x 1.670390 0.000000 0.000000 
#    y 0.000000 1.617020 0.000000 
#    z 0.000000 0.000000 1.624890 
# 
# From -- ./inp_files/7419.got.cif
#   From: 2010.05.17/outbox.cif.g08.bks.cpg/sg47_4_cif.got.tgz:7419.got - 2010.06.03 20:15:42.
