data_PCOD9381204
_publ_section_title
;
Structure prediction by ZEFSAII (Michael W. Deem and Ramdas Pophale) SiO2 
 PCOD9381204
Probable space group: P M M M
;
_chemical_formula_sum "Si O2"
_cell_formula_units_Z 64
_cell_length_a 15.166500
_cell_length_b 22.235245
_cell_length_c 8.932780
_cell_angle_alpha 90.000000
_cell_angle_beta 90.000000
_cell_angle_gamma 90.000000
_cell_volume 3012.408932
_symmetry_space_group_name_H-M "P M M M"
_symmetry_group_IT_number 47
_symmetry_cell_setting 'orthorhombic'
loop_
_space_group_symop_operation_xyz
x,y,z
-x,-y,z
x,-y,-z
-x,y,-z
-x,-y,-z
x,y,-z
-x,y,z
x,-y,z
loop_
_atom_site_type_symbol
_atom_site_label
_atom_site_fract_x
_atom_site_fract_y
_atom_site_fract_z
Si Si1 0.345580 0.184779 0.318326
Si Si2 0.850907 0.933628 0.679628
Si Si3 0.394008 0.564026 0.828301
Si Si4 0.894065 0.433990 0.828454
Si Si5 0.346176 0.066082 0.820712
Si Si6 0.645629 0.313109 0.666948
Si Si7 0.852063 0.187218 0.821092
Si Si8 0.143425 0.308773 0.668436
O O1 0.337039 0.183085 0.500000
O O2 0.389057 0.123955 0.257235
O O3 0.389279 0.248679 0.276906
O O4 0.249000 0.185714 0.240204
O O5 0.845217 0.925880 0.500000
O O6 0.752397 0.936771 0.749990
O O7 0.892596 0.873846 0.751700
O O8 0.890997 0.000000 0.708360
O O9 0.500000 0.562710 0.827442
O O10 0.363669 0.500000 0.759826
O O11 0.368395 0.626300 0.755756
O O12 0.364293 0.564725 0.000000
O O13 0.863503 0.500000 0.771700
O O14 0.872588 0.374231 0.737839
O O15 0.000000 0.436596 0.832739
O O16 0.862515 0.427624 0.000000
O O17 0.386458 0.000000 0.794035
O O18 0.340252 0.074844 0.000000
O O19 0.610782 0.322470 0.500000
O O20 0.750732 0.304014 0.659875
O O21 0.888724 0.251189 0.762998
O O22 0.854021 0.184986 0.000000
O O23 0.108251 0.305448 0.500000
#
# Coordination Sequence:
#
# PCOD9381204 Si02
#       8
#     8   8   8   8   8   8   8   8
#     4   9  16  26  38  55  83 115 148 186 227 272
#     4   9  15  22  33  50  76 112 150 186 227 274
#     4   9  19  35  52  70  92 118 150 188 229 275
#     4   9  19  36  55  74  97 124 155 192 233 278
#     4   9  15  21  31  50  76 108 148 187 221 264
#     4   9  19  32  46  68  95 123 155 191 230 273
#     4  10  17  25  39  58  83 116 153 191 232 275
#     4  10  20  33  48  69  98 127 158 195 233 278
#
# _framework density 21.245456999999998
#
# number of rings (size 3 to 8) (size 9 to 14) (size 15 to 20)
#    0.000    2.750    0.000    5.625    0.000    6.000 
#    0.000    3.750    0.000    0.000    0.000    0.000 
#    0.000    1.000    0.000   10.750    0.000   11.500 
#
# Total GULP energy -356554.707976 kJ/mol
# GULP energy per Si atom -5571.167312 kJ/mol
# Density = 2.119710 g / cm^3
# Si number density = 21.245457 Si / 1000 Ang^3
#
#
#
# Elastic Constant Matrix: (Units=GPa)
#
#
# Indices 1 2 3 4 5 6 
#
# 1 40.7004 12.2603 5.7906 0.0000 0.0000 0.0000
# 2 12.2603 288.5717 112.4570 0.0000 0.0000 0.0000
# 3 5.7906 112.4570 122.1184 0.0000 0.0000 0.0000
# 4 0.0000 0.0000 0.0000 42.3131 0.0000 0.0000
# 5 0.0000 0.0000 0.0000 0.0000 8.0920 0.0000
# 6 0.0000 0.0000 0.0000 0.0000 0.0000 77.2917
#
#
#
# Elastic Compliance Matrix: (Units=1/GPa)
#
#
# Indices 1 2 3 4 5 6 
#
# 1 0.024896 -0.000932 -0.000322 0.000000 0.000000 0.000000
# 2 -0.000932 0.005440 -0.004965 0.000000 0.000000 0.000000
# 3 -0.000322 -0.004965 0.012777 0.000000 0.000000 0.000000
# 4 0.000000 0.000000 0.000000 0.023633 0.000000 0.000000
# 5 0.000000 0.000000 0.000000 0.000000 0.123579 0.000000
# 6 0.000000 0.000000 0.000000 0.000000 0.000000 0.012938
#
#
# Mechanical properties :
#
#
# Convention : Reuss Voigt Hill
#
# Bulk Modulus (GPa) = 32.60131 79.15626 55.87879
# Shear Modulus (GPa) = 22.13101 46.93153 34.53127
#
# Velocity S-wave (km/s) = 3.23101 4.70511 4.03593
# Velocity P-wave (km/s) = 5.41273 8.17657 6.93376
#
# Compressibility (1/GPa) = 0.03067362
#
# Stress axis : x y z
#
# Youngs Moduli (GPa) = 40.16646 183.82447 78.26815
#
# Poissons Ratio (x) = 0.17137 0.02521
# Poissons Ratio (y) = 0.03745 0.38863
# Poissons Ratio (z) = 0.01294 0.91276
#
# Static dielectric constant tensor:
#      x y z
#    x 1.799720 0.000000 0.000000 
#    y 0.000000 1.854430 0.000000 
#    z 0.000000 0.000000 1.730130 
# 
# From -- ./inp_files/11832.got.cif
#   From: 2010.05.17/outbox.cif.g08.bks.cpg/sg47_6_cif.got.tgz:11832.got - 2010.06.03 20:15:42.
