data_PCOD9381993
_publ_section_title
;
Structure prediction by ZEFSAII (Michael W. Deem and Ramdas Pophale) SiO2 
 PCOD9381993
Probable space group: P M M M
;
_chemical_formula_sum "Si O2"
_cell_formula_units_Z 48
_cell_length_a 14.241927
_cell_length_b 7.603671
_cell_length_c 20.540654
_cell_angle_alpha 90.000000
_cell_angle_beta 90.000000
_cell_angle_gamma 90.000000
_cell_volume 2224.366469
_symmetry_space_group_name_H-M "P M M M"
_symmetry_group_IT_number 47
_symmetry_cell_setting 'orthorhombic'
loop_
_space_group_symop_operation_xyz
x,y,z
-x,-y,z
x,-y,-z
-x,y,-z
-x,-y,-z
x,y,-z
-x,y,z
x,-y,z
loop_
_atom_site_type_symbol
_atom_site_label
_atom_site_fract_x
_atom_site_fract_y
_atom_site_fract_z
Si Si1 0.500000 0.713888 0.372102
Si Si2 0.689681 0.292528 0.570696
Si Si3 0.000000 0.712646 0.425351
Si Si4 0.894306 0.215135 0.187273
Si Si5 0.313266 0.214591 0.860583
Si Si6 0.500000 0.790413 0.218515
Si Si7 0.391624 0.214280 0.000000
Si Si8 0.838250 0.799347 0.328611
O O1 0.500000 0.500000 0.375232
O O2 0.589625 0.782603 0.410704
O O3 0.500000 0.758216 0.295665
O O4 0.726014 0.224758 0.500000
O O5 0.681314 0.500000 0.562434
O O6 0.748074 0.275985 0.636927
O O7 0.087463 0.784238 0.386165
O O8 0.000000 0.500000 0.422542
O O9 0.000000 0.764994 0.500000
O O10 0.794236 0.269915 0.155542
O O11 0.881337 0.274035 0.262484
O O12 0.000000 0.271333 0.164945
O O13 0.896720 0.000000 0.184065
O O14 0.401169 0.273008 0.814364
O O15 0.340876 0.268048 0.933689
O O16 0.312157 0.000000 0.857037
O O17 0.500000 0.000000 0.207034
O O18 0.500000 0.271849 0.000000
O O19 0.392792 0.000000 0.000000
O O20 0.816045 0.000000 0.312906
#
# Coordination Sequence:
#
# PCOD9381993 Si02
#       8
#     4   8   4   8   8   4   4   8
#     4  10  21  36  53  73 101 137 174 214 260 318
#     4  10  21  37  54  72  98 134 173 215 268 324
#     4  11  23  37  53  75 103 134 171 218 270 319
#     4   9  17  30  45  65  96 134 170 204 252 310
#     4   9  16  26  45  71 102 135 166 208 256 303
#     4  10  18  30  49  77 104 129 166 214 268 315
#     4   9  14  24  41  69 105 135 167 205 251 305
#     4  11  21  35  54  76 101 133 173 217 266 316
#
# _framework density 21.579177999999999
#
# number of rings (size 3 to 8) (size 9 to 14) (size 15 to 20)
#    0.000    2.167    1.667    2.500    0.000    6.000 
#    0.000    0.417    0.000    4.000    0.000    1.167 
#    0.000    0.000    0.000    0.750    0.000    0.833 
#
# Total GULP energy -267485.766940 kJ/mol
# GULP energy per Si atom -5572.620145 kJ/mol
# Density = 2.153006 g / cm^3
# Si number density = 21.579178 Si / 1000 Ang^3
#
#
#
# Elastic Constant Matrix: (Units=GPa)
#
#
# Indices 1 2 3 4 5 6 
#
# 1 147.0807 12.9243 32.4655 0.0000 0.0000 0.0000
# 2 12.9243 37.5057 9.7340 0.0000 0.0000 0.0000
# 3 32.4655 9.7340 93.4075 0.0000 0.0000 0.0000
# 4 0.0000 0.0000 0.0000 19.8668 0.0000 0.0000
# 5 0.0000 0.0000 0.0000 0.0000 222.8511 0.0000
# 6 0.0000 0.0000 0.0000 0.0000 0.0000 3.2618
#
#
#
# Elastic Compliance Matrix: (Units=1/GPa)
#
#
# Indices 1 2 3 4 5 6 
#
# 1 0.007502 -0.001961 -0.002403 0.000000 0.000000 0.000000
# 2 -0.001961 0.027917 -0.002227 0.000000 0.000000 0.000000
# 3 -0.002403 -0.002227 0.011773 0.000000 0.000000 0.000000
# 4 0.000000 0.000000 0.000000 0.050335 0.000000 0.000000
# 5 0.000000 0.000000 0.000000 0.000000 0.004487 0.000000
# 6 0.000000 0.000000 0.000000 0.000000 0.000000 0.306576
#
#
# Mechanical properties :
#
#
# Convention : Reuss Voigt Hill
#
# Bulk Modulus (GPa) = 29.40505 43.13796 36.27150
# Shear Modulus (GPa) = 11.54442 64.05394 37.79918
#
# Velocity S-wave (km/s) = 2.31547 5.45414 4.18981
# Velocity P-wave (km/s) = 4.56122 7.72641 6.34438
#
# Compressibility (1/GPa) = 0.03400776
#
# Stress axis : x y z
#
# Youngs Moduli (GPa) = 133.30212 35.82091 84.93935
#
# Poissons Ratio (x) = 0.07026 0.20411
# Poissons Ratio (y) = 0.26146 0.18920
# Poissons Ratio (z) = 0.32032 0.07979
#
# Static dielectric constant tensor:
#      x y z
#    x 0.954500 0.000000 0.000000 
#    y 0.000000 1.822250 0.000000 
#    z 0.000000 0.000000 1.762750 
# 
# From -- ./inp_files/28072.got.cif
#   From: 2010.05.17/outbox.cif.g08.bks.cpg/sg47_15_cif.got.tgz:28072.got - 2010.06.03 20:15:42.
