data_PCOD9381101
_publ_section_title
;
Structure prediction by ZEFSAII (Michael W. Deem and Ramdas Pophale) SiO2 
 PCOD9381101
Probable space group: I M A 2
;
_chemical_formula_sum "Si O2"
_cell_formula_units_Z 32
_cell_length_a 9.000000
_cell_length_b 24.000000
_cell_length_c 15.000000
_cell_angle_alpha 90.000000
_cell_angle_beta 90.000000
_cell_angle_gamma 90.000000
_cell_volume 3240.000000
_symmetry_space_group_name_H-M "I M A 2"
_symmetry_group_IT_number 46
_symmetry_cell_setting 'orthorhombic'
loop_
_space_group_symop_operation_xyz
x,y,z
-x,-y,z
1/2-x,y,z
1/2+x,-y,z
1/2+x,1/2+y,1/2+z
1/2-x,1/2-y,1/2+z
-x,1/2+y,1/2+z
x,1/2-y,1/2+z
loop_
_atom_site_type_symbol
_atom_site_label
_atom_site_fract_x
_atom_site_fract_y
_atom_site_fract_z
Si Si1 0.423941 0.780754 0.909690
Si Si2 0.573004 0.836041 0.388214
Si Si3 0.579240 0.268154 0.621512
Si Si4 0.428999 0.901746 0.871097
Si Si5 0.573963 0.057320 0.064680
Si Si6 0.924108 0.864878 0.204261
Si Si7 0.080355 0.158893 0.587820
Si Si8 0.917301 0.549238 0.203338
O O1 0.250000 0.774193 0.889130
O O2 0.507561 0.725648 0.881623
O O3 0.479663 0.837530 0.865924
O O4 0.435408 0.786007 0.017394
O O5 0.750000 0.831990 0.379999
O O6 0.525370 0.873557 0.305675
O O7 0.537306 0.856322 0.486849
O O8 0.750000 0.277740 0.648786
O O9 0.461587 0.301299 0.680021
O O10 0.535127 0.203814 0.623228
O O11 0.250000 0.901618 0.868669
O O12 0.494706 0.937637 0.792837
O O13 0.477429 0.925205 0.966349
O O14 0.750000 0.052855 0.062760
O O15 0.522578 0.101969 0.135477
O O16 0.500000 0.000000 0.090240
O O17 0.750000 0.877144 0.192929
O O18 0.250000 0.182524 0.584890
O O19 0.082643 0.104850 0.646896
O O20 0.750000 0.532780 0.224403
O O21 0.000000 0.500000 0.153119
#
# Coordination Sequence:
#
# PCOD9381101 Si02
#       8
#     8   8   8   8   8   8   8   8
#     4   9  18  34  54  82 116 151 187 226 277 336
#     4   9  20  37  57  82 116 153 190 235 283 338
#     4  10  19  34  56  84 116 150 188 232 281 338
#     4  10  21  38  58  84 118 152 189 233 283 343
#     4  11  23  41  61  84 116 154 195 238 287 341
#     4  11  22  36  57  86 118 154 194 235 284 339
#     4   9  20  40  60  82 113 150 191 239 290 343
#     4  11  24  40  60  84 112 148 195 242 290 344
#
# _framework density 9.8765429999999999
#
# number of rings (size 3 to 8) (size 9 to 14) (size 15 to 20)
#    0.000    2.000    1.250    1.875    1.750    5.000 
#    0.000    0.625    0.000    1.500    0.000    0.000 
#    0.000    0.000    0.000    0.000    0.000    0.000 
#
# Total GULP energy -178493.558264 kJ/mol
# GULP energy per Si atom -5577.923696 kJ/mol
# Density = 0.985406 g / cm^3
# Si number density = 9.876543 Si / 1000 Ang^3
#
#
#
# Elastic Constant Matrix: (Units=GPa)
#
#
# Indices 1 2 3 4 5 6 
#
# 1 5.8201 17.4039 10.7235 0.0000 0.0000 0.0000
# 2 17.4039 40.1402 31.7732 0.0000 0.0000 0.0000
# 3 10.7235 31.7732 39.6100 0.0000 0.0000 0.0000
# 4 0.0000 0.0000 0.0000 27.9256 0.0000 0.0000
# 5 0.0000 0.0000 0.0000 0.0000 16.2433 0.0000
# 6 0.0000 0.0000 0.0000 0.0000 0.0000 22.8224
#
#
#
# Elastic Compliance Matrix: (Units=1/GPa)
#
#
# Indices 1 2 3 4 5 6 
#
# 1 -0.421904 0.253430 -0.089068 0.000000 0.000000 0.000000
# 2 0.253430 -0.083987 -0.001240 0.000000 0.000000 0.000000
# 3 -0.089068 -0.001240 0.050354 0.000000 0.000000 0.000000
# 4 0.000000 0.000000 0.000000 0.035809 0.000000 0.000000
# 5 0.000000 0.000000 0.000000 0.000000 0.061564 0.000000
# 6 0.000000 0.000000 0.000000 0.000000 0.000000 0.043817
#
#
# Mechanical properties :
#
#
# Convention : Reuss Voigt Hill
#
# Bulk Modulus (GPa) = -7.73434 22.81905 7.54235
# Shear Modulus (GPa) = -7.31327 15.10957 3.89815
#
# Velocity S-wave (km/s) = -1.92623 2.76872 1.40632
# Velocity P-wave (km/s) = 2.97845 4.66887 2.54236
#
# Compressibility (1/GPa) = -0.12929344
#
# Stress axis : x y z
#
# Youngs Moduli (GPa) = -2.37021 -11.90656 19.85941
#
# Poissons Ratio (x) = 3.01748 1.76885
# Poissons Ratio (y) = 0.60068 0.02462
# Poissons Ratio (z) = -0.21111 -0.01476
#
# Static dielectric constant tensor:
#      x y z
#    x 1.692400 0.000000 0.000000 
#    y 0.000000 1.579490 0.000000 
#    z 0.000000 0.000000 1.723470 
# 
# From -- ./inp_files/14434.got.cif
#   From: 2010.05.17/outbox.ucp.g08.bks.cvg/sg46_8_cif.got.tgz:14434.got - 2010.06.11 16:34:52.
