data_PCOD9381413
_publ_section_title
;
Structure prediction by ZEFSAII (Michael W. Deem and Ramdas Pophale) SiO2 
 PCOD9381413
Probable space group: P M M M
;
_chemical_formula_sum "Si O2"
_cell_formula_units_Z 64
_cell_length_a 14.197341
_cell_length_b 13.812916
_cell_length_c 18.970468
_cell_angle_alpha 90.000000
_cell_angle_beta 90.000000
_cell_angle_gamma 90.000000
_cell_volume 3720.235472
_symmetry_space_group_name_H-M "P M M M"
_symmetry_group_IT_number 47
_symmetry_cell_setting 'orthorhombic'
loop_
_space_group_symop_operation_xyz
x,y,z
-x,-y,z
x,-y,-z
-x,y,-z
-x,-y,-z
x,y,-z
-x,y,z
x,-y,z
loop_
_atom_site_type_symbol
_atom_site_label
_atom_site_fract_x
_atom_site_fract_y
_atom_site_fract_z
Si Si1 0.104838 0.116415 0.202281
Si Si2 0.298066 0.388201 0.215444
Si Si3 0.892533 0.611144 0.708728
Si Si4 0.696551 0.113104 0.853725
Si Si5 0.892382 0.195489 0.361631
Si Si6 0.611484 0.297448 0.918882
Si Si7 0.294373 0.115060 0.579681
Si Si8 0.611762 0.796189 0.715444
O O1 0.193201 0.141811 0.153408
O O2 0.118321 0.157283 0.281051
O O3 0.000000 0.145359 0.177852
O O4 0.106687 0.000000 0.208231
O O5 0.321780 0.500000 0.230004
O O6 0.187128 0.375208 0.232049
O O7 0.329568 0.360318 0.136773
O O8 0.350814 0.310613 0.264788
O O9 0.885551 0.500000 0.684491
O O10 0.876602 0.689485 0.647420
O O11 0.000000 0.627211 0.734214
O O12 0.642815 0.186611 0.904751
O O13 0.654432 0.133771 0.775841
O O14 0.688037 0.000000 0.871558
O O15 0.814182 0.145329 0.408516
O O16 0.000000 0.176870 0.383594
O O17 0.500000 0.306926 0.903280
O O18 0.627211 0.323803 0.000000
O O19 0.323720 0.138508 0.500000
O O20 0.352153 0.169903 0.639788
O O21 0.303699 0.000000 0.590064
O O22 0.500000 0.798805 0.719716
#
# Coordination Sequence:
#
# PCOD9381413 Si02
#       8
#     8   8   8   8   8   8   8   8
#     4   9  16  26  46  75 101 127 165 213 262 312
#     4  10  19  35  61  86 106 133 170 213 262 311
#     4   9  17  30  54  86 111 132 165 210 258 309
#     4  10  18  31  53  76  99 133 176 219 263 308
#     4  10  17  30  52  75 106 141 171 210 261 313
#     4  10  22  37  50  72 108 141 172 213 260 312
#     4  11  23  37  52  74 107 144 180 216 261 317
#     4  11  22  36  53  76 104 133 177 231 271 306
#
# _framework density 17.203212000000001
#
# number of rings (size 3 to 8) (size 9 to 14) (size 15 to 20)
#    0.000    2.000    2.500    3.000    0.000    4.500 
#    0.000    2.500    0.000    3.000    0.000    6.125 
#    0.000    0.000    0.000    0.000    0.000    0.000 
#
# Total GULP energy -356911.578833 kJ/mol
# GULP energy per Si atom -5576.743419 kJ/mol
# Density = 1.716406 g / cm^3
# Si number density = 17.203212 Si / 1000 Ang^3
#
#
#
# Elastic Constant Matrix: (Units=GPa)
#
#
# Indices 1 2 3 4 5 6 
#
# 1 85.9099 16.4418 26.8339 0.0000 0.0000 0.0000
# 2 16.4418 60.9616 21.7573 0.0000 0.0000 0.0000
# 3 26.8339 21.7573 68.7893 0.0000 0.0000 0.0000
# 4 0.0000 0.0000 0.0000 8.1115 0.0000 0.0000
# 5 0.0000 0.0000 0.0000 0.0000 8.5591 0.0000
# 6 0.0000 0.0000 0.0000 0.0000 0.0000 17.7418
#
#
#
# Elastic Compliance Matrix: (Units=1/GPa)
#
#
# Indices 1 2 3 4 5 6 
#
# 1 0.013464 -0.001980 -0.004626 0.000000 0.000000 0.000000
# 2 -0.001980 0.018782 -0.005168 0.000000 0.000000 0.000000
# 3 -0.004626 -0.005168 0.017976 0.000000 0.000000 0.000000
# 4 0.000000 0.000000 0.000000 0.123281 0.000000 0.000000
# 5 0.000000 0.000000 0.000000 0.000000 0.116834 0.000000
# 6 0.000000 0.000000 0.000000 0.000000 0.000000 0.056364
#
#
# Mechanical properties :
#
#
# Convention : Reuss Voigt Hill
#
# Bulk Modulus (GPa) = 37.48968 38.41410 37.95189
# Shear Modulus (GPa) = 13.18765 16.92434 15.05600
#
# Velocity S-wave (km/s) = 2.77172 3.13994 2.96156
# Velocity P-wave (km/s) = 5.66417 5.96018 5.81406
#
# Compressibility (1/GPa) = 0.02667401
#
# Stress axis : x y z
#
# Youngs Moduli (GPa) = 74.27235 53.24131 55.62899
#
# Poissons Ratio (x) = 0.10544 0.25733
# Poissons Ratio (y) = 0.14709 0.28750
# Poissons Ratio (z) = 0.34357 0.27516
#
# Static dielectric constant tensor:
#      x y z
#    x 1.608100 0.000000 0.000000 
#    y 0.000000 1.604950 0.000000 
#    z 0.000000 0.000000 1.555740 
# 
# From -- ./inp_files/28359.got.cif
#   From: 2010.05.17/outbox.cif.g08.bks.cpg/sg47_15_cif.got.tgz:28359.got - 2010.06.03 20:15:42.
