data_PCOD9381670
_publ_section_title
;
Structure prediction by ZEFSAII (Michael W. Deem and Ramdas Pophale) SiO2 
 PCOD9381670
Probable space group: P M M M
;
_chemical_formula_sum "Si O2"
_cell_formula_units_Z 64
_cell_length_a 8.218578
_cell_length_b 20.636538
_cell_length_c 20.936772
_cell_angle_alpha 90.000000
_cell_angle_beta 90.000000
_cell_angle_gamma 90.000000
_cell_volume 3550.939283
_symmetry_space_group_name_H-M "P M M M"
_symmetry_group_IT_number 47
_symmetry_cell_setting 'orthorhombic'
loop_
_space_group_symop_operation_xyz
x,y,z
-x,-y,z
x,-y,-z
-x,y,-z
-x,-y,-z
x,y,-z
-x,y,z
x,-y,z
loop_
_atom_site_type_symbol
_atom_site_label
_atom_site_fract_x
_atom_site_fract_y
_atom_site_fract_z
Si Si1 0.306400 0.712424 0.606006
Si Si2 0.305153 0.073279 0.693878
Si Si3 0.806128 0.290219 0.752404
Si Si4 0.693969 0.429782 0.600001
Si Si5 0.305876 0.160162 0.188564
Si Si6 0.196387 0.430868 0.746847
Si Si7 0.196402 0.926727 0.926508
Si Si8 0.192536 0.147970 0.569458
O O1 0.500000 0.715506 0.594941
O O2 0.274811 0.716981 0.682439
O O3 0.245583 0.641962 0.581031
O O4 0.225670 0.775470 0.576291
O O5 0.500000 0.069771 0.701018
O O6 0.241605 0.114966 0.753527
O O7 0.269577 0.110404 0.628457
O O8 0.240432 0.000000 0.693416
O O9 0.758550 0.232041 0.798478
O O10 0.760165 0.362040 0.777425
O O11 0.000000 0.288211 0.742127
O O12 0.500000 0.429785 0.588077
O O13 0.757824 0.500000 0.576078
O O14 0.726589 0.430406 0.676135
O O15 0.500000 0.162817 0.193051
O O16 0.258624 0.126363 0.122609
O O17 0.242147 0.500000 0.777381
O O18 0.000000 0.430852 0.739269
O O19 0.000000 0.926225 0.925301
O O20 0.249589 0.000000 0.908103
O O21 0.247052 0.915607 0.000000
O O22 0.254480 0.126317 0.500000
O O23 0.000000 0.137166 0.572123
#
# Coordination Sequence:
#
# PCOD9381670 Si02
#       8
#     8   8   8   8   8   8   8   8
#     4  10  18  30  49  71  95 125 161 201 249 301
#     4  10  22  39  57  77 100 127 160 201 251 303
#     4  10  18  28  46  71 100 134 169 206 249 294
#     4   8  14  24  40  64  92 120 152 192 238 290
#     4  11  21  33  52  79 109 139 171 207 247 293
#     4   8  14  24  38  60  92 128 164 201 242 288
#     4   9  19  36  56  78 106 141 178 212 248 293
#     4  11  24  39  54  72  94 124 164 208 255 308
#
# _framework density 18.023399999999999
#
# number of rings (size 3 to 8) (size 9 to 14) (size 15 to 20)
#    0.000    2.375    1.250    2.250    0.000    4.000 
#    0.000    1.875    0.000    0.375    0.000    2.625 
#    0.000    0.500    0.000    5.750    0.000    1.625 
#
# Total GULP energy -356771.183890 kJ/mol
# GULP energy per Si atom -5574.549748 kJ/mol
# Density = 1.798238 g / cm^3
# Si number density = 18.023400 Si / 1000 Ang^3
#
#
#
# Elastic Constant Matrix: (Units=GPa)
#
#
# Indices 1 2 3 4 5 6 
#
# 1 9.2818 8.1106 -0.7287 0.0000 0.0000 0.0000
# 2 8.1106 157.3878 52.9531 0.0000 0.0000 0.0000
# 3 -0.7287 52.9531 61.4363 0.0000 0.0000 0.0000
# 4 0.0000 0.0000 0.0000 64.2347 0.0000 0.0000
# 5 0.0000 0.0000 0.0000 0.0000 16.5793 0.0000
# 6 0.0000 0.0000 0.0000 0.0000 0.0000 18.7982
#
#
#
# Elastic Compliance Matrix: (Units=1/GPa)
#
#
# Indices 1 2 3 4 5 6 
#
# 1 0.116418 -0.009104 0.009228 0.000000 0.000000 0.000000
# 2 -0.009104 0.009661 -0.008435 0.000000 0.000000 0.000000
# 3 0.009228 -0.008435 0.023657 0.000000 0.000000 0.000000
# 4 0.000000 0.000000 0.000000 0.015568 0.000000 0.000000
# 5 0.000000 0.000000 0.000000 0.000000 0.060316 0.000000
# 6 0.000000 0.000000 0.000000 0.000000 0.000000 0.053197
#
#
# Mechanical properties :
#
#
# Convention : Reuss Voigt Hill
#
# Bulk Modulus (GPa) = 7.51241 38.75288 23.13264
# Shear Modulus (GPa) = 14.71415 31.10717 22.91066
#
# Velocity S-wave (km/s) = 2.86036 4.15894 3.56920
# Velocity P-wave (km/s) = 3.88408 6.67911 5.46336
#
# Compressibility (1/GPa) = 0.13311309
#
# Stress axis : x y z
#
# Youngs Moduli (GPa) = 8.58975 103.51146 42.27160
#
# Poissons Ratio (x) = 0.94237 -0.39007
# Poissons Ratio (y) = 0.07820 0.35655
# Poissons Ratio (z) = -0.07926 0.87310
#
# Static dielectric constant tensor:
#      x y z
#    x 1.631270 0.000000 0.000000 
#    y 0.000000 1.674090 0.000000 
#    z 0.000000 0.000000 1.593670 
# 
# From -- ./inp_files/11599.got.cif
#   From: 2010.05.17/outbox.cif.g08.bks.cpg/sg47_6_cif.got.tgz:11599.got - 2010.06.03 20:15:42.
