data_PCOD9381702
_publ_section_title
;
Structure prediction by ZEFSAII (Michael W. Deem and Ramdas Pophale) SiO2 
 PCOD9381702
Probable space group: P M M M
;
_chemical_formula_sum "Si O2"
_cell_formula_units_Z 56
_cell_length_a 15.491816
_cell_length_b 7.639605
_cell_length_c 23.381449
_cell_angle_alpha 90.000000
_cell_angle_beta 90.000000
_cell_angle_gamma 90.000000
_cell_volume 2767.226170
_symmetry_space_group_name_H-M "P M M M"
_symmetry_group_IT_number 47
_symmetry_cell_setting 'orthorhombic'
loop_
_space_group_symop_operation_xyz
x,y,z
-x,-y,z
x,-y,-z
-x,y,-z
-x,-y,-z
x,y,-z
-x,y,z
x,-y,z
loop_
_atom_site_type_symbol
_atom_site_label
_atom_site_fract_x
_atom_site_fract_y
_atom_site_fract_z
Si Si1 0.721786 0.711002 0.562117
Si Si2 0.095853 0.286418 0.394466
Si Si3 0.403529 0.295861 0.795891
Si Si4 0.096365 0.286730 0.261928
Si Si5 0.096423 0.789097 0.065467
Si Si6 0.225651 0.709052 0.165870
Si Si7 0.597571 0.792951 0.667183
O O1 0.689478 0.772030 0.500000
O O2 0.724259 0.500000 0.561071
O O3 0.820151 0.772751 0.571590
O O4 0.662568 0.757856 0.615735
O O5 0.094904 0.500000 0.396498
O O6 0.108297 0.235942 0.327939
O O7 0.000000 0.228908 0.413026
O O8 0.500000 0.218145 0.801856
O O9 0.410944 0.500000 0.811434
O O10 0.322987 0.219678 0.830822
O O11 0.379148 0.287780 0.728551
O O12 0.097827 0.500000 0.261198
O O13 0.168355 0.221337 0.218594
O O14 0.000000 0.232581 0.243783
O O15 0.171255 0.736468 0.108603
O O16 0.000000 0.728450 0.083549
O O17 0.094303 0.000000 0.064850
O O18 0.110507 0.730440 0.000000
O O19 0.232448 0.500000 0.174278
O O20 0.500000 0.732854 0.652637
O O21 0.595335 0.000000 0.676558
#
# Coordination Sequence:
#
# PCOD9381702 Si02
#       7
#     8   8   8   8   8   8   8
#     4  10  20  32  48  71  96 124 161 203 246 293
#     4   8  14  26  44  66  94 125 154 188 233 286
#     4   9  18  33  53  77 104 130 156 193 244 298
#     4   8  13  21  36  62  93 119 144 181 231 281
#     4   9  19  35  51  69 100 141 177 207 243 286
#     4  10  18  28  48  76 102 129 163 203 244 287
#     4  10  21  36  53  72  95 125 160 199 246 298
#
# _framework density 20.236872000000002
#
# number of rings (size 3 to 8) (size 9 to 14) (size 15 to 20)
#    0.000    2.857    0.000    3.000    0.000    5.714 
#    0.000    3.571    0.000    0.857    0.000    4.000 
#    0.000    0.000    0.000    0.000    0.000    0.000 
#
# Total GULP energy -312372.575410 kJ/mol
# GULP energy per Si atom -5578.081704 kJ/mol
# Density = 2.019081 g / cm^3
# Si number density = 20.236872 Si / 1000 Ang^3
#
#
#
# Elastic Constant Matrix: (Units=GPa)
#
#
# Indices 1 2 3 4 5 6 
#
# 1 150.9702 5.6305 73.7635 0.0000 0.0000 0.0000
# 2 5.6305 39.6160 -3.8984 0.0000 0.0000 0.0000
# 3 73.7635 -3.8984 62.6332 0.0000 0.0000 0.0000
# 4 0.0000 0.0000 0.0000 33.7530 0.0000 0.0000
# 5 0.0000 0.0000 0.0000 0.0000 9.5488 0.0000
# 6 0.0000 0.0000 0.0000 0.0000 0.0000 -5.4868
#
#
#
# Elastic Compliance Matrix: (Units=1/GPa)
#
#
# Indices 1 2 3 4 5 6 
#
# 1 0.016275 -0.004225 -0.019430 0.000000 0.000000 0.000000
# 2 -0.004225 0.026495 0.006625 0.000000 0.000000 0.000000
# 3 -0.019430 0.006625 0.039261 0.000000 0.000000 0.000000
# 4 0.000000 0.000000 0.000000 0.029627 0.000000 0.000000
# 5 0.000000 0.000000 0.000000 0.000000 0.104725 0.000000
# 6 0.000000 0.000000 0.000000 0.000000 0.000000 -0.182256
#
#
# Mechanical properties :
#
#
# Convention : Reuss Voigt Hill
#
# Bulk Modulus (GPa) = 20.84615 44.91232 32.87924
# Shear Modulus (GPa) = 59.39864 19.41125 39.40494
#
# Velocity S-wave (km/s) = 5.42360 3.10046 4.41748
# Velocity P-wave (km/s) = 7.03875 5.92103 6.50394
#
# Compressibility (1/GPa) = 0.04797048
#
# Stress axis : x y z
#
# Youngs Moduli (GPa) = 61.44480 37.74338 25.47058
#
# Poissons Ratio (x) = 0.15947 0.49489
# Poissons Ratio (y) = 0.25961 -0.16874
# Poissons Ratio (z) = 1.19386 -0.25005
#
# Static dielectric constant tensor:
#      x y z
#    x 1.755180 0.000000 0.000000 
#    y 0.000000 1.767330 0.000000 
#    z 0.000000 0.000000 1.690550 
# 
# From -- ./inp_files/30972.got.cif
#   From: 2010.05.17/outbox.cif.g08.bks.cpg/sg47_16_cif.got.tgz:30972.got - 2010.06.03 20:15:42.
