data_PCOD9381144
_publ_section_title
;
Structure prediction by ZEFSAII (Michael W. Deem and Ramdas Pophale) SiO2 
 PCOD9381144
Probable space group: I M A 2
;
_chemical_formula_sum "Si O2"
_cell_formula_units_Z 30
_cell_length_a 9.000000
_cell_length_b 12.000000
_cell_length_c 27.000000
_cell_angle_alpha 90.000000
_cell_angle_beta 90.000000
_cell_angle_gamma 90.000000
_cell_volume 2916.000000
_symmetry_space_group_name_H-M "I M A 2"
_symmetry_group_IT_number 46
_symmetry_cell_setting 'orthorhombic'
loop_
_space_group_symop_operation_xyz
x,y,z
-x,-y,z
1/2-x,y,z
1/2+x,-y,z
1/2+x,1/2+y,1/2+z
1/2-x,1/2-y,1/2+z
-x,1/2+y,1/2+z
x,1/2-y,1/2+z
loop_
_atom_site_type_symbol
_atom_site_label
_atom_site_fract_x
_atom_site_fract_y
_atom_site_fract_z
Si Si1 0.429553 0.824926 0.301810
Si Si2 0.571071 0.624486 0.123189
Si Si3 0.084303 0.906473 0.405720
Si Si4 0.000000 0.500000 0.619634
Si Si5 0.419688 0.806025 0.191785
Si Si6 0.074404 0.109858 0.844365
Si Si7 0.581822 0.159228 0.945188
Si Si8 0.916046 0.685459 0.544929
O O1 0.250000 0.826940 0.304837
O O2 0.484372 0.888684 0.350998
O O3 0.473863 0.849787 0.245554
O O4 0.493886 0.705170 0.313926
O O5 0.500000 0.500000 0.122367
O O6 0.750000 0.615017 0.126006
O O7 0.512249 0.703955 0.168042
O O8 0.536493 0.702373 0.074677
O O9 0.250000 0.947074 0.398508
O O10 0.087176 0.790497 0.433376
O O11 0.000000 0.000000 0.435362
O O12 0.080650 0.588501 0.655076
O O13 0.088104 0.415914 0.584005
O O14 0.250000 0.766471 0.197917
O O15 0.250000 0.113810 0.839840
O O16 0.026630 0.117206 0.902148
O O17 0.000000 0.000000 0.824118
O O18 0.750000 0.114409 0.939119
O O19 0.522339 0.148578 0.000430
O O20 0.750000 0.704423 0.524999
#
# Coordination Sequence:
#
# PCOD9381144 Si02
#       8
#     8   8   8   4   8   8   8   8
#     4   9  20  38  57  84 118 152 195 240 290 354
#     4  10  22  40  61  86 118 154 200 253 304 363
#     4   9  19  35  55  81 114 148 188 236 285 344
#     4  10  22  38  62  92 126 158 204 256 306 362
#     4  10  21  39  63  88 120 162 202 249 307 364
#     4  11  22  38  60  85 116 153 194 242 295 353
#     4  10  22  39  58  83 116 154 197 241 294 354
#     4  10  22  39  59  87 120 155 199 249 301 361
#
# _framework density 10.288066000000001
#
# number of rings (size 3 to 8) (size 9 to 14) (size 15 to 20)
#    0.000    2.133    0.000    3.200    1.867    8.000 
#    0.000    2.667    0.000    0.000    0.000    0.000 
#    0.000    0.000    0.000    0.000    0.000    0.000 
#
# Total GULP energy -167084.425759 kJ/mol
# GULP energy per Si atom -5569.480859 kJ/mol
# Density = 1.026465 g / cm^3
# Si number density = 10.288066 Si / 1000 Ang^3
#
#
#
# Elastic Constant Matrix: (Units=GPa)
#
#
# Indices 1 2 3 4 5 6 
#
# 1 -61.2032 11.5875 -11.1721 0.0000 0.0000 0.0000
# 2 11.5875 109.2915 3.2939 0.0000 0.0000 0.0000
# 3 -11.1721 3.2939 80.5125 0.0000 0.0000 0.0000
# 4 0.0000 0.0000 0.0000 2004.5675 0.0000 0.0000
# 5 0.0000 0.0000 0.0000 0.0000 28.8008 0.0000
# 6 0.0000 0.0000 0.0000 0.0000 0.0000 19.0792
#
#
#
# Elastic Compliance Matrix: (Units=1/GPa)
#
#
# Indices 1 2 3 4 5 6 
#
# 1 -0.015605 0.001722 -0.002236 0.000000 0.000000 0.000000
# 2 0.001722 0.008971 -0.000128 0.000000 0.000000 0.000000
# 3 -0.002236 -0.000128 0.012115 0.000000 0.000000 0.000000
# 4 0.000000 0.000000 0.000000 0.000499 0.000000 0.000000
# 5 0.000000 0.000000 0.000000 0.000000 0.034721 0.000000
# 6 0.000000 0.000000 0.000000 0.000000 0.000000 0.052413
#
#
# Mechanical properties :
#
#
# Convention : Reuss Voigt Hill
#
# Bulk Modulus (GPa) = 238.22743 15.11327 126.67035
# Shear Modulus (GPa) = 52.19314 418.81561 235.50437
#
# Velocity S-wave (km/s) = 5.04192 14.28238 10.70998
# Velocity P-wave (km/s) = 12.24436 16.71355 14.65038
#
# Compressibility (1/GPa) = 0.00419767
#
# Stress axis : x y z
#
# Youngs Moduli (GPa) = -64.08253 111.46849 82.53940
#
# Poissons Ratio (x) = -0.19194 0.18454
# Poissons Ratio (y) = 0.11034 0.01057
# Poissons Ratio (z) = -0.14328 0.01428
#
# Static dielectric constant tensor:
#      x y z
#    x 1.742710 0.000000 0.000000 
#    y 0.000000 1.615070 0.000000 
#    z 0.000000 0.000000 1.751380 
# 
# From -- ./inp_files/24275.got.cif
#   From: 2010.05.17/outbox.ucp.g08.bks.cvg/sg46_13_cif.got.tgz:24275.got - 2010.06.11 16:34:52.
