data_PCOD9381045
_publ_section_title
;
Structure prediction by ZEFSAII (Michael W. Deem and Ramdas Pophale) SiO2 
 PCOD9381045
Probable space group: I M A 2
;
_chemical_formula_sum "Si O2"
_cell_formula_units_Z 20
_cell_length_a 14.943221
_cell_length_b 4.824179
_cell_length_c 11.254377
_cell_angle_alpha 90.000000
_cell_angle_beta 90.000000
_cell_angle_gamma 90.000000
_cell_volume 811.314228
_symmetry_space_group_name_H-M "I M A 2"
_symmetry_group_IT_number 46
_symmetry_cell_setting 'orthorhombic'
loop_
_space_group_symop_operation_xyz
x,y,z
-x,-y,z
1/2-x,y,z
1/2+x,-y,z
1/2+x,1/2+y,1/2+z
1/2-x,1/2-y,1/2+z
-x,1/2+y,1/2+z
x,1/2-y,1/2+z
loop_
_atom_site_type_symbol
_atom_site_label
_atom_site_fract_x
_atom_site_fract_y
_atom_site_fract_z
Si Si1 0.000000 0.000000 0.589130
Si Si2 0.149957 0.192520 0.244423
Si Si3 0.409085 0.843496 0.885920
O O1 0.074547 0.188914 0.655470
O O2 0.935951 0.196775 0.508283
O O3 0.250000 0.171693 0.192066
O O4 0.155821 0.402120 0.357976
O O5 0.118243 0.898734 0.295689
O O6 0.500000 0.000000 0.854077
#
# Coordination Sequence:
#
# PCOD9381045 Si02
#       3
#     4   8   8
#     4  12  26  48  80 110 146 212 256 308 384 458
#     4  12  28  48  75 115 156 196 255 320 378 454
#     4  12  25  49  76 106 154 202 250 309 387 448
#
# _framework density 24.651361000000001
#
# number of rings (size 3 to 8) (size 9 to 14) (size 15 to 20)
#    0.000    0.000    6.000    1.200    5.600    3.200 
#    0.000    0.000    0.000    0.000    0.000    0.000 
#    0.000    0.000    0.000    0.000    0.000    0.000 
#
# Total GULP energy -55784.597432 kJ/mol
# GULP energy per Si atom -5578.459743 kJ/mol
# Density = 2.459525 g / cm^3
# Si number density = 24.651361 Si / 1000 Ang^3
#
#
#
# Elastic Constant Matrix: (Units=GPa)
#
#
# Indices 1 2 3 4 5 6 
#
# 1 175.1994 37.7624 35.6728 0.0000 0.0000 0.0000
# 2 37.7624 175.4682 24.0045 0.0000 0.0000 0.0000
# 3 35.6728 24.0045 58.9085 0.0000 0.0000 0.0000
# 4 0.0000 0.0000 0.0000 21.9429 0.0000 0.0000
# 5 0.0000 0.0000 0.0000 0.0000 15.3609 0.0000
# 6 0.0000 0.0000 0.0000 0.0000 0.0000 -74.1875
#
#
#
# Elastic Compliance Matrix: (Units=1/GPa)
#
#
# Indices 1 2 3 4 5 6 
#
# 1 0.006652 -0.000932 -0.003648 0.000000 0.000000 0.000000
# 2 -0.000932 0.006166 -0.001948 0.000000 0.000000 0.000000
# 3 -0.003648 -0.001948 0.019978 0.000000 0.000000 0.000000
# 4 0.000000 0.000000 0.000000 0.045573 0.000000 0.000000
# 5 0.000000 0.000000 0.000000 0.000000 0.065100 0.000000
# 6 0.000000 0.000000 0.000000 0.000000 0.000000 -0.013479
#
#
# Mechanical properties :
#
#
# Convention : Reuss Voigt Hill
#
# Bulk Modulus (GPa) = 50.66044 67.16172 58.91108
# Shear Modulus (GPa) = 33.41655 13.43235 23.42445
#
# Velocity S-wave (km/s) = 3.68580 2.33683 3.08592
# Velocity P-wave (km/s) = 6.22164 5.88088 6.05366
#
# Compressibility (1/GPa) = 0.01973927
#
# Stress axis : x y z
#
# Youngs Moduli (GPa) = 150.34146 162.17455 50.05421
#
# Poissons Ratio (x) = 0.15121 0.18260
# Poissons Ratio (y) = 0.14018 0.09751
# Poissons Ratio (z) = 0.54844 0.31592
#
# Static dielectric constant tensor:
#      x y z
#    x 2.614020 0.000000 0.000000 
#    y 0.000000 1.941030 0.000000 
#    z 0.000000 0.000000 2.173930 
# 
# From -- ./inp_files/10652.got.cif
#   From: 2010.05.17/outbox.cif.g08.bks.cpg/sg46_6_cif.got.tgz:10652.got - 2010.06.03 19:58:25.
