data_PCOD9381938
_publ_section_title
;
Structure prediction by ZEFSAII (Michael W. Deem and Ramdas Pophale) SiO2 
 PCOD9381938
Probable space group: P M M M
;
_chemical_formula_sum "Si O2"
_cell_formula_units_Z 52
_cell_length_a 7.796143
_cell_length_b 31.006442
_cell_length_c 12.188716
_cell_angle_alpha 90.000000
_cell_angle_beta 90.000000
_cell_angle_gamma 90.000000
_cell_volume 2946.386311
_symmetry_space_group_name_H-M "P M M M"
_symmetry_group_IT_number 47
_symmetry_cell_setting 'orthorhombic'
loop_
_space_group_symop_operation_xyz
x,y,z
-x,-y,z
x,-y,-z
-x,y,-z
-x,-y,-z
x,y,-z
-x,y,z
x,-y,z
loop_
_atom_site_type_symbol
_atom_site_label
_atom_site_fract_x
_atom_site_fract_y
_atom_site_fract_z
Si Si1 0.205232 0.884390 0.368519
Si Si2 0.500000 0.951110 0.632585
Si Si3 0.797933 0.205783 0.724546
Si Si4 0.292585 0.252572 0.500000
Si Si5 0.210662 0.716577 0.127338
Si Si6 0.297629 0.650079 0.500000
Si Si7 0.706471 0.547485 0.125439
Si Si8 0.201642 0.632294 0.741426
O O1 0.227366 0.875232 0.500000
O O2 0.328582 0.924169 0.339342
O O3 0.263858 0.842777 0.298146
O O4 0.000000 0.891899 0.352842
O O5 0.500000 0.953496 0.500000
O O6 0.500000 0.000000 0.675272
O O7 0.772347 0.229704 0.608986
O O8 0.729209 0.238711 0.816509
O O9 0.000000 0.201309 0.746349
O O10 0.500000 0.251441 0.500000
O O11 0.225892 0.301425 0.500000
O O12 0.273344 0.675327 0.198438
O O13 0.000000 0.716809 0.130070
O O14 0.260712 0.712742 0.000000
O O15 0.500000 0.654390 0.500000
O O16 0.250144 0.628660 0.614410
O O17 0.500000 0.546296 0.122795
O O18 0.765326 0.500000 0.164653
O O19 0.755384 0.588559 0.195804
O O20 0.767207 0.552911 0.000000
O O21 0.000000 0.638096 0.745772
#
# Coordination Sequence:
#
# PCOD9381938 Si02
#       8
#     8   4   8   4   8   4   8   8
#     4   9  17  27  43  68  94 128 172 211 253 307
#     4   9  18  30  44  64  95 135 169 209 263 307
#     4  10  18  30  48  69  99 133 169 208 248 297
#     4  11  21  29  47  72  96 130 172 213 247 286
#     4   9  18  31  48  72 102 135 166 199 248 305
#     4  11  23  37  50  74 105 137 178 211 252 309
#     4   9  19  37  59  80 104 136 170 206 255 312
#     4  11  21  34  55  79 105 134 169 215 259 299
#
# _framework density 17.648738000000002
#
# number of rings (size 3 to 8) (size 9 to 14) (size 15 to 20)
#    0.000    2.231    2.308    1.846    1.077    2.154 
#    0.000    2.692    0.000    3.692    0.000    0.000 
#    0.000    1.231    0.000    6.000    0.000    0.154 
#
# Total GULP energy -289859.695006 kJ/mol
# GULP energy per Si atom -5574.224904 kJ/mol
# Density = 1.760857 g / cm^3
# Si number density = 17.648738 Si / 1000 Ang^3
#
#
#
# Elastic Constant Matrix: (Units=GPa)
#
#
# Indices 1 2 3 4 5 6 
#
# 1 38.6021 34.2736 14.2826 0.0000 0.0000 0.0000
# 2 34.2736 147.9234 73.4372 0.0000 0.0000 0.0000
# 3 14.2826 73.4372 97.4320 0.0000 0.0000 0.0000
# 4 0.0000 0.0000 0.0000 18.3322 0.0000 0.0000
# 5 0.0000 0.0000 0.0000 0.0000 15.6678 0.0000
# 6 0.0000 0.0000 0.0000 0.0000 0.0000 22.9661
#
#
#
# Elastic Compliance Matrix: (Units=1/GPa)
#
#
# Indices 1 2 3 4 5 6 
#
# 1 0.032746 -0.008316 0.001468 0.000000 0.000000 0.000000
# 2 -0.008316 0.012914 -0.008515 0.000000 0.000000 0.000000
# 3 0.001468 -0.008515 0.016466 0.000000 0.000000 0.000000
# 4 0.000000 0.000000 0.000000 0.054549 0.000000 0.000000
# 5 0.000000 0.000000 0.000000 0.000000 0.063825 0.000000
# 6 0.000000 0.000000 0.000000 0.000000 0.000000 0.043542
#
#
# Mechanical properties :
#
#
# Convention : Reuss Voigt Hill
#
# Bulk Modulus (GPa) = 31.84687 58.66046 45.25366
# Shear Modulus (GPa) = 18.85120 22.19082 20.52101
#
# Velocity S-wave (km/s) = 3.27178 3.54977 3.41361
# Velocity P-wave (km/s) = 5.68830 7.07892 6.42136
#
# Compressibility (1/GPa) = 0.03140026
#
# Stress axis : x y z
#
# Youngs Moduli (GPa) = 30.53846 77.43426 60.73026
#
# Poissons Ratio (x) = 0.64392 -0.08913
# Poissons Ratio (y) = 0.25395 0.51710
# Poissons Ratio (z) = -0.04482 0.65934
#
# Static dielectric constant tensor:
#      x y z
#    x 1.633550 0.000000 0.000000 
#    y 0.000000 1.710680 0.000000 
#    z 0.000000 0.000000 1.568800 
# 
# From -- ./inp_files/15543.got.cif
#   From: 2010.05.17/outbox.cif.g08.bks.cpg/sg47_8_cif.got.tgz:15543.got - 2010.06.03 20:15:42.
