data_PCOD9381492
_publ_section_title
;
Structure prediction by ZEFSAII (Michael W. Deem and Ramdas Pophale) SiO2 
 PCOD9381492
Probable space group: P M M M
;
_chemical_formula_sum "Si O2"
_cell_formula_units_Z 48
_cell_length_a 20.405391
_cell_length_b 23.036894
_cell_length_c 8.039222
_cell_angle_alpha 90.000000
_cell_angle_beta 90.000000
_cell_angle_gamma 90.000000
_cell_volume 3779.051989
_symmetry_space_group_name_H-M "P M M M"
_symmetry_group_IT_number 47
_symmetry_cell_setting 'orthorhombic'
loop_
_space_group_symop_operation_xyz
x,y,z
-x,-y,z
x,-y,-z
-x,y,-z
-x,-y,-z
x,y,-z
-x,y,z
x,-y,z
loop_
_atom_site_type_symbol
_atom_site_label
_atom_site_fract_x
_atom_site_fract_y
_atom_site_fract_z
Si Si1 0.920372 0.857035 0.314662
Si Si2 0.924147 0.500000 0.203815
Si Si3 0.079992 0.067060 0.000000
Si Si4 0.429199 0.568295 0.799773
Si Si5 0.151693 0.614527 0.801353
Si Si6 0.923241 0.728439 0.201479
Si Si7 0.287426 0.566869 0.302750
O O1 0.898765 0.874034 0.500000
O O2 0.903117 0.790221 0.276804
O O3 0.000000 0.858740 0.312848
O O4 0.898381 0.898695 0.165408
O O5 0.887080 0.557834 0.262308
O O6 0.000000 0.500000 0.252520
O O7 0.922237 0.500000 0.000000
O O8 0.000000 0.067972 0.000000
O O9 0.100208 0.000000 0.000000
O O10 0.500000 0.592603 0.743591
O O11 0.429339 0.500000 0.752003
O O12 0.359798 0.591016 0.736525
O O13 0.428123 0.570934 0.000000
O O14 0.120433 0.674487 0.739684
O O15 0.227942 0.604433 0.766470
O O16 0.142167 0.615307 0.000000
O O17 0.000000 0.717717 0.241174
O O18 0.919162 0.733466 0.000000
O O19 0.280230 0.563862 0.500000
O O20 0.282694 0.500000 0.236063
#
# Coordination Sequence:
#
# PCOD9381492 Si02
#       7
#     8   4   4   8   8   8   8
#     4   9  16  26  40  56  74  97 122 148 182 223
#     4   9  16  26  39  55  68  81 114 159 197 236
#     4   9  16  26  40  58  80  99 115 143 180 220
#     4   8  14  25  41  57  69  83 106 134 166 213
#     4  10  18  27  41  55  67  89 119 153 194 234
#     4   9  16  27  41  55  70  90 121 160 197 232
#     4  10  19  28  37  50  72  95 112 139 182 229
#
# _framework density 12.701598000000001
#
# number of rings (size 3 to 8) (size 9 to 14) (size 15 to 20)
#    0.000    2.833    1.667    1.500    0.000    4.000 
#    0.000    3.333    0.000    2.000    0.000    0.000 
#    0.000    0.000    0.000    0.000    0.000    0.000 
#
# Total GULP energy -267259.247282 kJ/mol
# GULP energy per Si atom -5567.900985 kJ/mol
# Density = 1.267269 g / cm^3
# Si number density = 12.701598 Si / 1000 Ang^3
#
#
#
# Elastic Constant Matrix: (Units=GPa)
#
#
# Indices 1 2 3 4 5 6 
#
# 1 60.7601 32.3808 10.8334 0.0000 0.0000 0.0000
# 2 32.3808 82.2681 36.0521 0.0000 0.0000 0.0000
# 3 10.8334 36.0521 43.6010 0.0000 0.0000 0.0000
# 4 0.0000 0.0000 0.0000 3.8528 0.0000 0.0000
# 5 0.0000 0.0000 0.0000 0.0000 0.3378 0.0000
# 6 0.0000 0.0000 0.0000 0.0000 0.0000 2.1458
#
#
#
# Elastic Compliance Matrix: (Units=1/GPa)
#
#
# Indices 1 2 3 4 5 6 
#
# 1 0.021004 -0.009379 0.002536 0.000000 0.000000 0.000000
# 2 -0.009379 0.023250 -0.016895 0.000000 0.000000 0.000000
# 3 0.002536 -0.016895 0.036275 0.000000 0.000000 0.000000
# 4 0.000000 0.000000 0.000000 0.259552 0.000000 0.000000
# 5 0.000000 0.000000 0.000000 0.000000 2.960235 0.000000
# 6 0.000000 0.000000 0.000000 0.000000 0.000000 0.466017
#
#
# Mechanical properties :
#
#
# Convention : Reuss Voigt Hill
#
# Bulk Modulus (GPa) = 30.25284 38.35131 34.30207
# Shear Modulus (GPa) = 1.30725 8.42482 4.86603
#
# Velocity S-wave (km/s) = 1.01560 2.57823 1.95943
# Velocity P-wave (km/s) = 5.02445 6.25481 5.67308
#
# Compressibility (1/GPa) = 0.03305475
#
# Stress axis : x y z
#
# Youngs Moduli (GPa) = 47.60975 43.00984 27.56735
#
# Poissons Ratio (x) = 0.40337 -0.06991
# Poissons Ratio (y) = 0.44651 0.46574
# Poissons Ratio (z) = -0.12074 0.72664
#
# Static dielectric constant tensor:
#      x y z
#    x 1.410750 0.000000 0.000000 
#    y 0.000000 1.400520 0.000000 
#    z 0.000000 0.000000 1.451880 
# 
# From -- ./inp_files/11710.got.cif
#   From: 2010.05.17/outbox.cif.g08.bks.cpg/sg47_6_cif.got.tgz:11710.got - 2010.06.03 20:15:42.
