data_PCOD9381794
_publ_section_title
;
Structure prediction by ZEFSAII (Michael W. Deem and Ramdas Pophale) SiO2 
 PCOD9381794
Probable space group: P M M M
;
_chemical_formula_sum "Si O2"
_cell_formula_units_Z 64
_cell_length_a 8.391881
_cell_length_b 20.589450
_cell_length_c 21.030372
_cell_angle_alpha 90.000000
_cell_angle_beta 90.000000
_cell_angle_gamma 90.000000
_cell_volume 3633.716302
_symmetry_space_group_name_H-M "P M M M"
_symmetry_group_IT_number 47
_symmetry_cell_setting 'orthorhombic'
loop_
_space_group_symop_operation_xyz
x,y,z
-x,-y,z
x,-y,-z
-x,y,-z
-x,-y,-z
x,y,-z
-x,y,z
x,-y,z
loop_
_atom_site_type_symbol
_atom_site_label
_atom_site_fract_x
_atom_site_fract_y
_atom_site_fract_z
Si Si1 0.308309 0.711662 0.610236
Si Si2 0.192636 0.074206 0.693573
Si Si3 0.809520 0.288868 0.756337
Si Si4 0.689333 0.429782 0.599919
Si Si5 0.311610 0.158345 0.187971
Si Si6 0.191234 0.430109 0.743807
Si Si7 0.192372 0.926161 0.926768
Si Si8 0.192141 0.150084 0.569000
O O1 0.500000 0.711667 0.607811
O O2 0.255243 0.717092 0.684119
O O3 0.250863 0.642145 0.581667
O O4 0.243336 0.775320 0.576433
O O5 0.241770 0.115686 0.754384
O O6 0.250989 0.109099 0.629248
O O7 0.000000 0.073285 0.691574
O O8 0.248518 0.000000 0.697965
O O9 0.743310 0.231982 0.799977
O O10 0.768736 0.362500 0.777570
O O11 0.000000 0.282062 0.753422
O O12 0.500000 0.430400 0.587104
O O13 0.753771 0.500000 0.576535
O O14 0.720522 0.429975 0.675891
O O15 0.500000 0.155734 0.191610
O O16 0.255651 0.126263 0.122401
O O17 0.225783 0.500000 0.774954
O O18 0.000000 0.428067 0.731142
O O19 0.000000 0.925140 0.924749
O O20 0.242344 0.000000 0.909103
O O21 0.240703 0.914743 0.000000
O O22 0.245356 0.125230 0.500000
O O23 0.000000 0.147728 0.570613
#
# Coordination Sequence:
#
# PCOD9381794 Si02
#       8
#     8   8   8   8   8   8   8   8
#     4  10  18  29  47  70  94 122 157 199 249 299
#     4  10  21  37  56  75  96 125 161 203 253 308
#     4  10  18  29  47  69  98 134 168 205 247 293
#     4   8  14  24  39  61  89 119 151 188 233 289
#     4  12  23  33  50  78 110 140 170 206 246 290
#     4   8  14  24  39  62  91 123 160 201 245 289
#     4   9  19  37  59  80 104 138 177 211 246 294
#     4  10  21  36  53  71  92 123 162 204 253 309
#
# _framework density 17.612822999999999
#
# number of rings (size 3 to 8) (size 9 to 14) (size 15 to 20)
#    0.000    2.375    1.250    2.625    0.000    3.750 
#    0.000    1.875    0.000    0.375    0.000    4.375 
#    0.000    0.500    0.000    5.750    0.000    1.625 
#
# Total GULP energy -356738.670842 kJ/mol
# GULP energy per Si atom -5574.041732 kJ/mol
# Density = 1.757273 g / cm^3
# Si number density = 17.612823 Si / 1000 Ang^3
#
#
#
# Elastic Constant Matrix: (Units=GPa)
#
#
# Indices 1 2 3 4 5 6 
#
# 1 15.0621 16.7718 12.0908 0.0000 0.0000 0.0000
# 2 16.7718 147.5927 56.2558 0.0000 0.0000 0.0000
# 3 12.0908 56.2558 70.4667 0.0000 0.0000 0.0000
# 4 0.0000 0.0000 0.0000 83.8675 0.0000 0.0000
# 5 0.0000 0.0000 0.0000 0.0000 -263.1140 0.0000
# 6 0.0000 0.0000 0.0000 0.0000 0.0000 14.4407
#
#
#
# Elastic Compliance Matrix: (Units=1/GPa)
#
#
# Indices 1 2 3 4 5 6 
#
# 1 0.080039 -0.005549 -0.009303 0.000000 0.000000 0.000000
# 2 -0.005549 0.010124 -0.007130 0.000000 0.000000 0.000000
# 3 -0.009303 -0.007130 0.021479 0.000000 0.000000 0.000000
# 4 0.000000 0.000000 0.000000 0.011924 0.000000 0.000000
# 5 0.000000 0.000000 0.000000 0.000000 -0.003801 0.000000
# 6 0.000000 0.000000 0.000000 0.000000 0.000000 0.069249
#
#
# Mechanical properties :
#
#
# Convention : Reuss Voigt Hill
#
# Bulk Modulus (GPa) = 14.77593 44.81759 29.79676
# Shear Modulus (GPa) = 19.56661 -23.09429 -1.76384
#
# Velocity S-wave (km/s) = 3.33668 -3.62501 -1.00181
# Velocity P-wave (km/s) = 4.82204 2.82495 3.95173
#
# Compressibility (1/GPa) = 0.06767763
#
# Stress axis : x y z
#
# Youngs Moduli (GPa) = 12.49389 98.77917 46.55654
#
# Poissons Ratio (x) = 0.54817 0.43311
# Poissons Ratio (y) = 0.06933 0.33194
# Poissons Ratio (z) = 0.11623 0.70428
#
# Static dielectric constant tensor:
#      x y z
#    x 1.605700 0.000000 0.000000 
#    y 0.000000 1.659780 0.000000 
#    z 0.000000 0.000000 1.581080 
# 
# From -- ./inp_files/28779.got.cif
#   From: 2010.05.17/outbox.cif.g08.bks.cpg/sg47_15_cif.got.tgz:28779.got - 2010.06.03 20:15:42.
