data_PCOD9381758
_publ_section_title
;
Structure prediction by ZEFSAII (Michael W. Deem and Ramdas Pophale) SiO2 
 PCOD9381758
Probable space group: P M M M
;
_chemical_formula_sum "Si O2"
_cell_formula_units_Z 44
_cell_length_a 23.544003
_cell_length_b 14.030303
_cell_length_c 7.848372
_cell_angle_alpha 90.000000
_cell_angle_beta 90.000000
_cell_angle_gamma 90.000000
_cell_volume 2592.548767
_symmetry_space_group_name_H-M "P M M M"
_symmetry_group_IT_number 47
_symmetry_cell_setting 'orthorhombic'
loop_
_space_group_symop_operation_xyz
x,y,z
-x,-y,z
x,-y,-z
-x,y,-z
-x,-y,-z
x,y,-z
-x,y,z
x,-y,z
loop_
_atom_site_type_symbol
_atom_site_label
_atom_site_fract_x
_atom_site_fract_y
_atom_site_fract_z
Si Si1 0.179656 0.104735 0.296500
Si Si2 0.353973 0.613794 0.807748
Si Si3 0.564914 0.384103 0.500000
Si Si4 0.117621 0.394666 0.205193
Si Si5 0.234915 0.700234 0.295329
Si Si6 0.936754 0.198250 0.793574
O O1 0.187923 0.102682 0.500000
O O2 0.215898 0.194793 0.232142
O O3 0.113813 0.129884 0.264141
O O4 0.193481 0.000000 0.227304
O O5 0.344660 0.500000 0.786001
O O6 0.399447 0.644576 0.666520
O O7 0.293834 0.664673 0.780274
O O8 0.374464 0.629803 0.000000
O O9 0.563070 0.500000 0.500000
O O10 0.500000 0.350245 0.500000
O O11 0.102416 0.500000 0.269272
O O12 0.182564 0.369062 0.250011
O O13 0.079968 0.305342 0.265110
O O14 0.112919 0.396318 0.000000
O O15 0.240316 0.701889 0.500000
O O16 0.000000 0.172505 0.736337
O O17 0.936373 0.198327 0.000000
#
# Coordination Sequence:
#
# PCOD9381758 Si02
#       6
#     8   8   4   8   8   8
#     4   9  19  34  49  65  86 114 148 190 241 292
#     4  10  19  30  47  72 102 136 170 202 236 275
#     4   9  18  32  48  70 103 141 178 207 229 261
#     4   9  17  28  42  61  85 114 148 187 232 282
#     4  10  18  29  46  66  91 120 152 194 241 289
#     4   9  18  31  45  62  84 111 146 187 232 286
#
# _framework density 16.971716000000001
#
# number of rings (size 3 to 8) (size 9 to 14) (size 15 to 20)
#    0.000    2.636    0.909    1.091    0.000    5.091 
#    0.000    5.455    0.000    0.000    0.000    5.091 
#    0.000    1.455    0.000    1.636    0.000    0.182 
#
# Total GULP energy -245349.455143 kJ/mol
# GULP energy per Si atom -5576.123981 kJ/mol
# Density = 1.693309 g / cm^3
# Si number density = 16.971716 Si / 1000 Ang^3
#
#
#
# Elastic Constant Matrix: (Units=GPa)
#
#
# Indices 1 2 3 4 5 6 
#
# 1 81.5508 0.0148 20.8092 0.0000 0.0000 0.0000
# 2 0.0148 55.6731 10.2448 0.0000 0.0000 0.0000
# 3 20.8092 10.2448 43.7669 0.0000 0.0000 0.0000
# 4 0.0000 0.0000 0.0000 13.3615 0.0000 0.0000
# 5 0.0000 0.0000 0.0000 0.0000 -26.9618 0.0000
# 6 0.0000 0.0000 0.0000 0.0000 0.0000 8.0632
#
#
#
# Elastic Compliance Matrix: (Units=1/GPa)
#
#
# Indices 1 2 3 4 5 6 
#
# 1 0.014042 0.001280 -0.006976 0.000000 0.000000 0.000000
# 2 0.001280 0.018887 -0.005030 0.000000 0.000000 0.000000
# 3 -0.006976 -0.005030 0.027342 0.000000 0.000000 0.000000
# 4 0.000000 0.000000 0.000000 0.074842 0.000000 0.000000
# 5 0.000000 0.000000 0.000000 0.000000 -0.037090 0.000000
# 6 0.000000 0.000000 0.000000 0.000000 0.000000 0.124021
#
#
# Mechanical properties :
#
#
# Convention : Reuss Voigt Hill
#
# Bulk Modulus (GPa) = 25.75965 27.01428 26.38696
# Shear Modulus (GPa) = 19.49802 8.88739 14.19271
#
# Velocity S-wave (km/s) = 3.39315 2.29084 2.89495
# Velocity P-wave (km/s) = 5.52831 4.79052 5.17259
#
# Compressibility (1/GPa) = 0.03882040
#
# Stress axis : x y z
#
# Youngs Moduli (GPa) = 71.21430 52.94601 36.57327
#
# Poissons Ratio (x) = -0.06777 0.25514
# Poissons Ratio (y) = -0.09115 0.18395
# Poissons Ratio (z) = 0.49679 0.26630
#
# Static dielectric constant tensor:
#      x y z
#    x 1.538730 0.000000 0.000000 
#    y 0.000000 1.591500 0.000000 
#    z 0.000000 0.000000 1.614230 
# 
# From -- ./inp_files/10872.got.cif
#   From: 2010.05.17/outbox.cif.g08.bks.cpg/sg47_6_cif.got.tgz:10872.got - 2010.06.03 20:15:42.
