data_PCOD9381623
_publ_section_title
;
Structure prediction by ZEFSAII (Michael W. Deem and Ramdas Pophale) SiO2 
 PCOD9381623
Probable space group: P M M M
;
_chemical_formula_sum "Si O2"
_cell_formula_units_Z 52
_cell_length_a 24.113001
_cell_length_b 14.955779
_cell_length_c 7.360831
_cell_angle_alpha 90.000000
_cell_angle_beta 90.000000
_cell_angle_gamma 90.000000
_cell_volume 2654.527017
_symmetry_space_group_name_H-M "P M M M"
_symmetry_group_IT_number 47
_symmetry_cell_setting 'orthorhombic'
loop_
_space_group_symop_operation_xyz
x,y,z
-x,-y,z
x,-y,-z
-x,y,-z
-x,-y,-z
x,y,-z
-x,y,z
x,-y,z
loop_
_atom_site_type_symbol
_atom_site_label
_atom_site_fract_x
_atom_site_fract_y
_atom_site_fract_z
Si Si1 0.560551 0.292116 0.721961
Si Si2 0.277610 0.900754 0.220082
Si Si3 0.878320 0.603559 0.777051
Si Si4 0.591694 0.901881 0.711597
Si Si5 0.669616 0.602381 0.719744
Si Si6 0.776853 0.278095 0.211772
Si Si7 0.000000 0.608493 0.790140
O O1 0.562653 0.290544 0.500000
O O2 0.500000 0.327291 0.773609
O O3 0.566752 0.189550 0.785905
O O4 0.613043 0.349957 0.781515
O O5 0.341612 0.891095 0.278851
O O6 0.241050 0.818191 0.287690
O O7 0.258767 0.000000 0.274905
O O8 0.278476 0.897736 0.000000
O O9 0.868598 0.500000 0.723852
O O10 0.829412 0.668190 0.713537
O O11 0.939760 0.633138 0.714692
O O12 0.878990 0.603084 0.000000
O O13 0.575533 0.905050 0.500000
O O14 0.578110 0.000000 0.789876
O O15 0.669040 0.602272 0.500000
O O16 0.673156 0.500000 0.780869
O O17 0.722886 0.659095 0.776527
O O18 0.789616 0.263015 0.000000
O O19 0.000000 0.500000 0.789329
O O20 0.000000 0.638100 0.000000
#
# Coordination Sequence:
#
# PCOD9381623 Si02
#       7
#     8   8   8   8   8   8   4
#     4   9  17  29  44  62  83 106 135 170 207 250
#     4   9  17  28  42  61  85 111 136 164 204 252
#     4   8  13  21  35  58  85 110 137 169 204 240
#     4   9  16  27  45  65  82 102 130 168 212 253
#     4  10  20  32  45  62  85 111 139 173 211 248
#     4  10  18  28  45  66  86 110 140 174 209 246
#     4   7  10  18  32  52  82 112 134 165 205 237
#
# _framework density 19.589176999999999
#
# number of rings (size 3 to 8) (size 9 to 14) (size 15 to 20)
#    0.000    3.000    1.538    1.385    0.000    1.538 
#    0.000    3.077    0.000    1.846    0.000    4.308 
#    0.000    7.385    0.000    0.000    0.000    8.846 
#
# Total GULP energy -290047.062710 kJ/mol
# GULP energy per Si atom -5577.828129 kJ/mol
# Density = 1.954459 g / cm^3
# Si number density = 19.589177 Si / 1000 Ang^3
#
#
#
# Elastic Constant Matrix: (Units=GPa)
#
#
# Indices 1 2 3 4 5 6 
#
# 1 147.4929 66.3866 -5.9068 0.0000 0.0000 0.0000
# 2 66.3866 117.7503 -2.0487 0.0000 0.0000 0.0000
# 3 -5.9068 -2.0487 71.6062 0.0000 0.0000 0.0000
# 4 0.0000 0.0000 0.0000 2.4621 0.0000 0.0000
# 5 0.0000 0.0000 0.0000 0.0000 8.5310 0.0000
# 6 0.0000 0.0000 0.0000 0.0000 0.0000 29.8990
#
#
#
# Elastic Compliance Matrix: (Units=1/GPa)
#
#
# Indices 1 2 3 4 5 6 
#
# 1 0.009112 -0.005127 0.000605 0.000000 0.000000 0.000000
# 2 -0.005127 0.011381 -0.000097 0.000000 0.000000 0.000000
# 3 0.000605 -0.000097 0.014012 0.000000 0.000000 0.000000
# 4 0.000000 0.000000 0.000000 0.406155 0.000000 0.000000
# 5 0.000000 0.000000 0.000000 0.000000 0.117219 0.000000
# 6 0.000000 0.000000 0.000000 0.000000 0.000000 0.033446
#
#
# Mechanical properties :
#
#
# Convention : Reuss Voigt Hill
#
# Bulk Modulus (GPa) = 39.57656 50.41239 44.99447
# Shear Modulus (GPa) = 8.21037 26.73965 17.47501
#
# Velocity S-wave (km/s) = 2.04948 3.69863 2.99000
# Velocity P-wave (km/s) = 5.08406 6.63555 5.91093
#
# Compressibility (1/GPa) = 0.02526748
#
# Stress axis : x y z
#
# Youngs Moduli (GPa) = 109.74925 87.86443 71.36540
#
# Poissons Ratio (x) = 0.45044 -0.04317
# Poissons Ratio (y) = 0.56264 0.00694
# Poissons Ratio (z) = -0.06639 0.00855
#
# Static dielectric constant tensor:
#      x y z
#    x 1.675490 0.000000 0.000000 
#    y 0.000000 1.684250 0.000000 
#    z 0.000000 0.000000 1.804890 
# 
# From -- ./inp_files/12501.got.cif
#   From: 2010.05.17/outbox.cif.g08.bks.cpg/sg47_7_cif.got.tgz:12501.got - 2010.06.03 20:15:42.
