data_PCOD9381228
_publ_section_title
;
Structure prediction by ZEFSAII (Michael W. Deem and Ramdas Pophale) SiO2 
 PCOD9381228
Probable space group: P M M M
;
_chemical_formula_sum "Si O2"
_cell_formula_units_Z 64
_cell_length_a 14.777130
_cell_length_b 7.764844
_cell_length_c 32.676232
_cell_angle_alpha 90.000000
_cell_angle_beta 90.000000
_cell_angle_gamma 90.000000
_cell_volume 3749.339781
_symmetry_space_group_name_H-M "P M M M"
_symmetry_group_IT_number 47
_symmetry_cell_setting 'orthorhombic'
loop_
_space_group_symop_operation_xyz
x,y,z
-x,-y,z
x,-y,-z
-x,y,-z
-x,-y,-z
x,y,-z
-x,y,z
x,-y,z
loop_
_atom_site_type_symbol
_atom_site_label
_atom_site_fract_x
_atom_site_fract_y
_atom_site_fract_z
Si Si1 0.208459 0.294793 0.713533
Si Si2 0.788493 0.297242 0.125299
Si Si3 0.894912 0.711202 0.794938
Si Si4 0.601491 0.792280 0.746004
Si Si5 0.891042 0.706401 0.455997
Si Si6 0.399337 0.792885 0.839692
Si Si7 0.105673 0.711052 0.633342
Si Si8 0.102097 0.206345 0.045691
O O1 0.193934 0.500000 0.713238
O O2 0.157595 0.228958 0.754272
O O3 0.314987 0.263449 0.718448
O O4 0.164386 0.228083 0.671696
O O5 0.799178 0.500000 0.127985
O O6 0.844591 0.224814 0.164125
O O7 0.683350 0.256731 0.131751
O O8 0.829784 0.245423 0.082041
O O9 0.892719 0.500000 0.794870
O O10 0.000000 0.761559 0.794423
O O11 0.500000 0.735276 0.734175
O O12 0.618062 0.732480 0.792944
O O13 0.600803 0.000000 0.746641
O O14 0.857757 0.775542 0.500000
O O15 0.875132 0.500000 0.456502
O O16 0.860636 0.770947 0.411492
O O17 0.000000 0.728875 0.455651
O O18 0.500000 0.732845 0.851757
O O19 0.401819 0.000000 0.838260
O O20 0.107482 0.500000 0.632553
O O21 0.000000 0.758714 0.638635
O O22 0.000000 0.270117 0.055185
O O23 0.097082 0.000000 0.043402
O O24 0.126982 0.269272 0.000000
#
# Coordination Sequence:
#
# PCOD9381228 Si02
#       8
#     8   8   8   8   8   8   8   8
#     4  10  17  26  41  61  85 114 146 178 210 250
#     4  11  20  30  48  74  99 121 147 183 224 263
#     4   9  17  27  38  58  90 122 146 169 201 245
#     4   9  18  32  47  61  81 111 145 182 222 260
#     4   7   9  14  25  43  70 104 141 178 211 245
#     4   9  18  33  51  68  88 117 152 187 222 263
#     4   8  13  20  32  52  79 114 149 175 207 253
#     4   9  19  36  55  73  95 125 158 188 218 255
#
# _framework density 17.069672000000001
#
# number of rings (size 3 to 8) (size 9 to 14) (size 15 to 20)
#    0.000    3.000    1.250    3.375    0.000    3.000 
#    0.000    1.875    0.000    2.625    0.000    2.625 
#    0.000    1.000    0.000    9.375    0.000    3.750 
#
# Total GULP energy -356521.163462 kJ/mol
# GULP energy per Si atom -5570.643179 kJ/mol
# Density = 1.703082 g / cm^3
# Si number density = 17.069672 Si / 1000 Ang^3
#
#
#
# Elastic Constant Matrix: (Units=GPa)
#
#
# Indices 1 2 3 4 5 6 
#
# 1 114.0372 0.6307 95.2523 0.0000 0.0000 0.0000
# 2 0.6307 20.8758 10.3304 0.0000 0.0000 0.0000
# 3 95.2523 10.3304 166.2993 0.0000 0.0000 0.0000
# 4 0.0000 0.0000 0.0000 -1.5839 0.0000 0.0000
# 5 0.0000 0.0000 0.0000 0.0000 10.5511 0.0000
# 6 0.0000 0.0000 0.0000 0.0000 0.0000 16.6342
#
#
#
# Elastic Compliance Matrix: (Units=1/GPa)
#
#
# Indices 1 2 3 4 5 6 
#
# 1 0.017212 0.004497 -0.010138 0.000000 0.000000 0.000000
# 2 0.004497 0.050596 -0.005719 0.000000 0.000000 0.000000
# 3 -0.010138 -0.005719 0.012175 0.000000 0.000000 0.000000
# 4 0.000000 0.000000 0.000000 -0.631344 0.000000 0.000000
# 5 0.000000 0.000000 0.000000 0.000000 0.094777 0.000000
# 6 0.000000 0.000000 0.000000 0.000000 0.000000 0.060117
#
#
# Mechanical properties :
#
#
# Convention : Reuss Voigt Hill
#
# Bulk Modulus (GPa) = 17.46294 57.07100 37.26697
# Shear Modulus (GPa) = -14.09807 18.12021 2.01107
#
# Velocity S-wave (km/s) = -2.87699 3.26167 1.08660
# Velocity P-wave (km/s) = 0.88515 6.90589 4.84293
#
# Compressibility (1/GPa) = 0.05726411
#
# Stress axis : x y z
#
# Youngs Moduli (GPa) = 58.09785 19.76426 82.13290
#
# Poissons Ratio (x) = -0.08888 0.83268
# Poissons Ratio (y) = -0.26126 0.46969
# Poissons Ratio (z) = 0.58901 0.11303
#
# Static dielectric constant tensor:
#      x y z
#    x 1.586730 0.000000 0.000000 
#    y 0.000000 1.630730 0.000000 
#    z 0.000000 0.000000 1.618360 
# 
# From -- ./inp_files/25877.got.cif
#   From: 2010.05.17/outbox.cif.g08.bks.cpg/sg47_13_cif.got.tgz:25877.got - 2010.06.03 20:15:42.
