data_PCOD9381814
_publ_section_title
;
Structure prediction by ZEFSAII (Michael W. Deem and Ramdas Pophale) SiO2 
 PCOD9381814
Probable space group: P M M M
;
_chemical_formula_sum "Si O2"
_cell_formula_units_Z 64
_cell_length_a 14.805473
_cell_length_b 32.349671
_cell_length_c 8.304572
_cell_angle_alpha 90.000000
_cell_angle_beta 90.000000
_cell_angle_gamma 90.000000
_cell_volume 3977.492868
_symmetry_space_group_name_H-M "P M M M"
_symmetry_group_IT_number 47
_symmetry_cell_setting 'orthorhombic'
loop_
_space_group_symop_operation_xyz
x,y,z
-x,-y,z
x,-y,-z
-x,y,-z
-x,-y,-z
x,y,-z
-x,y,z
x,-y,z
loop_
_atom_site_type_symbol
_atom_site_label
_atom_site_fract_x
_atom_site_fract_y
_atom_site_fract_z
Si Si1 0.396072 0.204665 0.692011
Si Si2 0.395762 0.046596 0.803440
Si Si3 0.609171 0.455558 0.308253
Si Si4 0.710775 0.714942 0.189995
Si Si5 0.605267 0.365201 0.695274
Si Si6 0.100690 0.162106 0.195002
Si Si7 0.285692 0.125248 0.806290
Si Si8 0.101445 0.743386 0.692844
O O1 0.396552 0.199799 0.500000
O O2 0.500000 0.207780 0.748413
O O3 0.341456 0.246175 0.732691
O O4 0.346735 0.164879 0.765297
O O5 0.500000 0.054270 0.756340
O O6 0.331623 0.083264 0.744992
O O7 0.370746 0.000000 0.753021
O O8 0.394255 0.046939 0.000000
O O9 0.628639 0.456083 0.500000
O O10 0.500000 0.455159 0.294092
O O11 0.640876 0.500000 0.240733
O O12 0.638193 0.410573 0.246277
O O13 0.664697 0.672557 0.244962
O O14 0.815708 0.717577 0.238116
O O15 0.702695 0.719348 0.000000
O O16 0.606636 0.365658 0.500000
O O17 0.500000 0.359607 0.743196
O O18 0.184205 0.134496 0.252329
O O19 0.114470 0.209003 0.253920
O O20 0.000000 0.148844 0.245975
O O21 0.102320 0.162865 0.000000
O O22 0.281631 0.122096 0.000000
O O23 0.104794 0.741617 0.500000
O O24 0.000000 0.731086 0.745524
#
# Coordination Sequence:
#
# PCOD9381814 Si02
#       8
#     8   8   8   8   8   8   8   8
#     4  11  23  35  46  63  90 122 154 191 231 269
#     4   8  14  25  42  65  91 117 149 190 229 267
#     4   7  10  19  38  63  87 113 151 197 238 272
#     4  12  23  33  46  65  92 126 158 189 226 272
#     4   9  17  29  45  65  92 127 163 198 234 271
#     4   9  17  29  45  67  93 117 144 182 229 274
#     4  10  18  29  48  70  89 116 152 189 228 272
#     4  10  20  34  52  70  88 114 150 191 232 274
#
# _framework density 16.090537000000001
#
# number of rings (size 3 to 8) (size 9 to 14) (size 15 to 20)
#    0.000    2.500    1.250    4.125    0.000    4.000 
#    0.000    0.000    0.000    1.125    0.000    6.125 
#    0.000    0.500    0.000   10.000    0.000    6.500 
#
# Total GULP energy -356658.883229 kJ/mol
# GULP energy per Si atom -5572.795050 kJ/mol
# Density = 1.605391 g / cm^3
# Si number density = 16.090537 Si / 1000 Ang^3
#
#
#
# Elastic Constant Matrix: (Units=GPa)
#
#
# Indices 1 2 3 4 5 6 
#
# 1 106.1696 63.4696 6.4200 0.0000 0.0000 0.0000
# 2 63.4696 119.9714 -2.2276 0.0000 0.0000 0.0000
# 3 6.4200 -2.2276 5.8857 0.0000 0.0000 0.0000
# 4 0.0000 0.0000 0.0000 14.3931 0.0000 0.0000
# 5 0.0000 0.0000 0.0000 0.0000 14.4407 0.0000
# 6 0.0000 0.0000 0.0000 0.0000 0.0000 5.6106
#
#
#
# Elastic Compliance Matrix: (Units=1/GPa)
#
#
# Indices 1 2 3 4 5 6 
#
# 1 0.015946 -0.008821 -0.020732 0.000000 0.000000 0.000000
# 2 -0.008821 0.013274 0.014645 0.000000 0.000000 0.000000
# 3 -0.020732 0.014645 0.198060 0.000000 0.000000 0.000000
# 4 0.000000 0.000000 0.000000 0.069478 0.000000 0.000000
# 5 0.000000 0.000000 0.000000 0.000000 0.069249 0.000000
# 6 0.000000 0.000000 0.000000 0.000000 0.000000 0.178234
#
#
# Mechanical properties :
#
#
# Convention : Reuss Voigt Hill
#
# Bulk Modulus (GPa) = 5.06419 40.81677 22.94048
# Shear Modulus (GPa) = 7.81400 17.84652 12.83026
#
# Velocity S-wave (km/s) = 2.20609 3.33397 2.82685
# Velocity P-wave (km/s) = 3.10535 6.34370 4.99428
#
# Compressibility (1/GPa) = 0.19746498
#
# Stress axis : x y z
#
# Youngs Moduli (GPa) = 62.71251 75.33610 5.04898
#
# Poissons Ratio (x) = 0.66453 0.10467
# Poissons Ratio (y) = 0.55318 -0.07394
# Poissons Ratio (z) = 1.30015 -1.10333
#
# Static dielectric constant tensor:
#      x y z
#    x 1.544530 0.000000 0.000000 
#    y 0.000000 1.549410 0.000000 
#    z 0.000000 0.000000 1.565770 
# 
# From -- ./inp_files/8216.got.cif
#   From: 2010.05.17/outbox.cif.g08.bks.cpg/sg47_5_cif.got.tgz:8216.got - 2010.06.03 20:15:42.
