data_PCOD9381581
_publ_section_title
;
Structure prediction by ZEFSAII (Michael W. Deem and Ramdas Pophale) SiO2 
 PCOD9381581
Probable space group: P M M M
;
_chemical_formula_sum "Si O2"
_cell_formula_units_Z 60
_cell_length_a 9.132754
_cell_length_b 18.654513
_cell_length_c 23.940291
_cell_angle_alpha 90.000000
_cell_angle_beta 90.000000
_cell_angle_gamma 90.000000
_cell_volume 4078.637429
_symmetry_space_group_name_H-M "P M M M"
_symmetry_group_IT_number 47
_symmetry_cell_setting 'orthorhombic'
loop_
_space_group_symop_operation_xyz
x,y,z
-x,-y,z
x,-y,-z
-x,y,-z
-x,-y,-z
x,y,-z
-x,y,z
x,-y,z
loop_
_atom_site_type_symbol
_atom_site_label
_atom_site_fract_x
_atom_site_fract_y
_atom_site_fract_z
Si Si1 0.827598 0.086355 0.885504
Si Si2 0.675533 0.842754 0.779154
Si Si3 0.326681 0.583492 0.672485
Si Si4 0.176708 0.357641 0.437457
Si Si5 0.166682 0.209392 0.608420
Si Si6 0.324449 0.081657 0.661293
Si Si7 0.669018 0.087121 0.000000
Si Si8 0.168373 0.710771 0.271002
O O1 0.746886 0.121791 0.833248
O O2 0.752830 0.109001 0.943746
O O3 0.000000 0.103429 0.885455
O O4 0.813391 0.000000 0.881141
O O5 0.500000 0.840063 0.783816
O O6 0.711973 0.889855 0.723745
O O7 0.742090 0.764012 0.768666
O O8 0.500000 0.599297 0.671081
O O9 0.305751 0.500000 0.685522
O O10 0.257408 0.600367 0.611708
O O11 0.247292 0.635930 0.716200
O O12 0.208473 0.383477 0.500000
O O13 0.218092 0.273359 0.431779
O O14 0.000000 0.361328 0.428554
O O15 0.259405 0.138049 0.617294
O O16 0.166189 0.248835 0.668865
O O17 0.000000 0.190568 0.593764
O O18 0.500000 0.082643 0.657094
O O19 0.272972 0.000000 0.654081
O O20 0.500000 0.110643 0.000000
O O21 0.668822 0.000000 0.000000
O O22 0.000000 0.701846 0.253246
#
# Coordination Sequence:
#
# PCOD9381581 Si02
#       8
#     8   8   8   8   8   8   4   8
#     4  10  19  29  41  59  85 117 154 194 231 265
#     4  10  18  28  43  62  85 112 143 180 220 259
#     4  10  20  32  46  66  91 115 138 165 199 243
#     4   9  18  32  48  64  82 106 137 171 205 244
#     4   8  15  27  42  59  77  99 129 165 204 246
#     4   9  17  27  39  57  80 104 131 166 208 252
#     4   9  17  29  43  57  77 111 154 195 234 273
#     4   9  17  30  46  63  84 110 140 171 206 250
#
# _framework density 14.710796
#
# number of rings (size 3 to 8) (size 9 to 14) (size 15 to 20)
#    0.000    2.733    0.000    3.000    0.000    7.733 
#    0.000    1.333    0.000    0.400    0.000    2.800 
#    0.000    0.000    0.000    0.600    0.000   11.067 
#
# Total GULP energy -334288.850448 kJ/mol
# GULP energy per Si atom -5571.480841 kJ/mol
# Density = 1.467731 g / cm^3
# Si number density = 14.710796 Si / 1000 Ang^3
#
#
#
# Elastic Constant Matrix: (Units=GPa)
#
#
# Indices 1 2 3 4 5 6 
#
# 1 70.9176 38.7532 20.0194 0.0000 0.0000 0.0000
# 2 38.7532 70.4187 5.5292 0.0000 0.0000 0.0000
# 3 20.0194 5.5292 25.9745 0.0000 0.0000 0.0000
# 4 0.0000 0.0000 0.0000 13.1455 0.0000 0.0000
# 5 0.0000 0.0000 0.0000 0.0000 20.4083 0.0000
# 6 0.0000 0.0000 0.0000 0.0000 0.0000 23.6184
#
#
#
# Elastic Compliance Matrix: (Units=1/GPa)
#
#
# Indices 1 2 3 4 5 6 
#
# 1 0.026105 -0.013004 -0.017352 0.000000 0.000000 0.000000
# 2 -0.013004 0.020920 0.005569 0.000000 0.000000 0.000000
# 3 -0.017352 0.005569 0.050687 0.000000 0.000000 0.000000
# 4 0.000000 0.000000 0.000000 0.076072 0.000000 0.000000
# 5 0.000000 0.000000 0.000000 0.000000 0.049000 0.000000
# 6 0.000000 0.000000 0.000000 0.000000 0.000000 0.042340
#
#
# Mechanical properties :
#
#
# Convention : Reuss Voigt Hill
#
# Bulk Modulus (GPa) = 20.77301 32.87936 26.82618
# Shear Modulus (GPa) = 15.11747 18.30171 16.70959
#
# Velocity S-wave (km/s) = 3.20917 3.53101 3.37393
# Velocity P-wave (km/s) = 5.28046 6.24684 5.78387
#
# Compressibility (1/GPa) = 0.04813940
#
# Stress axis : x y z
#
# Youngs Moduli (GPa) = 38.30653 47.80146 19.72876
#
# Poissons Ratio (x) = 0.62161 0.34233
# Poissons Ratio (y) = 0.49813 -0.10988
# Poissons Ratio (z) = 0.66469 -0.26622
#
# Static dielectric constant tensor:
#      x y z
#    x 1.496020 0.000000 0.000000 
#    y 0.000000 1.484390 0.000000 
#    z 0.000000 0.000000 1.470750 
# 
# From -- ./inp_files/32198.got.cif
#   From: 2010.05.17/outbox.cif.g08.bks.cpg/sg47_17_cif.got.tgz:32198.got - 2010.06.03 20:15:42.
