data_PCOD9381397
_publ_section_title
;
Structure prediction by ZEFSAII (Michael W. Deem and Ramdas Pophale) SiO2 
 PCOD9381397
Probable space group: P M M M
;
_chemical_formula_sum "Si O2"
_cell_formula_units_Z 52
_cell_length_a 12.123036
_cell_length_b 31.501593
_cell_length_c 7.676994
_cell_angle_alpha 90.000000
_cell_angle_beta 90.000000
_cell_angle_gamma 90.000000
_cell_volume 2931.805209
_symmetry_space_group_name_H-M "P M M M"
_symmetry_group_IT_number 47
_symmetry_cell_setting 'orthorhombic'
loop_
_space_group_symop_operation_xyz
x,y,z
-x,-y,z
x,-y,-z
-x,y,-z
-x,-y,-z
x,y,-z
-x,y,z
x,-y,z
loop_
_atom_site_type_symbol
_atom_site_label
_atom_site_fract_x
_atom_site_fract_y
_atom_site_fract_z
Si Si1 0.634585 0.951248 0.500000
Si Si2 0.634157 0.112324 0.200067
Si Si3 0.743350 0.546174 0.287603
Si Si4 0.500000 0.571499 0.711495
Si Si5 0.500000 0.330857 0.201297
Si Si6 0.127781 0.630555 0.713579
Si Si7 0.624962 0.205711 0.206475
Si Si8 0.729781 0.291733 0.698729
O O1 0.500000 0.951567 0.500000
O O2 0.669450 0.924743 0.670182
O O3 0.671120 0.000000 0.500000
O O4 0.500000 0.112338 0.196645
O O5 0.662926 0.159460 0.270165
O O6 0.671530 0.106615 0.000000
O O7 0.747231 0.546763 0.500000
O O8 0.786801 0.500000 0.231458
O O9 0.614726 0.549946 0.237903
O O10 0.808373 0.588018 0.228394
O O11 0.500000 0.574321 0.500000
O O12 0.500000 0.618725 0.785942
O O13 0.389758 0.313865 0.289086
O O14 0.500000 0.316357 0.000000
O O15 0.134216 0.630811 0.500000
O O16 0.186881 0.673642 0.777954
O O17 0.000000 0.629087 0.761892
O O18 0.500000 0.215456 0.274199
O O19 0.707408 0.244661 0.232263
O O20 0.613837 0.200090 0.000000
O O21 0.763823 0.286300 0.500000
#
# Coordination Sequence:
#
# PCOD9381397 Si02
#       8
#     4   8   8   4   4   8   8   8
#     4   9  16  24  36  54  78 114 163 205 234 271
#     4   8  15  26  37  52  80 113 148 194 242 279
#     4   9  16  26  45  71  94 115 140 177 225 272
#     4  10  17  30  48  70  96 114 138 176 223 275
#     4  12  22  31  45  67  94 118 140 179 225 274
#     4   9  18  31  45  65  93 118 147 188 223 261
#     4   9  17  28  42  63  90 117 143 184 234 281
#     4  11  20  30  47  69  89 116 149 182 229 281
#
# _framework density 17.736512000000001
#
# number of rings (size 3 to 8) (size 9 to 14) (size 15 to 20)
#    0.000    2.538    2.308    2.308    1.077    1.538 
#    0.000    3.077    0.000    2.769    0.000    0.000 
#    0.000    1.231    0.000    0.000    0.000    1.538 
#
# Total GULP energy -289791.503962 kJ/mol
# GULP energy per Si atom -5572.913538 kJ/mol
# Density = 1.769614 g / cm^3
# Si number density = 17.736512 Si / 1000 Ang^3
#
#
#
# Elastic Constant Matrix: (Units=GPa)
#
#
# Indices 1 2 3 4 5 6 
#
# 1 71.8982 48.7392 7.1470 0.0000 0.0000 0.0000
# 2 48.7392 184.8068 36.4459 0.0000 0.0000 0.0000
# 3 7.1470 36.4459 45.3864 0.0000 0.0000 0.0000
# 4 0.0000 0.0000 0.0000 56.5225 0.0000 0.0000
# 5 0.0000 0.0000 0.0000 0.0000 -1.8364 0.0000
# 6 0.0000 0.0000 0.0000 0.0000 0.0000 -1.5598
#
#
#
# Elastic Compliance Matrix: (Units=1/GPa)
#
#
# Indices 1 2 3 4 5 6 
#
# 1 0.016982 -0.004695 0.001096 0.000000 0.000000 0.000000
# 2 -0.004695 0.007727 -0.005466 0.000000 0.000000 0.000000
# 3 0.001096 -0.005466 0.026250 0.000000 0.000000 0.000000
# 4 0.000000 0.000000 0.000000 0.017692 0.000000 0.000000
# 5 0.000000 0.000000 0.000000 0.000000 -0.544535 0.000000
# 6 0.000000 0.000000 0.000000 0.000000 0.000000 -0.641108
#
#
# Mechanical properties :
#
#
# Convention : Reuss Voigt Hill
#
# Bulk Modulus (GPa) = 30.46049 54.08398 42.27223
# Shear Modulus (GPa) = -4.59593 24.60920 10.00663
#
# Velocity S-wave (km/s) = -1.61147 3.72894 2.37783
# Velocity P-wave (km/s) = 3.70792 7.00708 5.60571
#
# Compressibility (1/GPa) = 0.03282941
#
# Stress axis : x y z
#
# Youngs Moduli (GPa) = 58.88516 129.41435 38.09596
#
# Poissons Ratio (x) = 0.60758 -0.04175
# Poissons Ratio (y) = 0.27646 0.20822
# Poissons Ratio (z) = -0.06453 0.70734
#
# Static dielectric constant tensor:
#      x y z
#    x 1.572850 0.000000 0.000000 
#    y 0.000000 1.635730 0.000000 
#    z 0.000000 0.000000 1.684520 
# 
# From -- ./inp_files/4590.got.cif
#   From: 2010.05.17/outbox.cif.g08.bks.cpg/sg47_3_cif.got.tgz:4590.got - 2010.06.03 20:15:42.
