data_PCOD9381451
_publ_section_title
;
Structure prediction by ZEFSAII (Michael W. Deem and Ramdas Pophale) SiO2 
 PCOD9381451
Probable space group: P M M M
;
_chemical_formula_sum "Si O2"
_cell_formula_units_Z 44
_cell_length_a 22.371178
_cell_length_b 14.289019
_cell_length_c 7.330346
_cell_angle_alpha 90.000000
_cell_angle_beta 90.000000
_cell_angle_gamma 90.000000
_cell_volume 2343.234437
_symmetry_space_group_name_H-M "P M M M"
_symmetry_group_IT_number 47
_symmetry_cell_setting 'orthorhombic'
loop_
_space_group_symop_operation_xyz
x,y,z
-x,-y,z
x,-y,-z
-x,y,-z
-x,-y,-z
x,y,-z
-x,y,z
x,-y,z
loop_
_atom_site_type_symbol
_atom_site_label
_atom_site_fract_x
_atom_site_fract_y
_atom_site_fract_z
Si Si1 0.064345 0.888372 0.220083
Si Si2 0.314132 0.206691 0.786337
Si Si3 0.370227 0.393635 0.719975
Si Si4 0.434435 0.110171 0.221433
Si Si5 0.194600 0.109399 0.777390
Si Si6 0.500000 0.385763 0.711247
O O1 0.129305 0.854218 0.283702
O O2 0.000000 0.851230 0.286456
O O3 0.064666 0.000000 0.257091
O O4 0.063809 0.878599 0.000000
O O5 0.321217 0.317772 0.769624
O O6 0.375405 0.162278 0.710003
O O7 0.252370 0.165854 0.712604
O O8 0.314079 0.181840 0.000000
O O9 0.374432 0.396529 0.500000
O O10 0.359506 0.500000 0.781428
O O11 0.435598 0.359781 0.790394
O O12 0.500000 0.145246 0.282544
O O13 0.430401 0.000000 0.266749
O O14 0.434791 0.116151 0.000000
O O15 0.200741 0.000000 0.727668
O O16 0.193584 0.112210 0.000000
O O17 0.500000 0.500000 0.714059
O O18 0.500000 0.356966 0.500000
#
# Coordination Sequence:
#
# PCOD9381451 Si02
#       6
#     8   8   8   8   8   4
#     4   7   9  14  26  45  71 104 136 159 179 210
#     4  10  18  25  39  61  81 100 126 161 197 228
#     4   9  18  32  46  57  72  97 127 158 197 246
#     4   8  14  24  36  51  74 103 131 155 180 216
#     4   8  13  21  33  52  80 110 135 157 185 224
#     4   7  12  26  45  57  64  83 118 154 189 233
#
# _framework density 18.777464999999999
#
# number of rings (size 3 to 8) (size 9 to 14) (size 15 to 20)
#    0.000    3.727    0.000    3.818    1.273    2.545 
#    0.000    0.000    0.000    3.818    0.000    1.273 
#    0.000    1.455    0.000   13.636    0.000    5.455 
#
# Total GULP energy -245135.837642 kJ/mol
# GULP energy per Si atom -5571.269037 kJ/mol
# Density = 1.873473 g / cm^3
# Si number density = 18.777465 Si / 1000 Ang^3
#
#
#
# Elastic Constant Matrix: (Units=GPa)
#
#
# Indices 1 2 3 4 5 6 
#
# 1 215.6549 77.6449 10.2090 0.0000 0.0000 0.0000
# 2 77.6449 57.8968 -4.1815 0.0000 0.0000 0.0000
# 3 10.2090 -4.1815 71.9493 0.0000 0.0000 0.0000
# 4 0.0000 0.0000 0.0000 11.9336 0.0000 0.0000
# 5 0.0000 0.0000 0.0000 0.0000 -7.7488 0.0000
# 6 0.0000 0.0000 0.0000 0.0000 0.0000 13.8001
#
#
#
# Elastic Compliance Matrix: (Units=1/GPa)
#
#
# Indices 1 2 3 4 5 6 
#
# 1 0.009256 -0.012561 -0.002043 0.000000 0.000000 0.000000
# 2 -0.012561 0.034391 0.003781 0.000000 0.000000 0.000000
# 3 -0.002043 0.003781 0.014408 0.000000 0.000000 0.000000
# 4 0.000000 0.000000 0.000000 0.083797 0.000000 0.000000
# 5 0.000000 0.000000 0.000000 0.000000 -0.129052 0.000000
# 6 0.000000 0.000000 0.000000 0.000000 0.000000 0.072463
#
#
# Mechanical properties :
#
#
# Convention : Reuss Voigt Hill
#
# Bulk Modulus (GPa) = 27.46613 56.98286 42.22449
# Shear Modulus (GPa) = 42.00032 21.05223 31.52628
#
# Velocity S-wave (km/s) = 4.73455 3.35198 4.10193
# Velocity P-wave (km/s) = 6.67435 6.73746 6.70598
#
# Compressibility (1/GPa) = 0.03640848
#
# Stress axis : x y z
#
# Youngs Moduli (GPa) = 108.03421 29.07747 69.40417
#
# Poissons Ratio (x) = 0.36525 0.14182
# Poissons Ratio (y) = 1.35704 -0.26242
# Poissons Ratio (z) = 0.22076 -0.10994
#
# Static dielectric constant tensor:
#      x y z
#    x 1.706880 0.000000 0.000000 
#    y 0.000000 1.633170 0.000000 
#    z 0.000000 0.000000 1.728590 
# 
# From -- ./inp_files/12427.got.cif
#   From: 2010.05.17/outbox.cif.g08.bks.cpg/sg47_7_cif.got.tgz:12427.got - 2010.06.03 20:15:42.
