data_PCOD9381304
_publ_section_title
;
Structure prediction by ZEFSAII (Michael W. Deem and Ramdas Pophale) SiO2 
 PCOD9381304
Probable space group: P M M M
;
_chemical_formula_sum "Si O2"
_cell_formula_units_Z 52
_cell_length_a 7.668325
_cell_length_b 14.095712
_cell_length_c 25.138855
_cell_angle_alpha 90.000000
_cell_angle_beta 90.000000
_cell_angle_gamma 90.000000
_cell_volume 2717.271425
_symmetry_space_group_name_H-M "P M M M"
_symmetry_group_IT_number 47
_symmetry_cell_setting 'orthorhombic'
loop_
_space_group_symop_operation_xyz
x,y,z
-x,-y,z
x,-y,-z
-x,y,-z
-x,-y,-z
x,y,-z
-x,y,z
x,-y,z
loop_
_atom_site_type_symbol
_atom_site_label
_atom_site_fract_x
_atom_site_fract_y
_atom_site_fract_z
Si Si1 0.292541 0.000000 0.559895
Si Si2 0.707457 0.393609 0.767047
Si Si3 0.209173 0.781483 0.837743
Si Si4 0.213143 0.107937 0.735292
Si Si5 0.787063 0.109121 0.060344
Si Si6 0.795694 0.393330 0.355128
Si Si7 0.209840 0.808698 0.374822
O O1 0.245111 0.901011 0.589031
O O2 0.500000 0.000000 0.557305
O O3 0.219897 0.000000 0.500000
O O4 0.500000 0.391879 0.759859
O O5 0.763766 0.500000 0.780925
O O6 0.752539 0.321627 0.814017
O O7 0.784732 0.372605 0.708534
O O8 0.273950 0.850375 0.790915
O O9 0.274303 0.817531 0.894749
O O10 0.000000 0.790288 0.839909
O O11 0.274885 0.164497 0.684037
O O12 0.000000 0.111443 0.735340
O O13 0.265461 0.000000 0.729095
O O14 0.000000 0.110761 0.059774
O O15 0.738275 0.000000 0.073482
O O16 0.729710 0.129809 0.000000
O O17 0.719942 0.500000 0.363385
O O18 0.725125 0.299206 0.385119
O O19 0.000000 0.400096 0.368690
O O20 0.000000 0.801574 0.372914
#
# Coordination Sequence:
#
# PCOD9381304 Si02
#       7
#     4   8   8   8   8   8   8
#     4  11  25  41  55  75 105 141 178 213 250 292
#     4  10  20  31  43  64  97 132 164 200 244 297
#     4  10  17  27  46  69  93 125 162 200 244 292
#     4   9  15  24  41  69 100 125 151 188 235 288
#     4   8  14  25  43  69  97 123 155 197 244 294
#     4   9  17  31  52  78 107 136 167 205 251 303
#     4  10  18  32  54  78 103 133 169 207 248 300
#
# _framework density 19.136844
#
# number of rings (size 3 to 8) (size 9 to 14) (size 15 to 20)
#    0.000    2.538    2.308    1.615    0.000    4.000 
#    0.000    0.000    0.000    2.769    0.000    7.538 
#    0.000    0.000    0.000    0.000    0.000    0.000 
#
# Total GULP energy -289683.051648 kJ/mol
# GULP energy per Si atom -5570.827916 kJ/mol
# Density = 1.909329 g / cm^3
# Si number density = 19.136844 Si / 1000 Ang^3
#
#
#
# Elastic Constant Matrix: (Units=GPa)
#
#
# Indices 1 2 3 4 5 6 
#
# 1 35.0167 3.2475 2.6491 0.0000 0.0000 0.0000
# 2 3.2475 185.0856 61.6300 0.0000 0.0000 0.0000
# 3 2.6491 61.6300 59.3699 0.0000 0.0000 0.0000
# 4 0.0000 0.0000 0.0000 11.6542 0.0000 0.0000
# 5 0.0000 0.0000 0.0000 0.0000 6.7549 0.0000
# 6 0.0000 0.0000 0.0000 0.0000 0.0000 -28.4884
#
#
#
# Elastic Compliance Matrix: (Units=1/GPa)
#
#
# Indices 1 2 3 4 5 6 
#
# 1 0.028656 -0.000118 -0.001156 0.000000 0.000000 0.000000
# 2 -0.000118 0.008257 -0.008567 0.000000 0.000000 0.000000
# 3 -0.001156 -0.008567 0.025788 0.000000 0.000000 0.000000
# 4 0.000000 0.000000 0.000000 0.085806 0.000000 0.000000
# 5 0.000000 0.000000 0.000000 0.000000 0.148040 0.000000
# 6 0.000000 0.000000 0.000000 0.000000 0.000000 -0.035102
#
#
# Mechanical properties :
#
#
# Convention : Reuss Voigt Hill
#
# Bulk Modulus (GPa) = 23.24498 46.05838 34.65168
# Shear Modulus (GPa) = 16.92239 12.11387 14.51813
#
# Velocity S-wave (km/s) = 2.97692 2.51870 2.75734
# Velocity P-wave (km/s) = 4.89787 5.70777 5.31826
#
# Compressibility (1/GPa) = 0.04302004
#
# Stress axis : x y z
#
# Youngs Moduli (GPa) = 34.89645 121.10236 38.77799
#
# Poissons Ratio (x) = 0.01426 0.04484
# Poissons Ratio (y) = 0.00411 0.33219
# Poissons Ratio (z) = 0.04036 1.03743
#
# Static dielectric constant tensor:
#      x y z
#    x 1.711800 0.000000 0.000000 
#    y 0.000000 1.723870 0.000000 
#    z 0.000000 0.000000 1.651990 
# 
# From -- ./inp_files/32017.got.cif
#   From: 2010.05.17/outbox.cif.g08.bks.cpg/sg47_17_cif.got.tgz:32017.got - 2010.06.03 20:15:42.
