data_PCOD9381494
_publ_section_title
;
Structure prediction by ZEFSAII (Michael W. Deem and Ramdas Pophale) SiO2 
 PCOD9381494
Probable space group: P M M M
;
_chemical_formula_sum "Si O2"
_cell_formula_units_Z 64
_cell_length_a 18.810464
_cell_length_b 26.518921
_cell_length_c 9.167606
_cell_angle_alpha 90.000000
_cell_angle_beta 90.000000
_cell_angle_gamma 90.000000
_cell_volume 4573.106318
_symmetry_space_group_name_H-M "P M M M"
_symmetry_group_IT_number 47
_symmetry_cell_setting 'orthorhombic'
loop_
_space_group_symop_operation_xyz
x,y,z
-x,-y,z
x,-y,-z
-x,y,-z
-x,-y,-z
x,y,-z
-x,y,z
x,-y,z
loop_
_atom_site_type_symbol
_atom_site_label
_atom_site_fract_x
_atom_site_fract_y
_atom_site_fract_z
Si Si1 0.294209 0.305368 0.668151
Si Si2 0.582869 0.941798 0.324863
Si Si3 0.417074 0.251357 0.174748
Si Si4 0.083187 0.559786 0.327964
Si Si5 0.916760 0.262576 0.674886
Si Si6 0.334909 0.852365 0.173410
Si Si7 0.210880 0.801980 0.333049
Si Si8 0.166226 0.646210 0.174052
O O1 0.301825 0.320972 0.500000
O O2 0.368884 0.292338 0.743242
O O3 0.251833 0.251923 0.669209
O O4 0.243793 0.342877 0.757779
O O5 0.588882 0.937011 0.500000
O O6 0.500000 0.932386 0.286653
O O7 0.632591 0.901566 0.247495
O O8 0.599019 0.000000 0.286889
O O9 0.500000 0.253815 0.213148
O O10 0.385106 0.195963 0.209604
O O11 0.409859 0.257937 0.000000
O O12 0.094879 0.570803 0.500000
O O13 0.093632 0.500000 0.306455
O O14 0.133644 0.593988 0.230767
O O15 0.000000 0.570993 0.297086
O O16 0.907084 0.271610 0.500000
O O17 0.868774 0.213701 0.711244
O O18 0.885059 0.309974 0.761596
O O19 0.000000 0.256176 0.702968
O O20 0.256796 0.838515 0.232806
O O21 0.333991 0.857741 0.000000
O O22 0.211185 0.820324 0.500000
O O23 0.168580 0.648923 0.000000
#
# Coordination Sequence:
#
# PCOD9381494 Si02
#       8
#     8   8   8   8   8   8   8   8
#     4   9  17  29  43  58  78 107 143 176 203 238
#     4   9  18  31  44  58  78 105 137 172 206 238
#     4   9  17  28  41  60  87 113 136 167 208 249
#     4   9  18  32  47  61  80 109 143 176 208 242
#     4   9  17  29  44  61  82 109 141 173 203 240
#     4  10  18  27  41  60  82 109 138 167 201 241
#     4   8  15  27  41  57  78 106 137 168 201 236
#     4  11  20  28  41  61  85 112 140 171 210 250
#
# _framework density 13.994864
#
# number of rings (size 3 to 8) (size 9 to 14) (size 15 to 20)
#    0.000    2.750    0.000    4.125    0.000    7.000 
#    0.000    1.250    0.000    0.000    0.000    0.000 
#    0.000    1.000    0.000   11.000    0.000    3.875 
#
# Total GULP energy -356600.591935 kJ/mol
# GULP energy per Si atom -5571.884249 kJ/mol
# Density = 1.396301 g / cm^3
# Si number density = 13.994864 Si / 1000 Ang^3
#
#
#
# Elastic Constant Matrix: (Units=GPa)
#
#
# Indices 1 2 3 4 5 6 
#
# 1 99.8788 40.5289 49.6020 0.0000 0.0000 0.0000
# 2 40.5289 55.8678 43.4582 0.0000 0.0000 0.0000
# 3 49.6020 43.4582 63.7325 0.0000 0.0000 0.0000
# 4 0.0000 0.0000 0.0000 15.6273 0.0000 0.0000
# 5 0.0000 0.0000 0.0000 0.0000 18.3077 0.0000
# 6 0.0000 0.0000 0.0000 0.0000 0.0000 25.9158
#
#
#
# Elastic Compliance Matrix: (Units=1/GPa)
#
#
# Indices 1 2 3 4 5 6 
#
# 1 0.016790 -0.004292 -0.010141 0.000000 0.000000 0.000000
# 2 -0.004292 0.039215 -0.023400 0.000000 0.000000 0.000000
# 3 -0.010141 -0.023400 0.039539 0.000000 0.000000 0.000000
# 4 0.000000 0.000000 0.000000 0.063991 0.000000 0.000000
# 5 0.000000 0.000000 0.000000 0.000000 0.054622 0.000000
# 6 0.000000 0.000000 0.000000 0.000000 0.000000 0.038586
#
#
# Mechanical properties :
#
#
# Convention : Reuss Voigt Hill
#
# Bulk Modulus (GPa) = 50.30436 54.07303 52.18870
# Shear Modulus (GPa) = 14.92386 17.69617 16.31001
#
# Velocity S-wave (km/s) = 3.26909 3.55980 3.41754
# Velocity P-wave (km/s) = 7.09029 7.45774 7.27634
#
# Compressibility (1/GPa) = 0.01987899
#
# Stress axis : x y z
#
# Youngs Moduli (GPa) = 59.56007 25.50038 25.29150
#
# Poissons Ratio (x) = 0.10944 0.25647
# Poissons Ratio (y) = 0.25562 0.59182
# Poissons Ratio (z) = 0.60398 0.59671
#
# Static dielectric constant tensor:
#      x y z
#    x 1.463260 0.000000 0.000000 
#    y 0.000000 1.439540 0.000000 
#    z 0.000000 0.000000 1.466390 
# 
# From -- ./inp_files/10246.got.cif
#   From: 2010.05.17/outbox.cif.g08.bks.cpg/sg47_6_cif.got.tgz:10246.got - 2010.06.03 20:15:42.
