data_PCOD9381782
_publ_section_title
;
Structure prediction by ZEFSAII (Michael W. Deem and Ramdas Pophale) SiO2 
 PCOD9381782
Probable space group: P M M M
;
_chemical_formula_sum "Si O2"
_cell_formula_units_Z 52
_cell_length_a 7.555549
_cell_length_b 14.199039
_cell_length_c 24.475789
_cell_angle_alpha 90.000000
_cell_angle_beta 90.000000
_cell_angle_gamma 90.000000
_cell_volume 2625.800212
_symmetry_space_group_name_H-M "P M M M"
_symmetry_group_IT_number 47
_symmetry_cell_setting 'orthorhombic'
loop_
_space_group_symop_operation_xyz
x,y,z
-x,-y,z
x,-y,-z
-x,y,-z
-x,-y,-z
x,y,-z
-x,y,z
x,-y,z
loop_
_atom_site_type_symbol
_atom_site_label
_atom_site_fract_x
_atom_site_fract_y
_atom_site_fract_z
Si Si1 0.714753 0.893477 0.774957
Si Si2 0.203597 0.195251 0.114171
Si Si3 0.711646 0.786697 0.669532
Si Si4 0.212619 0.000000 0.064605
Si Si5 0.787894 0.605212 0.859794
Si Si6 0.211856 0.893925 0.561213
Si Si7 0.286382 0.396276 0.269233
O O1 0.500000 0.887869 0.778120
O O2 0.791399 0.826773 0.821279
O O3 0.770975 0.862833 0.714597
O O4 0.768309 0.000000 0.786717
O O5 0.283050 0.099600 0.088165
O O6 0.280908 0.300895 0.109496
O O7 0.000000 0.199969 0.094647
O O8 0.500000 0.782868 0.673705
O O9 0.749586 0.820370 0.608734
O O10 0.780014 0.686824 0.691813
O O11 0.000000 0.000000 0.076542
O O12 0.237507 0.000000 0.000000
O O13 0.721242 0.500000 0.874670
O O14 0.756032 0.617188 0.794772
O O15 0.000000 0.604568 0.867589
O O16 0.276426 0.870081 0.500000
O O17 0.000000 0.899447 0.558225
O O18 0.277062 0.000000 0.575051
O O19 0.500000 0.396385 0.272517
O O20 0.221669 0.500000 0.285012
#
# Coordination Sequence:
#
# PCOD9381782 Si02
#       7
#     8   8   8   4   8   8   8
#     4  10  19  29  42  66 100 127 145 182 237 282
#     4  10  18  29  47  68  91 122 159 194 228 277
#     4  10  19  30  46  69  95 122 153 187 230 282
#     4   9  18  32  49  69  93 125 166 205 236 271
#     4   9  17  28  43  66  95 123 152 191 237 280
#     4   9  19  35  51  67  89 119 156 196 234 273
#     4   9  17  29  45  66  94 125 154 184 223 276
#
# _framework density 19.803487000000001
#
# number of rings (size 3 to 8) (size 9 to 14) (size 15 to 20)
#    0.000    2.538    2.308    0.923    0.000    2.462 
#    0.000    0.769    0.000    1.846    0.000    6.462 
#    0.000    0.000    0.000    5.231    0.000    5.538 
#
# Total GULP energy -289818.039373 kJ/mol
# GULP energy per Si atom -5573.423834 kJ/mol
# Density = 1.975841 g / cm^3
# Si number density = 19.803487 Si / 1000 Ang^3
#
#
#
# Elastic Constant Matrix: (Units=GPa)
#
#
# Indices 1 2 3 4 5 6 
#
# 1 45.4845 9.3618 -1.9781 0.0000 0.0000 0.0000
# 2 9.3618 189.9628 42.9810 0.0000 0.0000 0.0000
# 3 -1.9781 42.9810 47.1153 0.0000 0.0000 0.0000
# 4 0.0000 0.0000 0.0000 16.7601 0.0000 0.0000
# 5 0.0000 0.0000 0.0000 0.0000 14.7494 0.0000
# 6 0.0000 0.0000 0.0000 0.0000 0.0000 6.5907
#
#
#
# Elastic Compliance Matrix: (Units=1/GPa)
#
#
# Indices 1 2 3 4 5 6 
#
# 1 0.022434 -0.001662 0.002458 0.000000 0.000000 0.000000
# 2 -0.001662 0.006756 -0.006233 0.000000 0.000000 0.000000
# 3 0.002458 -0.006233 0.027014 0.000000 0.000000 0.000000
# 4 0.000000 0.000000 0.000000 0.059665 0.000000 0.000000
# 5 0.000000 0.000000 0.000000 0.000000 0.067799 0.000000
# 6 0.000000 0.000000 0.000000 0.000000 0.000000 0.151729
#
#
# Mechanical properties :
#
#
# Convention : Reuss Voigt Hill
#
# Bulk Modulus (GPa) = 22.06021 42.58800 32.32411
# Shear Modulus (GPa) = 13.83572 23.09990 18.46781
#
# Velocity S-wave (km/s) = 2.64607 3.41905 3.05709
# Velocity P-wave (km/s) = 4.52762 6.09414 5.36832
#
# Compressibility (1/GPa) = 0.04533048
#
# Stress axis : x y z
#
# Youngs Moduli (GPa) = 44.57430 148.00691 37.01772
#
# Poissons Ratio (x) = 0.24595 -0.09098
# Poissons Ratio (y) = 0.07407 0.23074
# Poissons Ratio (z) = -0.10956 0.92258
#
# Static dielectric constant tensor:
#      x y z
#    x 1.745850 0.000000 0.000000 
#    y 0.000000 1.762530 0.000000 
#    z 0.000000 0.000000 1.663500 
# 
# From -- ./inp_files/11023.got.cif
#   From: 2010.05.17/outbox.cif.g08.bks.cpg/sg47_6_cif.got.tgz:11023.got - 2010.06.03 20:15:42.
