data_PCOD9381181
_publ_section_title
;
Structure prediction by ZEFSAII (Michael W. Deem and Ramdas Pophale) SiO2 
 PCOD9381181
Probable space group: P M M M
;
_chemical_formula_sum "Si O2"
_cell_formula_units_Z 40
_cell_length_a 12.071065
_cell_length_b 7.391108
_cell_length_c 21.514684
_cell_angle_alpha 90.000000
_cell_angle_beta 90.000000
_cell_angle_gamma 90.000000
_cell_volume 1919.508805
_symmetry_space_group_name_H-M "P M M M"
_symmetry_group_IT_number 47
_symmetry_cell_setting 'orthorhombic'
loop_
_space_group_symop_operation_xyz
x,y,z
-x,-y,z
x,-y,-z
-x,y,-z
-x,-y,-z
x,y,-z
-x,y,z
x,-y,z
loop_
_atom_site_type_symbol
_atom_site_label
_atom_site_fract_x
_atom_site_fract_y
_atom_site_fract_z
Si Si1 0.250348 0.209204 0.432757
Si Si2 0.371621 0.220511 0.929823
Si Si3 0.274434 0.220000 0.195774
Si Si4 0.872361 0.221092 0.690895
Si Si5 0.500000 0.781488 0.264552
Si Si6 0.500000 0.704670 0.592041
O O1 0.218913 0.289671 0.500000
O O2 0.198126 0.284195 0.369119
O O3 0.383647 0.211787 0.428127
O O4 0.214867 0.000000 0.434172
O O5 0.500000 0.272542 0.916654
O O6 0.288764 0.280460 0.875441
O O7 0.371515 0.000000 0.929507
O O8 0.344462 0.278158 0.000000
O O9 0.179623 0.280948 0.243318
O O10 0.389868 0.270164 0.228482
O O11 0.268503 0.000000 0.194019
O O12 0.000000 0.272828 0.684597
O O13 0.866611 0.000000 0.691516
O O14 0.500000 0.709030 0.333616
O O15 0.500000 0.000000 0.269362
O O16 0.500000 0.500000 0.569833
#
# Coordination Sequence:
#
# PCOD9381181 Si02
#       6
#     8   8   8   8   4   4
#     4  10  20  34  52  71  92 120 152 188 230 275
#     4   8  12  17  28  53  88 120 149 182 222 269
#     4   9  14  22  40  62  87 117 150 191 232 270
#     4   9  17  28  44  67  90 115 154 199 234 265
#     4  10  16  27  48  70  90 120 158 190 229 277
#     4  12  23  33  48  72 101 124 146 182 230 283
#
# _framework density 20.838663
#
# number of rings (size 3 to 8) (size 9 to 14) (size 15 to 20)
#    0.000    2.600    3.000    1.800    0.000    2.000 
#    0.000    2.000    0.000    1.200    0.000    5.600 
#    0.000    1.600    0.000    0.000    0.000    2.000 
#
# Total GULP energy -223145.904477 kJ/mol
# GULP energy per Si atom -5578.647612 kJ/mol
# Density = 2.079123 g / cm^3
# Si number density = 20.838663 Si / 1000 Ang^3
#
#
#
# Elastic Constant Matrix: (Units=GPa)
#
#
# Indices 1 2 3 4 5 6 
#
# 1 108.6646 -1.9870 77.9388 0.0000 0.0000 0.0000
# 2 -1.9870 67.1744 4.2843 0.0000 0.0000 0.0000
# 3 77.9388 4.2843 224.6046 0.0000 0.0000 0.0000
# 4 0.0000 0.0000 0.0000 -40.0730 0.0000 0.0000
# 5 0.0000 0.0000 0.0000 0.0000 32.7282 0.0000
# 6 0.0000 0.0000 0.0000 0.0000 0.0000 -41.1347
#
#
#
# Elastic Compliance Matrix: (Units=1/GPa)
#
#
# Indices 1 2 3 4 5 6 
#
# 1 0.012279 0.000636 -0.004273 0.000000 0.000000 0.000000
# 2 0.000636 0.014938 -0.000506 0.000000 0.000000 0.000000
# 3 -0.004273 -0.000506 0.005945 0.000000 0.000000 0.000000
# 4 0.000000 0.000000 0.000000 -0.024954 0.000000 0.000000
# 5 0.000000 0.000000 0.000000 0.000000 0.030555 0.000000
# 6 0.000000 0.000000 0.000000 0.000000 0.000000 -0.024310
#
#
# Mechanical properties :
#
#
# Convention : Reuss Voigt Hill
#
# Bulk Modulus (GPa) = 40.19982 62.32399 51.26190
# Shear Modulus (GPa) = 161.14081 11.65126 86.39604
#
# Velocity S-wave (km/s) = 8.80316 2.36713 6.44589
# Velocity P-wave (km/s) = 11.07522 6.11914 8.94719
#
# Compressibility (1/GPa) = 0.02487573
#
# Stress axis : x y z
#
# Youngs Moduli (GPa) = 81.43972 66.94489 168.21821
#
# Poissons Ratio (x) = -0.04256 0.71880
# Poissons Ratio (y) = -0.05177 0.08504
# Poissons Ratio (z) = 0.34799 0.03384
#
# Static dielectric constant tensor:
#      x y z
#    x 1.691430 0.000000 0.000000 
#    y 0.000000 1.791920 0.000000 
#    z 0.000000 0.000000 1.774440 
# 
# From -- ./inp_files/4111.got.cif
#   From: 2010.05.17/outbox.cif.g08.bks.cpg/sg47_3_cif.got.tgz:4111.got - 2010.06.03 20:15:42.
