data_PCOD9381858
_publ_section_title
;
Structure prediction by ZEFSAII (Michael W. Deem and Ramdas Pophale) SiO2 
 PCOD9381858
Probable space group: P M M M
;
_chemical_formula_sum "Si O2"
_cell_formula_units_Z 52
_cell_length_a 16.118422
_cell_length_b 20.194843
_cell_length_c 7.448030
_cell_angle_alpha 90.000000
_cell_angle_beta 90.000000
_cell_angle_gamma 90.000000
_cell_volume 2424.400810
_symmetry_space_group_name_H-M "P M M M"
_symmetry_group_IT_number 47
_symmetry_cell_setting 'orthorhombic'
loop_
_space_group_symop_operation_xyz
x,y,z
-x,-y,z
x,-y,-z
-x,y,-z
-x,-y,-z
x,y,-z
-x,y,z
x,-y,z
loop_
_atom_site_type_symbol
_atom_site_label
_atom_site_fract_x
_atom_site_fract_y
_atom_site_fract_z
Si Si1 0.315045 0.298492 0.717062
Si Si2 0.121412 0.307854 0.210419
Si Si3 0.747420 0.074213 0.286366
Si Si4 0.000000 0.577362 0.219117
Si Si5 0.089272 0.160822 0.216202
Si Si6 0.596116 0.570768 0.718608
Si Si7 0.404214 0.836924 0.719699
O O1 0.317629 0.297248 0.500000
O O2 0.219800 0.304154 0.770061
O O3 0.358876 0.364551 0.783682
O O4 0.364179 0.233197 0.776084
O O5 0.092964 0.236599 0.284961
O O6 0.077843 0.375509 0.276749
O O7 0.100270 0.306685 0.000000
O O8 0.736783 0.069456 0.500000
O O9 0.828440 0.119898 0.261434
O O10 0.662719 0.108463 0.219416
O O11 0.759866 0.000000 0.215003
O O12 0.000000 0.500000 0.280262
O O13 0.000000 0.573177 0.000000
O O14 0.000000 0.131576 0.273200
O O15 0.089139 0.163780 0.000000
O O16 0.598509 0.571938 0.500000
O O17 0.500000 0.572970 0.769398
O O18 0.631877 0.500000 0.776013
O O19 0.405527 0.837439 0.500000
O O20 0.500000 0.844856 0.777045
#
# Coordination Sequence:
#
# PCOD9381858 Si02
#       7
#     8   8   8   4   8   8   8
#     4  10  18  29  49  75 100 128 167 211 254 301
#     4  10  19  33  53  75  99 131 169 209 253 301
#     4  10  21  36  54  80 111 138 169 214 266 316
#     4   9  18  34  55  77 102 135 176 216 255 309
#     4  10  20  36  58  79 102 136 176 214 255 311
#     4   8  14  25  42  66  96 128 161 199 243 290
#     4   9  17  30  50  76 104 136 175 215 255 306
#
# _framework density 21.448599999999999
#
# number of rings (size 3 to 8) (size 9 to 14) (size 15 to 20)
#    0.000    2.538    2.308    0.923    0.000    3.692 
#    0.000    3.462    0.000    3.692    0.000    2.154 
#    0.000    0.000    0.000    0.000    0.000    0.000 
#
# Total GULP energy -290018.901331 kJ/mol
# GULP energy per Si atom -5577.286564 kJ/mol
# Density = 2.139978 g / cm^3
# Si number density = 21.448600 Si / 1000 Ang^3
#
#
#
# Elastic Constant Matrix: (Units=GPa)
#
#
# Indices 1 2 3 4 5 6 
#
# 1 192.8871 112.2267 0.3193 0.0000 0.0000 0.0000
# 2 112.2267 196.9626 8.7310 0.0000 0.0000 0.0000
# 3 0.3193 8.7310 65.0476 0.0000 0.0000 0.0000
# 4 0.0000 0.0000 0.0000 4.0974 0.0000 0.0000
# 5 0.0000 0.0000 0.0000 0.0000 18.8707 0.0000
# 6 0.0000 0.0000 0.0000 0.0000 0.0000 28.1607
#
#
#
# Elastic Compliance Matrix: (Units=1/GPa)
#
#
# Indices 1 2 3 4 5 6 
#
# 1 0.007776 -0.004455 0.000560 0.000000 0.000000 0.000000
# 2 -0.004455 0.007660 -0.001006 0.000000 0.000000 0.000000
# 3 0.000560 -0.001006 0.015506 0.000000 0.000000 0.000000
# 4 0.000000 0.000000 0.000000 0.244059 0.000000 0.000000
# 5 0.000000 0.000000 0.000000 0.000000 0.052992 0.000000
# 6 0.000000 0.000000 0.000000 0.000000 0.000000 0.035511
#
#
# Mechanical properties :
#
#
# Convention : Reuss Voigt Hill
#
# Bulk Modulus (GPa) = 47.30799 77.49457 62.40128
# Shear Modulus (GPa) = 13.14569 32.46709 22.80639
#
# Velocity S-wave (km/s) = 2.47835 3.89487 3.26437
# Velocity P-wave (km/s) = 5.50400 7.51236 6.58519
#
# Compressibility (1/GPa) = 0.02113808
#
# Stress axis : x y z
#
# Youngs Moduli (GPa) = 128.60661 130.54363 64.49247
#
# Poissons Ratio (x) = 0.58161 -0.03611
# Poissons Ratio (y) = 0.57298 0.06490
# Poissons Ratio (z) = -0.07200 0.13137
#
# Static dielectric constant tensor:
#      x y z
#    x 1.765980 0.000000 0.000000 
#    y 0.000000 1.779550 0.000000 
#    z 0.000000 0.000000 1.887750 
# 
# From -- ./inp_files/7072.got.cif
#   From: 2010.05.17/outbox.cif.g08.bks.cpg/sg47_4_cif.got.tgz:7072.got - 2010.06.03 20:15:42.
