data_PCOD9381511
_publ_section_title
;
Structure prediction by ZEFSAII (Michael W. Deem and Ramdas Pophale) SiO2 
 PCOD9381511
Probable space group: P M M M
;
_chemical_formula_sum "Si O2"
_cell_formula_units_Z 64
_cell_length_a 7.580514
_cell_length_b 15.379716
_cell_length_c 29.341732
_cell_angle_alpha 90.000000
_cell_angle_beta 90.000000
_cell_angle_gamma 90.000000
_cell_volume 3420.839640
_symmetry_space_group_name_H-M "P M M M"
_symmetry_group_IT_number 47
_symmetry_cell_setting 'orthorhombic'
loop_
_space_group_symop_operation_xyz
x,y,z
-x,-y,z
x,-y,-z
-x,y,-z
-x,-y,-z
x,y,-z
-x,y,z
x,-y,z
loop_
_atom_site_type_symbol
_atom_site_label
_atom_site_fract_x
_atom_site_fract_y
_atom_site_fract_z
Si Si1 0.285248 0.402816 0.188223
Si Si2 0.790531 0.394936 0.548988
Si Si3 0.711644 0.722934 0.733233
Si Si4 0.212594 0.400306 0.351456
Si Si5 0.715289 0.596461 0.082753
Si Si6 0.712503 0.219549 0.950748
Si Si7 0.791665 0.098146 0.134636
Si Si8 0.705192 0.902640 0.762858
O O1 0.500000 0.400925 0.188445
O O2 0.232042 0.500000 0.202847
O O3 0.220129 0.331277 0.223308
O O4 0.232990 0.391003 0.135718
O O5 0.717121 0.364355 0.500000
O O6 0.775742 0.500000 0.549156
O O7 0.720827 0.369203 0.598706
O O8 0.000000 0.374964 0.548405
O O9 0.500000 0.728870 0.738562
O O10 0.744046 0.666284 0.688433
O O11 0.781841 0.821430 0.735078
O O12 0.274484 0.500000 0.342488
O O13 0.000000 0.405031 0.354482
O O14 0.500000 0.595521 0.081258
O O15 0.772963 0.500000 0.067871
O O16 0.774609 0.681157 0.055829
O O17 0.500000 0.221875 0.951681
O O18 0.758645 0.162221 0.907091
O O19 0.774041 0.185520 0.000000
O O20 0.711058 0.122457 0.183477
O O21 0.000000 0.095466 0.142344
O O22 0.729815 0.000000 0.123383
O O23 0.500000 0.910119 0.750085
O O24 0.783252 0.000000 0.758580
#
# Coordination Sequence:
#
# PCOD9381511 Si02
#       8
#     8   8   8   8   8   8   8   8
#     4   8  13  21  35  56  80 107 138 166 193 234
#     4   7  10  19  36  55  76 109 154 195 224 253
#     4  10  18  27  42  63  89 120 147 174 215 264
#     4   9  17  27  39  60  91 123 154 188 223 258
#     4   8  14  26  44  65  88 112 141 178 212 241
#     4  10  20  32  48  71  95 118 145 177 213 253
#     4  10  21  36  53  71  90 113 140 173 218 268
#     4   9  18  33  52  71  89 111 143 181 216 255
#
# _framework density 18.708857999999999
#
# number of rings (size 3 to 8) (size 9 to 14) (size 15 to 20)
#    0.000    3.125    0.000    3.375    0.000    4.750 
#    0.000    2.500    0.000    0.750    0.000    2.625 
#    0.000    0.500    0.000    6.250    0.000    0.250 
#
# Total GULP energy -356632.675315 kJ/mol
# GULP energy per Si atom -5572.385552 kJ/mol
# Density = 1.866628 g / cm^3
# Si number density = 18.708858 Si / 1000 Ang^3
#
#
#
# Elastic Constant Matrix: (Units=GPa)
#
#
# Indices 1 2 3 4 5 6 
#
# 1 42.3417 4.6209 -3.0406 0.0000 0.0000 0.0000
# 2 4.6209 104.5392 63.9687 0.0000 0.0000 0.0000
# 3 -3.0406 63.9687 74.2306 0.0000 0.0000 0.0000
# 4 0.0000 0.0000 0.0000 16.4454 0.0000 0.0000
# 5 0.0000 0.0000 0.0000 0.0000 7.1787 0.0000
# 6 0.0000 0.0000 0.0000 0.0000 0.0000 7.0003
#
#
#
# Elastic Compliance Matrix: (Units=1/GPa)
#
#
# Indices 1 2 3 4 5 6 
#
# 1 0.024298 -0.003561 0.004064 0.000000 0.000000 0.000000
# 2 -0.003561 0.020759 -0.018035 0.000000 0.000000 0.000000
# 3 0.004064 -0.018035 0.029180 0.000000 0.000000 0.000000
# 4 0.000000 0.000000 0.000000 0.060807 0.000000 0.000000
# 5 0.000000 0.000000 0.000000 0.000000 0.139300 0.000000
# 6 0.000000 0.000000 0.000000 0.000000 0.000000 0.142851
#
#
# Mechanical properties :
#
#
# Convention : Reuss Voigt Hill
#
# Bulk Modulus (GPa) = 25.52806 39.13438 32.33122
# Shear Modulus (GPa) = 10.74537 16.49572 13.62054
#
# Velocity S-wave (km/s) = 2.39915 2.97258 2.70112
# Velocity P-wave (km/s) = 4.62051 5.72229 5.20066
#
# Compressibility (1/GPa) = 0.03917258
#
# Stress axis : x y z
#
# Youngs Moduli (GPa) = 41.15598 48.17181 34.27030
#
# Poissons Ratio (x) = 0.17152 -0.13926
# Poissons Ratio (y) = 0.14654 0.61807
# Poissons Ratio (z) = -0.16724 0.86878
#
# Static dielectric constant tensor:
#      x y z
#    x 1.727530 0.000000 0.000000 
#    y 0.000000 1.666890 0.000000 
#    z 0.000000 0.000000 1.666660 
# 
# From -- ./inp_files/22132.got.cif
#   From: 2010.05.17/outbox.cif.g08.bks.cpg/sg47_12_cif.got.tgz:22132.got - 2010.06.03 20:15:42.
