data_PCOD9381615
_publ_section_title
;
Structure prediction by ZEFSAII (Michael W. Deem and Ramdas Pophale) SiO2 
 PCOD9381615
Probable space group: P M M M
;
_chemical_formula_sum "Si O2"
_cell_formula_units_Z 64
_cell_length_a 21.066080
_cell_length_b 7.676387
_cell_length_c 20.523247
_cell_angle_alpha 90.000000
_cell_angle_beta 90.000000
_cell_angle_gamma 90.000000
_cell_volume 3318.842649
_symmetry_space_group_name_H-M "P M M M"
_symmetry_group_IT_number 47
_symmetry_cell_setting 'orthorhombic'
loop_
_space_group_symop_operation_xyz
x,y,z
-x,-y,z
x,-y,-z
-x,y,-z
-x,-y,-z
x,y,-z
-x,y,z
x,-y,z
loop_
_atom_site_type_symbol
_atom_site_label
_atom_site_fract_x
_atom_site_fract_y
_atom_site_fract_z
Si Si1 0.255173 0.703883 0.291981
Si Si2 0.072891 0.212901 0.073982
Si Si3 0.814904 0.202080 0.836968
Si Si4 0.304498 0.711440 0.924103
Si Si5 0.246525 0.292427 0.430837
Si Si6 0.431967 0.297414 0.856483
Si Si7 0.400513 0.200831 0.286386
Si Si8 0.397039 0.210703 0.570756
O O1 0.270914 0.500000 0.300362
O O2 0.209704 0.719479 0.230448
O O3 0.225048 0.770582 0.359844
O O4 0.323518 0.792772 0.281969
O O5 0.123108 0.276324 0.127140
O O6 0.000000 0.263814 0.086404
O O7 0.074805 0.000000 0.074233
O O8 0.089940 0.266726 0.000000
O O9 0.756859 0.218104 0.887422
O O10 0.827173 0.000000 0.823407
O O11 0.302022 0.500000 0.918188
O O12 0.368685 0.776349 0.889152
O O13 0.304584 0.756340 0.000000
O O14 0.222541 0.219255 0.500000
O O15 0.235601 0.500000 0.432684
O O16 0.322390 0.258480 0.430080
O O17 0.500000 0.218448 0.874885
O O18 0.433305 0.500000 0.876233
O O19 0.425313 0.290835 0.778376
O O20 0.419973 0.271603 0.357979
O O21 0.420683 0.000000 0.283154
O O22 0.422993 0.270011 0.500000
O O23 0.402686 0.000000 0.571788
#
# Coordination Sequence:
#
# PCOD9381615 Si02
#       8
#     8   8   8   8   8   8   8   8
#     4  10  18  28  44  66  96 129 157 191 235 280
#     4   8  15  29  48  70  97 129 163 196 230 270
#     4  11  20  30  49  76 102 128 159 194 231 274
#     4  10  21  36  53  72  94 121 152 190 239 290
#     4   8  14  24  38  58  85 119 157 191 225 269
#     4  10  21  36  52  68  89 121 157 193 238 291
#     4  10  18  29  47  69  91 118 153 193 236 280
#     4   8  14  24  39  61  88 115 144 181 227 277
#
# _framework density 19.283832
#
# number of rings (size 3 to 8) (size 9 to 14) (size 15 to 20)
#    0.000    2.625    1.250    1.875    0.000    2.250 
#    0.000    1.250    0.000    1.875    0.000    8.750 
#    0.000    0.500    0.000    6.250    0.000    0.000 
#
# Total GULP energy -356735.106311 kJ/mol
# GULP energy per Si atom -5573.986036 kJ/mol
# Density = 1.923994 g / cm^3
# Si number density = 19.283832 Si / 1000 Ang^3
#
#
#
# Elastic Constant Matrix: (Units=GPa)
#
#
# Indices 1 2 3 4 5 6 
#
# 1 77.3480 -3.3505 48.0380 0.0000 0.0000 0.0000
# 2 -3.3505 38.0478 -4.0040 0.0000 0.0000 0.0000
# 3 48.0380 -4.0040 126.3029 0.0000 0.0000 0.0000
# 4 0.0000 0.0000 0.0000 5.0897 0.0000 0.0000
# 5 0.0000 0.0000 0.0000 0.0000 135.5612 0.0000
# 6 0.0000 0.0000 0.0000 0.0000 0.0000 4.4678
#
#
#
# Elastic Compliance Matrix: (Units=1/GPa)
#
#
# Indices 1 2 3 4 5 6 
#
# 1 0.016952 0.000817 -0.006422 0.000000 0.000000 0.000000
# 2 0.000817 0.026410 0.000526 0.000000 0.000000 0.000000
# 3 -0.006422 0.000526 0.010377 0.000000 0.000000 0.000000
# 4 0.000000 0.000000 0.000000 0.196476 0.000000 0.000000
# 5 0.000000 0.000000 0.000000 0.000000 0.007377 0.000000
# 6 0.000000 0.000000 0.000000 0.000000 0.000000 0.223821
#
#
# Mechanical properties :
#
#
# Convention : Reuss Voigt Hill
#
# Bulk Modulus (GPa) = 22.94498 35.89621 29.42059
# Shear Modulus (GPa) = 9.87952 42.42477 26.15215
#
# Velocity S-wave (km/s) = 2.26591 4.69552 3.68662
# Velocity P-wave (km/s) = 4.33246 6.93198 5.78025
#
# Compressibility (1/GPa) = 0.04358252
#
# Stress axis : x y z
#
# Youngs Moduli (GPa) = 58.98914 37.86436 96.37067
#
# Poissons Ratio (x) = -0.03094 0.61887
# Poissons Ratio (y) = -0.04820 -0.05074
# Poissons Ratio (z) = 0.37881 -0.01993
#
# Static dielectric constant tensor:
#      x y z
#    x 1.654170 0.000000 0.000000 
#    y 0.000000 1.751200 0.000000 
#    z 0.000000 0.000000 1.726130 
# 
# From -- ./inp_files/11792.got.cif
#   From: 2010.05.17/outbox.cif.g08.bks.cpg/sg47_6_cif.got.tgz:11792.got - 2010.06.03 20:15:42.
