data_PCOD9381084
_publ_section_title
;
Structure prediction by ZEFSAII (Michael W. Deem and Ramdas Pophale) SiO2 
 PCOD9381084
Probable space group: I M A 2
;
_chemical_formula_sum "Si O2"
_cell_formula_units_Z 32
_cell_length_a 15.000000
_cell_length_b 24.000000
_cell_length_c 9.000000
_cell_angle_alpha 90.000000
_cell_angle_beta 90.000000
_cell_angle_gamma 90.000000
_cell_volume 3240.000000
_symmetry_space_group_name_H-M "I M A 2"
_symmetry_group_IT_number 46
_symmetry_cell_setting 'orthorhombic'
loop_
_space_group_symop_operation_xyz
x,y,z
-x,-y,z
1/2-x,y,z
1/2+x,-y,z
1/2+x,1/2+y,1/2+z
1/2-x,1/2-y,1/2+z
-x,1/2+y,1/2+z
x,1/2-y,1/2+z
loop_
_atom_site_type_symbol
_atom_site_label
_atom_site_fract_x
_atom_site_fract_y
_atom_site_fract_z
Si Si1 0.850284 0.602129 0.771300
Si Si2 0.148245 0.576929 0.086975
Si Si3 0.038943 0.875051 0.129969
Si Si4 0.360370 0.372854 0.119494
Si Si5 0.500450 0.563322 0.330572
Si Si6 0.360535 0.728878 0.767292
Si Si7 0.100132 0.982867 0.303689
Si Si8 0.546028 0.187658 0.558686
O O1 0.750000 0.622944 0.730728
O O2 0.858436 0.537103 0.726883
O O3 0.939667 0.631149 0.705522
O O4 0.857375 0.604412 0.950747
O O5 0.250000 0.590827 0.127849
O O6 0.084940 0.560130 0.221912
O O7 0.149721 0.532368 0.954969
O O8 0.092136 0.628676 0.022686
O O9 0.102054 0.822192 0.164354
O O10 0.088379 0.928719 0.201711
O O11 0.018569 0.891969 0.960076
O O12 0.250000 0.362440 0.154697
O O13 0.411970 0.414911 0.235557
O O14 0.440479 0.323915 0.099862
O O15 0.500000 0.500000 0.393915
O O16 0.250000 0.727322 0.784822
O O17 0.396906 0.785270 0.691976
O O18 0.420938 0.722939 0.916313
O O19 0.000000 0.000000 0.347864
#
# Coordination Sequence:
#
# PCOD9381084 Si02
#       8
#     8   8   8   8   8   8   8   8
#     4  10  19  36  64  91 117 160 210 259 312 374
#     4  11  21  37  60  88 122 163 210 260 313 378
#     4  11  23  40  58  88 132 167 206 263 317 378
#     4  10  22  44  69  93 127 170 217 269 321 380
#     4  11  23  38  58  91 137 177 211 260 311 373
#     4  12  25  43  68  95 125 164 205 262 331 390
#     4  10  18  34  59  87 120 160 208 254 309 372
#     4  11  24  44  66  95 126 157 211 267 325 386
#
# _framework density 9.8765429999999999
#
# number of rings (size 3 to 8) (size 9 to 14) (size 15 to 20)
#    0.000    1.250    2.500    6.000    3.500    3.000 
#    0.000    2.500    0.000    0.000    0.000    0.000 
#    0.000    0.000    0.000    0.000    0.000    0.000 
#
# Total GULP energy -178200.047146 kJ/mol
# GULP energy per Si atom -5568.751473 kJ/mol
# Density = 0.985406 g / cm^3
# Si number density = 9.876543 Si / 1000 Ang^3
#
#
#
# Elastic Constant Matrix: (Units=GPa)
#
#
# Indices 1 2 3 4 5 6 
#
# 1 163.7012 18.5074 6.7171 -0.0001 -0.0001 0.0000
# 2 18.5074 30.3839 13.7105 0.0001 0.0000 0.0000
# 3 6.7171 13.7105 43.0403 0.0007 0.0001 0.0005
# 4 -0.0001 0.0001 0.0007 34.1813 0.0000 0.0002
# 5 -0.0001 0.0000 0.0001 0.0000 8.7140 0.0001
# 6 0.0000 0.0000 0.0005 0.0002 0.0001 24.8833
#
#
#
# Elastic Compliance Matrix: (Units=1/GPa)
#
#
# Indices 1 2 3 4 5 6 
#
# 1 0.006564 -0.004129 0.000291 0.000000 0.000000 0.000000
# 2 -0.004129 0.041035 -0.012427 0.000000 0.000000 0.000000
# 3 0.000291 -0.012427 0.027147 -0.000001 0.000000 -0.000001
# 4 0.000000 0.000000 -0.000001 0.029256 0.000000 0.000000
# 5 0.000000 0.000000 0.000000 0.000000 0.114758 0.000000
# 6 0.000000 0.000000 -0.000001 0.000000 0.000000 0.040188
#
#
# Mechanical properties :
#
#
# Convention : Reuss Voigt Hill
#
# Bulk Modulus (GPa) = 23.68831 34.99947 29.34389
# Shear Modulus (GPa) = 16.36390 26.76840 21.56615
#
# Velocity S-wave (km/s) = 2.88136 3.68523 3.30780
# Velocity P-wave (km/s) = 4.80498 5.98873 5.42921
#
# Compressibility (1/GPa) = 0.04221491
#
# Stress axis : x y z
#
# Youngs Moduli (GPa) = 152.35551 24.36937 36.83608
#
# Poissons Ratio (x) = 0.10063 -0.01072
# Poissons Ratio (y) = 0.62913 0.45777
# Poissons Ratio (z) = -0.04434 0.30284
#
# Static dielectric constant tensor:
#      x y z
#    x 1.713830 0.000000 0.000000 
#    y 0.000000 1.763380 0.000000 
#    z 0.000000 0.000000 1.763450 
# 
# From -- ./inp_files/6117.got.cif
#   From: 2010.05.17/outbox.ucp.g08.bks.cvg/sg46_4_cif.got.tgz:6117.got - 2010.06.11 16:34:52.
