data_PCOD9381323
_publ_section_title
;
Structure prediction by ZEFSAII (Michael W. Deem and Ramdas Pophale) SiO2 
 PCOD9381323
Probable space group: P M M M
;
_chemical_formula_sum "Si O2"
_cell_formula_units_Z 52
_cell_length_a 23.660887
_cell_length_b 7.549742
_cell_length_c 14.961198
_cell_angle_alpha 90.000000
_cell_angle_beta 90.000000
_cell_angle_gamma 90.000000
_cell_volume 2672.572544
_symmetry_space_group_name_H-M "P M M M"
_symmetry_group_IT_number 47
_symmetry_cell_setting 'orthorhombic'
loop_
_space_group_symop_operation_xyz
x,y,z
-x,-y,z
x,-y,-z
-x,y,-z
-x,-y,-z
x,y,-z
-x,y,z
x,-y,z
loop_
_atom_site_type_symbol
_atom_site_label
_atom_site_fract_x
_atom_site_fract_y
_atom_site_fract_z
Si Si1 0.722108 0.217115 0.602682
Si Si2 0.612554 0.788754 0.288413
Si Si3 0.828829 0.788886 0.282866
Si Si4 0.500000 0.289904 0.601339
Si Si5 0.648472 0.215649 0.099287
Si Si6 0.936116 0.287241 0.600492
Si Si7 0.780805 0.215719 0.099119
O O1 0.720436 0.273745 0.500000
O O2 0.666890 0.277400 0.656679
O O3 0.778959 0.277043 0.652233
O O4 0.721909 0.000000 0.602640
O O5 0.555672 0.758522 0.343131
O O6 0.614315 0.722125 0.186154
O O7 0.619891 0.000000 0.282023
O O8 0.889303 0.758138 0.326986
O O9 0.817644 0.721130 0.182676
O O10 0.821279 0.000000 0.278042
O O11 0.500000 0.500000 0.593490
O O12 0.500000 0.215327 0.500000
O O13 0.714695 0.261354 0.112990
O O14 0.645827 0.000000 0.096870
O O15 0.631291 0.277268 0.000000
O O16 0.920425 0.224463 0.500000
O O17 0.938223 0.500000 0.596759
O O18 0.000000 0.224579 0.619999
O O19 0.782714 0.000000 0.097647
O O20 0.797779 0.276593 0.000000
#
# Coordination Sequence:
#
# PCOD9381323 Si02
#       7
#     8   8   8   4   8   8   8
#     4   9  16  25  41  70 102 122 144 191 245 282
#     4  10  18  32  54  76  95 124 164 199 234 284
#     4  10  17  27  47  76 102 124 155 196 243 286
#     4  11  25  41  52  65  92 130 167 203 244 287
#     4   8  13  24  46  76 104 125 151 192 237 281
#     4   9  19  35  50  64  90 131 171 202 237 284
#     4   8  13  23  42  71 105 132 152 183 235 292
#
# _framework density 19.456907000000001
#
# number of rings (size 3 to 8) (size 9 to 14) (size 15 to 20)
#    0.000    2.846    1.538    2.538    0.000    2.462 
#    0.000    1.923    0.000    6.462    0.000    5.385 
#    0.000    0.000    0.000    0.000    0.000    0.000 
#
# Total GULP energy -290023.633076 kJ/mol
# GULP energy per Si atom -5577.377559 kJ/mol
# Density = 1.941262 g / cm^3
# Si number density = 19.456907 Si / 1000 Ang^3
#
#
#
# Elastic Constant Matrix: (Units=GPa)
#
#
# Indices 1 2 3 4 5 6 
#
# 1 114.5900 -3.1990 106.1934 0.0000 0.0000 0.0000
# 2 -3.1990 42.4090 8.8373 0.0000 0.0000 0.0000
# 3 106.1934 8.8373 232.0118 0.0000 0.0000 0.0000
# 4 0.0000 0.0000 0.0000 -20.5977 0.0000 0.0000
# 5 0.0000 0.0000 0.0000 0.0000 34.3808 0.0000
# 6 0.0000 0.0000 0.0000 0.0000 0.0000 38.7207
#
#
#
# Elastic Compliance Matrix: (Units=1/GPa)
#
#
# Indices 1 2 3 4 5 6 
#
# 1 0.015447 0.002660 -0.007172 0.000000 0.000000 0.000000
# 2 0.002660 0.024227 -0.002140 0.000000 0.000000 0.000000
# 3 -0.007172 -0.002140 0.007674 0.000000 0.000000 0.000000
# 4 0.000000 0.000000 0.000000 -0.048549 0.000000 0.000000
# 5 0.000000 0.000000 0.000000 0.000000 0.029086 0.000000
# 6 0.000000 0.000000 0.000000 0.000000 0.000000 0.025826
#
#
# Mechanical properties :
#
#
# Convention : Reuss Voigt Hill
#
# Bulk Modulus (GPa) = 29.37408 68.07492 48.72450
# Shear Modulus (GPa) = 63.80599 28.97934 46.39266
#
# Velocity S-wave (km/s) = 5.73277 3.86348 4.88831
# Velocity P-wave (km/s) = 7.67785 7.41387 7.54701
#
# Compressibility (1/GPa) = 0.03404362
#
# Stress axis : x y z
#
# Youngs Moduli (GPa) = 64.73732 41.27710 130.30846
#
# Poissons Ratio (x) = -0.10978 0.93451
# Poissons Ratio (y) = -0.17218 0.27888
# Poissons Ratio (z) = 0.46427 0.08834
#
# Static dielectric constant tensor:
#      x y z
#    x 1.669960 0.000000 0.000000 
#    y 0.000000 1.738400 0.000000 
#    z 0.000000 0.000000 1.710650 
# 
# From -- ./inp_files/25023.got.cif
#   From: 2010.05.17/outbox.cif.g08.bks.cpg/sg47_13_cif.got.tgz:25023.got - 2010.06.03 20:15:42.
