data_PCOD9381709
_publ_section_title
;
Structure prediction by ZEFSAII (Michael W. Deem and Ramdas Pophale) SiO2 
 PCOD9381709
Probable space group: P M M M
;
_chemical_formula_sum "Si O2"
_cell_formula_units_Z 64
_cell_length_a 27.008111
_cell_length_b 14.956770
_cell_length_c 7.653105
_cell_angle_alpha 90.000000
_cell_angle_beta 90.000000
_cell_angle_gamma 90.000000
_cell_volume 3091.503176
_symmetry_space_group_name_H-M "P M M M"
_symmetry_group_IT_number 47
_symmetry_cell_setting 'orthorhombic'
loop_
_space_group_symop_operation_xyz
x,y,z
-x,-y,z
x,-y,-z
-x,y,-z
-x,-y,-z
x,y,-z
-x,y,z
x,-y,z
loop_
_atom_site_type_symbol
_atom_site_label
_atom_site_fract_x
_atom_site_fract_y
_atom_site_fract_z
Si Si1 0.741139 0.395311 0.213088
Si Si2 0.912395 0.099647 0.297800
Si Si3 0.150076 0.601823 0.209304
Si Si4 0.444091 0.600517 0.290063
Si Si5 0.946770 0.284976 0.289561
Si Si6 0.802697 0.891816 0.802372
Si Si7 0.694009 0.101831 0.785824
Si Si8 0.351369 0.279149 0.790898
O O1 0.736288 0.500000 0.260692
O O2 0.795977 0.363572 0.270142
O O3 0.694678 0.338284 0.276992
O O4 0.740167 0.391783 0.000000
O O5 0.927414 0.092651 0.500000
O O6 0.940415 0.183910 0.219542
O O7 0.854075 0.125086 0.292725
O O8 0.918073 0.000000 0.219551
O O9 0.144245 0.500000 0.274576
O O10 0.101883 0.658966 0.248548
O O11 0.153621 0.597557 0.000000
O O12 0.445995 0.596761 0.500000
O O13 0.500000 0.620659 0.228016
O O14 0.430638 0.500000 0.227718
O O15 0.402817 0.672366 0.244818
O O16 0.948002 0.279599 0.500000
O O17 0.000000 0.322340 0.230809
O O18 0.749119 0.865892 0.730615
O O19 0.799158 0.000000 0.811944
O O20 0.807673 0.855928 0.000000
O O21 0.655341 0.177093 0.729778
O O22 0.685011 0.000000 0.727318
O O23 0.695877 0.098806 0.000000
O O24 0.346125 0.276079 0.000000
#
# Coordination Sequence:
#
# PCOD9381709 Si02
#       8
#     8   8   8   8   8   8   8   8
#     4   8  15  28  46  72 103 127 150 190 245 296
#     4   9  18  32  49  69  94 124 158 198 244 294
#     4   9  19  36  56  75  97 127 160 196 243 300
#     4   9  19  36  54  72 101 139 171 204 253 305
#     4  10  22  37  51  70  95 124 161 205 251 296
#     4   8  14  26  45  68  93 124 161 196 234 285
#     4   8  15  27  43  69 105 138 166 198 240 289
#     4  10  18  28  50  80 104 132 170 209 244 283
#
# _framework density 20.701905
#
# number of rings (size 3 to 8) (size 9 to 14) (size 15 to 20)
#    0.000    3.125    0.000    2.250    1.750    2.500 
#    0.000    4.375    0.000    2.250    0.000    5.250 
#    0.000    0.000    0.000    0.000    0.000    0.000 
#
# Total GULP energy -356816.685103 kJ/mol
# GULP energy per Si atom -5575.260705 kJ/mol
# Density = 2.065479 g / cm^3
# Si number density = 20.701905 Si / 1000 Ang^3
#
#
#
# Elastic Constant Matrix: (Units=GPa)
#
#
# Indices 1 2 3 4 5 6 
#
# 1 131.3518 82.1400 1.4710 0.0000 0.0000 0.0000
# 2 82.1400 99.9011 4.4539 0.0000 0.0000 0.0000
# 3 1.4710 4.4539 34.8494 0.0000 0.0000 0.0000
# 4 0.0000 0.0000 0.0000 -4.2820 0.0000 0.0000
# 5 0.0000 0.0000 0.0000 0.0000 16.8660 0.0000
# 6 0.0000 0.0000 0.0000 0.0000 0.0000 31.7226
#
#
#
# Elastic Compliance Matrix: (Units=1/GPa)
#
#
# Indices 1 2 3 4 5 6 
#
# 1 0.015704 -0.012957 0.000993 0.000000 0.000000 0.000000
# 2 -0.012957 0.020757 -0.002106 0.000000 0.000000 0.000000
# 3 0.000993 -0.002106 0.028922 0.000000 0.000000 0.000000
# 4 0.000000 0.000000 0.000000 -0.233536 0.000000 0.000000
# 5 0.000000 0.000000 0.000000 0.000000 0.059291 0.000000
# 6 0.000000 0.000000 0.000000 0.000000 0.000000 0.031523
#
#
# Mechanical properties :
#
#
# Convention : Reuss Voigt Hill
#
# Bulk Modulus (GPa) = 26.84969 49.13691 37.99330
# Shear Modulus (GPa) = -135.92774 20.73046 -57.59864
#
# Velocity S-wave (km/s) = -8.11185 3.16789 -5.28046
# Velocity P-wave (km/s) = 8.64513 6.09653 4.33420
#
# Compressibility (1/GPa) = 0.03724438
#
# Stress axis : x y z
#
# Youngs Moduli (GPa) = 63.67667 48.17682 34.57559
#
# Poissons Ratio (x) = 0.62421 -0.03433
# Poissons Ratio (y) = 0.82503 0.07281
# Poissons Ratio (z) = -0.06323 0.10146
#
# Static dielectric constant tensor:
#      x y z
#    x 1.738530 0.000000 0.000000 
#    y 0.000000 1.766680 0.000000 
#    z 0.000000 0.000000 1.808050 
# 
# From -- ./inp_files/12762.got.cif
#   From: 2010.05.17/outbox.cif.g08.bks.cpg/sg47_7_cif.got.tgz:12762.got - 2010.06.03 20:15:42.
