data_PCOD9381231
_publ_section_title
;
Structure prediction by ZEFSAII (Michael W. Deem and Ramdas Pophale) SiO2 
 PCOD9381231
Probable space group: P M M M
;
_chemical_formula_sum "Si O2"
_cell_formula_units_Z 52
_cell_length_a 17.738213
_cell_length_b 7.954624
_cell_length_c 24.282738
_cell_angle_alpha 90.000000
_cell_angle_beta 90.000000
_cell_angle_gamma 90.000000
_cell_volume 3426.314119
_symmetry_space_group_name_H-M "P M M M"
_symmetry_group_IT_number 47
_symmetry_cell_setting 'orthorhombic'
loop_
_space_group_symop_operation_xyz
x,y,z
-x,-y,z
x,-y,-z
-x,y,-z
-x,-y,-z
x,y,-z
-x,y,z
x,-y,z
loop_
_atom_site_type_symbol
_atom_site_label
_atom_site_fract_x
_atom_site_fract_y
_atom_site_fract_z
Si Si1 0.410449 0.000000 0.825475
Si Si2 0.320255 0.684885 0.213292
Si Si3 0.774523 0.308493 0.900968
Si Si4 0.086135 0.296854 0.168449
Si Si5 0.913385 0.798391 0.619204
Si Si6 0.178743 0.199061 0.724140
Si Si7 0.913470 0.299439 0.500000
Si Si8 0.319660 0.000000 0.940135
O O1 0.378393 0.163972 0.794245
O O2 0.500000 0.000000 0.828197
O O3 0.374892 0.000000 0.887322
O O4 0.354707 0.500000 0.219382
O O5 0.271282 0.685344 0.156839
O O6 0.257969 0.716940 0.260253
O O7 0.774469 0.500000 0.923394
O O8 0.858633 0.256380 0.882404
O O9 0.732810 0.165435 0.935173
O O10 0.087900 0.500000 0.173291
O O11 0.122479 0.225858 0.224288
O O12 0.000000 0.242380 0.161619
O O13 0.861971 0.735835 0.669179
O O14 0.881717 0.758318 0.558561
O O15 0.000000 0.733218 0.623021
O O16 0.917396 0.000000 0.624580
O O17 0.192333 0.000000 0.718776
O O18 0.915086 0.500000 0.500000
O O19 0.000000 0.233213 0.500000
O O20 0.357765 0.000000 0.000000
#
# Coordination Sequence:
#
# PCOD9381231 Si02
#       8
#     4   8   8   8   8   8   4   4
#     4  10  20  35  54  75  99 121 141 170 208 260
#     4   9  17  31  49  69  94 122 149 177 215 267
#     4   8  16  30  46  64  88 118 150 183 222 266
#     4   9  17  27  40  61  87 115 149 189 234 277
#     4   9  17  27  38  54  81 119 161 202 241 275
#     4  10  17  26  41  64  90 117 152 191 232 274
#     4   9  17  27  37  49  71 111 163 210 245 276
#     4  10  20  33  51  72  90 115 150 180 212 252
#
# _framework density 15.176659000000001
#
# number of rings (size 3 to 8) (size 9 to 14) (size 15 to 20)
#    0.000    2.846    0.769    2.077    3.231    3.846 
#    0.000    1.538    0.000    0.923    0.000    6.462 
#    0.000    0.000    0.000    1.385    0.000    3.231 
#
# Total GULP energy -289575.060366 kJ/mol
# GULP energy per Si atom -5568.751161 kJ/mol
# Density = 1.514212 g / cm^3
# Si number density = 15.176659 Si / 1000 Ang^3
#
#
#
# Elastic Constant Matrix: (Units=GPa)
#
#
# Indices 1 2 3 4 5 6 
#
# 1 86.7039 38.0241 32.2428 0.0000 0.0000 0.0000
# 2 38.0241 70.9883 25.4529 0.0000 0.0000 0.0000
# 3 32.2428 25.4529 69.9466 0.0000 0.0000 0.0000
# 4 0.0000 0.0000 0.0000 -44.6557 0.0000 0.0000
# 5 0.0000 0.0000 0.0000 0.0000 9.8258 0.0000
# 6 0.0000 0.0000 0.0000 0.0000 0.0000 7.8409
#
#
#
# Elastic Compliance Matrix: (Units=1/GPa)
#
#
# Indices 1 2 3 4 5 6 
#
# 1 0.016490 -0.007024 -0.005045 0.000000 0.000000 0.000000
# 2 -0.007024 0.019192 -0.003746 0.000000 0.000000 0.000000
# 3 -0.005045 -0.003746 0.017986 0.000000 0.000000 0.000000
# 4 0.000000 0.000000 0.000000 -0.022394 0.000000 0.000000
# 5 0.000000 0.000000 0.000000 0.000000 0.101773 0.000000
# 6 0.000000 0.000000 0.000000 0.000000 0.000000 0.127537
#
#
# Mechanical properties :
#
#
# Convention : Reuss Voigt Hill
#
# Bulk Modulus (GPa) = 45.37786 46.56426 45.97106
# Shear Modulus (GPa) = 16.69112 3.39679 10.04395
#
# Velocity S-wave (km/s) = 3.31990 1.49767 2.57534
# Velocity P-wave (km/s) = 6.68284 5.80851 6.26096
#
# Compressibility (1/GPa) = 0.02203718
#
# Stress axis : x y z
#
# Youngs Moduli (GPa) = 60.64278 52.10459 55.60010
#
# Poissons Ratio (x) = 0.36596 0.28053
# Poissons Ratio (y) = 0.42593 0.20829
# Poissons Ratio (z) = 0.30597 0.19519
#
# Static dielectric constant tensor:
#      x y z
#    x 1.484750 0.000000 0.000000 
#    y 0.000000 1.536460 0.000000 
#    z 0.000000 0.000000 1.506610 
# 
# From -- ./inp_files/32692.got.cif
#   From: 2010.05.17/outbox.cif.g08.bks.cpg/sg47_17_cif.got.tgz:32692.got - 2010.06.03 20:15:42.
