data_PCOD9381452
_publ_section_title
;
Structure prediction by ZEFSAII (Michael W. Deem and Ramdas Pophale) SiO2 
 PCOD9381452
Probable space group: P M M M
;
_chemical_formula_sum "Si O2"
_cell_formula_units_Z 52
_cell_length_a 17.016521
_cell_length_b 21.294997
_cell_length_c 7.669711
_cell_angle_alpha 90.000000
_cell_angle_beta 90.000000
_cell_angle_gamma 90.000000
_cell_volume 2779.248353
_symmetry_space_group_name_H-M "P M M M"
_symmetry_group_IT_number 47
_symmetry_cell_setting 'orthorhombic'
loop_
_space_group_symop_operation_xyz
x,y,z
-x,-y,z
x,-y,-z
-x,y,-z
-x,-y,-z
x,y,-z
-x,y,z
x,-y,z
loop_
_atom_site_type_symbol
_atom_site_label
_atom_site_fract_x
_atom_site_fract_y
_atom_site_fract_z
Si Si1 0.587750 0.803966 0.289543
Si Si2 0.857219 0.365252 0.705384
Si Si3 0.332395 0.068975 0.291383
Si Si4 0.746359 0.261212 0.794338
Si Si5 0.092470 0.500000 0.286864
Si Si6 0.000000 0.133440 0.798852
Si Si7 0.171967 0.866433 0.788916
Si Si8 0.000000 0.278453 0.713217
O O1 0.585980 0.806691 0.500000
O O2 0.500000 0.789414 0.227804
O O3 0.616700 0.872409 0.224304
O O4 0.656203 0.755553 0.242009
O O5 0.873038 0.370466 0.500000
O O6 0.776498 0.327843 0.727458
O O7 0.867331 0.435518 0.775751
O O8 0.924551 0.318225 0.772061
O O9 0.343597 0.067476 0.500000
O O10 0.241504 0.086059 0.257375
O O11 0.351818 0.000000 0.221806
O O12 0.798454 0.202308 0.723720
O O13 0.758115 0.261657 0.000000
O O14 0.095686 0.500000 0.500000
O O15 0.000000 0.500000 0.240714
O O16 0.914804 0.115865 0.722591
O O17 0.000000 0.209282 0.791063
O O18 0.000000 0.111812 0.000000
O O19 0.167503 0.863014 0.000000
O O20 0.000000 0.272412 0.500000
#
# Coordination Sequence:
#
# PCOD9381452 Si02
#       8
#     8   8   8   8   4   4   8   4
#     4   9  18  33  53  76  99 120 147 188 235 286
#     4  10  18  29  46  69  97 131 169 202 236 277
#     4   9  18  32  49  69  94 122 150 184 230 283
#     4  10  19  31  48  69  96 127 158 196 238 283
#     4   9  16  28  45  67  98 135 172 207 237 270
#     4  10  18  30  44  62  89 121 161 204 241 276
#     4   9  18  30  45  64  87 120 159 198 236 274
#     4  10  18  25  42  69  93 122 161 203 241 276
#
# _framework density 18.710094000000002
#
# number of rings (size 3 to 8) (size 9 to 14) (size 15 to 20)
#    0.000    2.538    2.308    0.462    0.000    2.154 
#    0.000    2.308    0.000    2.769    0.000    4.846 
#    0.000    4.308    0.000    0.000    0.000    0.000 
#
# Total GULP energy -289955.479463 kJ/mol
# GULP energy per Si atom -5576.066913 kJ/mol
# Density = 1.866751 g / cm^3
# Si number density = 18.710094 Si / 1000 Ang^3
#
#
#
# Elastic Constant Matrix: (Units=GPa)
#
#
# Indices 1 2 3 4 5 6 
#
# 1 88.0077 21.2093 -11.9225 0.0000 0.0000 0.0000
# 2 21.2093 78.3783 -8.2164 0.0000 0.0000 0.0000
# 3 -11.9225 -8.2164 31.1560 0.0000 0.0000 0.0000
# 4 0.0000 0.0000 0.0000 -13.4489 0.0000 0.0000
# 5 0.0000 0.0000 0.0000 0.0000 -18.5164 0.0000
# 6 0.0000 0.0000 0.0000 0.0000 0.0000 11.8458
#
#
#
# Elastic Compliance Matrix: (Units=1/GPa)
#
#
# Indices 1 2 3 4 5 6 
#
# 1 0.012632 -0.002994 0.004044 0.000000 0.000000 0.000000
# 2 -0.002994 0.013831 0.002502 0.000000 0.000000 0.000000
# 3 0.004044 0.002502 0.034304 0.000000 0.000000 0.000000
# 4 0.000000 0.000000 0.000000 -0.074356 0.000000 0.000000
# 5 0.000000 0.000000 0.000000 0.000000 -0.054006 0.000000
# 6 0.000000 0.000000 0.000000 0.000000 0.000000 0.084418
#
#
# Mechanical properties :
#
#
# Convention : Reuss Voigt Hill
#
# Bulk Modulus (GPa) = 14.73392 22.18696 18.46044
# Shear Modulus (GPa) = 154.59023 9.07422 81.83222
#
# Velocity S-wave (km/s) = 9.09963 2.20464 6.62057
# Velocity P-wave (km/s) = 10.87641 4.28539 8.26623
#
# Compressibility (1/GPa) = 0.06787062
#
# Stress axis : x y z
#
# Youngs Moduli (GPa) = 79.16321 72.30055 29.15118
#
# Poissons Ratio (x) = 0.21649 -0.11790
# Poissons Ratio (y) = 0.23704 -0.07293
# Poissons Ratio (z) = -0.32016 -0.18088
#
# Static dielectric constant tensor:
#      x y z
#    x 1.660870 0.000000 0.000000 
#    y 0.000000 1.655200 0.000000 
#    z 0.000000 0.000000 1.687990 
# 
# From -- ./inp_files/7127.got.cif
#   From: 2010.05.17/outbox.cif.g08.bks.cpg/sg47_4_cif.got.tgz:7127.got - 2010.06.03 20:15:42.
