data_PCOD9381785
_publ_section_title
;
Structure prediction by ZEFSAII (Michael W. Deem and Ramdas Pophale) SiO2 
 PCOD9381785
Probable space group: P M M M
;
_chemical_formula_sum "Si O2"
_cell_formula_units_Z 64
_cell_length_a 14.618221
_cell_length_b 17.956740
_cell_length_c 14.019724
_cell_angle_alpha 90.000000
_cell_angle_beta 90.000000
_cell_angle_gamma 90.000000
_cell_volume 3680.115776
_symmetry_space_group_name_H-M "P M M M"
_symmetry_group_IT_number 47
_symmetry_cell_setting 'orthorhombic'
loop_
_space_group_symop_operation_xyz
x,y,z
-x,-y,z
x,-y,-z
-x,y,-z
-x,-y,-z
x,y,-z
-x,y,z
x,-y,z
loop_
_atom_site_type_symbol
_atom_site_label
_atom_site_fract_x
_atom_site_fract_y
_atom_site_fract_z
Si Si1 0.109664 0.730156 0.391170
Si Si2 0.697178 0.370094 0.113244
Si Si3 0.396162 0.213543 0.114945
Si Si4 0.599689 0.414614 0.291325
Si Si5 0.100531 0.654294 0.114959
Si Si6 0.106044 0.183211 0.209042
Si Si7 0.216201 0.585464 0.385410
Si Si8 0.739576 0.086426 0.115221
O O1 0.140689 0.743529 0.500000
O O2 0.139037 0.791071 0.313928
O O3 0.141915 0.647798 0.360303
O O4 0.000000 0.730629 0.390256
O O5 0.668812 0.284309 0.134297
O O6 0.628087 0.413966 0.180480
O O7 0.803065 0.383994 0.141586
O O8 0.686549 0.383408 0.000000
O O9 0.500000 0.222797 0.151297
O O10 0.345835 0.138156 0.145351
O O11 0.402425 0.210923 0.000000
O O12 0.500000 0.379740 0.305305
O O13 0.594161 0.500000 0.323982
O O14 0.686987 0.383941 0.346947
O O15 0.107457 0.739902 0.148542
O O16 0.000000 0.625769 0.147269
O O17 0.100276 0.652972 0.000000
O O18 0.170971 0.122719 0.161933
O O19 0.000000 0.158901 0.213500
O O20 0.219114 0.581747 0.500000
O O21 0.200621 0.500000 0.351276
O O22 0.728226 0.000000 0.139711
O O23 0.747615 0.091934 0.000000
#
# Coordination Sequence:
#
# PCOD9381785 Si02
#       8
#     8   8   8   8   8   8   8   8
#     4   9  18  32  51  75  99 125 159 197 238 286
#     4  10  18  30  48  68  93 125 163 203 237 275
#     4   9  17  29  45  66  91 123 162 198 234 276
#     4  10  21  34  47  66  93 126 163 201 242 285
#     4   9  16  26  44  69  93 119 154 191 229 279
#     4  10  18  29  47  68  94 128 160 192 234 281
#     4   9  18  32  50  73  99 125 154 193 244 296
#     4  10  20  32  46  69 100 129 158 195 240 289
#
# _framework density 17.390757000000001
#
# number of rings (size 3 to 8) (size 9 to 14) (size 15 to 20)
#    0.000    2.500    1.250    1.500    0.000    2.750 
#    0.000    5.000    0.000    1.500    0.000    3.500 
#    0.000    0.000    0.000    4.375    0.000    0.500 
#
# Total GULP energy -356437.986383 kJ/mol
# GULP energy per Si atom -5569.343537 kJ/mol
# Density = 1.735118 g / cm^3
# Si number density = 17.390757 Si / 1000 Ang^3
#
#
#
# Elastic Constant Matrix: (Units=GPa)
#
#
# Indices 1 2 3 4 5 6 
#
# 1 65.5677 7.8246 0.2210 0.0000 0.0000 0.0000
# 2 7.8246 34.2794 3.8323 0.0000 0.0000 0.0000
# 3 0.2210 3.8323 19.4853 0.0000 0.0000 0.0000
# 4 0.0000 0.0000 0.0000 19.7798 0.0000 0.0000
# 5 0.0000 0.0000 0.0000 0.0000 15.6418 0.0000
# 6 0.0000 0.0000 0.0000 0.0000 0.0000 15.2968
#
#
#
# Elastic Compliance Matrix: (Units=1/GPa)
#
#
# Indices 1 2 3 4 5 6 
#
# 1 0.015684 -0.003640 0.000538 0.000000 0.000000 0.000000
# 2 -0.003640 0.030673 -0.005991 0.000000 0.000000 0.000000
# 3 0.000538 -0.005991 0.052493 0.000000 0.000000 0.000000
# 4 0.000000 0.000000 0.000000 0.050557 0.000000 0.000000
# 5 0.000000 0.000000 0.000000 0.000000 0.063931 0.000000
# 6 0.000000 0.000000 0.000000 0.000000 0.000000 0.065373
#
#
# Mechanical properties :
#
#
# Convention : Reuss Voigt Hill
#
# Bulk Modulus (GPa) = 12.39728 15.89868 14.14798
# Shear Modulus (GPa) = 15.44233 17.30732 16.37483
#
# Velocity S-wave (km/s) = 2.98310 3.15810 3.07185
# Velocity P-wave (km/s) = 4.35997 4.73920 4.55354
#
# Compressibility (1/GPa) = 0.08066286
#
# Stress axis : x y z
#
# Youngs Moduli (GPa) = 63.75926 32.60226 19.05017
#
# Poissons Ratio (x) = 0.11868 -0.01025
# Poissons Ratio (y) = 0.23209 0.11414
# Poissons Ratio (z) = -0.03431 0.19533
#
# Static dielectric constant tensor:
#      x y z
#    x 1.641760 0.000000 0.000000 
#    y 0.000000 1.586760 0.000000 
#    z 0.000000 0.000000 1.617640 
# 
# From -- ./inp_files/24112.got.cif
#   From: 2010.05.17/outbox.cif.g08.bks.cpg/sg47_13_cif.got.tgz:24112.got - 2010.06.03 20:15:42.
