data_PCOD9381264
_publ_section_title
;
Structure prediction by ZEFSAII (Michael W. Deem and Ramdas Pophale) SiO2 
 PCOD9381264
Probable space group: P M M M
;
_chemical_formula_sum "Si O2"
_cell_formula_units_Z 56
_cell_length_a 8.571648
_cell_length_b 15.025293
_cell_length_c 23.932669
_cell_angle_alpha 90.000000
_cell_angle_beta 90.000000
_cell_angle_gamma 90.000000
_cell_volume 3082.324883
_symmetry_space_group_name_H-M "P M M M"
_symmetry_group_IT_number 47
_symmetry_cell_setting 'orthorhombic'
loop_
_space_group_symop_operation_xyz
x,y,z
-x,-y,z
x,-y,-z
-x,y,-z
-x,-y,-z
x,y,-z
-x,y,z
x,-y,z
loop_
_atom_site_type_symbol
_atom_site_label
_atom_site_fract_x
_atom_site_fract_y
_atom_site_fract_z
Si Si1 0.811659 0.397682 0.392574
Si Si2 0.811268 0.272602 0.163693
Si Si3 0.190142 0.398725 0.936056
Si Si4 0.314046 0.779968 0.438236
Si Si5 0.189699 0.600927 0.736248
Si Si6 0.185402 0.896060 0.336951
Si Si7 0.686147 0.101793 0.785001
O O1 0.771164 0.500000 0.406160
O O2 0.734449 0.322471 0.429695
O O3 0.765432 0.380595 0.327755
O O4 0.000000 0.390189 0.396050
O O5 0.758347 0.325722 0.108655
O O6 0.757238 0.329220 0.217764
O O7 0.752681 0.172818 0.171661
O O8 0.000000 0.271999 0.163852
O O9 0.236959 0.500000 0.920820
O O10 0.000000 0.398344 0.935509
O O11 0.238812 0.381449 0.000000
O O12 0.261968 0.810003 0.500000
O O13 0.500000 0.787902 0.435221
O O14 0.241069 0.836433 0.388133
O O15 0.238012 0.500000 0.750372
O O16 0.000000 0.601712 0.736878
O O17 0.260957 0.871644 0.277591
O O18 0.000000 0.886848 0.330823
O O19 0.223061 0.000000 0.347587
O O20 0.500000 0.102492 0.787253
O O21 0.741156 0.000000 0.794081
#
# Coordination Sequence:
#
# PCOD9381264 Si02
#       7
#     8   8   8   8   8   8   8
#     4   9  18  33  52  72  96 129 169 213 258 303
#     4  10  17  26  48  77 101 131 172 214 251 291
#     4   8  14  25  43  72 110 146 178 213 253 296
#     4  11  24  38  52  73 102 136 171 207 250 302
#     4   8  14  25  43  70  99 122 150 193 245 297
#     4  10  21  38  60  82 102 126 160 205 256 309
#     4  10  21  36  53  74 102 133 162 199 254 315
#
# _framework density 18.168104
#
# number of rings (size 3 to 8) (size 9 to 14) (size 15 to 20)
#    0.000    2.571    0.000    3.857    0.000    6.571 
#    0.000    2.857    0.000    3.429    0.000    4.000 
#    0.000    0.000    0.000    0.000    0.000    0.000 
#
# Total GULP energy -312454.329704 kJ/mol
# GULP energy per Si atom -5579.541602 kJ/mol
# Density = 1.812675 g / cm^3
# Si number density = 18.168104 Si / 1000 Ang^3
#
#
#
# Elastic Constant Matrix: (Units=GPa)
#
#
# Indices 1 2 3 4 5 6 
#
# 1 9.5816 19.4412 17.2288 0.0000 0.0000 0.0000
# 2 19.4412 100.1035 73.6788 0.0000 0.0000 0.0000
# 3 17.2288 73.6788 87.5896 0.0000 0.0000 0.0000
# 4 0.0000 0.0000 0.0000 23.5618 0.0000 0.0000
# 5 0.0000 0.0000 0.0000 0.0000 8.0889 0.0000
# 6 0.0000 0.0000 0.0000 0.0000 0.0000 10.6923
#
#
#
# Elastic Compliance Matrix: (Units=1/GPa)
#
#
# Indices 1 2 3 4 5 6 
#
# 1 0.180168 -0.023385 -0.015767 0.000000 0.000000 0.000000
# 2 -0.023385 0.029264 -0.020017 0.000000 0.000000 0.000000
# 3 -0.015767 -0.020017 0.031356 0.000000 0.000000 0.000000
# 4 0.000000 0.000000 0.000000 0.042442 0.000000 0.000000
# 5 0.000000 0.000000 0.000000 0.000000 0.123627 0.000000
# 6 0.000000 0.000000 0.000000 0.000000 0.000000 0.093525
#
#
# Mechanical properties :
#
#
# Convention : Reuss Voigt Hill
#
# Bulk Modulus (GPa) = 8.16667 46.44137 27.30402
# Shear Modulus (GPa) = 7.58108 14.26364 10.92236
#
# Velocity S-wave (km/s) = 2.04495 2.80499 2.45456
# Velocity P-wave (km/s) = 3.17499 6.00901 4.80566
#
# Compressibility (1/GPa) = 0.12244893
#
# Stress axis : x y z
#
# Youngs Moduli (GPa) = 5.55039 34.17158 31.89196
#
# Poissons Ratio (x) = 0.79912 0.50285
# Poissons Ratio (y) = 0.12980 0.63837
# Poissons Ratio (z) = 0.08751 0.68400
#
# Static dielectric constant tensor:
#      x y z
#    x 1.619850 0.000000 0.000000 
#    y 0.000000 1.632310 0.000000 
#    z 0.000000 0.000000 1.618770 
# 
# From -- ./inp_files/29703.got.cif
#   From: 2010.05.17/outbox.cif.g08.bks.cpg/sg47_15_cif.got.tgz:29703.got - 2010.06.03 20:15:42.
