data_PCOD9381444
_publ_section_title
;
Structure prediction by ZEFSAII (Michael W. Deem and Ramdas Pophale) SiO2 
 PCOD9381444
Probable space group: P M M M
;
_chemical_formula_sum "Si O2"
_cell_formula_units_Z 44
_cell_length_a 7.755213
_cell_length_b 17.059998
_cell_length_c 16.350703
_cell_angle_alpha 90.000000
_cell_angle_beta 90.000000
_cell_angle_gamma 90.000000
_cell_volume 2163.262073
_symmetry_space_group_name_H-M "P M M M"
_symmetry_group_IT_number 47
_symmetry_cell_setting 'orthorhombic'
loop_
_space_group_symop_operation_xyz
x,y,z
-x,-y,z
x,-y,-z
-x,y,-z
-x,-y,-z
x,y,-z
-x,y,z
x,-y,z
loop_
_atom_site_type_symbol
_atom_site_label
_atom_site_fract_x
_atom_site_fract_y
_atom_site_fract_z
Si Si1 0.705832 0.409566 0.000000
Si Si2 0.708579 0.000000 0.326403
Si Si3 0.289148 0.163803 0.592066
Si Si4 0.297712 0.744536 0.252372
Si Si5 0.203287 0.410656 0.178736
Si Si6 0.200879 0.000000 0.136073
Si Si7 0.296883 0.826602 0.910378
O O1 0.765106 0.378070 0.086912
O O2 0.769000 0.500000 0.000000
O O3 0.500000 0.408329 0.000000
O O4 0.758544 0.922400 0.375605
O O5 0.778747 0.000000 0.234399
O O6 0.500000 0.000000 0.318817
O O7 0.227931 0.178338 0.500000
O O8 0.500000 0.166284 0.589147
O O9 0.227852 0.223525 0.662119
O O10 0.500000 0.765748 0.252623
O O11 0.280891 0.651933 0.240263
O O12 0.221615 0.786501 0.171355
O O13 0.272917 0.500000 0.182921
O O14 0.000000 0.414185 0.192006
O O15 0.281682 0.079984 0.102202
O O16 0.000000 0.000000 0.114363
O O17 0.500000 0.805467 0.913034
O O18 0.223798 0.805616 0.000000
#
# Coordination Sequence:
#
# PCOD9381444 Si02
#       7
#     4   4   8   8   8   4   8
#     4   9  17  31  53  79 105 136 177 220 261 309
#     4  10  17  33  57  79 106 139 176 215 265 323
#     4   9  17  31  56  86 109 132 170 222 274 320
#     4  10  20  34  55  82 108 136 176 225 271 321
#     4  10  21  36  53  76 109 146 181 218 267 323
#     4  12  23  34  51  75 108 146 186 224 260 306
#     4  10  21  37  55  75 103 143 185 223 264 312
#
# _framework density 20.339652999999998
#
# number of rings (size 3 to 8) (size 9 to 14) (size 15 to 20)
#    0.000    2.091    1.818    2.182    1.273    5.455 
#    0.000    0.000    0.000    3.273    0.000    3.818 
#    0.000    0.000    0.000    0.000    0.000    0.000 
#
# Total GULP energy -245681.697904 kJ/mol
# GULP energy per Si atom -5583.674952 kJ/mol
# Density = 2.029336 g / cm^3
# Si number density = 20.339653 Si / 1000 Ang^3
#
#
#
# Elastic Constant Matrix: (Units=GPa)
#
#
# Indices 1 2 3 4 5 6 
#
# 1 28.5914 -13.4227 7.2964 0.0000 0.0000 0.0000
# 2 -13.4227 97.5854 73.6334 0.0000 0.0000 0.0000
# 3 7.2964 73.6334 190.6668 0.0000 0.0000 0.0000
# 4 0.0000 0.0000 0.0000 6.1014 0.0000 0.0000
# 5 0.0000 0.0000 0.0000 0.0000 -3.5954 0.0000
# 6 0.0000 0.0000 0.0000 0.0000 0.0000 -65.7548
#
#
#
# Elastic Compliance Matrix: (Units=1/GPa)
#
#
# Indices 1 2 3 4 5 6 
#
# 1 0.040820 0.009587 -0.005264 0.000000 0.000000 0.000000
# 2 0.009587 0.016713 -0.006821 0.000000 0.000000 0.000000
# 3 -0.005264 -0.006821 0.008081 0.000000 0.000000 0.000000
# 4 0.000000 0.000000 0.000000 0.163896 0.000000 0.000000
# 5 0.000000 0.000000 0.000000 0.000000 -0.278134 0.000000
# 6 0.000000 0.000000 0.000000 0.000000 0.000000 -0.015208
#
#
# Mechanical properties :
#
#
# Convention : Reuss Voigt Hill
#
# Bulk Modulus (GPa) = 16.49732 50.20642 33.35187
# Shear Modulus (GPa) = -129.43268 3.97267 -62.73000
#
# Velocity S-wave (km/s) = -7.98585 1.39907 -5.55951
# Velocity P-wave (km/s) = 8.76945 5.22948 4.97774
#
# Compressibility (1/GPa) = 0.06061591
#
# Stress axis : x y z
#
# Youngs Moduli (GPa) = 24.49794 59.83307 123.75424
#
# Poissons Ratio (x) = -0.57362 0.65150
# Poissons Ratio (y) = -0.23486 0.84417
# Poissons Ratio (z) = 0.12897 0.40814
#
# Static dielectric constant tensor:
#      x y z
#    x 1.731050 0.000000 0.000000 
#    y 0.000000 1.731330 0.000000 
#    z 0.000000 0.000000 1.729430 
# 
# From -- ./inp_files/20963.got.cif
#   From: 2010.05.17/outbox.cif.g08.bks.cpg/sg47_11_cif.got.tgz:20963.got - 2010.06.03 20:15:42.
