data_PCOD9381744
_publ_section_title
;
Structure prediction by ZEFSAII (Michael W. Deem and Ramdas Pophale) SiO2 
 PCOD9381744
Probable space group: P M M M
;
_chemical_formula_sum "Si O2"
_cell_formula_units_Z 64
_cell_length_a 25.698308
_cell_length_b 7.590952
_cell_length_c 15.733642
_cell_angle_alpha 90.000000
_cell_angle_beta 90.000000
_cell_angle_gamma 90.000000
_cell_volume 3069.234274
_symmetry_space_group_name_H-M "P M M M"
_symmetry_group_IT_number 47
_symmetry_cell_setting 'orthorhombic'
loop_
_space_group_symop_operation_xyz
x,y,z
-x,-y,z
x,-y,-z
-x,y,-z
-x,-y,-z
x,y,-z
-x,y,z
x,-y,z
loop_
_atom_site_type_symbol
_atom_site_label
_atom_site_fract_x
_atom_site_fract_y
_atom_site_fract_z
Si Si1 0.771063 0.786345 0.408170
Si Si2 0.696169 0.211796 0.860246
Si Si3 0.556407 0.288704 0.278557
Si Si4 0.939640 0.284957 0.595475
Si Si5 0.856182 0.293028 0.270553
Si Si6 0.668216 0.210295 0.328938
Si Si7 0.582720 0.705622 0.090525
Si Si8 0.814236 0.290058 0.093237
O O1 0.790906 0.725817 0.500000
O O2 0.805369 0.723290 0.329799
O O3 0.711151 0.729182 0.395790
O O4 0.773087 0.000000 0.406917
O O5 0.688188 0.273495 0.763188
O O6 0.645380 0.282514 0.907301
O O7 0.752352 0.264475 0.894077
O O8 0.693454 0.000000 0.862919
O O9 0.500000 0.227529 0.309878
O O10 0.555087 0.500000 0.272351
O O11 0.607260 0.249932 0.334098
O O12 0.564870 0.219551 0.181629
O O13 0.923793 0.227768 0.500000
O O14 0.937216 0.500000 0.595280
O O15 0.902620 0.219443 0.670872
O O16 0.000000 0.236819 0.607825
O O17 0.867389 0.500000 0.258602
O O18 0.843230 0.218158 0.177261
O O19 0.671771 0.000000 0.327797
O O20 0.567511 0.500000 0.090668
O O21 0.564836 0.782216 0.000000
O O22 0.823224 0.500000 0.091906
O O23 0.828993 0.219251 0.000000
#
# Coordination Sequence:
#
# PCOD9381744 Si02
#       8
#     8   8   8   8   8   8   8   8
#     4  10  20  34  52  75 104 132 155 190 246 303
#     4  10  18  29  45  64  88 120 160 200 235 280
#     4   9  18  31  47  66  86 114 154 196 238 284
#     4   8  14  26  46  73 102 129 161 204 250 293
#     4  10  19  31  50  74 101 133 170 208 240 283
#     4   9  18  32  48  67  92 121 152 187 233 291
#     4   9  17  28  42  61  87 117 148 188 240 292
#     4  10  20  31  43  63  95 133 168 203 244 284
#
# _framework density 20.852105999999999
#
# number of rings (size 3 to 8) (size 9 to 14) (size 15 to 20)
#    0.000    2.625    1.250    1.500    0.000    4.250 
#    0.000    1.250    0.000    1.125    0.000   10.500 
#    0.000    0.000    0.000    2.250    0.000    2.625 
#
# Total GULP energy -356910.117891 kJ/mol
# GULP energy per Si atom -5576.720592 kJ/mol
# Density = 2.080465 g / cm^3
# Si number density = 20.852106 Si / 1000 Ang^3
#
#
#
# Elastic Constant Matrix: (Units=GPa)
#
#
# Indices 1 2 3 4 5 6 
#
# 1 121.2107 -4.8740 62.7559 0.0000 0.0000 0.0000
# 2 -4.8740 45.4161 4.7201 0.0000 0.0000 0.0000
# 3 62.7559 4.7201 121.4568 0.0000 0.0000 0.0000
# 4 0.0000 0.0000 0.0000 2.9803 0.0000 0.0000
# 5 0.0000 0.0000 0.0000 0.0000 25.6716 0.0000
# 6 0.0000 0.0000 0.0000 0.0000 0.0000 32.1125
#
#
#
# Elastic Compliance Matrix: (Units=1/GPa)
#
#
# Indices 1 2 3 4 5 6 
#
# 1 0.011415 0.001846 -0.005970 0.000000 0.000000 0.000000
# 2 0.001846 0.022406 -0.001824 0.000000 0.000000 0.000000
# 3 -0.005970 -0.001824 0.011389 0.000000 0.000000 0.000000
# 4 0.000000 0.000000 0.000000 0.335539 0.000000 0.000000
# 5 0.000000 0.000000 0.000000 0.000000 0.038954 0.000000
# 6 0.000000 0.000000 0.000000 0.000000 0.000000 0.031141
#
#
# Mechanical properties :
#
#
# Convention : Reuss Voigt Hill
#
# Bulk Modulus (GPa) = 30.01836 45.92085 37.96961
# Shear Modulus (GPa) = 10.55198 27.18499 18.86849
#
# Velocity S-wave (km/s) = 2.25197 3.61460 3.01137
# Velocity P-wave (km/s) = 4.60314 6.28414 5.50815
#
# Compressibility (1/GPa) = 0.03331295
#
# Stress axis : x y z
#
# Youngs Moduli (GPa) = 87.60286 44.63035 87.80512
#
# Poissons Ratio (x) = -0.08237 0.52418
# Poissons Ratio (y) = -0.16167 0.16019
# Poissons Ratio (z) = 0.52298 0.08142
#
# Static dielectric constant tensor:
#      x y z
#    x 1.747570 0.000000 0.000000 
#    y 0.000000 1.783530 0.000000 
#    z 0.000000 0.000000 1.754940 
# 
# From -- ./inp_files/25617.got.cif
#   From: 2010.05.17/outbox.cif.g08.bks.cpg/sg47_13_cif.got.tgz:25617.got - 2010.06.03 20:15:42.
