data_PCOD9381998
_publ_section_title
;
Structure prediction by ZEFSAII (Michael W. Deem and Ramdas Pophale) SiO2 
 PCOD9381998
Probable space group: P M M M
;
_chemical_formula_sum "Si O2"
_cell_formula_units_Z 56
_cell_length_a 19.029546
_cell_length_b 8.789966
_cell_length_c 19.680236
_cell_angle_alpha 90.000000
_cell_angle_beta 90.000000
_cell_angle_gamma 90.000000
_cell_volume 3291.894622
_symmetry_space_group_name_H-M "P M M M"
_symmetry_group_IT_number 47
_symmetry_cell_setting 'orthorhombic'
loop_
_space_group_symop_operation_xyz
x,y,z
-x,-y,z
x,-y,-z
-x,y,-z
-x,-y,-z
x,y,-z
-x,y,z
x,-y,z
loop_
_atom_site_type_symbol
_atom_site_label
_atom_site_fract_x
_atom_site_fract_y
_atom_site_fract_z
Si Si1 0.657881 0.681519 0.214162
Si Si2 0.713125 0.183337 0.576345
Si Si3 0.319236 0.181687 0.924019
Si Si4 0.163266 0.318035 0.076020
Si Si5 0.080597 0.316320 0.210858
Si Si6 0.420593 0.316875 0.350874
Si Si7 0.792176 0.182483 0.710702
O O1 0.665124 0.500000 0.210752
O O2 0.641432 0.745510 0.139878
O O3 0.602283 0.719522 0.273368
O O4 0.731643 0.751394 0.240053
O O5 0.729792 0.234666 0.500000
O O6 0.637711 0.245090 0.600462
O O7 0.768650 0.228523 0.634615
O O8 0.710359 0.000000 0.576637
O O9 0.238116 0.235448 0.918108
O O10 0.322178 0.000000 0.919272
O O11 0.343230 0.227398 0.000000
O O12 0.175974 0.500000 0.081475
O O13 0.111472 0.274094 0.136663
O O14 0.135144 0.288336 0.000000
O O15 0.083047 0.500000 0.215467
O O16 0.133458 0.246565 0.265652
O O17 0.000000 0.267826 0.218422
O O18 0.500000 0.266674 0.364737
O O19 0.417518 0.500000 0.357588
O O20 0.791638 0.000000 0.715491
#
# Coordination Sequence:
#
# PCOD9381998 Si02
#       7
#     8   8   8   8   8   8   8
#     4  10  18  30  50  71  94 127 165 202 241 286
#     4   9  19  35  54  77 103 130 161 197 237 284
#     4  10  19  29  44  68  96 124 159 207 254 290
#     4   9  17  29  45  65  92 127 163 198 241 292
#     4  10  20  32  47  69  98 131 165 204 248 292
#     4   9  19  34  51  75 106 135 162 194 233 282
#     4  10  19  32  51  72  95 125 162 202 243 287
#
# _framework density 17.011479000000001
#
# number of rings (size 3 to 8) (size 9 to 14) (size 15 to 20)
#    0.000    2.429    1.429    1.286    0.000    3.429 
#    0.000    2.857    0.000    0.857    0.000    9.000 
#    0.000    0.000    0.000    0.000    0.000    0.000 
#
# Total GULP energy -312265.131107 kJ/mol
# GULP energy per Si atom -5576.163055 kJ/mol
# Density = 1.697276 g / cm^3
# Si number density = 17.011479 Si / 1000 Ang^3
#
#
#
# Elastic Constant Matrix: (Units=GPa)
#
#
# Indices 1 2 3 4 5 6 
#
# 1 44.9003 7.8928 28.6792 0.0000 0.0000 0.0000
# 2 7.8928 17.9824 25.7682 0.0000 0.0000 0.0000
# 3 28.6792 25.7682 138.3529 0.0000 0.0000 0.0000
# 4 0.0000 0.0000 0.0000 24.9086 0.0000 0.0000
# 5 0.0000 0.0000 0.0000 0.0000 14.5425 0.0000
# 6 0.0000 0.0000 0.0000 0.0000 0.0000 -7.8632
#
#
#
# Elastic Compliance Matrix: (Units=1/GPa)
#
#
# Indices 1 2 3 4 5 6 
#
# 1 0.026000 -0.005032 -0.004452 0.000000 0.000000 0.000000
# 2 -0.005032 0.076829 -0.013266 0.000000 0.000000 0.000000
# 3 -0.004452 -0.013266 0.010622 0.000000 0.000000 0.000000
# 4 0.000000 0.000000 0.000000 0.040147 0.000000 0.000000
# 5 0.000000 0.000000 0.000000 0.000000 0.068764 0.000000
# 6 0.000000 0.000000 0.000000 0.000000 0.000000 -0.127174
#
#
# Mechanical properties :
#
#
# Convention : Reuss Voigt Hill
#
# Bulk Modulus (GPa) = 14.71683 36.21289 25.46486
# Shear Modulus (GPa) = 30.61151 15.57726 23.09439
#
# Velocity S-wave (km/s) = 4.24661 3.02932 3.68853
# Velocity P-wave (km/s) = 5.71969 5.79390 5.75691
#
# Compressibility (1/GPa) = 0.06794943
#
# Stress axis : x y z
#
# Youngs Moduli (GPa) = 38.46161 13.01599 94.14705
#
# Poissons Ratio (x) = 0.06549 0.41918
# Poissons Ratio (y) = 0.19353 1.24898
# Poissons Ratio (z) = 0.17125 0.17267
#
# Static dielectric constant tensor:
#      x y z
#    x 1.544730 0.000000 0.000000 
#    y 0.000000 1.571970 0.000000 
#    z 0.000000 0.000000 1.605190 
# 
# From -- ./inp_files/9808.got.cif
#   From: 2010.05.17/outbox.cif.g08.bks.cpg/sg47_5_cif.got.tgz:9808.got - 2010.06.03 20:15:42.
