data_PCOD9381631
_publ_section_title
;
Structure prediction by ZEFSAII (Michael W. Deem and Ramdas Pophale) SiO2 
 PCOD9381631
Probable space group: P M M M
;
_chemical_formula_sum "Si O2"
_cell_formula_units_Z 64
_cell_length_a 29.188987
_cell_length_b 7.831215
_cell_length_c 15.375357
_cell_angle_alpha 90.000000
_cell_angle_beta 90.000000
_cell_angle_gamma 90.000000
_cell_volume 3514.579560
_symmetry_space_group_name_H-M "P M M M"
_symmetry_group_IT_number 47
_symmetry_cell_setting 'orthorhombic'
loop_
_space_group_symop_operation_xyz
x,y,z
-x,-y,z
x,-y,-z
-x,y,-z
-x,-y,-z
x,y,-z
-x,y,z
x,-y,z
loop_
_atom_site_type_symbol
_atom_site_label
_atom_site_fract_x
_atom_site_fract_y
_atom_site_fract_z
Si Si1 0.149880 0.701221 0.599676
Si Si2 0.417282 0.208389 0.596397
Si Si3 0.737646 0.200583 0.097293
Si Si4 0.688819 0.791900 0.402807
Si Si5 0.549697 0.206304 0.781194
Si Si6 0.364969 0.297673 0.098888
Si Si7 0.767337 0.796124 0.276909
Si Si8 0.049344 0.794372 0.397873
O O1 0.153554 0.772524 0.500000
O O2 0.156943 0.500000 0.593435
O O3 0.187671 0.769750 0.665585
O O4 0.098356 0.732128 0.634537
O O5 0.432314 0.264933 0.500000
O O6 0.364000 0.258342 0.608770
O O7 0.444236 0.264944 0.681395
O O8 0.418825 0.000000 0.595252
O O9 0.683819 0.215054 0.121896
O O10 0.766185 0.272931 0.178462
O O11 0.748583 0.000000 0.090010
O O12 0.743109 0.275922 0.000000
O O13 0.703674 0.740671 0.500000
O O14 0.723959 0.727347 0.331243
O O15 0.689184 0.000000 0.400812
O O16 0.500000 0.264192 0.814983
O O17 0.593254 0.258602 0.837638
O O18 0.549655 0.000000 0.780315
O O19 0.357390 0.500000 0.098769
O O20 0.376342 0.242625 0.000000
O O21 0.760711 0.000000 0.269725
O O22 0.049000 0.745258 0.500000
O O23 0.000000 0.736260 0.360788
O O24 0.049856 0.000000 0.393735
#
# Coordination Sequence:
#
# PCOD9381631 Si02
#       8
#     8   8   8   8   8   8   8   8
#     4  10  20  30  40  61  96 133 165 198 235 272
#     4   8  14  26  44  66  91 115 142 179 219 259
#     4   9  18  33  53  75  95 115 145 187 230 271
#     4   8  13  21  36  59  83 109 143 177 207 246
#     4  10  20  32  48  71  95 118 146 182 223 263
#     4  10  21  36  53  71  91 117 146 177 220 275
#     4  10  18  28  45  66  91 124 155 185 225 272
#     4   8  14  26  44  63  84 117 163 208 243 276
#
# _framework density 18.209859000000002
#
# number of rings (size 3 to 8) (size 9 to 14) (size 15 to 20)
#    0.000    2.875    0.000    3.000    0.000    5.500 
#    0.000    3.750    0.000    0.375    0.000    0.875 
#    0.000    0.500    0.000    5.750    0.000    1.875 
#
# Total GULP energy -356649.500724 kJ/mol
# GULP energy per Si atom -5572.648449 kJ/mol
# Density = 1.816841 g / cm^3
# Si number density = 18.209859 Si / 1000 Ang^3
#
#
#
# Elastic Constant Matrix: (Units=GPa)
#
#
# Indices 1 2 3 4 5 6 
#
# 1 61.9279 -4.1197 56.4790 0.0000 0.0000 0.0000
# 2 -4.1197 19.8945 6.1201 0.0000 0.0000 0.0000
# 3 56.4790 6.1201 98.1684 0.0000 0.0000 0.0000
# 4 0.0000 0.0000 0.0000 3.6690 0.0000 0.0000
# 5 0.0000 0.0000 0.0000 0.0000 15.4590 0.0000
# 6 0.0000 0.0000 0.0000 0.0000 0.0000 -67.7843
#
#
#
# Elastic Compliance Matrix: (Units=1/GPa)
#
#
# Indices 1 2 3 4 5 6 
#
# 1 0.037819 0.014809 -0.022681 0.000000 0.000000 0.000000
# 2 0.014809 0.057047 -0.012076 0.000000 0.000000 0.000000
# 3 -0.022681 -0.012076 0.023989 0.000000 0.000000 0.000000
# 4 0.000000 0.000000 0.000000 0.272557 0.000000 0.000000
# 5 0.000000 0.000000 0.000000 0.000000 0.064687 0.000000
# 6 0.000000 0.000000 0.000000 0.000000 0.000000 -0.014753
#
#
# Mechanical properties :
#
#
# Convention : Reuss Voigt Hill
#
# Bulk Modulus (GPa) = 12.66523 32.99440 22.82982
# Shear Modulus (GPa) = 9.85101 -1.63051 4.11025
#
# Velocity S-wave (km/s) = 2.32840 -0.94728 1.50401
# Velocity P-wave (km/s) = 3.76814 4.11848 3.94720
#
# Compressibility (1/GPa) = 0.07895632
#
# Stress axis : x y z
#
# Youngs Moduli (GPa) = 26.44203 17.52946 41.68640
#
# Poissons Ratio (x) = -0.25959 0.94550
# Poissons Ratio (y) = -0.39158 0.50342
# Poissons Ratio (z) = 0.59974 0.21169
#
# Static dielectric constant tensor:
#      x y z
#    x 1.626600 0.000000 0.000000 
#    y 0.000000 1.669080 0.000000 
#    z 0.000000 0.000000 1.656470 
# 
# From -- ./inp_files/14289.got.cif
#   From: 2010.05.17/outbox.cif.g08.bks.cpg/sg47_8_cif.got.tgz:14289.got - 2010.06.03 20:15:42.
