data_PCOD9381243
_publ_section_title
;
Structure prediction by ZEFSAII (Michael W. Deem and Ramdas Pophale) SiO2 
 PCOD9381243
Probable space group: P M M M
;
_chemical_formula_sum "Si O2"
_cell_formula_units_Z 64
_cell_length_a 20.911309
_cell_length_b 20.964250
_cell_length_c 7.312760
_cell_angle_alpha 90.000000
_cell_angle_beta 90.000000
_cell_angle_gamma 90.000000
_cell_volume 3205.840196
_symmetry_space_group_name_H-M "P M M M"
_symmetry_group_IT_number 47
_symmetry_cell_setting 'orthorhombic'
loop_
_space_group_symop_operation_xyz
x,y,z
-x,-y,z
x,-y,-z
-x,y,-z
-x,-y,-z
x,y,-z
-x,y,z
x,-y,z
loop_
_atom_site_type_symbol
_atom_site_label
_atom_site_fract_x
_atom_site_fract_y
_atom_site_fract_z
Si Si1 0.930678 0.601489 0.719430
Si Si2 0.573327 0.692750 0.276409
Si Si3 0.340109 0.190661 0.284304
Si Si4 0.206817 0.759377 0.722779
Si Si5 0.652307 0.430737 0.277250
Si Si6 0.068458 0.245190 0.719740
Si Si7 0.428533 0.072490 0.780741
Si Si8 0.208374 0.609500 0.722595
O O1 0.931384 0.590723 0.500000
O O2 0.930424 0.678189 0.749449
O O3 0.860133 0.581597 0.785014
O O4 0.000000 0.577741 0.787787
O O5 0.573069 0.693100 0.500000
O O6 0.500000 0.694379 0.217753
O O7 0.612599 0.754493 0.213251
O O8 0.610049 0.628923 0.218331
O O9 0.335012 0.202749 0.500000
O O10 0.268244 0.201146 0.213421
O O11 0.373799 0.122731 0.264064
O O12 0.205093 0.761067 0.500000
O O13 0.136394 0.780682 0.786369
O O14 0.214096 0.684542 0.771217
O O15 0.652737 0.428948 0.500000
O O16 0.627544 0.500000 0.221738
O O17 0.726102 0.423103 0.219275
O O18 0.067703 0.237099 0.500000
O O19 0.000000 0.221078 0.789581
O O20 0.500000 0.092503 0.717056
O O21 0.416922 0.000000 0.716701
O O22 0.431261 0.070227 0.000000
O O23 0.206608 0.606982 0.500000
#
# Coordination Sequence:
#
# PCOD9381243 Si02
#       8
#     8   8   8   8   8   8   8   8
#     4   7   9  12  20  33  47  70 109 153 190 224
#     4   9  16  24  33  48  70  94 122 159 203 244
#     4  10  17  26  43  66  88 108 133 168 208 245
#     4   8  12  18  30  49  75 102 126 159 203 241
#     4   9  15  21  28  38  57  91 130 161 194 241
#     4   7   9  13  22  39  65  97 128 154 186 233
#     4   9  19  35  50  63  84 114 141 163 192 234
#     4   8  11  17  26  36  56  86 119 153 192 237
#
# _framework density 19.963564999999999
#
# number of rings (size 3 to 8) (size 9 to 14) (size 15 to 20)
#    0.000    3.625    1.250    3.000    0.000    1.250 
#    0.000    1.875    0.000    0.375    0.000    2.625 
#    0.000    1.500    0.000    8.875    0.000    3.750 
#
# Total GULP energy -356659.449008 kJ/mol
# GULP energy per Si atom -5572.803891 kJ/mol
# Density = 1.991813 g / cm^3
# Si number density = 19.963565 Si / 1000 Ang^3
#
#
#
# Elastic Constant Matrix: (Units=GPa)
#
#
# Indices 1 2 3 4 5 6 
#
# 1 206.9205 76.4761 8.9967 0.0000 0.0000 0.0000
# 2 76.4761 78.2089 -1.2495 0.0000 0.0000 0.0000
# 3 8.9967 -1.2495 75.8877 0.0000 0.0000 0.0000
# 4 0.0000 0.0000 0.0000 137.4732 0.0000 0.0000
# 5 0.0000 0.0000 0.0000 0.0000 13.9590 0.0000
# 6 0.0000 0.0000 0.0000 0.0000 0.0000 331.6257
#
#
#
# Elastic Compliance Matrix: (Units=1/GPa)
#
#
# Indices 1 2 3 4 5 6 
#
# 1 0.007647 -0.007494 -0.001030 0.000000 0.000000 0.000000
# 2 -0.007494 0.020134 0.001220 0.000000 0.000000 0.000000
# 3 -0.001030 0.001220 0.013320 0.000000 0.000000 0.000000
# 4 0.000000 0.000000 0.000000 0.007274 0.000000 0.000000
# 5 0.000000 0.000000 0.000000 0.000000 0.071638 0.000000
# 6 0.000000 0.000000 0.000000 0.000000 0.000000 0.003015
#
#
# Mechanical properties :
#
#
# Convention : Reuss Voigt Hill
#
# Bulk Modulus (GPa) = 37.74693 58.82930 48.28812
# Shear Modulus (GPa) = 34.13696 115.06450 74.60073
#
# Velocity S-wave (km/s) = 4.13966 7.60016 6.11960
# Velocity P-wave (km/s) = 6.46513 10.32225 8.61240
#
# Compressibility (1/GPa) = 0.02649222
#
# Stress axis : x y z
#
# Youngs Moduli (GPa) = 130.76243 49.66678 75.07756
#
# Poissons Ratio (x) = 0.37223 0.07733
# Poissons Ratio (y) = 0.98000 -0.09160
# Poissons Ratio (z) = 0.13469 -0.06059
#
# Static dielectric constant tensor:
#      x y z
#    x 1.754260 0.000000 0.000000 
#    y 0.000000 1.658500 0.000000 
#    z 0.000000 0.000000 1.806850 
# 
# From -- ./inp_files/11828.got.cif
#   From: 2010.05.17/outbox.cif.g08.bks.cpg/sg47_6_cif.got.tgz:11828.got - 2010.06.03 20:15:42.
