data_PCOD9381133
_publ_section_title
;
Structure prediction by ZEFSAII (Michael W. Deem and Ramdas Pophale) SiO2 
 PCOD9381133
Probable space group: I M A 2
;
_chemical_formula_sum "Si O2"
_cell_formula_units_Z 28
_cell_length_a 15.000000
_cell_length_b 12.000000
_cell_length_c 15.000000
_cell_angle_alpha 90.000000
_cell_angle_beta 90.000000
_cell_angle_gamma 90.000000
_cell_volume 2700.000000
_symmetry_space_group_name_H-M "I M A 2"
_symmetry_group_IT_number 46
_symmetry_cell_setting 'orthorhombic'
loop_
_space_group_symop_operation_xyz
x,y,z
-x,-y,z
1/2-x,y,z
1/2+x,-y,z
1/2+x,1/2+y,1/2+z
1/2-x,1/2-y,1/2+z
-x,1/2+y,1/2+z
x,1/2-y,1/2+z
loop_
_atom_site_type_symbol
_atom_site_label
_atom_site_fract_x
_atom_site_fract_y
_atom_site_fract_z
Si Si1 0.650338 0.701825 0.238580
Si Si2 0.605204 0.477718 0.332137
Si Si3 0.642398 0.932721 0.026078
Si Si4 0.859028 0.299680 0.172347
Si Si5 0.539339 0.795884 0.555272
Si Si6 0.643522 0.455405 0.718919
Si Si7 0.859923 0.607886 0.883525
O O1 0.750000 0.735700 0.210144
O O2 0.651363 0.583699 0.286922
O O3 0.591155 0.692979 0.149951
O O4 0.622926 0.788392 0.315902
O O5 0.500000 0.500000 0.328857
O O6 0.630068 0.485476 0.438897
O O7 0.625625 0.377930 0.260677
O O8 0.750000 0.902854 0.025701
O O9 0.574112 0.826864 0.020200
O O10 0.619953 0.984596 0.124267
O O11 0.750000 0.308134 0.148487
O O12 0.878000 0.174002 0.205517
O O13 0.934515 0.314919 0.090615
O O14 0.581588 0.874871 0.475097
O O15 0.750000 0.465979 0.722909
O O16 0.614363 0.506802 0.814817
O O17 0.750000 0.604987 0.902260
#
# Coordination Sequence:
#
# PCOD9381133 Si02
#       7
#     8   8   8   8   8   8   8
#     4  11  21  39  69 105 145 179 228 307 373 420
#     4  12  25  44  71 108 144 192 249 293 361 434
#     4  11  22  40  73 113 146 184 243 311 361 421
#     4  11  26  49  70  99 152 207 242 287 357 442
#     4  12  23  39  73 112 142 185 241 305 367 433
#     4   9  21  42  70 105 148 194 233 282 361 441
#     4  10  20  39  72 114 148 177 230 305 375 425
#
# _framework density 10.370369999999999
#
# number of rings (size 3 to 8) (size 9 to 14) (size 15 to 20)
#    0.000    1.143    4.286    2.571    2.000    0.000 
#    0.000    1.429    6.286    3.429    0.000    2.000 
#    0.000    0.000    0.000    0.000    0.000    0.000 
#
# Total GULP energy -156054.610429 kJ/mol
# GULP energy per Si atom -5573.378944 kJ/mol
# Density = 1.034677 g / cm^3
# Si number density = 10.370370 Si / 1000 Ang^3
#
#
#
# Elastic Constant Matrix: (Units=GPa)
#
#
# Indices 1 2 3 4 5 6 
#
# 1 128.7133 10.7963 53.3791 0.0000 0.0000 0.0000
# 2 10.7963 70.0379 30.1092 0.0000 0.0000 0.0000
# 3 53.3791 30.1092 166.4192 0.0000 0.0000 0.0000
# 4 0.0000 0.0000 0.0000 42.7073 0.0000 0.0000
# 5 0.0000 0.0000 0.0000 0.0000 45.5659 0.0000
# 6 0.0000 0.0000 0.0000 0.0000 0.0000 20.1537
#
#
#
# Elastic Compliance Matrix: (Units=1/GPa)
#
#
# Indices 1 2 3 4 5 6 
#
# 1 0.008963 -0.000158 -0.002846 0.000000 0.000000 0.000000
# 2 -0.000158 0.015485 -0.002751 0.000000 0.000000 0.000000
# 3 -0.002846 -0.002751 0.007420 0.000000 0.000000 0.000000
# 4 0.000000 0.000000 0.000000 0.023415 0.000000 0.000000
# 5 0.000000 0.000000 0.000000 0.000000 0.021946 0.000000
# 6 0.000000 0.000000 0.000000 0.000000 0.000000 0.049619
#
#
# Mechanical properties :
#
#
# Convention : Reuss Voigt Hill
#
# Bulk Modulus (GPa) = 49.12316 61.52662 55.32489
# Shear Modulus (GPa) = 34.44870 39.74445 37.09658
#
# Velocity S-wave (km/s) = 4.07986 4.38225 4.23375
# Velocity P-wave (km/s) = 6.77713 7.43872 7.11562
#
# Compressibility (1/GPa) = 0.02035700
#
# Stress axis : x y z
#
# Youngs Moduli (GPa) = 111.57182 64.57884 134.77886
#
# Poissons Ratio (x) = 0.01020 0.38361
# Poissons Ratio (y) = 0.01763 0.37076
# Poissons Ratio (z) = 0.31756 0.17765
#
# Static dielectric constant tensor:
#      x y z
#    x 1.832280 0.000000 0.000000 
#    y 0.000000 1.816150 0.000000 
#    z 0.000000 0.000000 1.737510 
# 
# From -- ./inp_files/15955.got.cif
#   From: 2010.05.17/outbox.ucp.g08.bks.cvg/sg46_8_cif.got.tgz:15955.got - 2010.06.11 16:34:52.
