data_PCOD9381384
_publ_section_title
;
Structure prediction by ZEFSAII (Michael W. Deem and Ramdas Pophale) SiO2 
 PCOD9381384
Probable space group: P M M M
;
_chemical_formula_sum "Si O2"
_cell_formula_units_Z 44
_cell_length_a 16.315838
_cell_length_b 7.504582
_cell_length_c 15.585478
_cell_angle_alpha 90.000000
_cell_angle_beta 90.000000
_cell_angle_gamma 90.000000
_cell_volume 1908.341164
_symmetry_space_group_name_H-M "P M M M"
_symmetry_group_IT_number 47
_symmetry_cell_setting 'orthorhombic'
loop_
_space_group_symop_operation_xyz
x,y,z
-x,-y,z
x,-y,-z
-x,y,-z
-x,-y,-z
x,y,-z
-x,y,z
x,-y,z
loop_
_atom_site_type_symbol
_atom_site_label
_atom_site_fract_x
_atom_site_fract_y
_atom_site_fract_z
Si Si1 0.088684 0.786308 0.732872
Si Si2 0.228903 0.713637 0.406418
Si Si3 0.831697 0.215398 0.900411
Si Si4 0.405411 0.802520 0.000000
Si Si5 0.345244 0.215534 0.175751
Si Si6 0.591874 0.705149 0.360328
O O1 0.164663 0.751452 0.669140
O O2 0.101495 0.722204 0.831201
O O3 0.000000 0.722668 0.700035
O O4 0.085972 0.000000 0.738348
O O5 0.197828 0.771488 0.500000
O O6 0.236983 0.500000 0.406399
O O7 0.322345 0.784759 0.395323
O O8 0.749101 0.253771 0.846068
O O9 0.836854 0.000000 0.907046
O O10 0.831161 0.279905 0.000000
O O11 0.385266 0.715416 0.088900
O O12 0.500000 0.831075 0.000000
O O13 0.361887 0.000000 0.000000
O O14 0.388114 0.292641 0.258916
O O15 0.354918 0.000000 0.183150
O O16 0.500000 0.781198 0.376141
O O17 0.588046 0.500000 0.389992
#
# Coordination Sequence:
#
# PCOD9381384 Si02
#       6
#     8   8   8   4   8   8
#     4  10  21  37  59  87 116 145 179 225 280 329
#     4  10  22  40  61  83 108 143 185 227 275 332
#     4   9  16  29  52  81 112 145 182 223 267 318
#     4   9  16  24  39  69 102 132 175 224 263 306
#     4  10  17  29  50  74 101 140 185 224 263 313
#     4  10  21  36  54  78 108 140 177 224 276 326
#
# _framework density 23.056674999999998
#
# number of rings (size 3 to 8) (size 9 to 14) (size 15 to 20)
#    0.000    2.273    2.727    0.545    0.000    2.909 
#    0.000    5.909    0.000    3.273    0.000    3.818 
#    0.000    0.000    0.000    0.000    0.000    0.000 
#
# Total GULP energy -245111.031528 kJ/mol
# GULP energy per Si atom -5570.705262 kJ/mol
# Density = 2.300420 g / cm^3
# Si number density = 23.056675 Si / 1000 Ang^3
#
#
#
# Elastic Constant Matrix: (Units=GPa)
#
#
# Indices 1 2 3 4 5 6 
#
# 1 160.5565 10.9875 63.8813 0.0000 0.0000 0.0000
# 2 10.9875 63.4816 -0.3884 0.0000 0.0000 0.0000
# 3 63.8813 -0.3884 139.5064 0.0000 0.0000 0.0000
# 4 0.0000 0.0000 0.0000 8.9645 0.0000 0.0000
# 5 0.0000 0.0000 0.0000 0.0000 57.6716 0.0000
# 6 0.0000 0.0000 0.0000 0.0000 0.0000 11.2151
#
#
#
# Elastic Compliance Matrix: (Units=1/GPa)
#
#
# Indices 1 2 3 4 5 6 
#
# 1 0.007732 -0.001360 -0.003544 0.000000 0.000000 0.000000
# 2 -0.001360 0.015992 0.000667 0.000000 0.000000 0.000000
# 3 -0.003544 0.000667 0.008793 0.000000 0.000000 0.000000
# 4 0.000000 0.000000 0.000000 0.111551 0.000000 0.000000
# 5 0.000000 0.000000 0.000000 0.000000 0.017340 0.000000
# 6 0.000000 0.000000 0.000000 0.000000 0.000000 0.089165
#
#
# Mechanical properties :
#
#
# Convention : Reuss Voigt Hill
#
# Bulk Modulus (GPa) = 41.59230 56.94503 49.26866
# Shear Modulus (GPa) = 18.72239 34.84119 26.78179
#
# Velocity S-wave (km/s) = 2.85268 3.89152 3.41187
# Velocity P-wave (km/s) = 5.37854 6.70398 6.07750
#
# Compressibility (1/GPa) = 0.02404291
#
# Stress axis : x y z
#
# Youngs Moduli (GPa) = 129.34073 62.53105 113.72844
#
# Poissons Ratio (x) = 0.08503 0.40307
# Poissons Ratio (y) = 0.17589 -0.07588
# Poissons Ratio (z) = 0.45840 -0.04172
#
# Static dielectric constant tensor:
#      x y z
#    x 1.908360 0.000000 0.000000 
#    y 0.000000 2.004020 0.000000 
#    z 0.000000 0.000000 1.851420 
# 
# From -- ./inp_files/24297.got.cif
#   From: 2010.05.17/outbox.cif.g08.bks.cpg/sg47_13_cif.got.tgz:24297.got - 2010.06.03 20:15:42.
