data_PCOD9381130
_publ_section_title
;
Structure prediction by ZEFSAII (Michael W. Deem and Ramdas Pophale) SiO2 
 PCOD9381130
Probable space group: I M A 2
;
_chemical_formula_sum "Si O2"
_cell_formula_units_Z 24
_cell_length_a 24.000000
_cell_length_b 12.000000
_cell_length_c 9.000000
_cell_angle_alpha 90.000000
_cell_angle_beta 90.000000
_cell_angle_gamma 90.000000
_cell_volume 2592.000000
_symmetry_space_group_name_H-M "I M A 2"
_symmetry_group_IT_number 46
_symmetry_cell_setting 'orthorhombic'
loop_
_space_group_symop_operation_xyz
x,y,z
-x,-y,z
1/2-x,y,z
1/2+x,-y,z
1/2+x,1/2+y,1/2+z
1/2-x,1/2-y,1/2+z
-x,1/2+y,1/2+z
x,1/2-y,1/2+z
loop_
_atom_site_type_symbol
_atom_site_label
_atom_site_fract_x
_atom_site_fract_y
_atom_site_fract_z
Si Si1 0.250000 0.395344 0.210410
Si Si2 0.250000 0.159644 0.360037
Si Si3 0.842938 0.485455 0.807430
Si Si4 0.046748 0.907758 0.188690
Si Si5 0.847342 0.439910 0.157195
Si Si6 0.580306 0.183483 0.880752
Si Si7 0.309243 0.797785 0.085184
O O1 0.250000 0.287272 0.313124
O O2 0.193506 0.467997 0.227948
O O3 0.250000 0.356632 0.037710
O O4 0.303601 0.092622 0.298668
O O5 0.898614 0.484043 0.711300
O O6 0.813446 0.380649 0.726353
O O7 0.857057 0.469466 0.982615
O O8 0.057960 0.797387 0.297339
O O9 0.042302 0.861510 0.018173
O O10 0.000000 0.000000 0.224451
O O11 0.902228 0.405904 0.252464
O O12 0.812794 0.326027 0.147830
O O13 0.638578 0.197312 0.972545
O O14 0.250000 0.818725 0.009871
#
# Coordination Sequence:
#
# PCOD9381130 Si02
#       7
#     4   4   8   8   8   8   8
#     4  10  24  35  56  82 127 176 204 241 307 384
#     4  10  22  39  54  84 131 172 204 247 305 392
#     4  10  20  38  61  88 126 164 200 254 319 378
#     4  11  23  43  66  90 125 168 213 275 328 377
#     4  11  19  35  60  90 124 152 205 257 314 369
#     4  11  22  39  62  95 128 151 212 271 314 385
#     4  11  19  30  60 101 129 157 190 250 325 383
#
# _framework density 9.2592590000000001
#
# number of rings (size 3 to 8) (size 9 to 14) (size 15 to 20)
#    0.000    1.333    6.667    0.000    1.167    4.000 
#    0.000    8.333    0.000    0.000    0.000    0.000 
#    0.000    0.000    0.000    0.000    0.000    0.000 
#
# Total GULP energy -133617.264120 kJ/mol
# GULP energy per Si atom -5567.386005 kJ/mol
# Density = 0.923818 g / cm^3
# Si number density = 9.259259 Si / 1000 Ang^3
#
#
#
# Elastic Constant Matrix: (Units=GPa)
#
#
# Indices 1 2 3 4 5 6 
#
# 1 66.4249 33.6643 13.2761 0.0000 0.0000 0.0000
# 2 33.6643 107.9881 32.1920 0.0000 0.0000 0.0000
# 3 13.2761 32.1920 80.0748 0.0000 0.0000 0.0000
# 4 0.0000 0.0000 0.0000 35.7069 0.0000 0.0000
# 5 0.0000 0.0000 0.0000 0.0000 15.8019 0.0000
# 6 0.0000 0.0000 0.0000 0.0000 0.0000 30.3950
#
#
#
# Elastic Compliance Matrix: (Units=1/GPa)
#
#
# Indices 1 2 3 4 5 6 
#
# 1 0.017927 -0.005343 -0.000824 0.000000 0.000000 0.000000
# 2 -0.005343 0.012114 -0.003984 0.000000 0.000000 0.000000
# 3 -0.000824 -0.003984 0.014227 0.000000 0.000000 0.000000
# 4 0.000000 0.000000 0.000000 0.028006 0.000000 0.000000
# 5 0.000000 0.000000 0.000000 0.000000 0.063283 0.000000
# 6 0.000000 0.000000 0.000000 0.000000 0.000000 0.032900
#
#
# Mechanical properties :
#
#
# Convention : Reuss Voigt Hill
#
# Bulk Modulus (GPa) = 41.72782 45.86139 43.79460
# Shear Modulus (GPa) = 25.41328 28.07114 26.74221
#
# Velocity S-wave (km/s) = 3.70850 3.89760 3.80423
# Velocity P-wave (km/s) = 6.39681 6.71372 6.55718
#
# Compressibility (1/GPa) = 0.02396483
#
# Stress axis : x y z
#
# Youngs Moduli (GPa) = 55.78142 82.55202 70.29036
#
# Poissons Ratio (x) = 0.44107 0.05794
# Poissons Ratio (y) = 0.29803 0.28005
# Poissons Ratio (z) = 0.04598 0.32890
#
# Static dielectric constant tensor:
#      x y z
#    x 1.725930 0.000000 0.000000 
#    y 0.000000 1.646950 0.000000 
#    z 0.000000 0.000000 1.689680 
# 
# From -- ./inp_files/7858.got.cif
#   From: 2010.05.17/outbox.ucp.g08.bks.cvg/sg46_4_cif.got.tgz:7858.got - 2010.06.11 16:34:52.
