data_PCOD9381250
_publ_section_title
;
Structure prediction by ZEFSAII (Michael W. Deem and Ramdas Pophale) SiO2 
 PCOD9381250
Probable space group: P M M M
;
_chemical_formula_sum "Si O2"
_cell_formula_units_Z 52
_cell_length_a 15.157977
_cell_length_b 7.501139
_cell_length_c 24.189267
_cell_angle_alpha 90.000000
_cell_angle_beta 90.000000
_cell_angle_gamma 90.000000
_cell_volume 2750.370272
_symmetry_space_group_name_H-M "P M M M"
_symmetry_group_IT_number 47
_symmetry_cell_setting 'orthorhombic'
loop_
_space_group_symop_operation_xyz
x,y,z
-x,-y,z
x,-y,-z
-x,y,-z
-x,-y,-z
x,y,-z
-x,y,z
x,-y,z
loop_
_atom_site_type_symbol
_atom_site_label
_atom_site_fract_x
_atom_site_fract_y
_atom_site_fract_z
Si Si1 0.897149 0.281676 0.000000
Si Si2 0.788960 0.712239 0.892612
Si Si3 0.401368 0.214177 0.063467
Si Si4 0.787431 0.707275 0.437172
Si Si5 0.102723 0.282165 0.787498
Si Si6 0.897206 0.283177 0.335383
Si Si7 0.406299 0.214396 0.434807
O O1 0.843587 0.220949 0.054155
O O2 0.896764 0.500000 0.000000
O O3 0.000000 0.228069 0.000000
O O4 0.802036 0.500000 0.892120
O O5 0.684617 0.740652 0.900938
O O6 0.833267 0.780226 0.836255
O O7 0.500000 0.275169 0.081070
O O8 0.404643 0.000000 0.061698
O O9 0.387166 0.277175 0.000000
O O10 0.791701 0.783290 0.500000
O O11 0.812108 0.500000 0.442528
O O12 0.846786 0.787164 0.388966
O O13 0.686920 0.714901 0.415545
O O14 0.103046 0.500000 0.787278
O O15 0.131146 0.224337 0.725940
O O16 0.000000 0.230778 0.796737
O O17 0.888942 0.500000 0.335623
O O18 0.000000 0.241064 0.340309
O O19 0.408404 0.260209 0.500000
O O20 0.500000 0.275318 0.410464
O O21 0.403625 0.000000 0.430929
#
# Coordination Sequence:
#
# PCOD9381250 Si02
#       7
#     4   8   8   8   8   8   8
#     4   9  16  24  36  61  94 114 125 157 210 253
#     4  10  17  26  44  69  89 108 139 179 215 242
#     4   9  18  32  47  62  85 118 148 172 207 257
#     4   9  16  24  38  63  88 107 134 176 219 250
#     4   8  14  25  42  63  86 114 145 172 203 251
#     4   8  14  25  40  59  85 115 144 172 204 248
#     4   8  14  25  40  57  79 108 137 163 199 252
#
# _framework density 18.906545999999999
#
# number of rings (size 3 to 8) (size 9 to 14) (size 15 to 20)
#    0.000    3.308    0.769    2.308    0.000    2.769 
#    0.000    3.846    0.000    4.615    0.000   10.769 
#    0.000    0.000    0.000    0.000    0.000    0.000 
#
# Total GULP energy -289533.335457 kJ/mol
# GULP energy per Si atom -5567.948759 kJ/mol
# Density = 1.886351 g / cm^3
# Si number density = 18.906546 Si / 1000 Ang^3
#
#
#
# Elastic Constant Matrix: (Units=GPa)
#
#
# Indices 1 2 3 4 5 6 
#
# 1 131.8160 0.4209 105.5771 0.0000 0.0000 0.0000
# 2 0.4209 46.1278 8.1770 0.0000 0.0000 0.0000
# 3 105.5771 8.1770 148.3464 0.0000 0.0000 0.0000
# 4 0.0000 0.0000 0.0000 -3.7853 0.0000 0.0000
# 5 0.0000 0.0000 0.0000 0.0000 9.5278 0.0000
# 6 0.0000 0.0000 0.0000 0.0000 0.0000 24.6079
#
#
#
# Elastic Compliance Matrix: (Units=1/GPa)
#
#
# Indices 1 2 3 4 5 6 
#
# 1 0.017845 0.002109 -0.012816 0.000000 0.000000 0.000000
# 2 0.002109 0.022142 -0.002721 0.000000 0.000000 0.000000
# 3 -0.012816 -0.002721 0.016012 0.000000 0.000000 0.000000
# 4 0.000000 0.000000 0.000000 -0.264181 0.000000 0.000000
# 5 0.000000 0.000000 0.000000 0.000000 0.104956 0.000000
# 6 0.000000 0.000000 0.000000 0.000000 0.000000 0.040637
#
#
# Mechanical properties :
#
#
# Convention : Reuss Voigt Hill
#
# Bulk Modulus (GPa) = 34.31508 61.62668 47.97088
# Shear Modulus (GPa) = -192.17217 20.21111 -85.98053
#
# Velocity S-wave (km/s) = -10.09276 3.27310 -6.75095
# Velocity P-wave (km/s) = 10.84570 6.85204 5.94469
#
# Compressibility (1/GPa) = 0.02914171
#
# Stress axis : x y z
#
# Youngs Moduli (GPa) = 56.03957 45.16283 62.45279
#
# Poissons Ratio (x) = -0.09525 0.80040
# Poissons Ratio (y) = -0.11819 0.16996
# Poissons Ratio (z) = 0.71821 0.12291
#
# Static dielectric constant tensor:
#      x y z
#    x 1.658700 0.000000 0.000000 
#    y 0.000000 1.717100 0.000000 
#    z 0.000000 0.000000 1.657280 
# 
# From -- ./inp_files/30498.got.cif
#   From: 2010.05.17/outbox.cif.g08.bks.cpg/sg47_16_cif.got.tgz:30498.got - 2010.06.03 20:15:42.
