data_PCOD9381282
_publ_section_title
;
Structure prediction by ZEFSAII (Michael W. Deem and Ramdas Pophale) SiO2 
 PCOD9381282
Probable space group: P M M M
;
_chemical_formula_sum "Si O2"
_cell_formula_units_Z 52
_cell_length_a 19.683306
_cell_length_b 13.159024
_cell_length_c 14.261404
_cell_angle_alpha 90.000000
_cell_angle_beta 90.000000
_cell_angle_gamma 90.000000
_cell_volume 3693.890404
_symmetry_space_group_name_H-M "P M M M"
_symmetry_group_IT_number 47
_symmetry_cell_setting 'orthorhombic'
loop_
_space_group_symop_operation_xyz
x,y,z
-x,-y,z
x,-y,-z
-x,y,-z
-x,-y,-z
x,y,-z
-x,y,z
x,-y,z
loop_
_atom_site_type_symbol
_atom_site_label
_atom_site_fract_x
_atom_site_fract_y
_atom_site_fract_z
Si Si1 0.158493 0.298858 0.888180
Si Si2 0.076871 0.235702 0.391257
Si Si3 0.288606 0.622457 0.210934
Si Si4 0.423257 0.376732 0.107992
Si Si5 0.795282 0.380272 0.608026
Si Si6 0.079338 0.116772 0.793001
Si Si7 0.077591 0.500000 0.114360
O O1 0.234400 0.320366 0.853930
O O2 0.125447 0.197840 0.846388
O O3 0.115637 0.397806 0.855521
O O4 0.155659 0.294934 0.000000
O O5 0.082627 0.204064 0.500000
O O6 0.136729 0.315997 0.372391
O O7 0.083876 0.145229 0.316976
O O8 0.000000 0.278103 0.378763
O O9 0.282678 0.500000 0.195536
O O10 0.364171 0.653340 0.179808
O O11 0.263602 0.642754 0.316900
O O12 0.500000 0.342156 0.130404
O O13 0.424730 0.500000 0.108551
O O14 0.407337 0.347084 0.000000
O O15 0.775111 0.360668 0.500000
O O16 0.810972 0.500000 0.616422
O O17 0.000000 0.130500 0.820486
O O18 0.097998 0.000000 0.809826
O O19 0.000000 0.500000 0.145944
O O20 0.077993 0.500000 0.000000
#
# Coordination Sequence:
#
# PCOD9381282 Si02
#       7
#     8   8   8   8   8   8   4
#     4  11  20  30  44  64  86 112 149 185 222 264
#     4   9  17  30  47  64  82 107 144 190 233 267
#     4  10  17  27  44  65  89 117 145 177 221 263
#     4   8  14  24  39  61  89 119 148 177 209 250
#     4   9  17  28  42  63  90 117 144 175 219 273
#     4  10  21  35  47  60  82 114 152 189 225 267
#     4   9  18  30  42  58  82 110 142 183 222 258
#
# _framework density 14.077299
#
# number of rings (size 3 to 8) (size 9 to 14) (size 15 to 20)
#    0.000    2.538    2.308    1.385    0.000    2.462 
#    0.000    3.846    0.000    0.462    0.000    3.231 
#    0.000    0.615    0.000    3.231    0.000    5.077 
#
# Total GULP energy -289603.759696 kJ/mol
# GULP energy per Si atom -5569.303071 kJ/mol
# Density = 1.404526 g / cm^3
# Si number density = 14.077299 Si / 1000 Ang^3
#
#
#
# Elastic Constant Matrix: (Units=GPa)
#
#
# Indices 1 2 3 4 5 6 
#
# 1 103.5733 41.0470 47.3052 0.0000 0.0000 0.0000
# 2 41.0470 57.0599 34.3964 0.0000 0.0000 0.0000
# 3 47.3052 34.3964 71.2632 0.0000 0.0000 0.0000
# 4 0.0000 0.0000 0.0000 11.6098 0.0000 0.0000
# 5 0.0000 0.0000 0.0000 0.0000 23.4188 0.0000
# 6 0.0000 0.0000 0.0000 0.0000 0.0000 7.6249
#
#
#
# Elastic Compliance Matrix: (Units=1/GPa)
#
#
# Indices 1 2 3 4 5 6 
#
# 1 0.015632 -0.007038 -0.006980 0.000000 0.000000 0.000000
# 2 -0.007038 0.027885 -0.008788 0.000000 0.000000 0.000000
# 3 -0.006980 -0.008788 0.022907 0.000000 0.000000 0.000000
# 4 0.000000 0.000000 0.000000 0.086134 0.000000 0.000000
# 5 0.000000 0.000000 0.000000 0.000000 0.042701 0.000000
# 6 0.000000 0.000000 0.000000 0.000000 0.000000 0.131149
#
#
# Mechanical properties :
#
#
# Convention : Reuss Voigt Hill
#
# Bulk Modulus (GPa) = 48.04375 53.04373 50.54374
# Shear Modulus (GPa) = 13.19412 15.80723 14.50067
#
# Velocity S-wave (km/s) = 3.06479 3.35459 3.21296
# Velocity P-wave (km/s) = 6.83568 7.26405 7.05312
#
# Compressibility (1/GPa) = 0.02081436
#
# Stress axis : x y z
#
# Youngs Moduli (GPa) = 63.97143 35.86108 43.65417
#
# Poissons Ratio (x) = 0.25238 0.30470
# Poissons Ratio (y) = 0.45020 0.38362
# Poissons Ratio (z) = 0.44651 0.31514
#
# Static dielectric constant tensor:
#      x y z
#    x 1.458410 0.000000 0.000000 
#    y 0.000000 1.437290 0.000000 
#    z 0.000000 0.000000 1.492650 
# 
# From -- ./inp_files/17944.got.cif
#   From: 2010.05.17/outbox.cif.g08.bks.cpg/sg47_9_cif.got.tgz:17944.got - 2010.06.03 20:15:42.
