data_PCOD9381221
_publ_section_title
;
Structure prediction by ZEFSAII (Michael W. Deem and Ramdas Pophale) SiO2 
 PCOD9381221
Probable space group: P M M M
;
_chemical_formula_sum "Si O2"
_cell_formula_units_Z 64
_cell_length_a 14.533914
_cell_length_b 29.061206
_cell_length_c 7.473211
_cell_angle_alpha 90.000000
_cell_angle_beta 90.000000
_cell_angle_gamma 90.000000
_cell_volume 3156.483063
_symmetry_space_group_name_H-M "P M M M"
_symmetry_group_IT_number 47
_symmetry_cell_setting 'orthorhombic'
loop_
_space_group_symop_operation_xyz
x,y,z
-x,-y,z
x,-y,-z
-x,y,-z
-x,-y,-z
x,y,-z
-x,y,z
x,-y,z
loop_
_atom_site_type_symbol
_atom_site_label
_atom_site_fract_x
_atom_site_fract_y
_atom_site_fract_z
Si Si1 0.102277 0.552300 0.713467
Si Si2 0.607815 0.299956 0.218396
Si Si3 0.896979 0.946132 0.217995
Si Si4 0.607705 0.802777 0.781965
Si Si5 0.104369 0.698095 0.715129
Si Si6 0.896192 0.804765 0.715244
Si Si7 0.252357 0.876321 0.200233
Si Si8 0.253363 0.373151 0.804866
O O1 0.094793 0.550348 0.500000
O O2 0.115007 0.500000 0.779965
O O3 0.191279 0.583952 0.744119
O O4 0.000000 0.568675 0.777739
O O5 0.500000 0.303177 0.262677
O O6 0.640714 0.248536 0.276214
O O7 0.664067 0.344324 0.286857
O O8 0.615072 0.300002 0.000000
O O9 0.808649 0.917383 0.283561
O O10 0.000000 0.930620 0.276825
O O11 0.888924 0.000000 0.262290
O O12 0.896572 0.942329 0.000000
O O13 0.500000 0.805892 0.737154
O O14 0.663495 0.847459 0.715977
O O15 0.615054 0.803277 0.000000
O O16 0.114140 0.692155 0.500000
O O17 0.117775 0.751411 0.757285
O O18 0.176953 0.666668 0.809706
O O19 0.000000 0.685651 0.760790
O O20 0.887470 0.809802 0.500000
O O21 0.823852 0.836482 0.809191
O O22 0.000000 0.817132 0.765177
O O23 0.280915 0.891323 0.000000
O O24 0.288726 0.386397 0.000000
#
# Coordination Sequence:
#
# PCOD9381221 Si02
#       8
#     8   8   8   8   8   8   8   8
#     4   9  19  36  54  69  90 125 160 181 210 269
#     4   8  15  28  43  61  90 123 147 171 215 275
#     4   8  14  24  37  56  84 114 142 176 222 274
#     4   8  14  25  41  62  88 115 143 179 223 266
#     4   9  18  31  43  57  86 127 155 167 200 269
#     4   9  18  30  41  57  86 120 146 171 212 264
#     4  10  17  25  43  66  82 104 146 191 222 256
#     4  11  20  28  46  74  94 111 146 195 232 251
#
# _framework density 20.275732000000001
#
# number of rings (size 3 to 8) (size 9 to 14) (size 15 to 20)
#    0.000    3.000    0.000    4.125    0.000    4.500 
#    0.000    1.875    0.000    3.000    0.000   12.250 
#    0.000    0.000    0.000    1.125    0.000    1.500 
#
# Total GULP energy -356498.427123 kJ/mol
# GULP energy per Si atom -5570.287924 kJ/mol
# Density = 2.022958 g / cm^3
# Si number density = 20.275732 Si / 1000 Ang^3
#
#
#
# Elastic Constant Matrix: (Units=GPa)
#
#
# Indices 1 2 3 4 5 6 
#
# 1 92.0789 69.1323 1.7696 0.0000 0.0000 0.0000
# 2 69.1323 104.1561 7.2546 0.0000 0.0000 0.0000
# 3 1.7696 7.2546 47.2734 0.0000 0.0000 0.0000
# 4 0.0000 0.0000 0.0000 -5.3159 0.0000 0.0000
# 5 0.0000 0.0000 0.0000 0.0000 11.5096 0.0000
# 6 0.0000 0.0000 0.0000 0.0000 0.0000 39.3706
#
#
#
# Elastic Compliance Matrix: (Units=1/GPa)
#
#
# Indices 1 2 3 4 5 6 
#
# 1 0.021742 -0.014529 0.001416 0.000000 0.000000 0.000000
# 2 -0.014529 0.019414 -0.002435 0.000000 0.000000 0.000000
# 3 0.001416 -0.002435 0.021474 0.000000 0.000000 0.000000
# 4 0.000000 0.000000 0.000000 -0.188116 0.000000 0.000000
# 5 0.000000 0.000000 0.000000 0.000000 0.086884 0.000000
# 6 0.000000 0.000000 0.000000 0.000000 0.000000 0.025400
#
#
# Mechanical properties :
#
#
# Convention : Reuss Voigt Hill
#
# Bulk Modulus (GPa) = 31.71357 44.42461 38.06909
# Shear Modulus (GPa) = 176.01765 20.13632 98.07699
#
# Velocity S-wave (km/s) = 9.32740 3.15481 6.96252
# Velocity P-wave (km/s) = 11.47500 5.93534 9.13520
#
# Compressibility (1/GPa) = 0.03153224
#
# Stress axis : x y z
#
# Youngs Moduli (GPa) = 45.99490 51.50856 46.56729
#
# Poissons Ratio (x) = 0.74838 -0.06593
# Poissons Ratio (y) = 0.66827 0.11341
# Poissons Ratio (z) = -0.06512 0.12545
#
# Static dielectric constant tensor:
#      x y z
#    x 1.742680 0.000000 0.000000 
#    y 0.000000 1.739770 0.000000 
#    z 0.000000 0.000000 2.431650 
# 
# From -- ./inp_files/8238.got.cif
#   From: 2010.05.17/outbox.cif.g08.bks.cpg/sg47_5_cif.got.tgz:8238.got - 2010.06.03 20:15:42.
