data_PCOD9381665
_publ_section_title
;
Structure prediction by ZEFSAII (Michael W. Deem and Ramdas Pophale) SiO2 
 PCOD9381665
Probable space group: P M M M
;
_chemical_formula_sum "Si O2"
_cell_formula_units_Z 52
_cell_length_a 16.312575
_cell_length_b 19.847114
_cell_length_c 7.273810
_cell_angle_alpha 90.000000
_cell_angle_beta 90.000000
_cell_angle_gamma 90.000000
_cell_volume 2354.950800
_symmetry_space_group_name_H-M "P M M M"
_symmetry_group_IT_number 47
_symmetry_cell_setting 'orthorhombic'
loop_
_space_group_symop_operation_xyz
x,y,z
-x,-y,z
x,-y,-z
-x,y,-z
-x,-y,-z
x,y,-z
-x,y,z
x,-y,z
loop_
_atom_site_type_symbol
_atom_site_label
_atom_site_fract_x
_atom_site_fract_y
_atom_site_fract_z
Si Si1 0.411125 0.339560 0.776794
Si Si2 0.906463 0.661647 0.224158
Si Si3 0.629870 0.188503 0.223977
Si Si4 0.500000 0.078049 0.224193
Si Si5 0.748755 0.422688 0.223742
Si Si6 0.904648 0.073246 0.721643
Si Si7 0.812065 0.792427 0.791935
O O1 0.500000 0.367659 0.719574
O O2 0.407439 0.260859 0.725490
O O3 0.329450 0.378448 0.715481
O O4 0.409303 0.341714 0.000000
O O5 0.836097 0.608853 0.279450
O O6 0.870592 0.734295 0.284678
O O7 0.000000 0.650455 0.286232
O O8 0.910144 0.660859 0.000000
O O9 0.578082 0.123438 0.282466
O O10 0.723318 0.193044 0.290249
O O11 0.629225 0.185250 0.000000
O O12 0.500000 0.000000 0.284178
O O13 0.500000 0.076442 0.000000
O O14 0.740707 0.500000 0.280779
O O15 0.748135 0.421281 0.000000
O O16 0.900840 0.076039 0.500000
O O17 0.858552 0.137333 0.795341
O O18 0.000000 0.076448 0.773237
O O19 0.871883 0.000000 0.778900
O O20 0.794340 0.768612 0.000000
#
# Coordination Sequence:
#
# PCOD9381665 Si02
#       7
#     8   8   8   4   8   8   8
#     4   9  14  22  36  50  72 110 150 182 221 271
#     4   9  16  25  37  55  81 112 143 179 225 272
#     4   9  15  24  38  56  82 115 142 176 229 275
#     4   9  16  24  34  52  80 112 144 176 216 275
#     4   9  16  24  33  49  76 111 151 188 219 264
#     4   9  19  35  50  64  88 121 151 182 226 277
#     4  10  18  28  46  70  92 114 150 195 233 267
#
# _framework density 22.081142
#
# number of rings (size 3 to 8) (size 9 to 14) (size 15 to 20)
#    0.000    2.846    2.308    0.923    0.000    2.462 
#    0.000    5.385    0.000    0.000    0.000    0.538 
#    0.000    2.462    0.000    3.231    0.000    4.923 
#
# Total GULP energy -290205.942668 kJ/mol
# GULP energy per Si atom -5580.883513 kJ/mol
# Density = 2.203088 g / cm^3
# Si number density = 22.081142 Si / 1000 Ang^3
#
#
#
# Elastic Constant Matrix: (Units=GPa)
#
#
# Indices 1 2 3 4 5 6 
#
# 1 207.8776 108.4537 6.4167 0.0000 0.0000 0.0000
# 2 108.4537 176.4106 0.8530 0.0000 0.0000 0.0000
# 3 6.4167 0.8530 92.7563 0.0000 0.0000 0.0000
# 4 0.0000 0.0000 0.0000 104.1436 0.0000 0.0000
# 5 0.0000 0.0000 0.0000 0.0000 -5.2550 0.0000
# 6 0.0000 0.0000 0.0000 0.0000 0.0000 213.5881
#
#
#
# Elastic Compliance Matrix: (Units=1/GPa)
#
#
# Indices 1 2 3 4 5 6 
#
# 1 0.007101 -0.004363 -0.000451 0.000000 0.000000 0.000000
# 2 -0.004363 0.008350 0.000225 0.000000 0.000000 0.000000
# 3 -0.000451 0.000225 0.010810 0.000000 0.000000 0.000000
# 4 0.000000 0.000000 0.000000 0.009602 0.000000 0.000000
# 5 0.000000 0.000000 0.000000 0.000000 -0.190294 0.000000
# 6 0.000000 0.000000 0.000000 0.000000 0.000000 0.004682
#
#
# Mechanical properties :
#
#
# Convention : Reuss Voigt Hill
#
# Bulk Modulus (GPa) = 58.54032 78.72125 68.63078
# Shear Modulus (GPa) = -37.07103 86.58343 24.75620
#
# Velocity S-wave (km/s) = -4.10183 6.26870 3.35199
# Velocity P-wave (km/s) = 2.03364 9.38743 6.79189
#
# Compressibility (1/GPa) = 0.01708224
#
# Stress axis : x y z
#
# Youngs Moduli (GPa) = 140.82816 119.76107 92.50634
#
# Poissons Ratio (x) = 0.52255 0.04173
# Poissons Ratio (y) = 0.61447 -0.02082
# Poissons Ratio (z) = 0.06353 -0.02695
#
# Static dielectric constant tensor:
#      x y z
#    x 1.794290 0.000000 0.000000 
#    y 0.000000 1.753750 0.000000 
#    z 0.000000 0.000000 1.869160 
# 
# From -- ./inp_files/10999.got.cif
#   From: 2010.05.17/outbox.cif.g08.bks.cpg/sg47_6_cif.got.tgz:10999.got - 2010.06.03 20:15:42.
