data_PCOD9381042
_publ_section_title
;
Structure prediction by ZEFSAII (Michael W. Deem and Ramdas Pophale) SiO2 
 PCOD9381042
Probable space group: I M A 2
;
_chemical_formula_sum "Si O2"
_cell_formula_units_Z 40
_cell_length_a 17.469639
_cell_length_b 8.406012
_cell_length_c 11.447703
_cell_angle_alpha 90.000000
_cell_angle_beta 90.000000
_cell_angle_gamma 90.000000
_cell_volume 1681.095129
_symmetry_space_group_name_H-M "I M A 2"
_symmetry_group_IT_number 46
_symmetry_cell_setting 'orthorhombic'
loop_
_space_group_symop_operation_xyz
x,y,z
-x,-y,z
1/2-x,y,z
1/2+x,-y,z
1/2+x,1/2+y,1/2+z
1/2-x,1/2-y,1/2+z
-x,1/2+y,1/2+z
x,1/2-y,1/2+z
loop_
_atom_site_type_symbol
_atom_site_label
_atom_site_fract_x
_atom_site_fract_y
_atom_site_fract_z
Si Si1 0.112169 0.177324 0.353180
Si Si2 0.438329 0.884588 0.678000
Si Si3 0.340972 0.807652 0.357601
Si Si4 0.839270 0.668054 0.104884
Si Si5 0.023647 0.681539 0.478543
O O1 0.140513 0.247595 0.229233
O O2 0.148050 0.246787 0.475838
O O3 0.023350 0.219282 0.380282
O O4 0.133052 0.991284 0.350227
O O5 0.376013 0.786861 0.748215
O O6 0.489129 0.766662 0.601331
O O7 0.500000 0.000000 0.742277
O O8 0.389706 0.008512 0.601842
O O9 0.250000 0.799565 0.366651
O O10 0.386595 0.711652 0.457623
O O11 0.750000 0.628546 0.111101
O O12 0.000000 0.500000 0.485822
#
# Coordination Sequence:
#
# PCOD9381042 Si02
#       5
#     8   8   8   8   8
#     4  12  27  50  80 119 157 208 263 319 394 478
#     4  12  25  47  75 110 154 210 262 323 393 469
#     4  12  26  47  77 113 160 205 258 329 402 469
#     4  12  25  48  78 115 162 205 257 325 395 464
#     4  12  27  48  80 111 152 212 268 327 386 477
#
# _framework density 23.794014000000001
#
# number of rings (size 3 to 8) (size 9 to 14) (size 15 to 20)
#    0.000    0.000    4.000    6.000    2.800    0.800 
#    0.000    2.000    0.000    0.000    0.000    0.000 
#    0.000    0.000    0.000    0.000    0.000    0.000 
#
# Total GULP energy -111713.044549 kJ/mol
# GULP energy per Si atom -5585.652227 kJ/mol
# Density = 2.373986 g / cm^3
# Si number density = 23.794014 Si / 1000 Ang^3
#
#
#
# Elastic Constant Matrix: (Units=GPa)
#
#
# Indices 1 2 3 4 5 6 
#
# 1 177.5476 79.4144 24.9044 0.0000 0.0000 0.0000
# 2 79.4144 157.4639 60.1936 0.0000 0.0000 0.0000
# 3 24.9044 60.1936 148.1739 0.0000 0.0000 0.0000
# 4 0.0000 0.0000 0.0000 40.1449 0.0000 0.0000
# 5 0.0000 0.0000 0.0000 0.0000 28.7222 0.0000
# 6 0.0000 0.0000 0.0000 0.0000 0.0000 14.0926
#
#
#
# Elastic Compliance Matrix: (Units=1/GPa)
#
#
# Indices 1 2 3 4 5 6 
#
# 1 0.007286 -0.003796 0.000317 0.000000 0.000000 0.000000
# 2 -0.003796 0.009496 -0.003220 0.000000 0.000000 0.000000
# 3 0.000317 -0.003220 0.008003 0.000000 0.000000 0.000000
# 4 0.000000 0.000000 0.000000 0.024910 0.000000 0.000000
# 5 0.000000 0.000000 0.000000 0.000000 0.034816 0.000000
# 6 0.000000 0.000000 0.000000 0.000000 0.000000 0.070959
#
#
# Mechanical properties :
#
#
# Convention : Reuss Voigt Hill
#
# Bulk Modulus (GPa) = 87.80400 90.24556 89.02478
# Shear Modulus (GPa) = 28.95835 37.83681 33.39758
#
# Velocity S-wave (km/s) = 3.49240 3.99203 3.75055
# Velocity P-wave (km/s) = 7.29687 7.69796 7.50010
#
# Compressibility (1/GPa) = 0.01138900
#
# Stress axis : x y z
#
# Youngs Moduli (GPa) = 137.25863 105.31116 124.94745
#
# Poissons Ratio (x) = 0.39973 -0.03966
# Poissons Ratio (y) = 0.52099 0.40227
# Poissons Ratio (z) = -0.04357 0.33905
#
# Static dielectric constant tensor:
#      x y z
#    x 1.935380 0.000000 0.000000 
#    y 0.000000 1.882870 0.000000 
#    z 0.000000 0.000000 2.075390 
# 
# From -- ./inp_files/11598.got.cif
#   From: 2010.05.17/outbox.cif.g08.bks.cpg/sg46_6_cif.got.tgz:11598.got - 2010.06.03 19:58:25.
