data_PCOD9381711
_publ_section_title
;
Structure prediction by ZEFSAII (Michael W. Deem and Ramdas Pophale) SiO2 
 PCOD9381711
Probable space group: P M M M
;
_chemical_formula_sum "Si O2"
_cell_formula_units_Z 48
_cell_length_a 9.155844
_cell_length_b 20.265518
_cell_length_c 21.167679
_cell_angle_alpha 90.000000
_cell_angle_beta 90.000000
_cell_angle_gamma 90.000000
_cell_volume 3927.618839
_symmetry_space_group_name_H-M "P M M M"
_symmetry_group_IT_number 47
_symmetry_cell_setting 'orthorhombic'
loop_
_space_group_symop_operation_xyz
x,y,z
-x,-y,z
x,-y,-z
-x,y,-z
-x,-y,-z
x,y,-z
-x,y,z
x,-y,z
loop_
_atom_site_type_symbol
_atom_site_label
_atom_site_fract_x
_atom_site_fract_y
_atom_site_fract_z
Si Si1 0.323160 0.846691 0.126699
Si Si2 0.675241 0.705925 0.074070
Si Si3 0.830991 0.080487 0.500000
Si Si4 0.171608 0.572476 0.923477
Si Si5 0.677379 0.075314 0.000000
Si Si6 0.174479 0.078349 0.757990
Si Si7 0.331924 0.080139 0.372558
O O1 0.500000 0.850993 0.133109
O O2 0.283831 0.770467 0.113852
O O3 0.246739 0.879493 0.186470
O O4 0.279979 0.886690 0.063473
O O5 0.500000 0.700610 0.075056
O O6 0.744086 0.637599 0.097611
O O7 0.717157 0.716186 0.000000
O O8 0.748318 0.102110 0.563489
O O9 0.000000 0.100790 0.500000
O O10 0.829578 0.000000 0.500000
O O11 0.224132 0.500000 0.901572
O O12 0.000000 0.577905 0.908477
O O13 0.183610 0.571974 0.000000
O O14 0.500000 0.074532 0.000000
O O15 0.729209 0.000000 0.000000
O O16 0.244428 0.097657 0.690705
O O17 0.000000 0.086428 0.756506
O O18 0.205196 0.000000 0.768162
O O19 0.500000 0.102303 0.370135
O O20 0.333646 0.000000 0.374579
#
# Coordination Sequence:
#
# PCOD9381711 Si02
#       7
#     8   8   4   8   4   8   8
#     4  10  18  29  42  55  69  89 119 153 189 231
#     4   9  16  26  39  55  73  89 111 146 183 219
#     4   9  15  23  37  57  79  97 111 135 174 215
#     4   8  14  24  37  53  72  92 112 133 163 210
#     4   9  16  26  41  55  64  81 114 154 193 231
#     4  10  20  31  40  52  71  93 119 154 194 230
#     4   9  16  26  40  56  72  92 118 145 175 216
#
# _framework density 12.221145
#
# number of rings (size 3 to 8) (size 9 to 14) (size 15 to 20)
#    0.000    2.833    0.833    2.250    0.000    5.667 
#    0.000    2.083    0.000    1.500    0.000    0.000 
#    0.000    0.000    0.000    0.000    0.000    0.000 
#
# Total GULP energy -267262.156913 kJ/mol
# GULP energy per Si atom -5567.961602 kJ/mol
# Density = 1.219333 g / cm^3
# Si number density = 12.221145 Si / 1000 Ang^3
#
#
#
# Elastic Constant Matrix: (Units=GPa)
#
#
# Indices 1 2 3 4 5 6 
#
# 1 52.2032 39.5457 44.3474 0.0000 0.0000 0.0000
# 2 39.5457 88.8930 46.3624 0.0000 0.0000 0.0000
# 3 44.3474 46.3624 96.3528 0.0000 0.0000 0.0000
# 4 0.0000 0.0000 0.0000 1.5570 0.0000 0.0000
# 5 0.0000 0.0000 0.0000 0.0000 15.2613 0.0000
# 6 0.0000 0.0000 0.0000 0.0000 0.0000 16.6093
#
#
#
# Elastic Compliance Matrix: (Units=1/GPa)
#
#
# Indices 1 2 3 4 5 6 
#
# 1 0.037295 -0.010198 -0.012258 0.000000 0.000000 0.000000
# 2 -0.010198 0.017807 -0.003875 0.000000 0.000000 0.000000
# 3 -0.012258 -0.003875 0.017885 0.000000 0.000000 0.000000
# 4 0.000000 0.000000 0.000000 0.642276 0.000000 0.000000
# 5 0.000000 0.000000 0.000000 0.000000 0.065525 0.000000
# 6 0.000000 0.000000 0.000000 0.000000 0.000000 0.060207
#
#
# Mechanical properties :
#
#
# Convention : Reuss Voigt Hill
#
# Bulk Modulus (GPa) = 49.20038 55.32889 52.26463
# Shear Modulus (GPa) = 5.55289 13.83176 9.69233
#
# Velocity S-wave (km/s) = 2.13390 3.36786 2.81922
# Velocity P-wave (km/s) = 6.81302 7.77783 7.31136
#
# Compressibility (1/GPa) = 0.02032505
#
# Stress axis : x y z
#
# Youngs Moduli (GPa) = 26.81341 56.15775 55.91313
#
# Poissons Ratio (x) = 0.57269 0.68540
# Poissons Ratio (y) = 0.27344 0.21664
# Poissons Ratio (z) = 0.32869 0.21759
#
# Static dielectric constant tensor:
#      x y z
#    x 1.408770 0.000000 0.000000 
#    y 0.000000 1.390660 0.000000 
#    z 0.000000 0.000000 1.377970 
# 
# From -- ./inp_files/11412.got.cif
#   From: 2010.05.17/outbox.cif.g08.bks.cpg/sg47_6_cif.got.tgz:11412.got - 2010.06.03 20:15:42.
