data_PCOD9381233
_publ_section_title
;
Structure prediction by ZEFSAII (Michael W. Deem and Ramdas Pophale) SiO2 
 PCOD9381233
Probable space group: P M M M
;
_chemical_formula_sum "Si O2"
_cell_formula_units_Z 64
_cell_length_a 7.714798
_cell_length_b 14.911117
_cell_length_c 32.488153
_cell_angle_alpha 90.000000
_cell_angle_beta 90.000000
_cell_angle_gamma 90.000000
_cell_volume 3737.315473
_symmetry_space_group_name_H-M "P M M M"
_symmetry_group_IT_number 47
_symmetry_cell_setting 'orthorhombic'
loop_
_space_group_symop_operation_xyz
x,y,z
-x,-y,z
x,-y,-z
-x,y,-z
-x,-y,-z
x,y,-z
-x,y,z
x,-y,z
loop_
_atom_site_type_symbol
_atom_site_label
_atom_site_fract_x
_atom_site_fract_y
_atom_site_fract_z
Si Si1 0.792485 0.285754 0.787130
Si Si2 0.211866 0.100388 0.247448
Si Si3 0.792066 0.392173 0.955762
Si Si4 0.792257 0.398811 0.454051
Si Si5 0.296102 0.711525 0.625879
Si Si6 0.290202 0.603138 0.294901
Si Si7 0.791911 0.098837 0.657645
Si Si8 0.787420 0.395565 0.134281
O O1 0.726675 0.185040 0.778801
O O2 0.759184 0.344934 0.746570
O O3 0.725964 0.335699 0.827753
O O4 0.000000 0.279261 0.791863
O O5 0.266556 0.113670 0.295082
O O6 0.000000 0.101323 0.247232
O O7 0.265233 0.000000 0.234637
O O8 0.767642 0.500000 0.955496
O O9 0.728628 0.362068 0.910908
O O10 0.000000 0.377237 0.956239
O O11 0.723156 0.358695 0.000000
O O12 0.729194 0.373966 0.500000
O O13 0.728202 0.500000 0.444607
O O14 0.752684 0.331535 0.417442
O O15 0.000000 0.403669 0.456304
O O16 0.500000 0.702095 0.629469
O O17 0.221848 0.656517 0.665016
O O18 0.254992 0.816122 0.630556
O O19 0.500000 0.601408 0.296365
O O20 0.229791 0.500000 0.294648
O O21 0.000000 0.095450 0.658976
O O22 0.729642 0.000000 0.644359
O O23 0.737049 0.500000 0.139695
O O24 0.000000 0.395052 0.134009
#
# Coordination Sequence:
#
# PCOD9381233 Si02
#       8
#     8   8   8   8   8   8   8   8
#     4  10  17  26  42  60  79 105 140 179 213 246
#     4   8  14  25  41  60  81 105 136 176 216 251
#     4   7   9  14  24  38  62  97 128 156 201 256
#     4   9  19  36  56  76  97 122 153 187 220 257
#     4  11  21  32  49  72  97 122 149 182 219 260
#     4  10  21  33  41  56  88 123 147 168 199 245
#     4   9  17  31  50  69  90 117 150 186 221 258
#     4   8  13  19  28  48  75  99 129 170 210 247
#
# _framework density 17.124590999999999
#
# number of rings (size 3 to 8) (size 9 to 14) (size 15 to 20)
#    0.000    3.000    1.250    3.375    0.000    2.500 
#    0.000    0.625    0.000    0.750    0.000    2.625 
#    0.000    1.000    0.000   11.625    0.000    4.000 
#
# Total GULP energy -356516.941257 kJ/mol
# GULP energy per Si atom -5570.577207 kJ/mol
# Density = 1.708561 g / cm^3
# Si number density = 17.124591 Si / 1000 Ang^3
#
#
#
# Elastic Constant Matrix: (Units=GPa)
#
#
# Indices 1 2 3 4 5 6 
#
# 1 24.7207 5.2600 6.7283 0.0000 0.0000 0.0000
# 2 5.2600 135.9753 101.6605 0.0000 0.0000 0.0000
# 3 6.7283 101.6605 163.0244 0.0000 0.0000 0.0000
# 4 0.0000 0.0000 0.0000 8.4328 0.0000 0.0000
# 5 0.0000 0.0000 0.0000 0.0000 -34.3605 0.0000
# 6 0.0000 0.0000 0.0000 0.0000 0.0000 -3.4464
#
#
#
# Elastic Compliance Matrix: (Units=1/GPa)
#
#
# Indices 1 2 3 4 5 6 
#
# 1 0.040938 -0.000600 -0.001315 0.000000 0.000000 0.000000
# 2 -0.000600 0.013787 -0.008572 0.000000 0.000000 0.000000
# 3 -0.001315 -0.008572 0.011534 0.000000 0.000000 0.000000
# 4 0.000000 0.000000 0.000000 0.118584 0.000000 0.000000
# 5 0.000000 0.000000 0.000000 0.000000 -0.029103 0.000000
# 6 0.000000 0.000000 0.000000 0.000000 0.000000 -0.290156
#
#
# Mechanical properties :
#
#
# Convention : Reuss Voigt Hill
#
# Bulk Modulus (GPa) = 22.08367 61.22424 41.65395
# Shear Modulus (GPa) = -50.84078 8.12994 -21.35542
#
# Velocity S-wave (km/s) = -5.45465 2.18124 -3.53521
# Velocity P-wave (km/s) = 5.17176 6.49412 2.77728
#
# Compressibility (1/GPa) = 0.04528232
#
# Stress axis : x y z
#
# Youngs Moduli (GPa) = 24.42741 72.53445 86.70020
#
# Poissons Ratio (x) = 0.04354 0.11403
# Poissons Ratio (y) = 0.01466 0.74323
# Poissons Ratio (z) = 0.03213 0.62179
#
# Static dielectric constant tensor:
#      x y z
#    x 1.626060 0.000000 0.000000 
#    y 0.000000 1.070430 0.000000 
#    z 0.000000 0.000000 1.611980 
# 
# From -- ./inp_files/34474.got.cif
#   From: 2010.05.17/outbox.cif.g08.bks.cpg/sg47_18_cif.got.tgz:34474.got - 2010.06.03 20:15:42.
