data_PCOD9381340
_publ_section_title
;
Structure prediction by ZEFSAII (Michael W. Deem and Ramdas Pophale) SiO2 
 PCOD9381340
Probable space group: P M M M
;
_chemical_formula_sum "Si O2"
_cell_formula_units_Z 64
_cell_length_a 20.314760
_cell_length_b 7.362718
_cell_length_c 21.591992
_cell_angle_alpha 90.000000
_cell_angle_beta 90.000000
_cell_angle_gamma 90.000000
_cell_volume 3229.554170
_symmetry_space_group_name_H-M "P M M M"
_symmetry_group_IT_number 47
_symmetry_cell_setting 'orthorhombic'
loop_
_space_group_symop_operation_xyz
x,y,z
-x,-y,z
x,-y,-z
-x,y,-z
-x,-y,-z
x,y,-z
-x,y,z
x,-y,z
loop_
_atom_site_type_symbol
_atom_site_label
_atom_site_fract_x
_atom_site_fract_y
_atom_site_fract_z
Si Si1 0.427426 0.779293 0.240232
Si Si2 0.289923 0.222200 0.810636
Si Si3 0.927320 0.210898 0.887327
Si Si4 0.211530 0.213581 0.689609
Si Si5 0.212175 0.222130 0.068414
Si Si6 0.073140 0.283194 0.742843
Si Si7 0.572843 0.779260 0.384786
Si Si8 0.713741 0.222063 0.568140
O O1 0.500000 0.719870 0.219657
O O2 0.364904 0.720259 0.200879
O O3 0.419252 0.728159 0.312457
O O4 0.427268 0.000000 0.239664
O O5 0.247180 0.284625 0.751496
O O6 0.257475 0.281546 0.874711
O O7 0.288626 0.000000 0.810914
O O8 0.862638 0.286176 0.919694
O O9 0.915590 0.216406 0.813142
O O10 0.000000 0.290611 0.898928
O O11 0.930827 0.000000 0.905739
O O12 0.133630 0.232506 0.699225
O O13 0.241909 0.285167 0.625771
O O14 0.226870 0.000000 0.689095
O O15 0.210928 0.000000 0.070384
O O16 0.234448 0.275357 0.000000
O O17 0.072062 0.500000 0.746408
O O18 0.000000 0.220780 0.723600
O O19 0.500000 0.719657 0.405879
O O20 0.637941 0.721527 0.420662
O O21 0.572250 0.000000 0.386926
O O22 0.736041 0.279579 0.500000
O O23 0.714372 0.000000 0.568534
#
# Coordination Sequence:
#
# PCOD9381340 Si02
#       8
#     8   8   8   8   8   8   8   8
#     4   8  12  18  30  49  76 111 147 179 212 253
#     4   9  14  22  37  57  80 109 146 184 216 249
#     4   9  16  27  44  65  88 114 143 172 209 261
#     4  10  17  28  47  67  87 115 148 179 214 259
#     4   9  16  24  36  58  86 114 145 182 218 249
#     4  10  20  32  47  68  91 112 139 179 222 259
#     4   8  12  18  29  49  82 121 151 172 205 257
#     4   9  16  24  36  59  90 119 146 180 220 258
#
# _framework density 19.816977000000001
#
# number of rings (size 3 to 8) (size 9 to 14) (size 15 to 20)
#    0.000    3.000    2.500    1.125    0.000    1.250 
#    0.000    2.500    0.000    1.500    0.000    7.000 
#    0.000    2.000    0.000    1.125    0.000    2.500 
#
# Total GULP energy -357007.355748 kJ/mol
# GULP energy per Si atom -5578.239934 kJ/mol
# Density = 1.977187 g / cm^3
# Si number density = 19.816977 Si / 1000 Ang^3
#
#
#
# Elastic Constant Matrix: (Units=GPa)
#
#
# Indices 1 2 3 4 5 6 
#
# 1 136.2532 -3.8218 90.6465 0.0000 0.0000 0.0000
# 2 -3.8218 70.1366 5.6740 0.0000 0.0000 0.0000
# 3 90.6465 5.6740 140.0475 0.0000 0.0000 0.0000
# 4 0.0000 0.0000 0.0000 -72.9056 0.0000 0.0000
# 5 0.0000 0.0000 0.0000 0.0000 25.7317 0.0000
# 6 0.0000 0.0000 0.0000 0.0000 0.0000 -75.3214
#
#
#
# Elastic Compliance Matrix: (Units=1/GPa)
#
#
# Indices 1 2 3 4 5 6 
#
# 1 0.013025 0.001396 -0.008487 0.000000 0.000000 0.000000
# 2 0.001396 0.014454 -0.001489 0.000000 0.000000 0.000000
# 3 -0.008487 -0.001489 0.012694 0.000000 0.000000 0.000000
# 4 0.000000 0.000000 0.000000 -0.013716 0.000000 0.000000
# 5 0.000000 0.000000 0.000000 0.000000 0.038863 0.000000
# 6 0.000000 0.000000 0.000000 0.000000 0.000000 -0.013276
#
#
# Mechanical properties :
#
#
# Convention : Reuss Voigt Hill
#
# Bulk Modulus (GPa) = 43.45337 59.04828 51.25083
# Shear Modulus (GPa) = 65.04208 -7.56981 28.73613
#
# Velocity S-wave (km/s) = 5.73521 -1.95657 3.81212
# Velocity P-wave (km/s) = 8.11368 4.97567 6.73012
#
# Compressibility (1/GPa) = 0.02301317
#
# Stress axis : x y z
#
# Youngs Moduli (GPa) = 76.77837 69.18277 78.77820
#
# Poissons Ratio (x) = -0.09660 0.66857
# Poissons Ratio (y) = -0.10720 0.11733
# Poissons Ratio (z) = 0.65160 0.10304
#
# Static dielectric constant tensor:
#      x y z
#    x 1.724300 0.000000 0.000000 
#    y 0.000000 1.758350 0.000000 
#    z 0.000000 0.000000 1.668320 
# 
# From -- ./inp_files/31516.got.cif
#   From: 2010.05.17/outbox.cif.g08.bks.cpg/sg47_16_cif.got.tgz:31516.got - 2010.06.03 20:15:42.
