data_PCOD9381073
_publ_section_title
;
Structure prediction by ZEFSAII (Michael W. Deem and Ramdas Pophale) SiO2 
 PCOD9381073
Probable space group: I M A 2
;
_chemical_formula_sum "Si O2"
_cell_formula_units_Z 48
_cell_length_a 21.152402
_cell_length_b 8.945318
_cell_length_c 10.980357
_cell_angle_alpha 90.000000
_cell_angle_beta 90.000000
_cell_angle_gamma 90.000000
_cell_volume 2077.647836
_symmetry_space_group_name_H-M "I M A 2"
_symmetry_group_IT_number 46
_symmetry_cell_setting 'orthorhombic'
loop_
_space_group_symop_operation_xyz
x,y,z
-x,-y,z
1/2-x,y,z
1/2+x,-y,z
1/2+x,1/2+y,1/2+z
1/2-x,1/2-y,1/2+z
-x,1/2+y,1/2+z
x,1/2-y,1/2+z
loop_
_atom_site_type_symbol
_atom_site_label
_atom_site_fract_x
_atom_site_fract_y
_atom_site_fract_z
Si Si1 0.997784 0.677819 0.109220
Si Si2 0.146604 0.284045 0.640188
Si Si3 0.326374 0.881513 0.211680
Si Si4 0.173637 0.692406 0.444998
Si Si5 0.002067 0.177877 0.869619
Si Si6 0.148774 0.146975 0.880405
O O1 0.924577 0.726552 0.117899
O O2 0.025651 0.725000 0.239689
O O3 0.000000 0.500000 0.100563
O O4 0.026627 0.749852 0.989197
O O5 0.145339 0.455008 0.686385
O O6 0.176838 0.188649 0.749353
O O7 0.176848 0.285667 0.505151
O O8 0.250000 0.900389 0.213640
O O9 0.344330 0.812435 0.342056
O O10 0.340556 0.785200 0.088868
O O11 0.250000 0.679204 0.438262
O O12 0.147653 0.530705 0.402412
O O13 0.077191 0.209652 0.870175
O O14 0.000000 0.000000 0.879173
#
# Coordination Sequence:
#
# PCOD9381073 Si02
#       6
#     8   8   8   8   8   8
#     4   9  18  34  53  73 100 132 166 209 257 305
#     4   9  18  33  51  73 102 134 171 212 255 305
#     4   9  18  33  52  75 105 139 174 212 254 302
#     4   9  18  33  51  73 103 136 171 211 254 301
#     4   9  18  34  51  72 100 128 165 208 253 305
#     4   9  18  33  50  72 101 133 167 210 257 302
#
# _framework density 23.103048999999999
#
# number of rings (size 3 to 8) (size 9 to 14) (size 15 to 20)
#    0.000    3.000    0.000    0.000    0.000    2.667 
#    0.000   20.000    0.000    0.000    0.000    0.000 
#    0.000    0.000    0.000    0.000    0.000    0.000 
#
# Total GULP energy -133907.248184 kJ/mol
# GULP energy per Si atom -5579.468674 kJ/mol
# Density = 2.305047 g / cm^3
# Si number density = 23.103049 Si / 1000 Ang^3
#
#
#
# Elastic Constant Matrix: (Units=GPa)
#
#
# Indices 1 2 3 4 5 6 
#
# 1 79.2379 4.0747 6.5647 0.0000 0.0000 0.0000
# 2 4.0747 46.5477 67.4194 0.0000 0.0000 0.0000
# 3 6.5647 67.4194 227.8462 0.0000 0.0000 0.0000
# 4 0.0000 0.0000 0.0000 50.3472 0.0000 0.0000
# 5 0.0000 0.0000 0.0000 0.0000 22.9477 0.0000
# 6 0.0000 0.0000 0.0000 0.0000 0.0000 34.8175
#
#
#
# Elastic Compliance Matrix: (Units=1/GPa)
#
#
# Indices 1 2 3 4 5 6 
#
# 1 0.012678 -0.001016 -0.000065 0.000000 0.000000 0.000000
# 2 -0.001016 0.037678 -0.011120 0.000000 0.000000 0.000000
# 3 -0.000065 -0.011120 0.007681 0.000000 0.000000 0.000000
# 4 0.000000 0.000000 0.000000 0.019862 0.000000 0.000000
# 5 0.000000 0.000000 0.000000 0.000000 0.043577 0.000000
# 6 0.000000 0.000000 0.000000 0.000000 0.000000 0.028721
#
#
# Mechanical properties :
#
#
# Convention : Reuss Voigt Hill
#
# Bulk Modulus (GPa) = 29.73017 56.63882 43.18450
# Shear Modulus (GPa) = 26.90922 39.99402 33.45162
#
# Velocity S-wave (km/s) = 3.41654 4.16518 3.80930
# Velocity P-wave (km/s) = 5.33480 6.90656 6.17093
#
# Compressibility (1/GPa) = 0.03363586
#
# Stress axis : x y z
#
# Youngs Moduli (GPa) = 78.87784 26.54087 130.19076
#
# Poissons Ratio (x) = 0.02697 0.00840
# Poissons Ratio (y) = 0.08016 1.44766
# Poissons Ratio (z) = 0.00509 0.29512
#
# Static dielectric constant tensor:
#      x y z
#    x 1.885920 0.000000 0.000000 
#    y 0.000000 1.771670 0.000000 
#    z 0.000000 0.000000 1.948990 
# 
# From -- ./inp_files/12723.got.cif
#   From: 2010.05.17/outbox.cif.g08.bks.cpg/sg46_7_cif.got.tgz:12723.got - 2010.06.03 19:58:25.
