data_PCOD9381907
_publ_section_title
;
Structure prediction by ZEFSAII (Michael W. Deem and Ramdas Pophale) SiO2 
 PCOD9381907
Probable space group: P M M M
;
_chemical_formula_sum "Si O2"
_cell_formula_units_Z 64
_cell_length_a 8.607807
_cell_length_b 19.613980
_cell_length_c 24.323369
_cell_angle_alpha 90.000000
_cell_angle_beta 90.000000
_cell_angle_gamma 90.000000
_cell_volume 4106.595977
_symmetry_space_group_name_H-M "P M M M"
_symmetry_group_IT_number 47
_symmetry_cell_setting 'orthorhombic'
loop_
_space_group_symop_operation_xyz
x,y,z
-x,-y,z
x,-y,-z
-x,y,-z
-x,-y,-z
x,y,-z
-x,y,z
x,-y,z
loop_
_atom_site_type_symbol
_atom_site_label
_atom_site_fract_x
_atom_site_fract_y
_atom_site_fract_z
Si Si1 0.310212 0.783755 0.938321
Si Si2 0.311058 0.075387 0.885885
Si Si3 0.815607 0.216886 0.272421
Si Si4 0.313403 0.701470 0.831981
Si Si5 0.186356 0.578553 0.231774
Si Si6 0.687133 0.077011 0.756855
Si Si7 0.684521 0.339516 0.335678
Si Si8 0.187181 0.421357 0.436216
O O1 0.500000 0.784294 0.938132
O O2 0.258743 0.859781 0.920673
O O3 0.262619 0.731588 0.890552
O O4 0.259279 0.767124 0.000000
O O5 0.500000 0.075093 0.887869
O O6 0.269986 0.083971 0.821572
O O7 0.258853 0.000000 0.904143
O O8 0.742112 0.247982 0.216500
O O9 0.763428 0.138690 0.275855
O O10 0.755114 0.265856 0.320788
O O11 0.000000 0.222306 0.268800
O O12 0.500000 0.699175 0.830490
O O13 0.246525 0.627882 0.816299
O O14 0.232596 0.500000 0.225110
O O15 0.253054 0.609700 0.288207
O O16 0.000000 0.582379 0.234375
O O17 0.500000 0.083012 0.753853
O O18 0.729537 0.000000 0.739774
O O19 0.500000 0.335747 0.331728
O O20 0.736436 0.369879 0.393747
O O21 0.227286 0.408489 0.500000
O O22 0.230986 0.500000 0.423338
O O23 0.000000 0.417142 0.431309
#
# Coordination Sequence:
#
# PCOD9381907 Si02
#       8
#     8   8   8   8   8   8   8   8
#     4   9  16  25  40  63  88 112 143 185 227 270
#     4   8  13  22  38  60  86 114 143 177 217 262
#     4  11  20  30  46  66  92 123 157 193 232 279
#     4  10  18  30  47  65  88 114 145 183 228 278
#     4  10  20  33  49  68  90 115 145 185 233 282
#     4   9  16  28  46  66  90 120 153 189 232 279
#     4  11  21  31  47  71  99 127 159 197 233 269
#     4   9  18  33  51  70  98 137 172 198 228 268
#
# _framework density 15.584685
#
# number of rings (size 3 to 8) (size 9 to 14) (size 15 to 20)
#    0.000    2.375    1.250    6.000    0.000    3.500 
#    0.000    1.875    0.000    1.875    0.000    2.625 
#    0.000    2.500    0.000    5.250    0.000    2.250 
#
# Total GULP energy -356885.247885 kJ/mol
# GULP energy per Si atom -5576.331998 kJ/mol
# Density = 1.554921 g / cm^3
# Si number density = 15.584685 Si / 1000 Ang^3
#
#
#
# Elastic Constant Matrix: (Units=GPa)
#
#
# Indices 1 2 3 4 5 6 
#
# 1 39.6346 31.4112 17.9352 0.0000 0.0000 0.0000
# 2 31.4112 121.1156 52.1513 0.0000 0.0000 0.0000
# 3 17.9352 52.1513 74.0156 0.0000 0.0000 0.0000
# 4 0.0000 0.0000 0.0000 24.7034 0.0000 0.0000
# 5 0.0000 0.0000 0.0000 0.0000 32.2513 0.0000
# 6 0.0000 0.0000 0.0000 0.0000 0.0000 37.3521
#
#
#
# Elastic Compliance Matrix: (Units=1/GPa)
#
#
# Indices 1 2 3 4 5 6 
#
# 1 0.032143 -0.007152 -0.002749 0.000000 0.000000 0.000000
# 2 -0.007152 0.013444 -0.007740 0.000000 0.000000 0.000000
# 3 -0.002749 -0.007740 0.019630 0.000000 0.000000 0.000000
# 4 0.000000 0.000000 0.000000 0.040480 0.000000 0.000000
# 5 0.000000 0.000000 0.000000 0.000000 0.031006 0.000000
# 6 0.000000 0.000000 0.000000 0.000000 0.000000 0.026772
#
#
# Mechanical properties :
#
#
# Convention : Reuss Voigt Hill
#
# Bulk Modulus (GPa) = 33.40588 48.64013 41.02300
# Shear Modulus (GPa) = 23.95360 27.74591 25.84975
#
# Velocity S-wave (km/s) = 3.92471 4.22398 4.07709
# Velocity P-wave (km/s) = 6.48224 7.42073 6.96730
#
# Compressibility (1/GPa) = 0.02993485
#
# Stress axis : x y z
#
# Youngs Moduli (GPa) = 31.11101 74.38186 50.94220
#
# Poissons Ratio (x) = 0.53202 0.14005
# Poissons Ratio (y) = 0.22252 0.39427
# Poissons Ratio (z) = 0.08553 0.57568
#
# Static dielectric constant tensor:
#      x y z
#    x 1.528130 0.000000 0.000000 
#    y 0.000000 1.532160 0.000000 
#    z 0.000000 0.000000 1.502700 
# 
# From -- ./inp_files/33491.got.cif
#   From: 2010.05.17/outbox.cif.g08.bks.cpg/sg47_17_cif.got.tgz:33491.got - 2010.06.03 20:15:42.
