data_PCOD9381825
_publ_section_title
;
Structure prediction by ZEFSAII (Michael W. Deem and Ramdas Pophale) SiO2 
 PCOD9381825
Probable space group: P M M M
;
_chemical_formula_sum "Si O2"
_cell_formula_units_Z 64
_cell_length_a 15.519937
_cell_length_b 7.384990
_cell_length_c 26.015691
_cell_angle_alpha 90.000000
_cell_angle_beta 90.000000
_cell_angle_gamma 90.000000
_cell_volume 2981.777486
_symmetry_space_group_name_H-M "P M M M"
_symmetry_group_IT_number 47
_symmetry_cell_setting 'orthorhombic'
loop_
_space_group_symop_operation_xyz
x,y,z
-x,-y,z
x,-y,-z
-x,y,-z
-x,-y,-z
x,y,-z
-x,y,z
x,-y,z
loop_
_atom_site_type_symbol
_atom_site_label
_atom_site_fract_x
_atom_site_fract_y
_atom_site_fract_z
Si Si1 0.092487 0.218163 0.915245
Si Si2 0.658320 0.707160 0.835490
Si Si3 0.850724 0.780937 0.196423
Si Si4 0.095344 0.778559 0.310018
Si Si5 0.406013 0.280367 0.729848
Si Si6 0.729901 0.790264 0.357102
Si Si7 0.712610 0.712936 0.944443
Si Si8 0.596975 0.220878 0.559373
O O1 0.097659 0.267927 0.854906
O O2 0.183414 0.276399 0.938808
O O3 0.000000 0.281053 0.936245
O O4 0.093019 0.000000 0.918982
O O5 0.628738 0.500000 0.842201
O O6 0.755046 0.707878 0.812564
O O7 0.603873 0.785465 0.788579
O O8 0.669412 0.789093 0.892440
O O9 0.889385 0.723890 0.250676
O O10 0.845151 0.000000 0.197153
O O11 0.176439 0.713861 0.343385
O O12 0.000000 0.723139 0.326899
O O13 0.097401 0.000000 0.310155
O O14 0.500000 0.227189 0.709391
O O15 0.401616 0.500000 0.730535
O O16 0.328775 0.215951 0.694052
O O17 0.670482 0.711921 0.402202
O O18 0.744422 0.000000 0.370708
O O19 0.691873 0.500000 0.944875
O O20 0.688169 0.789926 0.000000
O O21 0.611702 0.271047 0.500000
O O22 0.500000 0.278899 0.574039
O O23 0.596685 0.000000 0.561468
#
# Coordination Sequence:
#
# PCOD9381825 Si02
#       8
#     8   8   8   8   8   8   8   8
#     4   9  17  27  40  59  82 108 139 176 218 267
#     4   9  17  30  46  62  85 114 142 175 219 271
#     4   9  15  26  43  61  83 113 148 180 216 260
#     4   9  16  25  40  64  93 122 152 188 229 266
#     4  10  20  32  47  69  98 126 145 174 233 293
#     4  10  18  29  48  72  95 123 161 197 223 262
#     4   9  18  31  45  59  76 105 144 182 220 261
#     4   8  14  25  42  66  95 124 155 194 236 271
#
# _framework density 21.463708
#
# number of rings (size 3 to 8) (size 9 to 14) (size 15 to 20)
#    0.000    2.875    1.250    1.125    0.000    3.000 
#    0.000    1.250    0.000    3.375    0.000    7.000 
#    0.000    0.000    0.000    8.500    0.000    9.125 
#
# Total GULP energy -357008.096169 kJ/mol
# GULP energy per Si atom -5578.251503 kJ/mol
# Density = 2.141486 g / cm^3
# Si number density = 21.463708 Si / 1000 Ang^3
#
#
#
# Elastic Constant Matrix: (Units=GPa)
#
#
# Indices 1 2 3 4 5 6 
#
# 1 113.2371 -0.5276 62.8772 0.0000 0.0000 0.0000
# 2 -0.5276 73.2144 2.0453 0.0000 0.0000 0.0000
# 3 62.8772 2.0453 132.9286 0.0000 0.0000 0.0000
# 4 0.0000 0.0000 0.0000 5.6827 0.0000 0.0000
# 5 0.0000 0.0000 0.0000 0.0000 -6.8424 0.0000
# 6 0.0000 0.0000 0.0000 0.0000 0.0000 -0.4222
#
#
#
# Elastic Compliance Matrix: (Units=1/GPa)
#
#
# Indices 1 2 3 4 5 6 
#
# 1 0.011981 0.000245 -0.005671 0.000000 0.000000 0.000000
# 2 0.000245 0.013669 -0.000326 0.000000 0.000000 0.000000
# 3 -0.005671 -0.000326 0.010210 0.000000 0.000000 0.000000
# 4 0.000000 0.000000 0.000000 0.175972 0.000000 0.000000
# 5 0.000000 0.000000 0.000000 0.000000 -0.146147 0.000000
# 6 0.000000 0.000000 0.000000 0.000000 0.000000 -2.368405
#
#
# Mechanical properties :
#
#
# Convention : Reuss Voigt Hill
#
# Bulk Modulus (GPa) = 41.05742 49.79664 45.42703
# Shear Modulus (GPa) = -2.19001 16.68263 7.24631
#
# Velocity S-wave (km/s) = -1.01121 2.79094 1.83940
# Velocity P-wave (km/s) = 4.21982 5.79970 5.07166
#
# Compressibility (1/GPa) = 0.02435613
#
# Stress axis : x y z
#
# Youngs Moduli (GPa) = 83.46470 73.15616 97.94007
#
# Poissons Ratio (x) = -0.01791 0.55542
# Poissons Ratio (y) = -0.02043 0.03194
# Poissons Ratio (z) = 0.47333 0.02386
#
# Static dielectric constant tensor:
#      x y z
#    x 1.769330 0.000000 0.000000 
#    y 0.000000 1.842890 0.000000 
#    z 0.000000 0.000000 1.783410 
# 
# From -- ./inp_files/34470.got.cif
#   From: 2010.05.17/outbox.cif.g08.bks.cpg/sg47_18_cif.got.tgz:34470.got - 2010.06.03 20:15:42.
