data_PCOD9381567
_publ_section_title
;
Structure prediction by ZEFSAII (Michael W. Deem and Ramdas Pophale) SiO2 
 PCOD9381567
Probable space group: P M M M
;
_chemical_formula_sum "Si O2"
_cell_formula_units_Z 40
_cell_length_a 18.019743
_cell_length_b 20.123741
_cell_length_c 7.702027
_cell_angle_alpha 90.000000
_cell_angle_beta 90.000000
_cell_angle_gamma 90.000000
_cell_volume 2792.944776
_symmetry_space_group_name_H-M "P M M M"
_symmetry_group_IT_number 47
_symmetry_cell_setting 'orthorhombic'
loop_
_space_group_symop_operation_xyz
x,y,z
-x,-y,z
x,-y,-z
-x,y,-z
-x,-y,-z
x,y,-z
-x,y,z
x,-y,z
loop_
_atom_site_type_symbol
_atom_site_label
_atom_site_fract_x
_atom_site_fract_y
_atom_site_fract_z
Si Si1 0.851066 0.646230 0.702792
Si Si2 0.415690 0.580457 0.000000
Si Si3 0.000000 0.422810 0.287544
Si Si4 0.914462 0.217343 0.795584
Si Si5 0.913248 0.928419 0.290877
Si Si6 0.699917 0.420320 0.705519
O O1 0.849406 0.627656 0.500000
O O2 0.864384 0.724749 0.717737
O O3 0.773505 0.618023 0.769902
O O4 0.925279 0.612387 0.777262
O O5 0.368820 0.598395 0.828379
O O6 0.419274 0.500000 0.000000
O O7 0.500000 0.605684 0.000000
O O8 0.000000 0.500000 0.243412
O O9 0.000000 0.417506 0.500000
O O10 0.884123 0.142854 0.767885
O O11 0.000000 0.220967 0.725602
O O12 0.918480 0.229284 0.000000
O O13 0.911647 0.928243 0.500000
O O14 0.000000 0.928251 0.236528
O O15 0.881582 0.000000 0.232449
O O16 0.686800 0.406687 0.500000
O O17 0.712542 0.500000 0.721179
#
# Coordination Sequence:
#
# PCOD9381567 Si02
#       6
#     8   4   4   8   8   8
#     4  10  18  28  42  57  77 108 142 177 213 246
#     4   9  18  32  50  69  85 105 132 166 215 267
#     4   9  16  26  41  57  72  99 142 183 213 243
#     4  10  19  27  36  53  78 105 137 176 214 250
#     4   8  14  25  40  54  68  91 128 173 215 252
#     4   9  18  31  46  65  87 110 139 176 216 258
#
# _framework density 14.321801000000001
#
# number of rings (size 3 to 8) (size 9 to 14) (size 15 to 20)
#    0.000    2.800    1.000    1.800    1.400    4.000 
#    0.000    4.000    0.000    0.600    0.000    0.000 
#    0.000    0.000    0.000    0.000    0.000    2.000 
#
# Total GULP energy -222700.266660 kJ/mol
# GULP energy per Si atom -5567.506667 kJ/mol
# Density = 1.428920 g / cm^3
# Si number density = 14.321801 Si / 1000 Ang^3
#
#
#
# Elastic Constant Matrix: (Units=GPa)
#
#
# Indices 1 2 3 4 5 6 
#
# 1 100.9724 42.8548 32.0270 0.0000 0.0000 0.0000
# 2 42.8548 72.8497 7.8759 0.0000 0.0000 0.0000
# 3 32.0270 7.8759 43.4211 0.0000 0.0000 0.0000
# 4 0.0000 0.0000 0.0000 1.6676 0.0000 0.0000
# 5 0.0000 0.0000 0.0000 0.0000 12.0012 0.0000
# 6 0.0000 0.0000 0.0000 0.0000 0.0000 4.3667
#
#
#
# Elastic Compliance Matrix: (Units=1/GPa)
#
#
# Indices 1 2 3 4 5 6 
#
# 1 0.017202 -0.008922 -0.011069 0.000000 0.000000 0.000000
# 2 -0.008922 0.018629 0.003202 0.000000 0.000000 0.000000
# 3 -0.011069 0.003202 0.030614 0.000000 0.000000 0.000000
# 4 0.000000 0.000000 0.000000 0.599652 0.000000 0.000000
# 5 0.000000 0.000000 0.000000 0.000000 0.083325 0.000000
# 6 0.000000 0.000000 0.000000 0.000000 0.000000 0.229005
#
#
# Mechanical properties :
#
#
# Convention : Reuss Voigt Hill
#
# Bulk Modulus (GPa) = 30.42687 42.52874 36.47780
# Shear Modulus (GPa) = 4.88777 12.57280 8.73029
#
# Velocity S-wave (km/s) = 1.84939 2.96612 2.47165
# Velocity P-wave (km/s) = 5.08444 6.44128 5.80265
#
# Compressibility (1/GPa) = 0.03286569
#
# Stress axis : x y z
#
# Youngs Moduli (GPa) = 58.13420 53.67853 32.66462
#
# Poissons Ratio (x) = 0.47894 0.36158
# Poissons Ratio (y) = 0.51869 -0.10459
# Poissons Ratio (z) = 0.64351 -0.17188
#
# Static dielectric constant tensor:
#      x y z
#    x 1.457560 0.000000 0.000000 
#    y 0.000000 1.493380 0.000000 
#    z 0.000000 0.000000 1.520440 
# 
# From -- ./inp_files/9335.got.cif
#   From: 2010.05.17/outbox.cif.g08.bks.cpg/sg47_5_cif.got.tgz:9335.got - 2010.06.03 20:15:42.
