data_PCOD9381283
_publ_section_title
;
Structure prediction by ZEFSAII (Michael W. Deem and Ramdas Pophale) SiO2 
 PCOD9381283
Probable space group: P M M M
;
_chemical_formula_sum "Si O2"
_cell_formula_units_Z 52
_cell_length_a 14.190439
_cell_length_b 13.152003
_cell_length_c 17.989090
_cell_angle_alpha 90.000000
_cell_angle_beta 90.000000
_cell_angle_gamma 90.000000
_cell_volume 3357.352371
_symmetry_space_group_name_H-M "P M M M"
_symmetry_group_IT_number 47
_symmetry_cell_setting 'orthorhombic'
loop_
_space_group_symop_operation_xyz
x,y,z
-x,-y,z
x,-y,-z
-x,y,-z
-x,-y,-z
x,y,-z
-x,y,z
x,-y,z
loop_
_atom_site_type_symbol
_atom_site_label
_atom_site_fract_x
_atom_site_fract_y
_atom_site_fract_z
Si Si1 0.893320 0.876411 0.414221
Si Si2 0.388610 0.198104 0.820131
Si Si3 0.104551 0.331651 0.085987
Si Si4 0.309520 0.385627 0.910704
Si Si5 0.614591 0.000000 0.084622
Si Si6 0.242337 0.881030 0.715765
Si Si7 0.110894 0.110149 0.859778
O O1 0.876391 0.847509 0.500000
O O2 0.813080 0.843651 0.356898
O O3 0.000000 0.844097 0.393425
O O4 0.893624 0.000000 0.411319
O O5 0.500000 0.191559 0.807926
O O6 0.363528 0.299592 0.865183
O O7 0.358025 0.101282 0.870941
O O8 0.330055 0.184411 0.744468
O O9 0.199876 0.381717 0.115037
O O10 0.123600 0.210531 0.091553
O O11 0.000000 0.351984 0.118967
O O12 0.098907 0.361711 0.000000
O O13 0.345986 0.500000 0.899857
O O14 0.312457 0.364106 0.000000
O O15 0.500000 0.000000 0.082262
O O16 0.648559 0.000000 0.000000
O O17 0.168046 0.878615 0.783754
O O18 0.270129 0.000000 0.705533
O O19 0.000000 0.107476 0.842226
O O20 0.135703 0.000000 0.893911
#
# Coordination Sequence:
#
# PCOD9381283 Si02
#       7
#     8   8   8   8   4   8   8
#     4   8  14  25  43  69 100 132 163 190 217 263
#     4  11  21  33  47  67  91 119 159 203 248 290
#     4   9  17  29  44  62  86 116 149 186 230 281
#     4  10  21  36  51  66  86 117 161 208 250 290
#     4   9  18  32  48  64  84 113 152 200 246 291
#     4  10  17  27  44  66  94 127 156 186 231 278
#     4   9  16  25  39  62  90 118 148 181 221 273
#
# _framework density 15.488395000000001
#
# number of rings (size 3 to 8) (size 9 to 14) (size 15 to 20)
#    0.000    2.538    2.308    1.385    0.000    3.692 
#    0.000    3.846    0.000    0.462    0.000    2.154 
#    0.000    0.615    0.000    3.077    0.000    0.154 
#
# Total GULP energy -289620.696323 kJ/mol
# GULP energy per Si atom -5569.628775 kJ/mol
# Density = 1.545314 g / cm^3
# Si number density = 15.488395 Si / 1000 Ang^3
#
#
#
# Elastic Constant Matrix: (Units=GPa)
#
#
# Indices 1 2 3 4 5 6 
#
# 1 71.4715 33.5721 49.2029 0.0000 0.0000 0.0000
# 2 33.5721 65.2621 23.1261 0.0000 0.0000 0.0000
# 3 49.2029 23.1261 64.5094 0.0000 0.0000 0.0000
# 4 0.0000 0.0000 0.0000 8.1957 0.0000 0.0000
# 5 0.0000 0.0000 0.0000 0.0000 22.2851 0.0000
# 6 0.0000 0.0000 0.0000 0.0000 0.0000 8.4379
#
#
#
# Elastic Compliance Matrix: (Units=1/GPa)
#
#
# Indices 1 2 3 4 5 6 
#
# 1 0.033913 -0.009484 -0.022466 0.000000 0.000000 0.000000
# 2 -0.009484 0.020205 -0.000009 0.000000 0.000000 0.000000
# 3 -0.022466 -0.000009 0.032641 0.000000 0.000000 0.000000
# 4 0.000000 0.000000 0.000000 0.122015 0.000000 0.000000
# 5 0.000000 0.000000 0.000000 0.000000 0.044873 0.000000
# 6 0.000000 0.000000 0.000000 0.000000 0.000000 0.118513
#
#
# Mechanical properties :
#
#
# Convention : Reuss Voigt Hill
#
# Bulk Modulus (GPa) = 43.78544 45.89391 44.83968
# Shear Modulus (GPa) = 11.26906 14.13987 12.70446
#
# Velocity S-wave (km/s) = 2.70030 3.02476 2.86712
# Velocity P-wave (km/s) = 6.16874 6.47258 6.32249
#
# Compressibility (1/GPa) = 0.02283864
#
# Stress axis : x y z
#
# Youngs Moduli (GPa) = 29.48717 49.49242 30.63673
#
# Poissons Ratio (x) = 0.46941 0.68829
# Poissons Ratio (y) = 0.27967 0.00029
# Poissons Ratio (z) = 0.66247 0.00046
#
# Static dielectric constant tensor:
#      x y z
#    x 1.562730 0.000000 0.000000 
#    y 0.000000 1.538310 0.000000 
#    z 0.000000 0.000000 1.499320 
# 
# From -- ./inp_files/17960.got.cif
#   From: 2010.05.17/outbox.cif.g08.bks.cpg/sg47_9_cif.got.tgz:17960.got - 2010.06.03 20:15:42.
