data_PCOD9381162
_publ_section_title
;
Structure prediction by ZEFSAII (Michael W. Deem and Ramdas Pophale) SiO2 
 PCOD9381162
Probable space group: I M A 2
;
_chemical_formula_sum "Si O2"
_cell_formula_units_Z 20
_cell_length_a 12.000000
_cell_length_b 18.000000
_cell_length_c 9.000000
_cell_angle_alpha 90.000000
_cell_angle_beta 90.000000
_cell_angle_gamma 90.000000
_cell_volume 1944.000000
_symmetry_space_group_name_H-M "I M A 2"
_symmetry_group_IT_number 46
_symmetry_cell_setting 'orthorhombic'
loop_
_space_group_symop_operation_xyz
x,y,z
-x,-y,z
1/2-x,y,z
1/2+x,-y,z
1/2+x,1/2+y,1/2+z
1/2-x,1/2-y,1/2+z
-x,1/2+y,1/2+z
x,1/2-y,1/2+z
loop_
_atom_site_type_symbol
_atom_site_label
_atom_site_fract_x
_atom_site_fract_y
_atom_site_fract_z
Si Si1 0.501533 0.587460 0.500000
Si Si2 0.750000 0.347104 0.438072
Si Si3 0.510091 0.665213 0.026140
Si Si4 0.750000 0.314521 0.085954
Si Si5 0.115703 0.049315 0.712710
Si Si6 0.613096 0.704360 0.715251
O O1 0.500000 0.500000 0.538401
O O2 0.371020 0.612129 0.468755
O O3 0.586623 0.596541 0.360057
O O4 0.561854 0.634820 0.625817
O O5 0.750000 0.326426 0.263339
O O6 0.750000 0.271587 0.535131
O O7 0.373891 0.655063 0.031888
O O8 0.585851 0.593857 0.064718
O O9 0.550767 0.725004 0.145683
O O10 0.558792 0.697090 0.875788
O O11 0.250000 0.026133 0.715515
O O12 0.000000 0.000000 0.721436
O O13 0.750000 0.708624 0.712691
#
# Coordination Sequence:
#
# PCOD9381162 Si02
#       6
#     8   4   8   4   8   8
#     4  11  26  42  70  99 141 183 230 286 353 426
#     4  12  24  46  72 108 140 183 241 296 368 420
#     4  12  25  44  70  98 136 178 230 292 355 422
#     4  12  24  44  72 106 136 175 237 300 358 416
#     4  11  25  44  71 101 137 186 236 292 357 428
#     4  12  25  44  67  97 133 181 227 288 347 422
#
# _framework density 10.288066000000001
#
# number of rings (size 3 to 8) (size 9 to 14) (size 15 to 20)
#    0.000    0.400    4.000    4.800    8.400    0.800 
#    0.000    0.000    0.000    0.000    0.000    0.000 
#    0.000    0.000    0.000    0.000    0.000    0.000 
#
# Total GULP energy -111349.995318 kJ/mol
# GULP energy per Si atom -5567.499766 kJ/mol
# Density = 1.026465 g / cm^3
# Si number density = 10.288066 Si / 1000 Ang^3
#
#
#
# Elastic Constant Matrix: (Units=GPa)
#
#
# Indices 1 2 3 4 5 6 
#
# 1 230.9279 12.0723 22.9831 0.0000 0.0000 0.0000
# 2 12.0723 29.6308 -1.9705 0.0000 0.0000 0.0000
# 3 22.9831 -1.9705 79.2806 0.0001 0.0000 0.0000
# 4 0.0000 0.0000 0.0001 36.4406 0.0000 0.0000
# 5 0.0000 0.0000 0.0000 0.0000 39.5280 0.0000
# 6 0.0000 0.0000 0.0000 0.0000 0.0000 41.1660
#
#
#
# Elastic Compliance Matrix: (Units=1/GPa)
#
#
# Indices 1 2 3 4 5 6 
#
# 1 0.004569 -0.001953 -0.001373 0.000000 0.000000 0.000000
# 2 -0.001953 0.034639 0.001427 0.000000 0.000000 0.000000
# 3 -0.001373 0.001427 0.013047 0.000000 0.000000 0.000000
# 4 0.000000 0.000000 0.000000 0.027442 0.000000 0.000000
# 5 0.000000 0.000000 0.000000 0.000000 0.025299 0.000000
# 6 0.000000 0.000000 0.000000 0.000000 0.000000 0.024292
#
#
# Mechanical properties :
#
#
# Convention : Reuss Voigt Hill
#
# Bulk Modulus (GPa) = 20.63662 45.11210 32.87436
# Shear Modulus (GPa) = 33.50354 43.87722 38.69038
#
# Velocity S-wave (km/s) = 4.03956 4.62284 4.34101
# Velocity P-wave (km/s) = 5.63991 7.10396 6.41385
#
# Compressibility (1/GPa) = 0.04845754
#
# Stress axis : x y z
#
# Youngs Moduli (GPa) = 218.86129 28.86897 76.64624
#
# Poissons Ratio (x) = 0.05638 0.10524
# Poissons Ratio (y) = 0.42741 -0.10938
# Poissons Ratio (z) = 0.30052 -0.04120
#
# Static dielectric constant tensor:
#      x y z
#    x 1.730270 0.000000 0.000000 
#    y 0.000000 1.901420 0.000000 
#    z 0.000000 0.000000 1.922060 
# 
# From -- ./inp_files/4468.got.cif
#   From: 2010.05.17/outbox.ucp.g08.bks.cvg/sg46_3_cif.got.tgz:4468.got - 2010.06.11 16:34:52.
