data_PCOD9381507
_publ_section_title
;
Structure prediction by ZEFSAII (Michael W. Deem and Ramdas Pophale) SiO2 
 PCOD9381507
Probable space group: P M M M
;
_chemical_formula_sum "Si O2"
_cell_formula_units_Z 56
_cell_length_a 14.122328
_cell_length_b 8.555653
_cell_length_c 30.330970
_cell_angle_alpha 90.000000
_cell_angle_beta 90.000000
_cell_angle_gamma 90.000000
_cell_volume 3664.761832
_symmetry_space_group_name_H-M "P M M M"
_symmetry_group_IT_number 47
_symmetry_cell_setting 'orthorhombic'
loop_
_space_group_symop_operation_xyz
x,y,z
-x,-y,z
x,-y,-z
-x,y,-z
-x,-y,-z
x,y,-z
-x,y,z
x,-y,z
loop_
_atom_site_type_symbol
_atom_site_label
_atom_site_fract_x
_atom_site_fract_y
_atom_site_fract_z
Si Si1 0.389774 0.308952 0.356370
Si Si2 0.614642 0.314509 0.547446
Si Si3 0.608467 0.812455 0.818713
Si Si4 0.889633 0.188391 0.949566
Si Si5 0.711733 0.312298 0.732527
Si Si6 0.108298 0.187416 0.779378
Si Si7 0.787793 0.314671 0.134949
O O1 0.500000 0.263278 0.350016
O O2 0.389183 0.500000 0.357588
O O3 0.355242 0.252782 0.404640
O O4 0.326795 0.260098 0.314991
O O5 0.646926 0.248070 0.500000
O O6 0.500000 0.303527 0.548038
O O7 0.636791 0.500000 0.546814
O O8 0.500000 0.765187 0.826207
O O9 0.644499 0.753157 0.771174
O O10 0.682610 0.745123 0.853864
O O11 0.614308 0.000000 0.819287
O O12 0.824563 0.264242 0.912703
O O13 0.000000 0.230099 0.941787
O O14 0.883037 0.000000 0.946331
O O15 0.866098 0.232222 0.000000
O O16 0.708646 0.500000 0.734337
O O17 0.816976 0.256276 0.744650
O O18 0.144821 0.240458 0.827467
O O19 0.000000 0.237409 0.772414
O O20 0.112686 0.000000 0.777592
O O21 0.790754 0.500000 0.139899
#
# Coordination Sequence:
#
# PCOD9381507 Si02
#       7
#     8   8   8   8   8   8   8
#     4   8  13  20  31  51  80 111 139 167 203 246
#     4   7   9  14  25  42  68 104 140 167 193 234
#     4  10  20  33  48  64  85 116 152 184 210 244
#     4   9  18  33  52  72  95 123 150 175 207 250
#     4  10  18  27  42  63  87 112 138 174 217 257
#     4  10  20  33  47  61  82 113 145 176 209 250
#     4  11  21  31  48  72  95 117 141 175 216 254
#
# _framework density 15.280665000000001
#
# number of rings (size 3 to 8) (size 9 to 14) (size 15 to 20)
#    0.000    2.714    0.000    6.857    0.000    5.143 
#    0.000    0.714    0.000    0.429    0.000    3.000 
#    0.000    2.857    0.000   23.286    0.000   14.571 
#
# Total GULP energy -311972.784327 kJ/mol
# GULP energy per Si atom -5570.942577 kJ/mol
# Density = 1.524589 g / cm^3
# Si number density = 15.280665 Si / 1000 Ang^3
#
#
#
# Elastic Constant Matrix: (Units=GPa)
#
#
# Indices 1 2 3 4 5 6 
#
# 1 89.6265 12.2150 66.0578 0.0000 0.0000 0.0000
# 2 12.2150 21.0174 19.4952 0.0000 0.0000 0.0000
# 3 66.0578 19.4952 137.1319 0.0000 0.0000 0.0000
# 4 0.0000 0.0000 0.0000 112.2797 0.0000 0.0000
# 5 0.0000 0.0000 0.0000 0.0000 20.3013 0.0000
# 6 0.0000 0.0000 0.0000 0.0000 0.0000 0.2476
#
#
#
# Elastic Compliance Matrix: (Units=1/GPa)
#
#
# Indices 1 2 3 4 5 6 
#
# 1 0.017431 -0.002698 -0.008013 0.000000 0.000000 0.000000
# 2 -0.002698 0.055224 -0.006551 0.000000 0.000000 0.000000
# 3 -0.008013 -0.006551 0.012084 0.000000 0.000000 0.000000
# 4 0.000000 0.000000 0.000000 0.008906 0.000000 0.000000
# 5 0.000000 0.000000 0.000000 0.000000 0.049258 0.000000
# 6 0.000000 0.000000 0.000000 0.000000 0.000000 4.038598
#
#
# Mechanical properties :
#
#
# Convention : Reuss Voigt Hill
#
# Bulk Modulus (GPa) = 19.91463 49.25688 34.58576
# Shear Modulus (GPa) = 1.18126 36.56624 18.87375
#
# Velocity S-wave (km/s) = 0.88018 4.89711 3.51827
# Velocity P-wave (km/s) = 3.75417 8.01750 6.25996
#
# Compressibility (1/GPa) = 0.05021434
#
# Stress axis : x y z
#
# Youngs Moduli (GPa) = 57.36875 18.10796 82.75641
#
# Poissons Ratio (x) = 0.04885 0.66314
# Poissons Ratio (y) = 0.15477 0.54217
# Poissons Ratio (z) = 0.45971 0.11863
#
# Static dielectric constant tensor:
#      x y z
#    x 1.490590 0.000000 0.000000 
#    y 0.000000 1.524000 0.000000 
#    z 0.000000 0.000000 1.528290 
# 
# From -- ./inp_files/34626.got.cif
#   From: 2010.05.17/outbox.cif.g08.bks.cpg/sg47_18_cif.got.tgz:34626.got - 2010.06.03 20:15:42.
