data_PCOD9381226
_publ_section_title
;
Structure prediction by ZEFSAII (Michael W. Deem and Ramdas Pophale) SiO2 
 PCOD9381226
Probable space group: P M M M
;
_chemical_formula_sum "Si O2"
_cell_formula_units_Z 64
_cell_length_a 7.400262
_cell_length_b 32.668120
_cell_length_c 14.783446
_cell_angle_alpha 90.000000
_cell_angle_beta 90.000000
_cell_angle_gamma 90.000000
_cell_volume 3573.937203
_symmetry_space_group_name_H-M "P M M M"
_symmetry_group_IT_number 47
_symmetry_cell_setting 'orthorhombic'
loop_
_space_group_symop_operation_xyz
x,y,z
-x,-y,z
x,-y,-z
-x,y,-z
-x,-y,-z
x,y,-z
-x,y,z
x,-y,z
loop_
_atom_site_type_symbol
_atom_site_label
_atom_site_fract_x
_atom_site_fract_y
_atom_site_fract_z
Si Si1 0.721231 0.133600 0.894749
Si Si2 0.787800 0.625632 0.205850
Si Si3 0.717857 0.044009 0.107909
Si Si4 0.279415 0.249527 0.601203
Si Si5 0.779800 0.454325 0.105080
Si Si6 0.712393 0.788907 0.783517
Si Si7 0.282596 0.655963 0.399674
Si Si8 0.218482 0.706927 0.895660
O O1 0.500000 0.133752 0.895030
O O2 0.779821 0.088652 0.860054
O O3 0.785991 0.171475 0.834939
O O4 0.774615 0.138520 0.000000
O O5 0.714371 0.583470 0.165132
O O6 0.771132 0.629680 0.313454
O O7 0.714830 0.666922 0.158674
O O8 0.000000 0.625524 0.183591
O O9 0.500000 0.043637 0.118001
O O10 0.784608 0.000000 0.143839
O O11 0.753594 0.044135 0.000000
O O12 0.225168 0.236875 0.500000
O O13 0.500000 0.249609 0.602927
O O14 0.213816 0.222534 0.684699
O O15 0.223471 0.296883 0.614678
O O16 0.720168 0.500000 0.132275
O O17 0.000000 0.454868 0.108318
O O18 0.730762 0.447818 0.000000
O O19 0.500000 0.796997 0.770761
O O20 0.728333 0.748577 0.845500
O O21 0.221083 0.642956 0.500000
O O22 0.500000 0.656478 0.401292
O O23 0.000000 0.706175 0.895544
O O24 0.278090 0.706240 0.000000
#
# Coordination Sequence:
#
# PCOD9381226 Si02
#       8
#     8   8   8   8   8   8   8   8
#     4   8  13  19  28  47  72  95 123 159 193 224
#     4  10  18  28  45  67  86 104 133 170 199 227
#     4   7   9  14  24  38  61  93 121 147 188 235
#     4   8  14  25  40  56  74  98 129 164 198 230
#     4   8  14  26  45  67  88 110 136 165 199 238
#     4  10  17  26  41  57  75 101 134 167 194 225
#     4   9  17  30  46  62  82 108 136 165 200 240
#     4  10  20  30  38  54  84 114 132 151 186 232
#
# _framework density 17.907420999999999
#
# number of rings (size 3 to 8) (size 9 to 14) (size 15 to 20)
#    0.000    3.250    1.250    3.000    0.000    2.500 
#    0.000    0.000    0.000    2.250    0.000    3.500 
#    0.000    1.000    0.000   11.625    0.000    4.000 
#
# Total GULP energy -356645.360779 kJ/mol
# GULP energy per Si atom -5572.583762 kJ/mol
# Density = 1.786666 g / cm^3
# Si number density = 17.907421 Si / 1000 Ang^3
#
#
#
# Elastic Constant Matrix: (Units=GPa)
#
#
# Indices 1 2 3 4 5 6 
#
# 1 56.1781 2.0813 -4.1313 0.0000 0.0000 0.0000
# 2 2.0813 180.5356 91.0495 0.0000 0.0000 0.0000
# 3 -4.1313 91.0495 116.5962 0.0000 0.0000 0.0000
# 4 0.0000 0.0000 0.0000 10.2402 0.0000 0.0000
# 5 0.0000 0.0000 0.0000 0.0000 7.4934 0.0000
# 6 0.0000 0.0000 0.0000 0.0000 0.0000 4.5508
#
#
#
# Elastic Compliance Matrix: (Units=1/GPa)
#
#
# Indices 1 2 3 4 5 6 
#
# 1 0.017929 -0.000870 0.001314 0.000000 0.000000 0.000000
# 2 -0.000870 0.009180 -0.007199 0.000000 0.000000 0.000000
# 3 0.001314 -0.007199 0.014245 0.000000 0.000000 0.000000
# 4 0.000000 0.000000 0.000000 0.097654 0.000000 0.000000
# 5 0.000000 0.000000 0.000000 0.000000 0.133451 0.000000
# 6 0.000000 0.000000 0.000000 0.000000 0.000000 0.219740
#
#
# Mechanical properties :
#
#
# Convention : Reuss Voigt Hill
#
# Bulk Modulus (GPa) = 35.91277 59.03432 47.47355
# Shear Modulus (GPa) = 9.70890 22.07757 15.89324
#
# Velocity S-wave (km/s) = 2.33099 3.51504 2.98236
# Velocity P-wave (km/s) = 5.22904 7.03647 6.19899
#
# Compressibility (1/GPa) = 0.02784525
#
# Stress axis : x y z
#
# Youngs Moduli (GPa) = 55.77429 108.93264 70.19916
#
# Poissons Ratio (x) = 0.09472 -0.09226
# Poissons Ratio (y) = 0.04850 0.50539
# Poissons Ratio (z) = -0.07330 0.78425
#
# Static dielectric constant tensor:
#      x y z
#    x 1.722720 0.000000 0.000000 
#    y 0.000000 1.629270 0.000000 
#    z 0.000000 0.000000 1.595620 
# 
# From -- ./inp_files/22175.got.cif
#   From: 2010.05.17/outbox.cif.g08.bks.cpg/sg47_12_cif.got.tgz:22175.got - 2010.06.03 20:15:42.
