data_PCOD9381305
_publ_section_title
;
Structure prediction by ZEFSAII (Michael W. Deem and Ramdas Pophale) SiO2 
 PCOD9381305
Probable space group: P M M M
;
_chemical_formula_sum "Si O2"
_cell_formula_units_Z 56
_cell_length_a 15.980511
_cell_length_b 7.436472
_cell_length_c 21.241692
_cell_angle_alpha 90.000000
_cell_angle_beta 90.000000
_cell_angle_gamma 90.000000
_cell_volume 2524.333419
_symmetry_space_group_name_H-M "P M M M"
_symmetry_group_IT_number 47
_symmetry_cell_setting 'orthorhombic'
loop_
_space_group_symop_operation_xyz
x,y,z
-x,-y,z
x,-y,-z
-x,y,-z
-x,-y,-z
x,y,-z
-x,y,z
x,-y,z
loop_
_atom_site_type_symbol
_atom_site_label
_atom_site_fract_x
_atom_site_fract_y
_atom_site_fract_z
Si Si1 0.641991 0.716652 0.266507
Si Si2 0.776427 0.779703 0.431192
Si Si3 0.408485 0.280463 0.872993
Si Si4 0.234748 0.284949 0.069558
Si Si5 0.091905 0.215896 0.171842
Si Si6 0.589586 0.209180 0.404295
Si Si7 0.832212 0.207805 0.701546
O O1 0.643930 0.500000 0.268109
O O2 0.603160 0.771066 0.200158
O O3 0.594648 0.780528 0.328553
O O4 0.736854 0.784802 0.273087
O O5 0.809514 0.730475 0.500000
O O6 0.679346 0.717823 0.426249
O O7 0.825760 0.716096 0.369209
O O8 0.774355 0.000000 0.427603
O O9 0.500000 0.222775 0.896011
O O10 0.407804 0.500000 0.874809
O O11 0.326301 0.217354 0.909680
O O12 0.242348 0.500000 0.065970
O O13 0.164936 0.252538 0.122196
O O14 0.211587 0.217813 0.000000
O O15 0.113832 0.287308 0.241678
O O16 0.000000 0.278638 0.151392
O O17 0.089385 0.000000 0.177158
O O18 0.500000 0.287590 0.424273
O O19 0.589199 0.000000 0.423107
O O20 0.858098 0.000000 0.694307
#
# Coordination Sequence:
#
# PCOD9381305 Si02
#       7
#     8   8   8   8   8   8   8
#     4  10  17  27  46  69  96 129 166 208 255 299
#     4   8  14  25  43  67  93 125 165 206 249 298
#     4   9  17  29  47  73 103 134 169 207 248 295
#     4  10  21  37  56  79 108 139 172 213 256 298
#     4  10  21  37  58  81 105 135 169 207 256 315
#     4   9  17  27  39  60  92 128 168 212 254 297
#     4   9  17  31  51  73  98 127 164 207 251 299
#
# _framework density 22.184073999999999
#
# number of rings (size 3 to 8) (size 9 to 14) (size 15 to 20)
#    0.000    2.714    1.429    1.714    0.000    2.286 
#    0.000    4.286    0.000    8.571    0.000    8.000 
#    0.000    0.000    0.000    6.429    0.000    7.143 
#
# Total GULP energy -312452.473194 kJ/mol
# GULP energy per Si atom -5579.508450 kJ/mol
# Density = 2.213358 g / cm^3
# Si number density = 22.184074 Si / 1000 Ang^3
#
#
#
# Elastic Constant Matrix: (Units=GPa)
#
#
# Indices 1 2 3 4 5 6 
#
# 1 107.3261 -2.5728 72.2580 0.0000 0.0000 0.0000
# 2 -2.5728 73.9449 8.2243 0.0000 0.0000 0.0000
# 3 72.2580 8.2243 165.9305 0.0000 0.0000 0.0000
# 4 0.0000 0.0000 0.0000 14.0872 0.0000 0.0000
# 5 0.0000 0.0000 0.0000 0.0000 15.9831 0.0000
# 6 0.0000 0.0000 0.0000 0.0000 0.0000 6.7557
#
#
#
# Elastic Compliance Matrix: (Units=1/GPa)
#
#
# Indices 1 2 3 4 5 6 
#
# 1 0.013272 0.001111 -0.005835 0.000000 0.000000 0.000000
# 2 0.001111 0.013692 -0.001162 0.000000 0.000000 0.000000
# 3 -0.005835 -0.001162 0.008625 0.000000 0.000000 0.000000
# 4 0.000000 0.000000 0.000000 0.070986 0.000000 0.000000
# 5 0.000000 0.000000 0.000000 0.000000 0.062566 0.000000
# 6 0.000000 0.000000 0.000000 0.000000 0.000000 0.148023
#
#
# Mechanical properties :
#
#
# Convention : Reuss Voigt Hill
#
# Bulk Modulus (GPa) = 41.98811 55.89117 48.93964
# Shear Modulus (GPa) = 14.84228 25.31801 20.08015
#
# Velocity S-wave (km/s) = 2.58941 3.38193 3.01185
# Velocity P-wave (km/s) = 5.28283 6.36388 5.84838
#
# Compressibility (1/GPa) = 0.02381627
#
# Stress axis : x y z
#
# Youngs Moduli (GPa) = 75.34477 73.03794 115.94060
#
# Poissons Ratio (x) = -0.08113 0.67649
# Poissons Ratio (y) = -0.08369 0.13476
# Poissons Ratio (z) = 0.43962 0.08489
#
# Static dielectric constant tensor:
#      x y z
#    x 1.797330 0.000000 0.000000 
#    y 0.000000 1.926150 0.000000 
#    z 0.000000 0.000000 1.820050 
# 
# From -- ./inp_files/31300.got.cif
#   From: 2010.05.17/outbox.cif.g08.bks.cpg/sg47_16_cif.got.tgz:31300.got - 2010.06.03 20:15:42.
