data_PCOD9381124
_publ_section_title
;
Structure prediction by ZEFSAII (Michael W. Deem and Ramdas Pophale) SiO2 
 PCOD9381124
Probable space group: I M A 2
;
_chemical_formula_sum "Si O2"
_cell_formula_units_Z 32
_cell_length_a 9.000000
_cell_length_b 24.000000
_cell_length_c 15.000000
_cell_angle_alpha 90.000000
_cell_angle_beta 90.000000
_cell_angle_gamma 90.000000
_cell_volume 3240.000000
_symmetry_space_group_name_H-M "I M A 2"
_symmetry_group_IT_number 46
_symmetry_cell_setting 'orthorhombic'
loop_
_space_group_symop_operation_xyz
x,y,z
-x,-y,z
1/2-x,y,z
1/2+x,-y,z
1/2+x,1/2+y,1/2+z
1/2-x,1/2-y,1/2+z
-x,1/2+y,1/2+z
x,1/2-y,1/2+z
loop_
_atom_site_type_symbol
_atom_site_label
_atom_site_fract_x
_atom_site_fract_y
_atom_site_fract_z
Si Si1 0.067740 0.122615 0.273750
Si Si2 0.570116 0.638604 0.146597
Si Si3 0.572320 0.438660 0.298832
Si Si4 0.925252 0.138782 0.461770
Si Si5 0.080982 0.373737 0.454382
Si Si6 0.419466 0.249500 0.927934
Si Si7 0.419696 0.257133 0.716913
Si Si8 0.584011 0.550167 0.620062
O O1 0.250000 0.125337 0.278603
O O2 0.016815 0.180356 0.225535
O O3 0.019184 0.072007 0.211925
O O4 0.000246 0.116785 0.371250
O O5 0.750000 0.637114 0.151199
O O6 0.499040 0.598797 0.220719
O O7 0.520476 0.703159 0.165362
O O8 0.509447 0.620033 0.050703
O O9 0.500000 0.500000 0.298783
O O10 0.750000 0.442410 0.289922
O O11 0.527006 0.406839 0.389521
O O12 0.750000 0.128227 0.465499
O O13 0.962969 0.204404 0.453691
O O14 0.250000 0.375995 0.415945
O O15 0.043162 0.309667 0.467668
O O16 0.086184 0.400563 0.550587
O O17 0.250000 0.267160 0.952923
O O18 0.417230 0.240512 0.821431
O O19 0.250000 0.264079 0.684417
O O20 0.500000 0.500000 0.576312
O O21 0.750000 0.531412 0.638520
#
# Coordination Sequence:
#
# PCOD9381124 Si02
#       8
#     8   8   8   8   8   8   8   8
#     4   9  19  39  61  84 111 154 204 248 295 355
#     4  11  21  38  63  89 117 157 203 249 298 355
#     4  12  25  41  61  87 123 162 201 247 296 357
#     4  11  23  37  55  87 125 158 193 246 308 361
#     4  10  20  37  61  89 119 159 203 245 292 352
#     4   9  17  34  58  84 116 157 200 235 280 351
#     4   8  15  30  57  85 109 142 192 240 282 342
#     4  10  22  38  61  87 116 151 200 251 295 347
#
# _framework density 9.8765429999999999
#
# number of rings (size 3 to 8) (size 9 to 14) (size 15 to 20)
#    0.000    2.000    1.250    3.750    1.750    2.500 
#    0.000    1.250    0.000    1.500    0.000    0.000 
#    0.000    0.000    0.000    0.000    0.000    0.000 
#
# Total GULP energy -178417.231278 kJ/mol
# GULP energy per Si atom -5575.538477 kJ/mol
# Density = 0.985406 g / cm^3
# Si number density = 9.876543 Si / 1000 Ang^3
#
#
#
# Elastic Constant Matrix: (Units=GPa)
#
#
# Indices 1 2 3 4 5 6 
#
# 1 67.8635 0.6596 29.3116 0.0000 0.0000 0.0000
# 2 0.6596 -3.6450 -0.6014 0.0001 0.0000 0.0000
# 3 29.3116 -0.6014 63.9449 0.0002 0.0000 0.0000
# 4 0.0000 0.0001 0.0002 -33.0661 0.0000 0.0000
# 5 0.0000 0.0000 0.0000 0.0000 17.8531 0.0000
# 6 0.0000 0.0000 0.0000 0.0000 0.0000 15.9062
#
#
#
# Elastic Compliance Matrix: (Units=1/GPa)
#
#
# Indices 1 2 3 4 5 6 
#
# 1 0.018293 0.004686 -0.008341 0.000000 0.000000 0.000000
# 2 0.004686 -0.272726 -0.004713 -0.000001 0.000000 0.000000
# 3 -0.008341 -0.004713 0.019418 0.000000 0.000000 0.000000
# 4 0.000000 -0.000001 0.000000 -0.030242 0.000000 0.000000
# 5 0.000000 0.000000 0.000000 0.000000 0.056013 0.000000
# 6 0.000000 0.000000 0.000000 0.000000 0.000000 0.062869
#
#
# Mechanical properties :
#
#
# Convention : Reuss Voigt Hill
#
# Bulk Modulus (GPa) = -3.97217 20.76700 8.39741
# Shear Modulus (GPa) = -23.41280 6.72488 -8.34396
#
# Velocity S-wave (km/s) = -3.44651 1.84712 -2.05750
# Velocity P-wave (km/s) = 4.22531 3.88398 1.17643
#
# Compressibility (1/GPa) = -0.25175130
#
# Stress axis : x y z
#
# Youngs Moduli (GPa) = 54.66701 -3.66669 51.49970
#
# Poissons Ratio (x) = 0.01718 0.42956
# Poissons Ratio (y) = -0.25618 0.24271
# Poissons Ratio (z) = 0.45598 -0.01728
#
# Static dielectric constant tensor:
#      x y z
#    x 1.674760 0.000000 0.000000 
#    y 0.000000 1.739700 0.000000 
#    z 0.000000 0.000000 1.722050 
# 
# From -- ./inp_files/14511.got.cif
#   From: 2010.05.17/outbox.ucp.g08.bks.cvg/sg46_8_cif.got.tgz:14511.got - 2010.06.11 16:34:52.
