data_PCOD9381924
_publ_section_title
;
Structure prediction by ZEFSAII (Michael W. Deem and Ramdas Pophale) SiO2 
 PCOD9381924
Probable space group: P M M M
;
_chemical_formula_sum "Si O2"
_cell_formula_units_Z 64
_cell_length_a 31.497180
_cell_length_b 14.618668
_cell_length_c 9.164534
_cell_angle_alpha 90.000000
_cell_angle_beta 90.000000
_cell_angle_gamma 90.000000
_cell_volume 4219.780513
_symmetry_space_group_name_H-M "P M M M"
_symmetry_group_IT_number 47
_symmetry_cell_setting 'orthorhombic'
loop_
_space_group_symop_operation_xyz
x,y,z
-x,-y,z
x,-y,-z
-x,y,-z
-x,-y,-z
x,y,-z
-x,y,z
x,-y,z
loop_
_atom_site_type_symbol
_atom_site_label
_atom_site_fract_x
_atom_site_fract_y
_atom_site_fract_z
Si Si1 0.747044 0.898510 0.823004
Si Si2 0.122952 0.717674 0.673658
Si Si3 0.632959 0.608745 0.673506
Si Si4 0.198942 0.608575 0.826569
Si Si5 0.452932 0.610940 0.829742
Si Si6 0.153247 0.105525 0.825707
Si Si7 0.049954 0.607561 0.172529
Si Si8 0.711689 0.293381 0.175663
O O1 0.796744 0.884443 0.787132
O O2 0.720188 0.811108 0.775511
O O3 0.734108 0.000000 0.771845
O O4 0.745391 0.899540 0.000000
O O5 0.124248 0.718399 0.500000
O O6 0.162663 0.660284 0.737735
O O7 0.127340 0.819467 0.738239
O O8 0.080611 0.669441 0.732582
O O9 0.633953 0.619897 0.500000
O O10 0.637310 0.500000 0.705957
O O11 0.587504 0.640369 0.736727
O O12 0.671468 0.661694 0.748269
O O13 0.198109 0.500000 0.799637
O O14 0.245265 0.649892 0.792997
O O15 0.191358 0.623736 0.000000
O O16 0.500000 0.641993 0.781490
O O17 0.453559 0.500000 0.823470
O O18 0.447472 0.635683 0.000000
O O19 0.141431 0.000000 0.797431
O O20 0.149576 0.121563 0.000000
O O21 0.058391 0.500000 0.200615
O O22 0.000000 0.623823 0.199183
O O23 0.058007 0.623227 0.000000
O O24 0.705927 0.294908 0.000000
#
# Coordination Sequence:
#
# PCOD9381924 Si02
#       8
#     8   8   8   8   8   8   8   8
#     4   8  14  27  49  72  89 110 149 200 243 275
#     4  12  23  32  48  75 106 132 154 189 239 292
#     4  10  20  30  40  59  91 128 160 191 231 280
#     4  10  20  33  48  66  91 127 170 206 230 265
#     4   8  14  26  44  63  82 109 151 199 238 273
#     4   9  17  33  56  75  93 122 162 203 238 277
#     4   9  19  37  59  78  96 124 164 205 238 273
#     4  10  18  30  48  66  88 120 159 199 234 271
#
# _framework density 15.166665999999999
#
# number of rings (size 3 to 8) (size 9 to 14) (size 15 to 20)
#    0.000    2.500    1.250    3.750    0.000    4.500 
#    0.000    1.875    0.000    0.750    0.000    2.625 
#    0.000    0.500    0.000    5.750    0.000    1.875 
#
# Total GULP energy -356816.624617 kJ/mol
# GULP energy per Si atom -5575.259760 kJ/mol
# Density = 1.513215 g / cm^3
# Si number density = 15.166666 Si / 1000 Ang^3
#
#
#
# Elastic Constant Matrix: (Units=GPa)
#
#
# Indices 1 2 3 4 5 6 
#
# 1 97.9226 67.6070 62.3492 0.0000 0.0000 0.0000
# 2 67.6070 100.2306 60.2952 0.0000 0.0000 0.0000
# 3 62.3492 60.2952 58.6935 0.0000 0.0000 0.0000
# 4 0.0000 0.0000 0.0000 9.8957 0.0000 0.0000
# 5 0.0000 0.0000 0.0000 0.0000 -12.1312 0.0000
# 6 0.0000 0.0000 0.0000 0.0000 0.0000 5.8549
#
#
#
# Elastic Compliance Matrix: (Units=1/GPa)
#
#
# Indices 1 2 3 4 5 6 
#
# 1 0.031888 -0.002962 -0.030831 0.000000 0.000000 0.000000
# 2 -0.002962 0.026392 -0.023965 0.000000 0.000000 0.000000
# 3 -0.030831 -0.023965 0.074409 0.000000 0.000000 0.000000
# 4 0.000000 0.000000 0.000000 0.101054 0.000000 0.000000
# 5 0.000000 0.000000 0.000000 0.000000 -0.082432 0.000000
# 6 0.000000 0.000000 0.000000 0.000000 0.000000 0.170798
#
#
# Mechanical properties :
#
#
# Convention : Reuss Voigt Hill
#
# Bulk Modulus (GPa) = 58.23793 70.81661 64.52727
# Shear Modulus (GPa) = 11.27778 5.16356 8.22067
#
# Velocity S-wave (km/s) = 2.72984 1.84714 2.33066
# Velocity P-wave (km/s) = 6.95831 7.16539 7.06261
#
# Compressibility (1/GPa) = 0.01717094
#
# Stress axis : x y z
#
# Youngs Moduli (GPa) = 31.35978 37.89088 13.43926
#
# Poissons Ratio (x) = 0.11223 0.41435
# Poissons Ratio (y) = 0.09288 0.32208
# Poissons Ratio (z) = 0.96687 0.90807
#
# Static dielectric constant tensor:
#      x y z
#    x 1.490320 0.000000 0.000000 
#    y 0.000000 1.504930 0.000000 
#    z 0.000000 0.000000 1.496680 
# 
# From -- ./inp_files/14330.got.cif
#   From: 2010.05.17/outbox.cif.g08.bks.cpg/sg47_8_cif.got.tgz:14330.got - 2010.06.03 20:15:42.
