data_PCOD9381159
_publ_section_title
;
Structure prediction by ZEFSAII (Michael W. Deem and Ramdas Pophale) SiO2 
 PCOD9381159
Probable space group: I M A 2
;
_chemical_formula_sum "Si O2"
_cell_formula_units_Z 24
_cell_length_a 18.000000
_cell_length_b 15.000000
_cell_length_c 9.000000
_cell_angle_alpha 90.000000
_cell_angle_beta 90.000000
_cell_angle_gamma 90.000000
_cell_volume 2430.000000
_symmetry_space_group_name_H-M "I M A 2"
_symmetry_group_IT_number 46
_symmetry_cell_setting 'orthorhombic'
loop_
_space_group_symop_operation_xyz
x,y,z
-x,-y,z
1/2-x,y,z
1/2+x,-y,z
1/2+x,1/2+y,1/2+z
1/2-x,1/2-y,1/2+z
-x,1/2+y,1/2+z
x,1/2-y,1/2+z
loop_
_atom_site_type_symbol
_atom_site_label
_atom_site_fract_x
_atom_site_fract_y
_atom_site_fract_z
Si Si1 0.586419 0.155382 0.137450
Si Si2 0.091060 0.510582 0.218873
Si Si3 0.340097 0.021949 0.044481
Si Si4 0.908420 0.686940 0.709244
Si Si5 0.658062 0.647459 0.036576
Si Si6 0.340967 0.690452 0.315304
O O1 0.497880 0.171473 0.174400
O O2 0.635964 0.215506 0.246158
O O3 0.614847 0.052984 0.139006
O O4 0.614550 0.182697 0.971536
O O5 0.125193 0.480935 0.378750
O O6 0.129574 0.449009 0.094168
O O7 0.121653 0.612502 0.213236
O O8 0.000000 0.500000 0.217065
O O9 0.250000 0.007369 0.042228
O O10 0.361646 0.115876 0.113858
O O11 0.878140 0.782687 0.654030
O O12 0.881899 0.670806 0.879326
O O13 0.750000 0.652121 0.030038
O O14 0.250000 0.680382 0.328802
#
# Coordination Sequence:
#
# PCOD9381159 Si02
#       6
#     8   8   8   8   8   8
#     4  11  23  41  63  91 127 166 207 258 311 369
#     4  11  23  41  64  92 126 166 207 256 312 370
#     4  11  22  41  65  93 126 167 210 256 308 367
#     4  12  25  42  64  92 125 166 209 258 314 372
#     4  12  25  43  64  92 124 162 208 260 313 373
#     4  11  22  40  64  94 126 165 209 256 308 367
#
# _framework density 9.8765429999999999
#
# number of rings (size 3 to 8) (size 9 to 14) (size 15 to 20)
#    0.000    0.667    0.000   11.000    0.000    2.667 
#    0.000    3.333    0.000    0.000    0.000    0.000 
#    0.000    0.000    0.000    0.000    0.000    0.000 
#
# Total GULP energy -134026.210179 kJ/mol
# GULP energy per Si atom -5584.425424 kJ/mol
# Density = 0.985406 g / cm^3
# Si number density = 9.876543 Si / 1000 Ang^3
#
#
#
# Elastic Constant Matrix: (Units=GPa)
#
#
# Indices 1 2 3 4 5 6 
#
# 1 236.1327 12.2954 30.3100 0.0000 0.0000 0.0000
# 2 12.2954 44.0995 9.0125 0.0000 0.0000 0.0000
# 3 30.3100 9.0125 74.5907 0.0000 0.0000 0.0000
# 4 0.0000 0.0000 0.0000 47.8031 0.0000 0.0000
# 5 0.0000 0.0000 0.0000 0.0000 39.5362 0.0000
# 6 0.0000 0.0000 0.0000 0.0000 0.0000 41.6679
#
#
#
# Elastic Compliance Matrix: (Units=1/GPa)
#
#
# Indices 1 2 3 4 5 6 
#
# 1 0.004503 -0.000904 -0.001721 0.000000 0.000000 0.000000
# 2 -0.000904 0.023432 -0.002464 0.000000 0.000000 0.000000
# 3 -0.001721 -0.002464 0.014403 0.000000 0.000000 0.000000
# 4 0.000000 0.000000 0.000000 0.020919 0.000000 0.000000
# 5 0.000000 0.000000 0.000000 0.000000 0.025293 0.000000
# 6 0.000000 0.000000 0.000000 0.000000 0.000000 0.023999
#
#
# Mechanical properties :
#
#
# Convention : Reuss Voigt Hill
#
# Bulk Modulus (GPa) = 31.09331 50.89541 40.99436
# Shear Modulus (GPa) = 37.46829 46.01511 41.74170
#
# Velocity S-wave (km/s) = 4.35999 4.83174 4.60191
# Velocity P-wave (km/s) = 6.41258 7.54648 7.00252
#
# Compressibility (1/GPa) = 0.03216126
#
# Stress axis : x y z
#
# Youngs Moduli (GPa) = 222.08338 42.67759 69.42841
#
# Poissons Ratio (x) = 0.03857 0.11945
# Poissons Ratio (y) = 0.20072 0.17106
# Poissons Ratio (z) = 0.38210 0.10515
#
# Static dielectric constant tensor:
#      x y z
#    x 1.664510 0.000000 0.000000 
#    y 0.000000 1.735500 0.000000 
#    z 0.000000 0.000000 1.722510 
# 
# From -- ./inp_files/5706.got.cif
#   From: 2010.05.17/outbox.ucp.g08.bks.cvg/sg46_3_cif.got.tgz:5706.got - 2010.06.11 16:34:52.
