data_PCOD9381012
_publ_section_title
;
Structure prediction by ZEFSAII (Michael W. Deem and Ramdas Pophale) SiO2 
 PCOD9381012
Probable space group: I M A 2
;
_chemical_formula_sum "Si O2"
_cell_formula_units_Z 40
_cell_length_a 22.319341
_cell_length_b 6.514833
_cell_length_c 10.628282
_cell_angle_alpha 90.000000
_cell_angle_beta 90.000000
_cell_angle_gamma 90.000000
_cell_volume 1545.424255
_symmetry_space_group_name_H-M "I M A 2"
_symmetry_group_IT_number 46
_symmetry_cell_setting 'orthorhombic'
loop_
_space_group_symop_operation_xyz
x,y,z
-x,-y,z
1/2-x,y,z
1/2+x,-y,z
1/2+x,1/2+y,1/2+z
1/2-x,1/2-y,1/2+z
-x,1/2+y,1/2+z
x,1/2-y,1/2+z
loop_
_atom_site_type_symbol
_atom_site_label
_atom_site_fract_x
_atom_site_fract_y
_atom_site_fract_z
Si Si1 0.156893 0.626314 0.233160
Si Si2 0.434990 0.214359 0.756879
Si Si3 0.993953 0.243873 0.511008
Si Si4 0.143417 0.883278 0.002227
Si Si5 0.184467 0.262807 0.852958
O O1 0.091080 0.515451 0.226403
O O2 0.172112 0.776684 0.122136
O O3 0.163591 0.722112 0.371403
O O4 0.192160 0.413743 0.245687
O O5 0.468558 0.298987 0.636164
O O6 0.377876 0.354681 0.800283
O O7 0.475420 0.199170 0.879301
O O8 0.926802 0.331106 0.514128
O O9 0.000000 0.000000 0.509483
O O10 0.162289 0.120013 0.972850
O O11 0.250000 0.356203 0.874438
#
# Coordination Sequence:
#
# PCOD9381012 Si02
#       5
#     8   8   8   8   8
#     4   8  18  36  53  84 115 151 199 239 306 352
#     4   9  23  37  58  86 117 160 196 251 315 362
#     4  12  20  38  57  88 122 154 201 254 310 382
#     4   9  18  31  58  83 120 149 196 241 302 362
#     4   8  19  38  60  83 117 158 203 246 297 363
#
# _framework density 25.882857000000001
#
# number of rings (size 3 to 8) (size 9 to 14) (size 15 to 20)
#    2.400    0.000    2.000    1.200    2.800    0.800 
#   14.400    1.000    0.000    1.200    0.000    0.000 
#    0.000    0.000    0.000    0.000    0.000    0.000 
#
# Total GULP energy -111340.704910 kJ/mol
# GULP energy per Si atom -5567.035245 kJ/mol
# Density = 2.582395 g / cm^3
# Si number density = 25.882857 Si / 1000 Ang^3
#
#
#
# Elastic Constant Matrix: (Units=GPa)
#
#
# Indices 1 2 3 4 5 6 
#
# 1 152.5067 -5.4242 22.4061 0.0000 0.0000 0.0000
# 2 -5.4242 65.5638 9.4435 0.0000 0.0000 0.0000
# 3 22.4061 9.4435 155.0177 0.0000 0.0000 0.0000
# 4 0.0000 0.0000 0.0000 10.2156 0.0000 0.0000
# 5 0.0000 0.0000 0.0000 0.0000 351.4846 0.0000
# 6 0.0000 0.0000 0.0000 0.0000 0.0000 -6.0061
#
#
#
# Elastic Compliance Matrix: (Units=1/GPa)
#
#
# Indices 1 2 3 4 5 6 
#
# 1 0.006731 0.000703 -0.001016 0.000000 0.000000 0.000000
# 2 0.000703 0.015461 -0.001043 0.000000 0.000000 0.000000
# 3 -0.001016 -0.001043 0.006661 0.000000 0.000000 0.000000
# 4 0.000000 0.000000 0.000000 0.097889 0.000000 0.000000
# 5 0.000000 0.000000 0.000000 0.000000 0.002845 0.000000
# 6 0.000000 0.000000 0.000000 0.000000 0.000000 -0.166497
#
#
# Mechanical properties :
#
#
# Convention : Reuss Voigt Hill
#
# Bulk Modulus (GPa) = 38.25373 47.32657 42.79015
# Shear Modulus (GPa) = -196.20913 94.24966 -50.97974
#
# Velocity S-wave (km/s) = -8.71614 6.04094 -4.44287
# Velocity P-wave (km/s) = 9.29964 8.18425 3.12261
#
# Compressibility (1/GPa) = 0.02614124
#
# Stress axis : x y z
#
# Youngs Moduli (GPa) = 148.55889 64.67972 150.12161
#
# Poissons Ratio (x) = -0.04548 0.15249
# Poissons Ratio (y) = -0.10447 0.15665
# Poissons Ratio (z) = 0.15090 0.06749
#
# Static dielectric constant tensor:
#      x y z
#    x 1.363980 0.000000 0.000000 
#    y 0.000000 2.152900 0.000000 
#    z 0.000000 0.000000 2.020180 
# 
# From -- ./inp_files/7717.got.cif
#   From: 2010.05.17/outbox.cif.g08.bks.cpg/sg46_4_cif.got.tgz:7717.got - 2010.06.03 19:58:25.
