data_PCOD9381163
_publ_section_title
;
Structure prediction by ZEFSAII (Michael W. Deem and Ramdas Pophale) SiO2 
 PCOD9381163
Probable space group: P M M M
;
_chemical_formula_sum "Si O2"
_cell_formula_units_Z 49
_cell_length_a 31.570936
_cell_length_b 8.984144
_cell_length_c 9.151600
_cell_angle_alpha 90.000000
_cell_angle_beta 90.000000
_cell_angle_gamma 90.000000
_cell_volume 2595.740013
_symmetry_space_group_name_H-M "P M M M"
_symmetry_group_IT_number 47
_symmetry_cell_setting 'orthorhombic'
loop_
_space_group_symop_operation_xyz
x,y,z
-x,-y,z
x,-y,-z
-x,y,-z
-x,-y,-z
x,y,-z
-x,y,z
x,-y,z
loop_
_atom_site_type_symbol
_atom_site_label
_atom_site_fract_x
_atom_site_fract_y
_atom_site_fract_z
Si Si1 0.500000 0.821767 0.328498
Si Si2 0.165329 0.180717 0.332254
Si Si3 0.251063 0.179977 0.170532
Si Si4 0.668437 0.320771 0.329073
Si Si5 0.000000 0.000000 0.500000
Si Si6 0.580732 0.320826 0.171799
Si Si7 0.077354 0.819119 0.825741
Si Si8 0.000000 0.704709 0.665317
O O1 0.500000 0.781507 0.500000
O O2 0.458577 0.755926 0.250810
O O3 0.500000 0.000000 0.316491
O O4 0.164195 0.232851 0.500000
O O5 0.207686 0.229654 0.249097
O O6 0.122377 0.218449 0.247386
O O7 0.166750 0.000000 0.335837
O O8 0.291500 0.246910 0.251642
O O9 0.252861 0.000000 0.178552
O O10 0.250807 0.221865 0.000000
O O11 0.666674 0.280244 0.500000
O O12 0.672290 0.500000 0.319127
O O13 0.624882 0.278284 0.248389
O O14 0.000000 0.125015 0.623004
O O15 0.576174 0.500000 0.184680
O O16 0.581619 0.283882 0.000000
O O17 0.042783 0.702963 0.760003
O O18 0.070819 0.000000 0.796767
O O19 0.078131 0.805356 0.000000
O O20 0.000000 0.639037 0.500000
#
# Coordination Sequence:
#
# PCOD9381163 Si02
#       8
#     4   8   8   8   1   8   8   4
#     4  11  24  39  56  82 116 149 182 217 258 304
#     4   9  17  27  41  58  82 116 155 196 243 297
#     4  10  20  34  51  74 102 133 169 210 256 307
#     4  10  21  37  58  82 107 137 175 215 258 307
#     4   8  16  20  30  40  64  92 142 188 234 288
#     4  10  21  38  60  84 108 139 178 218 260 307
#     4  10  16  22  32  48  71 102 143 191 239 290
#     4  10  15  22  30  43  65  98 141 188 236 288
#
# _framework density 18.877082999999999
#
# number of rings (size 3 to 8) (size 9 to 14) (size 15 to 20)
#    0.245    1.878    0.816    3.184    0.000    8.490 
#    0.000    0.000    0.000    0.000    0.000    0.000 
#    0.000    0.000    0.000    0.735    0.000   14.367 
#
# Total GULP energy -272829.966203 kJ/mol
# GULP energy per Si atom -5567.958494 kJ/mol
# Density = 1.883412 g / cm^3
# Si number density = 18.877083 Si / 1000 Ang^3
#
#
#
# Elastic Constant Matrix: (Units=GPa)
#
#
# Indices 1 2 3 4 5 6 
#
# 1 220.1839 34.6267 135.2921 0.0000 0.0000 0.0000
# 2 34.6267 22.6983 37.9225 0.0000 0.0000 0.0000
# 3 135.2921 37.9225 196.7985 0.0000 0.0000 0.0000
# 4 0.0000 0.0000 0.0000 2.8330 0.0000 0.0000
# 5 0.0000 0.0000 0.0000 0.0000 46.1775 0.0000
# 6 0.0000 0.0000 0.0000 0.0000 0.0000 70.8556
#
#
#
# Elastic Compliance Matrix: (Units=1/GPa)
#
#
# Indices 1 2 3 4 5 6 
#
# 1 0.008169 -0.004541 -0.004741 0.000000 0.000000 0.000000
# 2 -0.004541 0.067499 -0.009885 0.000000 0.000000 0.000000
# 3 -0.004741 -0.009885 0.010245 0.000000 0.000000 0.000000
# 4 0.000000 0.000000 0.000000 0.352981 0.000000 0.000000
# 5 0.000000 0.000000 0.000000 0.000000 0.021656 0.000000
# 6 0.000000 0.000000 0.000000 0.000000 0.000000 0.014113
#
#
# Mechanical properties :
#
#
# Convention : Reuss Voigt Hill
#
# Bulk Modulus (GPa) = 21.01766 95.04036 58.02901
# Shear Modulus (GPa) = 9.45439 39.42918 24.44178
#
# Velocity S-wave (km/s) = 2.24037 4.57522 3.60222
# Velocity P-wave (km/s) = 4.22498 8.85248 6.93603
#
# Compressibility (1/GPa) = 0.04757904
#
# Stress axis : x y z
#
# Youngs Moduli (GPa) = 122.41850 14.81512 97.60752
#
# Poissons Ratio (x) = 0.06728 0.46272
# Poissons Ratio (y) = 0.55594 0.96483
# Poissons Ratio (z) = 0.58034 0.14644
#
# Static dielectric constant tensor:
#      x y z
#    x 1.701110 0.000000 0.000000 
#    y 0.000000 1.649450 0.000000 
#    z 0.000000 0.000000 1.649930 
# 
# From -- ./inp_files/14025.got.cif
#   From: 2010.05.17/outbox.cif.g08.bks.cpg/sg47_8_cif.got.tgz:14025.got - 2010.06.03 20:15:42.
