data_PCOD9381718
_publ_section_title
;
Structure prediction by ZEFSAII (Michael W. Deem and Ramdas Pophale) SiO2 
 PCOD9381718
Probable space group: P M M M
;
_chemical_formula_sum "Si O2"
_cell_formula_units_Z 64
_cell_length_a 7.944296
_cell_length_b 14.915637
_cell_length_c 32.244834
_cell_angle_alpha 90.000000
_cell_angle_beta 90.000000
_cell_angle_gamma 90.000000
_cell_volume 3820.826949
_symmetry_space_group_name_H-M "P M M M"
_symmetry_group_IT_number 47
_symmetry_cell_setting 'orthorhombic'
loop_
_space_group_symop_operation_xyz
x,y,z
-x,-y,z
x,-y,-z
-x,y,-z
-x,-y,-z
x,y,-z
-x,y,z
x,-y,z
loop_
_atom_site_type_symbol
_atom_site_label
_atom_site_fract_x
_atom_site_fract_y
_atom_site_fract_z
Si Si1 0.299917 0.608462 0.544593
Si Si2 0.301292 0.100018 0.838475
Si Si3 0.296929 0.398391 0.952863
Si Si4 0.793994 0.396653 0.797061
Si Si5 0.797015 0.287558 0.284104
Si Si6 0.198514 0.900394 0.255092
Si Si7 0.199588 0.719500 0.875576
Si Si8 0.296559 0.603229 0.365097
O O1 0.228722 0.639360 0.500000
O O2 0.500000 0.628883 0.543915
O O3 0.286530 0.500000 0.545092
O O4 0.233458 0.636625 0.589684
O O5 0.500000 0.098252 0.830473
O O6 0.215375 0.118407 0.794107
O O7 0.265291 0.179991 0.869863
O O8 0.248804 0.000000 0.852257
O O9 0.500000 0.399395 0.953133
O O10 0.240022 0.500000 0.942323
O O11 0.240787 0.328183 0.918632
O O12 0.241028 0.378572 0.000000
O O13 0.739614 0.500000 0.798230
O O14 0.738709 0.347061 0.755053
O O15 0.735683 0.341589 0.837345
O O16 0.000000 0.396791 0.797329
O O17 0.731412 0.185941 0.278893
O O18 0.752619 0.334868 0.326967
O O19 0.000000 0.283929 0.281133
O O20 0.000000 0.905362 0.264547
O O21 0.271587 0.000000 0.262712
O O22 0.000000 0.723883 0.871135
O O23 0.500000 0.600514 0.367322
O O24 0.239182 0.500000 0.358455
#
# Coordination Sequence:
#
# PCOD9381718 Si02
#       8
#     8   8   8   8   8   8   8   8
#     4   7  10  19  36  55  75 103 141 183 222 258
#     4  10  20  33  50  72  96 121 151 190 237 283
#     4   9  19  36  55  75 102 133 160 189 230 277
#     4   9  17  28  41  61  90 121 151 181 212 252
#     4  10  18  29  43  60  86 121 151 177 219 269
#     4   9  17  31  49  66  85 112 151 194 230 267
#     4  11  20  32  51  74  98 125 159 196 229 265
#     4   9  17  27  39  59  86 115 149 185 218 257
#
# _framework density 16.750299999999999
#
# number of rings (size 3 to 8) (size 9 to 14) (size 15 to 20)
#    0.000    2.750    1.250    3.000    0.000    3.000 
#    0.000    0.625    0.000    3.000    0.000    4.375 
#    0.000    0.500    0.000    6.250    0.000    0.250 
#
# Total GULP energy -356586.159312 kJ/mol
# GULP energy per Si atom -5571.658739 kJ/mol
# Density = 1.671218 g / cm^3
# Si number density = 16.750300 Si / 1000 Ang^3
#
#
#
# Elastic Constant Matrix: (Units=GPa)
#
#
# Indices 1 2 3 4 5 6 
#
# 1 14.7192 7.4768 1.4885 0.0000 0.0000 0.0000
# 2 7.4768 127.3273 76.7591 0.0000 0.0000 0.0000
# 3 1.4885 76.7591 119.3016 0.0000 0.0000 0.0000
# 4 0.0000 0.0000 0.0000 8.9316 0.0000 0.0000
# 5 0.0000 0.0000 0.0000 0.0000 23.0742 0.0000
# 6 0.0000 0.0000 0.0000 0.0000 0.0000 13.2646
#
#
#
# Elastic Compliance Matrix: (Units=1/GPa)
#
#
# Indices 1 2 3 4 5 6 
#
# 1 0.070645 -0.005909 0.002920 0.000000 0.000000 0.000000
# 2 -0.005909 0.013325 -0.008499 0.000000 0.000000 0.000000
# 3 0.002920 -0.008499 0.013814 0.000000 0.000000 0.000000
# 4 0.000000 0.000000 0.000000 0.111962 0.000000 0.000000
# 5 0.000000 0.000000 0.000000 0.000000 0.043338 0.000000
# 6 0.000000 0.000000 0.000000 0.000000 0.000000 0.075389
#
#
# Mechanical properties :
#
#
# Convention : Reuss Voigt Hill
#
# Bulk Modulus (GPa) = 13.36760 48.08853 30.72806
# Shear Modulus (GPa) = 13.28428 20.76232 17.02330
#
# Velocity S-wave (km/s) = 2.81922 3.52450 3.19140
# Velocity P-wave (km/s) = 4.31221 6.73307 5.65373
#
# Compressibility (1/GPa) = 0.07480776
#
# Stress axis : x y z
#
# Youngs Moduli (GPa) = 14.15535 75.04928 72.38927
#
# Poissons Ratio (x) = 0.44346 -0.21141
# Poissons Ratio (y) = 0.08364 0.61526
# Poissons Ratio (z) = -0.04134 0.63787
#
# Static dielectric constant tensor:
#      x y z
#    x 1.611090 0.000000 0.000000 
#    y 0.000000 1.574650 0.000000 
#    z 0.000000 0.000000 1.570360 
# 
# From -- ./inp_files/8246.got.cif
#   From: 2010.05.17/outbox.cif.g08.bks.cpg/sg47_5_cif.got.tgz:8246.got - 2010.06.03 20:15:42.
