data_PCOD9381490
_publ_section_title
;
Structure prediction by ZEFSAII (Michael W. Deem and Ramdas Pophale) SiO2 
 PCOD9381490
Probable space group: P M M M
;
_chemical_formula_sum "Si O2"
_cell_formula_units_Z 52
_cell_length_a 7.335188
_cell_length_b 24.521466
_cell_length_c 14.111005
_cell_angle_alpha 90.000000
_cell_angle_beta 90.000000
_cell_angle_gamma 90.000000
_cell_volume 2538.140305
_symmetry_space_group_name_H-M "P M M M"
_symmetry_group_IT_number 47
_symmetry_cell_setting 'orthorhombic'
loop_
_space_group_symop_operation_xyz
x,y,z
-x,-y,z
x,-y,-z
-x,y,-z
-x,-y,-z
x,y,-z
-x,y,z
x,-y,z
loop_
_atom_site_type_symbol
_atom_site_label
_atom_site_fract_x
_atom_site_fract_y
_atom_site_fract_z
Si Si1 0.280039 0.759966 0.608018
Si Si2 0.722091 0.937054 0.500000
Si Si3 0.777570 0.562769 0.392468
Si Si4 0.220004 0.261440 0.893390
Si Si5 0.722920 0.126011 0.690109
Si Si6 0.710919 0.866662 0.895062
Si Si7 0.792953 0.340131 0.268956
O O1 0.228671 0.770301 0.500000
O O2 0.500000 0.756740 0.612465
O O3 0.222319 0.811574 0.669953
O O4 0.204363 0.703667 0.646238
O O5 0.500000 0.934050 0.500000
O O6 0.780393 0.908292 0.402016
O O7 0.775013 0.000000 0.500000
O O8 0.721386 0.577630 0.500000
O O9 0.725809 0.500000 0.375380
O O10 0.711781 0.605201 0.313578
O O11 0.000000 0.564877 0.392009
O O12 0.285903 0.199243 0.883012
O O13 0.289180 0.304819 0.816775
O O14 0.000000 0.258403 0.884438
O O15 0.264948 0.278950 0.000000
O O16 0.500000 0.124620 0.691387
O O17 0.785915 0.110104 0.795810
O O18 0.500000 0.883687 0.899141
O O19 0.790678 0.878135 0.000000
O O20 0.000000 0.353524 0.239640
#
# Coordination Sequence:
#
# PCOD9381490 Si02
#       7
#     8   4   8   8   8   8   8
#     4  10  18  27  40  60  88 115 133 163 215 260
#     4   9  16  26  42  62  85 119 154 175 200 246
#     4   8  14  25  40  57  77 103 136 173 209 245
#     4   9  17  27  38  57  87 114 135 168 214 255
#     4   9  15  25  39  58  85 111 139 174 205 242
#     4   9  16  26  42  61  82 112 144 172 207 254
#     4  10  18  27  42  62  83 108 141 176 208 250
#
# _framework density 20.487441
#
# number of rings (size 3 to 8) (size 9 to 14) (size 15 to 20)
#    0.000    2.846    2.308    0.923    0.000    0.923 
#    0.000    0.000    0.000    1.385    0.000    8.615 
#    0.000    4.923    0.000    9.077    0.000    9.692 
#
# Total GULP energy -289952.318099 kJ/mol
# GULP energy per Si atom -5576.006117 kJ/mol
# Density = 2.044081 g / cm^3
# Si number density = 20.487441 Si / 1000 Ang^3
#
#
#
# Elastic Constant Matrix: (Units=GPa)
#
#
# Indices 1 2 3 4 5 6 
#
# 1 77.8186 -3.7916 4.1477 0.0000 0.0000 0.0000
# 2 -3.7916 56.1894 30.8331 0.0000 0.0000 0.0000
# 3 4.1477 30.8331 166.4821 0.0000 0.0000 0.0000
# 4 0.0000 0.0000 0.0000 13.3518 0.0000 0.0000
# 5 0.0000 0.0000 0.0000 0.0000 0.5746 0.0000
# 6 0.0000 0.0000 0.0000 0.0000 0.0000 -0.4962
#
#
#
# Elastic Compliance Matrix: (Units=1/GPa)
#
#
# Indices 1 2 3 4 5 6 
#
# 1 0.012936 0.001169 -0.000539 0.000000 0.000000 0.000000
# 2 0.001169 0.019916 -0.003718 0.000000 0.000000 0.000000
# 3 -0.000539 -0.003718 0.006709 0.000000 0.000000 0.000000
# 4 0.000000 0.000000 0.000000 0.074896 0.000000 0.000000
# 5 0.000000 0.000000 0.000000 0.000000 1.740431 0.000000
# 6 0.000000 0.000000 0.000000 0.000000 0.000000 -2.015359
#
#
# Mechanical properties :
#
#
# Convention : Reuss Voigt Hill
#
# Bulk Modulus (GPa) = 29.95373 40.31872 35.13622
# Shear Modulus (GPa) = -34.92414 20.63944 -7.14235
#
# Velocity S-wave (km/s) = -4.13323 3.17743 -1.86917
# Velocity P-wave (km/s) = 2.85059 5.76054 3.53963
#
# Compressibility (1/GPa) = 0.03338483
#
# Stress axis : x y z
#
# Youngs Moduli (GPa) = 77.30343 50.21149 149.06276
#
# Poissons Ratio (x) = -0.05867 0.08030
# Poissons Ratio (y) = -0.09033 0.55415
# Poissons Ratio (z) = 0.04164 0.18667
#
# Static dielectric constant tensor:
#      x y z
#    x 2.030290 0.000000 0.000000 
#    y 0.000000 1.679640 0.000000 
#    z 0.000000 0.000000 1.766500 
# 
# From -- ./inp_files/21779.got.cif
#   From: 2010.05.17/outbox.cif.g08.bks.cpg/sg47_11_cif.got.tgz:21779.got - 2010.06.03 20:15:42.
