data_PCOD9381196
_publ_section_title
;
Structure prediction by ZEFSAII (Michael W. Deem and Ramdas Pophale) SiO2 
 PCOD9381196
Probable space group: P M M M
;
_chemical_formula_sum "Si O2"
_cell_formula_units_Z 36
_cell_length_a 7.294420
_cell_length_b 14.567146
_cell_length_c 17.454729
_cell_angle_alpha 90.000000
_cell_angle_beta 90.000000
_cell_angle_gamma 90.000000
_cell_volume 1854.719974
_symmetry_space_group_name_H-M "P M M M"
_symmetry_group_IT_number 47
_symmetry_cell_setting 'orthorhombic'
loop_
_space_group_symop_operation_xyz
x,y,z
-x,-y,z
x,-y,-z
-x,y,-z
-x,-y,-z
x,y,-z
-x,y,z
x,-y,z
loop_
_atom_site_type_symbol
_atom_site_label
_atom_site_fract_x
_atom_site_fract_y
_atom_site_fract_z
Si Si1 0.224936 0.606593 0.330230
Si Si2 0.207848 0.389201 0.500000
Si Si3 0.279208 0.399410 0.088871
Si Si4 0.776900 0.892623 0.085467
Si Si5 0.796235 0.751624 0.205958
O O1 0.279742 0.500000 0.313201
O O2 0.286106 0.631980 0.416525
O O3 0.286011 0.686523 0.272156
O O4 0.000000 0.605398 0.328918
O O5 0.198223 0.500000 0.500000
O O6 0.000000 0.352595 0.500000
O O7 0.500000 0.391993 0.094344
O O8 0.226536 0.500000 0.118257
O O9 0.191345 0.320373 0.136754
O O10 0.231077 0.394141 0.000000
O O11 0.710672 0.837453 0.160319
O O12 0.000000 0.886153 0.086362
O O13 0.729660 0.000000 0.089849
O O14 0.718948 0.858643 0.000000
O O15 0.000000 0.779455 0.232809
#
# Coordination Sequence:
#
# PCOD9381196 Si02
#       5
#     8   4   8   8   8
#     4   8  13  20  31  51  77  98 117 146 183 221
#     4   7  10  18  30  44  70 104 122 133 171 227
#     4   9  18  30  39  49  73 108 133 145 172 226
#     4   8  14  24  36  51  73  98 121 149 191 237
#     4  10  17  24  39  61  76  89 121 168 199 209
#
# _framework density 19.409939000000001
#
# number of rings (size 3 to 8) (size 9 to 14) (size 15 to 20)
#    0.000    3.444    0.000    4.000    0.000    2.667 
#    0.000    1.111    0.000    0.667    0.000    4.667 
#    0.000   10.667    0.000    0.000    0.000    2.222 
#
# Total GULP energy -200435.339721 kJ/mol
# GULP energy per Si atom -5567.648326 kJ/mol
# Density = 1.936576 g / cm^3
# Si number density = 19.409939 Si / 1000 Ang^3
#
#
#
# Elastic Constant Matrix: (Units=GPa)
#
#
# Indices 1 2 3 4 5 6 
#
# 1 76.0460 3.2309 6.5033 0.0000 0.0000 0.0000
# 2 3.2309 81.9186 66.2363 0.0000 0.0000 0.0000
# 3 6.5033 66.2363 137.3945 0.0000 0.0000 0.0000
# 4 0.0000 0.0000 0.0000 47.3669 0.0000 0.0000
# 5 0.0000 0.0000 0.0000 0.0000 32.1434 0.0000
# 6 0.0000 0.0000 0.0000 0.0000 0.0000 4.5341
#
#
#
# Elastic Compliance Matrix: (Units=1/GPa)
#
#
# Indices 1 2 3 4 5 6 
#
# 1 0.013203 -0.000025 -0.000613 0.000000 0.000000 0.000000
# 2 -0.000025 0.020005 -0.009643 0.000000 0.000000 0.000000
# 3 -0.000613 -0.009643 0.011956 0.000000 0.000000 0.000000
# 4 0.000000 0.000000 0.000000 0.021112 0.000000 0.000000
# 5 0.000000 0.000000 0.000000 0.000000 0.031111 0.000000
# 6 0.000000 0.000000 0.000000 0.000000 0.000000 0.220552
#
#
# Mechanical properties :
#
#
# Convention : Reuss Voigt Hill
#
# Bulk Modulus (GPa) = 40.64626 49.70000 45.17313
# Shear Modulus (GPa) = 14.42160 31.43479 22.92820
#
# Velocity S-wave (km/s) = 2.72876 4.02869 3.44068
# Velocity P-wave (km/s) = 5.56009 6.87761 6.25364
#
# Compressibility (1/GPa) = 0.02460251
#
# Stress axis : x y z
#
# Youngs Moduli (GPa) = 75.73800 49.98673 83.63896
#
# Poissons Ratio (x) = 0.00126 0.05125
# Poissons Ratio (y) = 0.00192 0.80654
# Poissons Ratio (z) = 0.04641 0.48203
#
# Static dielectric constant tensor:
#      x y z
#    x 1.753880 0.000000 0.000000 
#    y 0.000000 1.680800 0.000000 
#    z 0.000000 0.000000 1.719740 
# 
# From -- ./inp_files/18308.got.cif
#   From: 2010.05.17/outbox.cif.g08.bks.cpg/sg47_10_cif.got.tgz:18308.got - 2010.06.03 20:15:42.
