data_PCOD9381134
_publ_section_title
;
Structure prediction by ZEFSAII (Michael W. Deem and Ramdas Pophale) SiO2 
 PCOD9381134
Probable space group: I M A 2
;
_chemical_formula_sum "Si O2"
_cell_formula_units_Z 26
_cell_length_a 21.000000
_cell_length_b 15.000000
_cell_length_c 9.000000
_cell_angle_alpha 90.000000
_cell_angle_beta 90.000000
_cell_angle_gamma 90.000000
_cell_volume 2835.000000
_symmetry_space_group_name_H-M "I M A 2"
_symmetry_group_IT_number 46
_symmetry_cell_setting 'orthorhombic'
loop_
_space_group_symop_operation_xyz
x,y,z
-x,-y,z
1/2-x,y,z
1/2+x,-y,z
1/2+x,1/2+y,1/2+z
1/2-x,1/2-y,1/2+z
-x,1/2+y,1/2+z
x,1/2-y,1/2+z
loop_
_atom_site_type_symbol
_atom_site_label
_atom_site_fract_x
_atom_site_fract_y
_atom_site_fract_z
Si Si1 0.857204 0.398227 0.659220
Si Si2 0.250000 0.841301 0.381215
Si Si3 0.566482 0.553372 0.791477
Si Si4 0.750000 0.361409 0.436768
Si Si5 0.250000 0.528194 0.149600
Si Si6 0.009106 0.684326 0.580971
Si Si7 0.009287 0.867254 0.732959
Si Si8 0.104436 0.020066 0.631354
O O1 0.812661 0.352406 0.781657
O O2 0.880433 0.495710 0.706403
O O3 0.813106 0.399346 0.514619
O O4 0.921797 0.344105 0.641066
O O5 0.250000 0.744826 0.455028
O O6 0.250000 0.923593 0.491922
O O7 0.500000 0.500000 0.805274
O O8 0.544406 0.633794 0.682102
O O9 0.591818 0.554739 0.961863
O O10 0.750000 0.392340 0.268806
O O11 0.319587 0.480497 0.162806
O O12 0.001867 0.787248 0.617396
O O13 0.013773 0.662825 0.405196
O O14 0.942276 0.919342 0.729259
O O15 0.069750 0.924752 0.670143
#
# Coordination Sequence:
#
# PCOD9381134 Si02
#       8
#     8   4   8   4   4   8   8   8
#     4  10  23  38  60  87 127 164 213 241 315 369
#     4  11  23  39  55  92 124 179 200 245 299 396
#     4  10  20  40  63  87 123 164 209 260 307 368
#     4  11  25  37  55  90 134 167 202 252 299 387
#     4  12  24  38  64  86 130 166 206 249 314 373
#     4  11  25  39  68  93 124 162 213 271 318 364
#     4  11  25  41  65  98 125 164 211 265 318 380
#     4  11  24  42  64  92 130 165 213 253 317 383
#
# _framework density 9.1710759999999993
#
# number of rings (size 3 to 8) (size 9 to 14) (size 15 to 20)
#    0.000    1.231    3.077    2.769   17.231    0.000 
#    0.000    0.000    0.000    5.538    0.000    0.000 
#    0.000    0.000    0.000    0.000    0.000    0.000 
#
# Total GULP energy -144842.473103 kJ/mol
# GULP energy per Si atom -5570.864350 kJ/mol
# Density = 0.915020 g / cm^3
# Si number density = 9.171076 Si / 1000 Ang^3
#
#
#
# Elastic Constant Matrix: (Units=GPa)
#
#
# Indices 1 2 3 4 5 6 
#
# 1 135.5190 42.3964 26.3946 0.0000 0.0000 0.0000
# 2 42.3964 59.6041 17.5799 0.0000 0.0000 0.0000
# 3 26.3946 17.5799 60.4571 0.0000 0.0000 0.0000
# 4 0.0000 0.0000 0.0000 30.1594 0.0000 0.0000
# 5 0.0000 0.0000 0.0000 0.0000 -34.6855 0.0000
# 6 0.0000 0.0000 0.0000 0.0000 0.0000 9.7407
#
#
#
# Elastic Compliance Matrix: (Units=1/GPa)
#
#
# Indices 1 2 3 4 5 6 
#
# 1 0.009816 -0.006255 -0.002467 0.000000 0.000000 0.000000
# 2 -0.006255 0.022337 -0.003764 0.000000 0.000000 0.000000
# 3 -0.002467 -0.003764 0.018712 0.000000 0.000000 0.000000
# 4 0.000000 0.000000 0.000000 0.033157 0.000000 0.000000
# 5 0.000000 0.000000 0.000000 0.000000 -0.028830 0.000000
# 6 0.000000 0.000000 0.000000 0.000000 0.000000 0.102662
#
#
# Mechanical properties :
#
#
# Convention : Reuss Voigt Hill
#
# Bulk Modulus (GPa) = 38.62018 47.59134 43.10576
# Shear Modulus (GPa) = 26.11555 12.32353 19.21954
#
# Velocity S-wave (km/s) = 3.77742 2.59486 3.24054
# Velocity P-wave (km/s) = 6.33454 5.91443 6.12808
#
# Compressibility (1/GPa) = 0.02589320
#
# Stress axis : x y z
#
# Youngs Moduli (GPa) = 101.87184 44.76946 53.44086
#
# Poissons Ratio (x) = 0.28002 0.13183
# Poissons Ratio (y) = 0.63718 0.20117
# Poissons Ratio (z) = 0.25130 0.16853
#
# Static dielectric constant tensor:
#      x y z
#    x 1.620760 0.000000 0.000000 
#    y 0.000000 1.825050 0.000000 
#    z 0.000000 0.000000 1.676840 
# 
# From -- ./inp_files/7378.got.cif
#   From: 2010.05.17/outbox.ucp.g08.bks.cvg/sg46_4_cif.got.tgz:7378.got - 2010.06.11 16:34:52.
