data_PCOD9381827
_publ_section_title
;
Structure prediction by ZEFSAII (Michael W. Deem and Ramdas Pophale) SiO2 
 PCOD9381827
Probable space group: P M M M
;
_chemical_formula_sum "Si O2"
_cell_formula_units_Z 56
_cell_length_a 22.398530
_cell_length_b 9.056326
_cell_length_c 16.732418
_cell_angle_alpha 90.000000
_cell_angle_beta 90.000000
_cell_angle_gamma 90.000000
_cell_volume 3394.144045
_symmetry_space_group_name_H-M "P M M M"
_symmetry_group_IT_number 47
_symmetry_cell_setting 'orthorhombic'
loop_
_space_group_symop_operation_xyz
x,y,z
-x,-y,z
x,-y,-z
-x,y,-z
-x,-y,-z
x,y,-z
-x,y,z
x,-y,z
loop_
_atom_site_type_symbol
_atom_site_label
_atom_site_fract_x
_atom_site_fract_y
_atom_site_fract_z
Si Si1 0.929798 0.324052 0.837234
Si Si2 0.427657 0.325946 0.910336
Si Si3 0.365758 0.323196 0.407634
Si Si4 0.571981 0.173020 0.744328
Si Si5 0.238909 0.172203 0.406598
Si Si6 0.072364 0.832154 0.000000
Si Si7 0.000000 0.820407 0.590473
Si Si8 0.119060 0.178291 0.315511
O O1 0.926083 0.500000 0.838073
O O2 0.910864 0.256084 0.921299
O O3 0.890012 0.252973 0.769174
O O4 0.000000 0.284180 0.823287
O O5 0.500000 0.314172 0.911002
O O6 0.413208 0.500000 0.903364
O O7 0.407439 0.242695 0.829618
O O8 0.407814 0.275534 0.000000
O O9 0.382599 0.279429 0.500000
O O10 0.370158 0.500000 0.403283
O O11 0.402847 0.251791 0.335099
O O12 0.297618 0.269746 0.395737
O O13 0.500000 0.185826 0.742584
O O14 0.587740 0.000000 0.742364
O O15 0.222059 0.178086 0.500000
O O16 0.181410 0.218380 0.356275
O O17 0.253099 0.000000 0.388167
O O18 0.000000 0.837517 0.000000
O O19 0.094303 0.000000 0.000000
O O20 0.060951 0.775113 0.633552
O O21 0.000000 0.768032 0.500000
O O22 0.000000 0.000000 0.590030
O O23 0.117395 0.000000 0.308957
#
# Coordination Sequence:
#
# PCOD9381827 Si02
#       8
#     8   8   8   8   8   4   4   8
#     4  10  19  30  44  66  98 129 157 192 239 290
#     4   8  14  26  45  70 102 138 171 202 238 285
#     4  10  21  36  53  72  96 131 173 213 252 297
#     4  10  20  32  49  76 107 136 166 205 253 299
#     4   9  18  33  52  73  96 125 165 210 250 287
#     4   9  17  29  47  67  89 119 157 197 238 285
#     4   9  16  26  43  68  97 126 157 195 236 279
#     4  10  18  29  48  72  97 126 162 200 239 287
#
# _framework density 16.499005
#
# number of rings (size 3 to 8) (size 9 to 14) (size 15 to 20)
#    0.000    2.571    0.714    2.357    0.000    6.000 
#    0.000    2.857    0.000    1.714    1.857    0.000 
#    0.000    0.000    0.000    0.000    0.000    0.000 
#
# Total GULP energy -311971.048316 kJ/mol
# GULP energy per Si atom -5570.911577 kJ/mol
# Density = 1.646145 g / cm^3
# Si number density = 16.499005 Si / 1000 Ang^3
#
#
#
# Elastic Constant Matrix: (Units=GPa)
#
#
# Indices 1 2 3 4 5 6 
#
# 1 33.1262 28.4932 45.9315 0.0000 0.0000 0.0000
# 2 28.4932 51.6640 62.0098 0.0000 0.0000 0.0000
# 3 45.9315 62.0098 158.6987 0.0000 0.0000 0.0000
# 4 0.0000 0.0000 0.0000 14.2883 0.0000 0.0000
# 5 0.0000 0.0000 0.0000 0.0000 10.3080 0.0000
# 6 0.0000 0.0000 0.0000 0.0000 0.0000 16.1583
#
#
#
# Elastic Compliance Matrix: (Units=1/GPa)
#
#
# Indices 1 2 3 4 5 6 
#
# 1 0.063377 -0.024363 -0.008824 0.000000 0.000000 0.000000
# 2 -0.024363 0.045816 -0.010851 0.000000 0.000000 0.000000
# 3 -0.008824 -0.010851 0.013095 0.000000 0.000000 0.000000
# 4 0.000000 0.000000 0.000000 0.069987 0.000000 0.000000
# 5 0.000000 0.000000 0.000000 0.000000 0.097012 0.000000
# 6 0.000000 0.000000 0.000000 0.000000 0.000000 0.061888
#
#
# Mechanical properties :
#
#
# Convention : Reuss Voigt Hill
#
# Bulk Modulus (GPa) = 29.22799 57.37311 43.30055
# Shear Modulus (GPa) = 11.09501 15.28790 13.19146
#
# Velocity S-wave (km/s) = 2.59601 3.04731 2.83066
# Velocity P-wave (km/s) = 5.17099 6.87245 6.08152
#
# Compressibility (1/GPa) = 0.03421378
#
# Stress axis : x y z
#
# Youngs Moduli (GPa) = 15.77856 21.82651 76.36578
#
# Poissons Ratio (x) = 0.53175 0.67382
# Poissons Ratio (y) = 0.38441 0.82864
# Poissons Ratio (z) = 0.13922 0.23684
#
# Static dielectric constant tensor:
#      x y z
#    x 1.536790 0.000000 0.000000 
#    y 0.000000 1.553300 0.000000 
#    z 0.000000 0.000000 1.652060 
# 
# From -- ./inp_files/25156.got.cif
#   From: 2010.05.17/outbox.cif.g08.bks.cpg/sg47_13_cif.got.tgz:25156.got - 2010.06.03 20:15:42.
