data_PCOD9381903
_publ_section_title
;
Structure prediction by ZEFSAII (Michael W. Deem and Ramdas Pophale) SiO2 
 PCOD9381903
Probable space group: P M M M
;
_chemical_formula_sum "Si O2"
_cell_formula_units_Z 64
_cell_length_a 14.817206
_cell_length_b 8.574201
_cell_length_c 32.212389
_cell_angle_alpha 90.000000
_cell_angle_beta 90.000000
_cell_angle_gamma 90.000000
_cell_volume 4092.445590
_symmetry_space_group_name_H-M "P M M M"
_symmetry_group_IT_number 47
_symmetry_cell_setting 'orthorhombic'
loop_
_space_group_symop_operation_xyz
x,y,z
-x,-y,z
x,-y,-z
-x,y,-z
-x,-y,-z
x,y,-z
-x,y,z
x,-y,z
loop_
_atom_site_type_symbol
_atom_site_label
_atom_site_fract_x
_atom_site_fract_y
_atom_site_fract_z
Si Si1 0.104573 0.811450 0.204827
Si Si2 0.398199 0.187992 0.157976
Si Si3 0.399576 0.189815 0.745053
Si Si4 0.215220 0.313327 0.873856
Si Si5 0.104453 0.685873 0.633047
Si Si6 0.895959 0.309989 0.046772
Si Si7 0.789762 0.811462 0.288199
Si Si8 0.108642 0.185236 0.545223
O O1 0.158585 0.748623 0.165366
O O2 0.152758 0.762744 0.247659
O O3 0.000000 0.762344 0.204036
O O4 0.107520 0.000000 0.203458
O O5 0.500000 0.233720 0.145757
O O6 0.385822 0.232450 0.206533
O O7 0.317809 0.258716 0.131542
O O8 0.392643 0.000000 0.156307
O O9 0.500000 0.242380 0.732251
O O10 0.313503 0.241904 0.718733
O O11 0.400222 0.000000 0.744060
O O12 0.211885 0.500000 0.873407
O O13 0.168911 0.256565 0.916446
O O14 0.103075 0.500000 0.635244
O O15 0.164103 0.751628 0.670198
O O16 0.139737 0.735831 0.587614
O O17 0.000000 0.742450 0.637330
O O18 0.894620 0.500000 0.046768
O O19 0.000000 0.263877 0.054814
O O20 0.871422 0.259744 0.000000
O O21 0.790156 0.000000 0.289063
O O22 0.142545 0.241330 0.500000
O O23 0.000000 0.207018 0.544561
O O24 0.125245 0.000000 0.547721
#
# Coordination Sequence:
#
# PCOD9381903 Si02
#       8
#     8   8   8   8   8   8   8   8
#     4  10  20  32  45  63  90 125 160 188 217 264
#     4   9  17  32  52  69  89 119 152 184 223 274
#     4   8  14  27  48  68  83 106 146 190 224 259
#     4  11  20  29  47  73  96 115 144 190 236 274
#     4  10  20  30  40  59  90 125 156 187 226 268
#     4   8  15  29  47  66  90 121 154 184 219 268
#     4  10  18  30  47  63  84 117 156 189 216 257
#     4   8  14  26  44  63  82 109 150 195 231 265
#
# _framework density 15.638571000000001
#
# number of rings (size 3 to 8) (size 9 to 14) (size 15 to 20)
#    0.000    2.750    1.250    3.000    0.000    3.000 
#    0.000    1.250    0.000    2.250    0.000    7.000 
#    0.000    0.500    0.000    5.750    0.000    1.875 
#
# Total GULP energy -356580.006419 kJ/mol
# GULP energy per Si atom -5571.562600 kJ/mol
# Density = 1.560298 g / cm^3
# Si number density = 15.638571 Si / 1000 Ang^3
#
#
#
# Elastic Constant Matrix: (Units=GPa)
#
#
# Indices 1 2 3 4 5 6 
#
# 1 121.1789 20.3640 84.5772 0.0000 0.0000 0.0000
# 2 20.3640 6.6042 23.9590 0.0000 0.0000 0.0000
# 3 84.5772 23.9590 142.8876 0.0000 0.0000 0.0000
# 4 0.0000 0.0000 0.0000 20.2816 0.0000 0.0000
# 5 0.0000 0.0000 0.0000 0.0000 8.2212 0.0000
# 6 0.0000 0.0000 0.0000 0.0000 0.0000 17.0793
#
#
#
# Elastic Compliance Matrix: (Units=1/GPa)
#
#
# Indices 1 2 3 4 5 6 
#
# 1 0.017749 -0.042419 -0.003393 0.000000 0.000000 0.000000
# 2 -0.042419 0.487954 -0.056710 0.000000 0.000000 0.000000
# 3 -0.003393 -0.056710 0.018516 0.000000 0.000000 0.000000
# 4 0.000000 0.000000 0.000000 0.049306 0.000000 0.000000
# 5 0.000000 0.000000 0.000000 0.000000 0.121637 0.000000
# 6 0.000000 0.000000 0.000000 0.000000 0.000000 0.058550
#
#
# Mechanical properties :
#
#
# Convention : Reuss Voigt Hill
#
# Bulk Modulus (GPa) = 3.13308 58.71900 30.92604
# Shear Modulus (GPa) = 4.69418 18.56779 11.63099
#
# Velocity S-wave (km/s) = 1.73441 3.44947 2.73011
# Velocity P-wave (km/s) = 2.45330 7.31397 5.45495
#
# Compressibility (1/GPa) = 0.31917426
#
# Stress axis : x y z
#
# Youngs Moduli (GPa) = 56.34121 2.04937 54.00724
#
# Poissons Ratio (x) = 0.08693 0.18326
# Poissons Ratio (y) = 2.38993 3.06277
# Poissons Ratio (z) = 0.19118 0.11622
#
# Static dielectric constant tensor:
#      x y z
#    x 1.522370 0.000000 0.000000 
#    y 0.000000 1.538030 0.000000 
#    z 0.000000 0.000000 1.513350 
# 
# From -- ./inp_files/34715.got.cif
#   From: 2010.05.17/outbox.cif.g08.bks.cpg/sg47_18_cif.got.tgz:34715.got - 2010.06.03 20:15:42.
