data_PCOD9381333
_publ_section_title
;
Structure prediction by ZEFSAII (Michael W. Deem and Ramdas Pophale) SiO2 
 PCOD9381333
Probable space group: P M M M
;
_chemical_formula_sum "Si O2"
_cell_formula_units_Z 40
_cell_length_a 11.959341
_cell_length_b 21.905356
_cell_length_c 7.228900
_cell_angle_alpha 90.000000
_cell_angle_beta 90.000000
_cell_angle_gamma 90.000000
_cell_volume 1893.781117
_symmetry_space_group_name_H-M "P M M M"
_symmetry_group_IT_number 47
_symmetry_cell_setting 'orthorhombic'
loop_
_space_group_symop_operation_xyz
x,y,z
-x,-y,z
x,-y,-z
-x,y,-z
-x,-y,-z
x,y,-z
-x,y,z
x,-y,z
loop_
_atom_site_type_symbol
_atom_site_label
_atom_site_fract_x
_atom_site_fract_y
_atom_site_fract_z
Si Si1 0.696351 0.842489 0.790617
Si Si2 0.745294 0.379302 0.225945
Si Si3 0.500000 0.751249 0.722965
Si Si4 0.500000 0.387684 0.795613
Si Si5 0.500000 0.070850 0.225719
Si Si6 0.869140 0.253819 0.774311
Si Si7 0.874016 0.500000 0.775246
O O1 0.608161 0.787060 0.789909
O O2 0.614771 0.895466 0.711001
O O3 0.806546 0.808794 0.712893
O O4 0.724168 0.861826 0.000000
O O5 0.620803 0.397031 0.291568
O O6 0.799282 0.314447 0.283611
O O7 0.819440 0.436558 0.280845
O O8 0.739053 0.376162 0.000000
O O9 0.500000 0.748750 0.500000
O O10 0.500000 0.685313 0.806816
O O11 0.500000 0.416856 0.000000
O O12 0.500000 0.000000 0.273561
O O13 0.500000 0.076631 0.000000
O O14 0.000000 0.257286 0.721297
O O15 0.866065 0.253291 0.000000
O O16 0.000000 0.500000 0.715106
O O17 0.869799 0.500000 0.000000
#
# Coordination Sequence:
#
# PCOD9381333 Si02
#       7
#     8   8   4   4   4   8   4
#     4   9  16  28  46  65  90 118 145 177 217 258
#     4   9  16  24  38  58  85 116 143 174 215 264
#     4  11  19  27  43  67  91 113 141 179 223 264
#     4  10  17  28  44  61  86 115 145 177 222 268
#     4   8  14  24  42  66  88 115 150 180 209 253
#     4   9  15  23  39  63  86 112 148 182 212 253
#     4   9  16  25  35  55  89 119 140 174 223 262
#
# _framework density 21.121766000000001
#
# number of rings (size 3 to 8) (size 9 to 14) (size 15 to 20)
#    0.000    2.800    2.000    2.100    0.000    2.800 
#    0.000    2.000    0.000    6.000    0.000    5.600 
#    0.000    0.800    0.000    7.200    0.000    8.000 
#
# Total GULP energy -222857.614355 kJ/mol
# GULP energy per Si atom -5571.440359 kJ/mol
# Density = 2.107369 g / cm^3
# Si number density = 21.121766 Si / 1000 Ang^3
#
#
#
# Elastic Constant Matrix: (Units=GPa)
#
#
# Indices 1 2 3 4 5 6 
#
# 1 199.3135 79.2523 3.0225 0.0000 0.0000 0.0000
# 2 79.2523 136.0747 2.2283 0.0000 0.0000 0.0000
# 3 3.0225 2.2283 109.7675 0.0000 0.0000 0.0000
# 4 0.0000 0.0000 0.0000 375.2701 0.0000 0.0000
# 5 0.0000 0.0000 0.0000 0.0000 -29.9489 0.0000
# 6 0.0000 0.0000 0.0000 0.0000 0.0000 -73.2550
#
#
#
# Elastic Compliance Matrix: (Units=1/GPa)
#
#
# Indices 1 2 3 4 5 6 
#
# 1 0.006530 -0.003802 -0.000103 0.000000 0.000000 0.000000
# 2 -0.003802 0.009565 -0.000089 0.000000 0.000000 0.000000
# 3 -0.000103 -0.000089 0.009115 0.000000 0.000000 0.000000
# 4 0.000000 0.000000 0.000000 0.002665 0.000000 0.000000
# 5 0.000000 0.000000 0.000000 0.000000 -0.033390 0.000000
# 6 0.000000 0.000000 0.000000 0.000000 0.000000 -0.013651
#
#
# Mechanical properties :
#
#
# Convention : Reuss Voigt Hill
#
# Bulk Modulus (GPa) = 58.06502 68.24019 63.15261
# Shear Modulus (GPa) = -919.43722 78.45676 -420.49023
#
# Velocity S-wave (km/s) = -20.88656 6.10128 -14.12485
# Velocity P-wave (km/s) = 23.53963 9.05606 15.36395
#
# Compressibility (1/GPa) = 0.01722207
#
# Stress axis : x y z
#
# Youngs Moduli (GPa) = 153.12846 104.55232 109.71155
#
# Poissons Ratio (x) = 0.39748 0.01126
# Poissons Ratio (y) = 0.58216 0.00982
# Poissons Ratio (z) = 0.01572 0.00936
#
# Static dielectric constant tensor:
#      x y z
#    x 1.750300 0.000000 0.000000 
#    y 0.000000 1.710260 0.000000 
#    z 0.000000 0.000000 1.806520 
# 
# From -- ./inp_files/4145.got.cif
#   From: 2010.05.17/outbox.cif.g08.bks.cpg/sg47_3_cif.got.tgz:4145.got - 2010.06.03 20:15:42.
