data_PCOD9381474
_publ_section_title
;
Structure prediction by ZEFSAII (Michael W. Deem and Ramdas Pophale) SiO2 
 PCOD9381474
Probable space group: P M M M
;
_chemical_formula_sum "Si O2"
_cell_formula_units_Z 52
_cell_length_a 13.284035
_cell_length_b 7.776620
_cell_length_c 27.098754
_cell_angle_alpha 90.000000
_cell_angle_beta 90.000000
_cell_angle_gamma 90.000000
_cell_volume 2799.433862
_symmetry_space_group_name_H-M "P M M M"
_symmetry_group_IT_number 47
_symmetry_cell_setting 'orthorhombic'
loop_
_space_group_symop_operation_xyz
x,y,z
-x,-y,z
x,-y,-z
-x,y,-z
-x,-y,-z
x,y,-z
-x,y,z
x,-y,z
loop_
_atom_site_type_symbol
_atom_site_label
_atom_site_fract_x
_atom_site_fract_y
_atom_site_fract_z
Si Si1 0.882775 0.790442 0.054899
Si Si2 0.387583 0.205946 0.334514
Si Si3 0.000000 0.206493 0.783055
Si Si4 0.114252 0.795851 0.500000
Si Si5 0.198281 0.210865 0.841938
Si Si6 0.000000 0.292289 0.332039
Si Si7 0.385470 0.789973 0.222414
Si Si8 0.808758 0.296828 0.393265
O O1 0.817881 0.733462 0.101597
O O2 0.000000 0.742079 0.062486
O O3 0.881014 0.000000 0.054698
O O4 0.851932 0.733249 0.000000
O O5 0.500000 0.269861 0.347568
O O6 0.362864 0.266006 0.278731
O O7 0.299280 0.245382 0.372296
O O8 0.393658 0.000000 0.331619
O O9 0.898949 0.267246 0.810364
O O10 0.000000 0.248855 0.725459
O O11 0.000000 0.000000 0.787734
O O12 0.170759 0.746249 0.450034
O O13 0.000000 0.722566 0.500000
O O14 0.106040 0.000000 0.500000
O O15 0.300206 0.268521 0.815352
O O16 0.198778 0.000000 0.841739
O O17 0.900327 0.224680 0.359875
O O18 0.000000 0.500000 0.335860
O O19 0.500000 0.737887 0.210606
O O20 0.383945 0.000000 0.222191
O O21 0.814225 0.500000 0.388581
#
# Coordination Sequence:
#
# PCOD9381474 Si02
#       8
#     8   8   4   4   8   4   8   8
#     4   8  12  18  28  44  73 111 144 181 236 289
#     4   9  18  34  54  76 102 130 165 208 249 290
#     4  10  18  26  42  67  88 112 149 197 238 275
#     4  11  23  39  60  83 104 131 171 209 241 282
#     4   9  14  21  34  56  83 106 142 193 237 278
#     4  10  22  35  47  69 104 137 158 187 240 297
#     4   8  14  24  39  58  82 115 149 185 233 284
#     4  11  22  37  56  77 105 137 166 198 241 295
#
# _framework density 18.575184
#
# number of rings (size 3 to 8) (size 9 to 14) (size 15 to 20)
#    0.000    2.692    1.538    3.000    0.000    3.077 
#    0.000    0.385    0.000    2.769    0.000    3.231 
#    0.000    1.231    0.000    0.000    0.000    0.000 
#
# Total GULP energy -290022.099493 kJ/mol
# GULP energy per Si atom -5577.348067 kJ/mol
# Density = 1.853291 g / cm^3
# Si number density = 18.575184 Si / 1000 Ang^3
#
#
#
# Elastic Constant Matrix: (Units=GPa)
#
#
# Indices 1 2 3 4 5 6 
#
# 1 163.3505 9.6305 126.0545 0.0000 0.0000 0.0000
# 2 9.6305 23.4162 1.8864 0.0000 0.0000 0.0000
# 3 126.0545 1.8864 187.5699 0.0000 0.0000 0.0000
# 4 0.0000 0.0000 0.0000 96.2582 0.0000 0.0000
# 5 0.0000 0.0000 0.0000 0.0000 26.7859 0.0000
# 6 0.0000 0.0000 0.0000 0.0000 0.0000 3.1932
#
#
#
# Elastic Compliance Matrix: (Units=1/GPa)
#
#
# Indices 1 2 3 4 5 6 
#
# 1 0.013219 -0.004725 -0.008836 0.000000 0.000000 0.000000
# 2 -0.004725 0.044429 0.002728 0.000000 0.000000 0.000000
# 3 -0.008836 0.002728 0.011242 0.000000 0.000000 0.000000
# 4 0.000000 0.000000 0.000000 0.010389 0.000000 0.000000
# 5 0.000000 0.000000 0.000000 0.000000 0.037333 0.000000
# 6 0.000000 0.000000 0.000000 0.000000 0.000000 0.313163
#
#
# Mechanical properties :
#
#
# Convention : Reuss Voigt Hill
#
# Bulk Modulus (GPa) = 21.17526 72.16437 46.66982
# Shear Modulus (GPa) = 10.70247 41.03181 25.86714
#
# Velocity S-wave (km/s) = 2.40296 4.70505 3.73576
# Velocity P-wave (km/s) = 4.37304 8.27351 6.61719
#
# Compressibility (1/GPa) = 0.04722491
#
# Stress axis : x y z
#
# Youngs Moduli (GPa) = 75.64780 22.50790 88.95022
#
# Poissons Ratio (x) = 0.10635 0.78599
# Poissons Ratio (y) = 0.35742 -0.24270
# Poissons Ratio (z) = 0.66845 -0.06141
#
# Static dielectric constant tensor:
#      x y z
#    x 1.665390 0.000000 0.000000 
#    y 0.000000 1.673620 0.000000 
#    z 0.000000 0.000000 1.604590 
# 
# From -- ./inp_files/33641.got.cif
#   From: 2010.05.17/outbox.cif.g08.bks.cpg/sg47_17_cif.got.tgz:33641.got - 2010.06.03 20:15:42.
