data_PCOD9381541
_publ_section_title
;
Structure prediction by ZEFSAII (Michael W. Deem and Ramdas Pophale) SiO2 
 PCOD9381541
Probable space group: P M M M
;
_chemical_formula_sum "Si O2"
_cell_formula_units_Z 64
_cell_length_a 7.816432
_cell_length_b 24.626669
_cell_length_c 19.795050
_cell_angle_alpha 90.000000
_cell_angle_beta 90.000000
_cell_angle_gamma 90.000000
_cell_volume 3810.402297
_symmetry_space_group_name_H-M "P M M M"
_symmetry_group_IT_number 47
_symmetry_cell_setting 'orthorhombic'
loop_
_space_group_symop_operation_xyz
x,y,z
-x,-y,z
x,-y,-z
-x,y,-z
-x,-y,-z
x,y,-z
-x,y,z
x,-y,z
loop_
_atom_site_type_symbol
_atom_site_label
_atom_site_fract_x
_atom_site_fract_y
_atom_site_fract_z
Si Si1 0.709574 0.165369 0.795019
Si Si2 0.797596 0.333319 0.845696
Si Si3 0.290191 0.060999 0.713768
Si Si4 0.297693 0.110806 0.574654
Si Si5 0.296579 0.727040 0.716044
Si Si6 0.208744 0.438799 0.077990
Si Si7 0.702979 0.775033 0.924548
Si Si8 0.796375 0.764463 0.424775
O O1 0.500000 0.165581 0.794757
O O2 0.765117 0.107944 0.765287
O O3 0.765444 0.215127 0.746695
O O4 0.769246 0.181482 0.869958
O O5 0.765470 0.319152 0.767406
O O6 0.731454 0.390937 0.872888
O O7 0.724958 0.283804 0.890120
O O8 0.000000 0.332573 0.856781
O O9 0.500000 0.061940 0.712995
O O10 0.230194 0.078100 0.638733
O O11 0.237009 0.000000 0.730567
O O12 0.224157 0.099363 0.500000
O O13 0.500000 0.099081 0.571521
O O14 0.278766 0.175307 0.587285
O O15 0.500000 0.727451 0.720674
O O16 0.248336 0.725967 0.637673
O O17 0.265705 0.500000 0.095011
O O18 0.000000 0.439489 0.079673
O O19 0.256979 0.427283 0.000000
O O20 0.500000 0.784388 0.929633
O O21 0.776291 0.776800 0.000000
O O22 0.739455 0.746867 0.500000
O O23 0.000000 0.770581 0.426054
#
# Coordination Sequence:
#
# PCOD9381541 Si02
#       8
#     8   8   8   8   8   8   8   8
#     4   8  14  25  39  56  77 102 133 171 216 261
#     4  10  18  27  43  68  93 115 146 188 222 250
#     4   9  15  23  38  59  79 101 136 181 219 254
#     4   9  16  26  40  58  80 107 138 171 211 260
#     4  10  18  30  46  62  86 118 147 176 215 264
#     4   8  14  25  41  62  91 127 160 186 214 249
#     4   9  17  28  42  59  82 113 144 177 221 270
#     4  10  19  29  43  64  88 113 142 178 218 258
#
# _framework density 16.796126000000001
#
# number of rings (size 3 to 8) (size 9 to 14) (size 15 to 20)
#    0.000    2.875    1.250    2.625    0.000    1.750 
#    0.000    1.250    0.000    2.250    0.000    8.750 
#    0.000    0.500    0.000    9.000    0.000    5.875 
#
# Total GULP energy -356585.465981 kJ/mol
# GULP energy per Si atom -5571.647906 kJ/mol
# Density = 1.675790 g / cm^3
# Si number density = 16.796126 Si / 1000 Ang^3
#
#
#
# Elastic Constant Matrix: (Units=GPa)
#
#
# Indices 1 2 3 4 5 6 
#
# 1 18.8511 0.4578 -0.6837 0.0000 0.0000 0.0000
# 2 0.4578 114.3913 74.1485 0.0000 0.0000 0.0000
# 3 -0.6837 74.1485 128.2191 0.0000 0.0000 0.0000
# 4 0.0000 0.0000 0.0000 27.9719 0.0000 0.0000
# 5 0.0000 0.0000 0.0000 0.0000 12.0744 0.0000
# 6 0.0000 0.0000 0.0000 0.0000 0.0000 11.2774
#
#
#
# Elastic Compliance Matrix: (Units=1/GPa)
#
#
# Indices 1 2 3 4 5 6 
#
# 1 0.053086 -0.000633 0.000649 0.000000 0.000000 0.000000
# 2 -0.000633 0.013991 -0.008094 0.000000 0.000000 0.000000
# 3 0.000649 -0.008094 0.012484 0.000000 0.000000 0.000000
# 4 0.000000 0.000000 0.000000 0.035750 0.000000 0.000000
# 5 0.000000 0.000000 0.000000 0.000000 0.082820 0.000000
# 6 0.000000 0.000000 0.000000 0.000000 0.000000 0.088673
#
#
# Mechanical properties :
#
#
# Convention : Reuss Voigt Hill
#
# Bulk Modulus (GPa) = 15.77185 45.47852 30.62518
# Shear Modulus (GPa) = 15.42757 22.76736 19.09746
#
# Velocity S-wave (km/s) = 3.03400 3.68572 3.37562
# Velocity P-wave (km/s) = 4.65662 6.72669 5.78500
#
# Compressibility (1/GPa) = 0.06340409
#
# Stress axis : x y z
#
# Youngs Moduli (GPa) = 18.83730 71.47293 80.10504
#
# Poissons Ratio (x) = 0.04527 -0.05202
# Poissons Ratio (y) = 0.01193 0.64841
# Poissons Ratio (z) = -0.01223 0.57854
#
# Static dielectric constant tensor:
#      x y z
#    x 1.627440 0.000000 0.000000 
#    y 0.000000 1.549370 0.000000 
#    z 0.000000 0.000000 1.589890 
# 
# From -- ./inp_files/12933.got.cif
#   From: 2010.05.17/outbox.cif.g08.bks.cpg/sg47_7_cif.got.tgz:12933.got - 2010.06.03 20:15:42.
