data_PCOD9381653
_publ_section_title
;
Structure prediction by ZEFSAII (Michael W. Deem and Ramdas Pophale) SiO2 
 PCOD9381653
Probable space group: P M M M
;
_chemical_formula_sum "Si O2"
_cell_formula_units_Z 64
_cell_length_a 23.605889
_cell_length_b 9.137693
_cell_length_c 18.664340
_cell_angle_alpha 90.000000
_cell_angle_beta 90.000000
_cell_angle_gamma 90.000000
_cell_volume 4025.960975
_symmetry_space_group_name_H-M "P M M M"
_symmetry_group_IT_number 47
_symmetry_cell_setting 'orthorhombic'
loop_
_space_group_symop_operation_xyz
x,y,z
-x,-y,z
x,-y,-z
-x,y,-z
-x,-y,-z
x,y,-z
-x,y,z
x,-y,z
loop_
_atom_site_type_symbol
_atom_site_label
_atom_site_fract_x
_atom_site_fract_y
_atom_site_fract_z
Si Si1 0.766981 0.163456 0.083433
Si Si2 0.249001 0.675576 0.707442
Si Si3 0.066978 0.824416 0.918259
Si Si4 0.435558 0.664739 0.209783
Si Si5 0.846325 0.672031 0.184462
Si Si6 0.564176 0.671407 0.617152
Si Si7 0.669659 0.834347 0.181717
Si Si8 0.317242 0.827216 0.416942
O O1 0.799658 0.289383 0.124466
O O2 0.702029 0.171543 0.106682
O O3 0.787133 0.000000 0.107704
O O4 0.775178 0.172585 0.000000
O O5 0.250190 0.500000 0.701375
O O6 0.187334 0.717191 0.742106
O O7 0.295826 0.729977 0.764626
O O8 0.271519 0.748661 0.634469
O O9 0.100020 0.753604 0.851231
O O10 0.000000 0.792780 0.913485
O O11 0.074143 0.000000 0.915617
O O12 0.085505 0.778770 0.000000
O O13 0.500000 0.682191 0.186644
O O14 0.416379 0.500000 0.192258
O O15 0.434612 0.677377 0.296245
O O16 0.393850 0.782120 0.177839
O O17 0.857922 0.500000 0.189572
O O18 0.500000 0.719128 0.594932
O O19 0.569972 0.500000 0.596575
O O20 0.619325 0.759925 0.592180
O O21 0.673704 0.000000 0.209432
O O22 0.301309 0.809492 0.500000
O O23 0.319506 0.000000 0.399951
#
# Coordination Sequence:
#
# PCOD9381653 Si02
#       8
#     8   8   8   8   8   8   8   8
#     4   9  18  31  45  63  90 122 152 184 227 278
#     4  10  20  34  49  66  91 122 156 190 230 281
#     4   9  18  32  49  71 103 143 179 203 228 270
#     4   9  17  29  45  64  85 109 139 178 224 277
#     4  10  20  31  47  72  98 125 161 204 237 263
#     4   9  18  32  49  67  88 118 152 183 223 283
#     4  10  18  28  46  68  86 108 143 187 230 270
#     4  11  23  35  48  69  95 120 150 193 240 282
#
# _framework density 15.896827
#
# number of rings (size 3 to 8) (size 9 to 14) (size 15 to 20)
#    0.000    2.375    1.250    3.000    0.000    6.000 
#    0.000    3.125    0.000    0.375    0.000    2.625 
#    0.000    0.500    0.000    5.500    0.000    4.000 
#
# Total GULP energy -356290.241947 kJ/mol
# GULP energy per Si atom -5567.035030 kJ/mol
# Density = 1.586064 g / cm^3
# Si number density = 15.896827 Si / 1000 Ang^3
#
#
#
# Elastic Constant Matrix: (Units=GPa)
#
#
# Indices 1 2 3 4 5 6 
#
# 1 81.5753 41.3349 47.1996 0.0000 0.0000 0.0000
# 2 41.3349 54.3427 30.3935 0.0000 0.0000 0.0000
# 3 47.1996 30.3935 48.5754 0.0000 0.0000 0.0000
# 4 0.0000 0.0000 0.0000 292.0120 0.0000 0.0000
# 5 0.0000 0.0000 0.0000 0.0000 18.3431 0.0000
# 6 0.0000 0.0000 0.0000 0.0000 0.0000 27.4099
#
#
#
# Elastic Compliance Matrix: (Units=1/GPa)
#
#
# Indices 1 2 3 4 5 6 
#
# 1 0.031477 -0.010516 -0.024005 0.000000 0.000000 0.000000
# 2 -0.010516 0.031822 -0.009692 0.000000 0.000000 0.000000
# 3 -0.024005 -0.009692 0.049976 0.000000 0.000000 0.000000
# 4 0.000000 0.000000 0.000000 0.003425 0.000000 0.000000
# 5 0.000000 0.000000 0.000000 0.000000 0.054516 0.000000
# 6 0.000000 0.000000 0.000000 0.000000 0.000000 0.036483
#
#
# Mechanical properties :
#
#
# Convention : Reuss Voigt Hill
#
# Bulk Modulus (GPa) = 40.24616 46.92772 43.58694
# Shear Modulus (GPa) = 16.42531 71.92405 44.17468
#
# Velocity S-wave (km/s) = 3.21790 6.73368 5.27719
# Velocity P-wave (km/s) = 6.25928 9.48899 8.03802
#
# Compressibility (1/GPa) = 0.02484709
#
# Stress axis : x y z
#
# Youngs Moduli (GPa) = 31.76950 31.42523 20.00953
#
# Poissons Ratio (x) = 0.33048 0.48033
# Poissons Ratio (y) = 0.33410 0.19394
# Poissons Ratio (z) = 0.76263 0.30458
#
# Static dielectric constant tensor:
#      x y z
#    x 1.556540 0.000000 0.000000 
#    y 0.000000 1.551910 0.000000 
#    z 0.000000 0.000000 1.537520 
# 
# From -- ./inp_files/10173.got.cif
#   From: 2010.05.17/outbox.cif.g08.bks.cpg/sg47_6_cif.got.tgz:10173.got - 2010.06.03 20:15:42.
