data_PCOD9381479
_publ_section_title
;
Structure prediction by ZEFSAII (Michael W. Deem and Ramdas Pophale) SiO2 
 PCOD9381479
Probable space group: P M M M
;
_chemical_formula_sum "Si O2"
_cell_formula_units_Z 48
_cell_length_a 12.088161
_cell_length_b 10.282496
_cell_length_c 20.418700
_cell_angle_alpha 90.000000
_cell_angle_beta 90.000000
_cell_angle_gamma 90.000000
_cell_volume 2537.972273
_symmetry_space_group_name_H-M "P M M M"
_symmetry_group_IT_number 47
_symmetry_cell_setting 'orthorhombic'
loop_
_space_group_symop_operation_xyz
x,y,z
-x,-y,z
x,-y,-z
-x,y,-z
-x,-y,-z
x,y,-z
-x,y,z
x,-y,z
loop_
_atom_site_type_symbol
_atom_site_label
_atom_site_fract_x
_atom_site_fract_y
_atom_site_fract_z
Si Si1 0.712113 0.270828 0.313350
Si Si2 0.373554 0.000000 0.369860
Si Si3 0.131519 0.843787 0.796251
Si Si4 0.500000 0.155147 0.127436
Si Si5 0.500000 0.638820 0.241938
Si Si6 0.847151 0.000000 0.572751
Si Si7 0.123357 0.709974 0.578986
Si Si8 0.258808 0.843108 0.072291
O O1 0.656728 0.131393 0.331515
O O2 0.802850 0.237307 0.258169
O O3 0.610572 0.351729 0.285050
O O4 0.776003 0.334601 0.375341
O O5 0.500000 0.000000 0.389159
O O6 0.285033 0.000000 0.427663
O O7 0.181255 0.804947 0.867089
O O8 0.000000 0.824207 0.793052
O O9 0.152236 0.000000 0.786686
O O10 0.500000 0.239726 0.192896
O O11 0.612949 0.185255 0.088850
O O12 0.500000 0.000000 0.141990
O O13 0.500000 0.500000 0.206068
O O14 0.882296 0.137397 0.601058
O O15 0.889213 0.000000 0.500000
O O16 0.145112 0.703967 0.500000
O O17 0.000000 0.654943 0.589460
O O18 0.250757 0.000000 0.069775
O O19 0.229215 0.792713 0.000000
#
# Coordination Sequence:
#
# PCOD9381479 Si02
#       8
#     8   4   8   4   4   4   8   8
#     4  11  20  34  53  76 110 144 186 229 282 330
#     4  10  18  26  47  74  97 138 181 220 264 328
#     4  10  19  29  47  80 115 149 190 233 276 326
#     4  10  19  34  62  85 111 146 189 237 281 333
#     4  12  26  39  58  85 115 148 186 234 286 338
#     4   8  15  25  38  67 111 146 168 207 273 335
#     4   9  17  30  50  77 108 142 182 228 278 333
#     4   9  17  29  49  82 118 150 185 228 278 329
#
# _framework density 18.912735999999999
#
# number of rings (size 3 to 8) (size 9 to 14) (size 15 to 20)
#    0.000    2.167    3.333    1.000    1.167    2.500 
#    0.000    2.083    0.000    4.000    0.000    1.167 
#    0.000    1.333    0.000    0.000    0.000    0.000 
#
# Total GULP energy -267410.410947 kJ/mol
# GULP energy per Si atom -5571.050228 kJ/mol
# Density = 1.886969 g / cm^3
# Si number density = 18.912736 Si / 1000 Ang^3
#
#
#
# Elastic Constant Matrix: (Units=GPa)
#
#
# Indices 1 2 3 4 5 6 
#
# 1 152.9120 13.6865 62.4044 0.0000 0.0000 0.0000
# 2 13.6865 40.8928 14.1109 0.0000 0.0000 0.0000
# 3 62.4044 14.1109 107.5844 0.0000 0.0000 0.0000
# 4 0.0000 0.0000 0.0000 -4.2502 0.0000 0.0000
# 5 0.0000 0.0000 0.0000 0.0000 22.3941 0.0000
# 6 0.0000 0.0000 0.0000 0.0000 0.0000 -119.6804
#
#
#
# Elastic Compliance Matrix: (Units=1/GPa)
#
#
# Indices 1 2 3 4 5 6 
#
# 1 0.008625 -0.001215 -0.004844 0.000000 0.000000 0.000000
# 2 -0.001215 0.025785 -0.002677 0.000000 0.000000 0.000000
# 3 -0.004844 -0.002677 0.012456 0.000000 0.000000 0.000000
# 4 0.000000 0.000000 0.000000 -0.235286 0.000000 0.000000
# 5 0.000000 0.000000 0.000000 0.000000 0.044655 0.000000
# 6 0.000000 0.000000 0.000000 0.000000 0.000000 -0.008356
#
#
# Mechanical properties :
#
#
# Convention : Reuss Voigt Hill
#
# Bulk Modulus (GPa) = 34.02101 53.53255 43.77678
# Shear Modulus (GPa) = -40.04766 -6.22813 -23.13790
#
# Velocity S-wave (km/s) = -4.60662 -1.81666 -3.50151
# Velocity P-wave (km/s) = 3.20423 4.89552 2.61716
#
# Compressibility (1/GPa) = 0.02939360
#
# Stress axis : x y z
#
# Youngs Moduli (GPa) = 115.93898 38.78270 80.28445
#
# Poissons Ratio (x) = 0.04714 0.38887
# Poissons Ratio (y) = 0.14091 0.21492
# Poissons Ratio (z) = 0.56157 0.10382
#
# Static dielectric constant tensor:
#      x y z
#    x 1.667260 0.000000 0.000000 
#    y 0.000000 1.682910 0.000000 
#    z 0.000000 0.000000 1.678710 
# 
# From -- ./inp_files/30474.got.cif
#   From: 2010.05.17/outbox.cif.g08.bks.cpg/sg47_16_cif.got.tgz:30474.got - 2010.06.03 20:15:42.
