data_PCOD9381188
_publ_section_title
;
Structure prediction by ZEFSAII (Michael W. Deem and Ramdas Pophale) SiO2 
 PCOD9381188
Probable space group: P M M M
;
_chemical_formula_sum "Si O2"
_cell_formula_units_Z 56
_cell_length_a 13.135243
_cell_length_b 20.970231
_cell_length_c 9.829652
_cell_angle_alpha 90.000000
_cell_angle_beta 90.000000
_cell_angle_gamma 90.000000
_cell_volume 2707.568600
_symmetry_space_group_name_H-M "P M M M"
_symmetry_group_IT_number 47
_symmetry_cell_setting 'orthorhombic'
loop_
_space_group_symop_operation_xyz
x,y,z
-x,-y,z
x,-y,-z
-x,y,-z
-x,-y,-z
x,y,-z
-x,y,z
x,-y,z
loop_
_atom_site_type_symbol
_atom_site_label
_atom_site_fract_x
_atom_site_fract_y
_atom_site_fract_z
Si Si1 0.350839 0.000000 0.160518
Si Si2 0.842220 0.000000 0.341448
Si Si3 0.391859 0.885143 0.347915
Si Si4 0.612643 0.689848 0.157463
Si Si5 0.153953 0.855381 0.652700
Si Si6 0.833692 0.258160 0.160469
Si Si7 0.668324 0.570741 0.339561
Si Si8 0.111868 0.377942 0.342996
O O1 0.394773 0.937368 0.230571
O O2 0.236427 0.000000 0.217631
O O3 0.360102 0.000000 0.000000
O O4 0.885842 0.928134 0.330895
O O5 0.803588 0.000000 0.500000
O O6 0.392964 0.914758 0.500000
O O7 0.500000 0.847988 0.339965
O O8 0.278458 0.856693 0.341015
O O9 0.500000 0.718477 0.175827
O O10 0.710332 0.734970 0.178903
O O11 0.623171 0.628733 0.254280
O O12 0.620015 0.668766 0.000000
O O13 0.126316 0.834023 0.500000
O O14 0.125146 0.805179 0.767335
O O15 0.876896 0.319366 0.239505
O O16 0.855082 0.259463 0.000000
O O17 0.645305 0.578315 0.500000
O O18 0.635238 0.500000 0.297197
O O19 0.790872 0.577029 0.323739
O O20 0.119016 0.354457 0.500000
O O21 0.000000 0.407619 0.326683
#
# Coordination Sequence:
#
# PCOD9381188 Si02
#       8
#     4   4   8   8   8   8   8   8
#     4  10  17  23  34  53  76 103 140 188 236 281
#     4   8  16  31  47  62  85 120 157 194 243 306
#     4   9  17  28  39  51  73 109 149 187 232 286
#     4   9  19  35  51  68  97 141 187 222 252 292
#     4   9  17  30  47  66  89 119 158 202 248 303
#     4  10  20  33  50  73 101 132 167 212 262 304
#     4   9  18  32  51  79 112 139 167 210 259 300
#     4   9  18  34  56  79 103 134 170 205 245 300
#
# _framework density 20.682763999999999
#
# number of rings (size 3 to 8) (size 9 to 14) (size 15 to 20)
#    0.000    2.857    0.000    2.143    0.000    6.000 
#    0.000    2.857    0.000    0.000    0.000    4.500 
#    0.000    4.000    0.000    0.000    0.000    0.000 
#
# Total GULP energy -311766.773510 kJ/mol
# GULP energy per Si atom -5567.263813 kJ/mol
# Density = 2.063569 g / cm^3
# Si number density = 20.682764 Si / 1000 Ang^3
#
#
#
# Elastic Constant Matrix: (Units=GPa)
#
#
# Indices 1 2 3 4 5 6 
#
# 1 94.8818 -8.6004 12.9627 0.0000 0.0000 0.0000
# 2 -8.6004 88.9651 63.1148 0.0000 0.0000 0.0000
# 3 12.9627 63.1148 128.4159 0.0000 0.0000 0.0000
# 4 0.0000 0.0000 0.0000 51.2446 0.0000 0.0000
# 5 0.0000 0.0000 0.0000 0.0000 3.0009 0.0000
# 6 0.0000 0.0000 0.0000 0.0000 0.0000 -13.9571
#
#
#
# Elastic Compliance Matrix: (Units=1/GPa)
#
#
# Indices 1 2 3 4 5 6 
#
# 1 0.011148 0.002880 -0.002541 0.000000 0.000000 0.000000
# 2 0.002880 0.018002 -0.009138 0.000000 0.000000 0.000000
# 3 -0.002541 -0.009138 0.012535 0.000000 0.000000 0.000000
# 4 0.000000 0.000000 0.000000 0.019514 0.000000 0.000000
# 5 0.000000 0.000000 0.000000 0.000000 0.333228 0.000000
# 6 0.000000 0.000000 0.000000 0.000000 0.000000 -0.071648
#
#
# Mechanical properties :
#
#
# Convention : Reuss Voigt Hill
#
# Bulk Modulus (GPa) = 41.51706 49.69080 45.60393
# Shear Modulus (GPa) = 14.35107 24.37672 19.36390
#
# Velocity S-wave (km/s) = 2.63699 3.43680 3.06311
# Velocity P-wave (km/s) = 5.42111 6.31080 5.88280
#
# Compressibility (1/GPa) = 0.02408649
#
# Stress axis : x y z
#
# Youngs Moduli (GPa) = 89.70510 55.54956 79.77580
#
# Poissons Ratio (x) = -0.16000 0.20270
# Poissons Ratio (y) = -0.25837 0.72903
# Poissons Ratio (z) = 0.22793 0.50764
#
# Static dielectric constant tensor:
#      x y z
#    x 1.846270 0.000000 0.000000 
#    y 0.000000 1.713010 0.000000 
#    z 0.000000 0.000000 1.683550 
# 
# From -- ./inp_files/7415.got.cif
#   From: 2010.05.17/outbox.cif.g08.bks.cpg/sg47_4_cif.got.tgz:7415.got - 2010.06.03 20:15:42.
