data_PCOD9381897
_publ_section_title
;
Structure prediction by ZEFSAII (Michael W. Deem and Ramdas Pophale) SiO2 
 PCOD9381897
Probable space group: P M M M
;
_chemical_formula_sum "Si O2"
_cell_formula_units_Z 64
_cell_length_a 22.083590
_cell_length_b 19.064754
_cell_length_c 9.173751
_cell_angle_alpha 90.000000
_cell_angle_beta 90.000000
_cell_angle_gamma 90.000000
_cell_volume 3862.316232
_symmetry_space_group_name_H-M "P M M M"
_symmetry_group_IT_number 47
_symmetry_cell_setting 'orthorhombic'
loop_
_space_group_symop_operation_xyz
x,y,z
-x,-y,z
x,-y,-z
-x,y,-z
-x,-y,-z
x,y,-z
-x,y,z
x,-y,z
loop_
_atom_site_type_symbol
_atom_site_label
_atom_site_fract_x
_atom_site_fract_y
_atom_site_fract_z
Si Si1 0.305549 0.421729 0.824880
Si Si2 0.606220 0.779593 0.325780
Si Si3 0.258446 0.080240 0.159657
Si Si4 0.404184 0.921464 0.830630
Si Si5 0.566022 0.639492 0.173316
Si Si6 0.262775 0.717132 0.324675
Si Si7 0.170392 0.829462 0.671260
Si Si8 0.928984 0.079957 0.825173
O O1 0.287603 0.500000 0.779204
O O2 0.376656 0.408698 0.790768
O O3 0.270956 0.358025 0.749023
O O4 0.298894 0.416693 0.000000
O O5 0.601799 0.781005 0.500000
O O6 0.580893 0.852239 0.260588
O O7 0.572851 0.712336 0.259015
O O8 0.677381 0.763969 0.286070
O O9 0.330736 0.078671 0.171634
O O10 0.225317 0.118023 0.290302
O O11 0.237703 0.000000 0.157350
O O12 0.242896 0.111923 0.000000
O O13 0.423463 0.000000 0.781319
O O14 0.422720 0.913786 0.000000
O O15 0.500000 0.608028 0.202634
O O16 0.569800 0.654567 0.000000
O O17 0.263732 0.710634 0.500000
O O18 0.200552 0.755786 0.282186
O O19 0.158334 0.827296 0.500000
O O20 0.113272 0.861601 0.753995
O O21 0.000000 0.090485 0.791764
O O22 0.912982 0.000000 0.778091
O O23 0.922170 0.082185 0.000000
#
# Coordination Sequence:
#
# PCOD9381897 Si02
#       8
#     8   8   8   8   8   8   8   8
#     4   9  18  32  51  75  99 123 153 188 225 270
#     4  10  18  30  46  64  91 122 152 191 235 278
#     4   9  17  27  39  58  85 117 151 186 228 277
#     4   9  17  28  42  61  85 114 149 187 229 280
#     4   9  18  32  50  71  94 122 154 187 227 275
#     4   9  19  32  44  65  96 127 155 184 228 283
#     4  11  20  29  43  66  94 122 159 203 239 276
#     4   9  19  35  50  64  89 129 174 213 248 287
#
# _framework density 16.570367999999998
#
# number of rings (size 3 to 8) (size 9 to 14) (size 15 to 20)
#    0.000    2.625    1.250    2.250    0.000    4.750 
#    0.000    3.125    0.000    0.375    0.000    6.125 
#    0.000    0.500    0.000    5.500    0.000    4.000 
#
# Total GULP energy -356606.789591 kJ/mol
# GULP energy per Si atom -5571.981087 kJ/mol
# Density = 1.653265 g / cm^3
# Si number density = 16.570368 Si / 1000 Ang^3
#
#
#
# Elastic Constant Matrix: (Units=GPa)
#
#
# Indices 1 2 3 4 5 6 
#
# 1 75.6201 31.9071 20.2252 0.0000 0.0000 0.0000
# 2 31.9071 114.0918 34.1498 0.0000 0.0000 0.0000
# 3 20.2252 34.1498 20.4635 0.0000 0.0000 0.0000
# 4 0.0000 0.0000 0.0000 9.7324 0.0000 0.0000
# 5 0.0000 0.0000 0.0000 0.0000 12.0195 0.0000
# 6 0.0000 0.0000 0.0000 0.0000 0.0000 8.6496
#
#
#
# Elastic Compliance Matrix: (Units=1/GPa)
#
#
# Indices 1 2 3 4 5 6 
#
# 1 0.017995 0.000581 -0.018756 0.000000 0.000000 0.000000
# 2 0.000581 0.017531 -0.029831 0.000000 0.000000 0.000000
# 3 -0.018756 -0.029831 0.117187 0.000000 0.000000 0.000000
# 4 0.000000 0.000000 0.000000 0.102750 0.000000 0.000000
# 5 0.000000 0.000000 0.000000 0.000000 0.083198 0.000000
# 6 0.000000 0.000000 0.000000 0.000000 0.000000 0.115612
#
#
# Mechanical properties :
#
#
# Convention : Reuss Voigt Hill
#
# Bulk Modulus (GPa) = 17.63584 42.52664 30.08124
# Shear Modulus (GPa) = 8.78449 14.33986 11.56218
#
# Velocity S-wave (km/s) = 2.30496 2.94495 2.64438
# Velocity P-wave (km/s) = 4.21306 6.10603 5.24564
#
# Compressibility (1/GPa) = 0.05670272
#
# Stress axis : x y z
#
# Youngs Moduli (GPa) = 55.57074 57.04099 8.53335
#
# Poissons Ratio (x) = -0.03317 0.16005
# Poissons Ratio (y) = -0.03231 0.25456
# Poissons Ratio (z) = 1.04228 1.70159
#
# Static dielectric constant tensor:
#      x y z
#    x 1.580120 0.000000 0.000000 
#    y 0.000000 1.559130 0.000000 
#    z 0.000000 0.000000 1.562520 
# 
# From -- ./inp_files/12868.got.cif
#   From: 2010.05.17/outbox.cif.g08.bks.cpg/sg47_7_cif.got.tgz:12868.got - 2010.06.03 20:15:42.
