data_PCOD9381639
_publ_section_title
;
Structure prediction by ZEFSAII (Michael W. Deem and Ramdas Pophale) SiO2 
 PCOD9381639
Probable space group: P M M M
;
_chemical_formula_sum "Si O2"
_cell_formula_units_Z 52
_cell_length_a 18.660741
_cell_length_b 17.801525
_cell_length_c 7.821453
_cell_angle_alpha 90.000000
_cell_angle_beta 90.000000
_cell_angle_gamma 90.000000
_cell_volume 2598.205714
_symmetry_space_group_name_H-M "P M M M"
_symmetry_group_IT_number 47
_symmetry_cell_setting 'orthorhombic'
loop_
_space_group_symop_operation_xyz
x,y,z
-x,-y,z
x,-y,-z
-x,y,-z
-x,-y,-z
x,y,-z
-x,y,z
x,-y,z
loop_
_atom_site_type_symbol
_atom_site_label
_atom_site_fract_x
_atom_site_fract_y
_atom_site_fract_z
Si Si1 0.084139 0.592136 0.500000
Si Si2 0.923798 0.911497 0.205705
Si Si3 0.769834 0.085330 0.703078
Si Si4 0.183658 0.411319 0.188587
Si Si5 0.500000 0.613471 0.696224
Si Si6 0.500000 0.216370 0.801351
Si Si7 0.656469 0.628785 0.707781
Si Si8 0.651340 0.802306 0.705696
O O1 0.084971 0.500000 0.500000
O O2 0.130305 0.618251 0.664838
O O3 0.000000 0.614032 0.500000
O O4 0.849002 0.881242 0.271242
O O5 0.000000 0.879063 0.264751
O O6 0.923875 0.000000 0.254842
O O7 0.922520 0.908614 0.000000
O O8 0.758128 0.079458 0.500000
O O9 0.710750 0.141422 0.774447
O O10 0.766831 0.000000 0.773759
O O11 0.168502 0.500000 0.179710
O O12 0.267920 0.404709 0.234743
O O13 0.171526 0.378116 0.000000
O O14 0.500000 0.587417 0.500000
O O15 0.500000 0.704886 0.698464
O O16 0.579432 0.594963 0.768579
O O17 0.428109 0.173199 0.755927
O O18 0.500000 0.236760 0.000000
O O19 0.654361 0.625415 0.500000
O O20 0.659032 0.716091 0.763869
O O21 0.656510 0.800027 0.500000
#
# Coordination Sequence:
#
# PCOD9381639 Si02
#       8
#     4   8   8   8   4   4   8   8
#     4   9  18  34  56  79 105 139 176 215 260 311
#     4   8  14  25  41  61  86 116 146 178 223 278
#     4   9  17  29  46  69  93 117 153 201 246 289
#     4  10  20  33  52  80 111 139 171 216 263 305
#     4   8  16  30  49  72  99 133 170 206 243 289
#     4  10  18  28  45  68  91 117 159 207 244 283
#     4   9  16  30  51  72  98 134 174 211 250 302
#     4   9  18  32  49  68  93 126 162 199 244 295
#
# _framework density 20.013811
#
# number of rings (size 3 to 8) (size 9 to 14) (size 15 to 20)
#    0.000    3.000    0.769    2.077    0.000    3.692 
#    0.000    3.846    0.000    5.538    0.000    0.000 
#    0.000    0.000    0.000    0.000    0.000    0.000 
#
# Total GULP energy -289538.925246 kJ/mol
# GULP energy per Si atom -5568.056255 kJ/mol
# Density = 1.996826 g / cm^3
# Si number density = 20.013811 Si / 1000 Ang^3
#
#
#
# Elastic Constant Matrix: (Units=GPa)
#
#
# Indices 1 2 3 4 5 6 
#
# 1 171.3981 29.2981 38.2743 0.0000 0.0000 0.0000
# 2 29.2981 27.6121 9.6300 0.0000 0.0000 0.0000
# 3 38.2743 9.6300 61.6867 0.0000 0.0000 0.0000
# 4 0.0000 0.0000 0.0000 2.9969 0.0000 0.0000
# 5 0.0000 0.0000 0.0000 0.0000 31.8014 0.0000
# 6 0.0000 0.0000 0.0000 0.0000 0.0000 30.6478
#
#
#
# Elastic Compliance Matrix: (Units=1/GPa)
#
#
# Indices 1 2 3 4 5 6 
#
# 1 0.007885 -0.007044 -0.003793 0.000000 0.000000 0.000000
# 2 -0.007044 0.044594 -0.002591 0.000000 0.000000 0.000000
# 3 -0.003793 -0.002591 0.018969 0.000000 0.000000 0.000000
# 4 0.000000 0.000000 0.000000 0.333674 0.000000 0.000000
# 5 0.000000 0.000000 0.000000 0.000000 0.031445 0.000000
# 6 0.000000 0.000000 0.000000 0.000000 0.000000 0.032629
#
#
# Mechanical properties :
#
#
# Convention : Reuss Voigt Hill
#
# Bulk Modulus (GPa) = 22.42554 46.12242 34.27398
# Shear Modulus (GPa) = 9.78633 25.32217 17.55425
#
# Velocity S-wave (km/s) = 2.21369 3.56087 2.96481
# Velocity P-wave (km/s) = 4.21465 6.32469 5.37424
#
# Compressibility (1/GPa) = 0.04459201
#
# Stress axis : x y z
#
# Youngs Moduli (GPa) = 126.81562 22.42460 52.71808
#
# Poissons Ratio (x) = 0.15796 0.19996
# Poissons Ratio (y) = 0.89331 0.13659
# Poissons Ratio (z) = 0.48101 0.05810
#
# Static dielectric constant tensor:
#      x y z
#    x 1.749560 0.000000 0.000000 
#    y 0.000000 1.707600 0.000000 
#    z 0.000000 0.000000 1.743310 
# 
# From -- ./inp_files/7729.got.cif
#   From: 2010.05.17/outbox.cif.g08.bks.cpg/sg47_4_cif.got.tgz:7729.got - 2010.06.03 20:15:42.
