data_PCOD9381061
_publ_section_title
;
Structure prediction by ZEFSAII (Michael W. Deem and Ramdas Pophale) SiO2 
 PCOD9381061
Probable space group: I M A 2
;
_chemical_formula_sum "Si O2"
_cell_formula_units_Z 48
_cell_length_a 8.830717
_cell_length_b 33.662729
_cell_length_c 7.367026
_cell_angle_alpha 90.000000
_cell_angle_beta 90.000000
_cell_angle_gamma 90.000000
_cell_volume 2189.966596
_symmetry_space_group_name_H-M "I M A 2"
_symmetry_group_IT_number 46
_symmetry_cell_setting 'orthorhombic'
loop_
_space_group_symop_operation_xyz
x,y,z
-x,-y,z
1/2-x,y,z
1/2+x,-y,z
1/2+x,1/2+y,1/2+z
1/2-x,1/2-y,1/2+z
-x,1/2+y,1/2+z
x,1/2-y,1/2+z
loop_
_atom_site_type_symbol
_atom_site_label
_atom_site_fract_x
_atom_site_fract_y
_atom_site_fract_z
Si Si1 0.567736 0.873383 0.041800
Si Si2 0.922887 0.293754 0.096956
Si Si3 0.074079 0.041033 0.628931
Si Si4 0.432991 0.622136 0.134966
Si Si5 0.574358 0.959101 0.072191
Si Si6 0.923455 0.207543 0.031492
O O1 0.750000 0.873208 0.040845
O O2 0.515158 0.915363 0.128493
O O3 0.506432 0.831045 0.109580
O O4 0.506200 0.876002 0.835447
O O5 0.750000 0.290672 0.026510
O O6 0.983596 0.336830 0.038162
O O7 0.995959 0.251016 0.060437
O O8 0.916129 0.296701 0.314586
O O9 0.250000 0.042974 0.581152
O O10 0.989215 0.080215 0.559920
O O11 0.064540 0.040779 0.850593
O O12 0.000000 0.000000 0.567370
O O13 0.250000 0.622762 0.147468
O O14 0.750000 0.960797 0.121253
O O15 0.500000 0.000000 0.135274
O O16 0.750000 0.207944 0.100449
#
# Coordination Sequence:
#
# PCOD9381061 Si02
#       6
#     8   8   8   8   8   8
#     4   9  16  25  35  52  76 102 130 163 199 238
#     4   8  15  26  42  60  79 103 135 168 200 236
#     4   9  15  22  32  49  73 102 133 165 198 240
#     4   9  15  24  37  53  74 103 133 164 201 242
#     4   8  14  21  30  45  68  95 124 153 185 224
#     4   9  16  28  43  59  78 105 136 167 199 238
#
# _framework density 21.918144000000002
#
# number of rings (size 3 to 8) (size 9 to 14) (size 15 to 20)
#    0.000    3.333    0.000    3.500    0.000    4.667 
#    0.000    4.167    0.000    0.000    0.000    0.000 
#    0.000    1.333    0.000    5.667    0.000    4.667 
#
# Total GULP energy -133665.539584 kJ/mol
# GULP energy per Si atom -5569.397483 kJ/mol
# Density = 2.186826 g / cm^3
# Si number density = 21.918144 Si / 1000 Ang^3
#
#
#
# Elastic Constant Matrix: (Units=GPa)
#
#
# Indices 1 2 3 4 5 6 
#
# 1 50.4523 62.0055 -6.2380 -0.0035 -0.0006 -0.0003
# 2 62.0055 296.7723 -1.5247 -0.0043 0.0009 0.0003
# 3 -6.2380 -1.5247 66.3403 -0.0005 0.0007 0.0007
# 4 -0.0035 -0.0043 -0.0005 5.6780 0.0010 -0.0001
# 5 -0.0006 0.0009 0.0007 0.0010 -9.8593 -0.0011
# 6 -0.0003 0.0003 0.0007 -0.0001 -0.0011 39.3412
#
#
#
# Elastic Compliance Matrix: (Units=1/GPa)
#
#
# Indices 1 2 3 4 5 6 
#
# 1 0.027050 -0.005639 0.002414 0.000013 -0.000002 0.000000
# 2 -0.005639 0.004546 -0.000426 0.000000 0.000001 0.000000
# 3 0.002414 -0.000426 0.015291 0.000002 0.000001 0.000000
# 4 0.000013 0.000000 0.000002 0.176117 0.000017 0.000001
# 5 -0.000002 0.000001 0.000001 0.000017 -0.101427 -0.000003
# 6 0.000000 0.000000 0.000000 0.000001 -0.000003 0.025419
#
#
# Mechanical properties :
#
#
# Convention : Reuss Voigt Hill
#
# Bulk Modulus (GPa) = 25.26266 58.00562 41.63414
# Shear Modulus (GPa) = 29.85222 30.98678 30.41950
#
# Velocity S-wave (km/s) = 3.69451 3.76407 3.72945
# Velocity P-wave (km/s) = 5.45437 6.73892 6.13038
#
# Compressibility (1/GPa) = 0.03958411
#
# Stress axis : x y z
#
# Youngs Moduli (GPa) = 36.96906 219.99270 65.39797
#
# Poissons Ratio (x) = 1.24057 -0.15786
# Poissons Ratio (y) = 0.20847 0.02785
# Poissons Ratio (z) = -0.08924 0.09367
#
# Static dielectric constant tensor:
#      x y z
#    x 1.739760 0.000000 0.000000 
#    y 0.000000 1.902690 0.000000 
#    z 0.000000 0.000000 1.932320 
# 
# From -- ./inp_files/9561.got.cif
#   From: 2010.05.17/outbox.cif.g08.bks.cpg/sg46_5_cif.got.tgz:9561.got - 2010.06.03 19:58:25.
