data_PCOD9381624
_publ_section_title
;
Structure prediction by ZEFSAII (Michael W. Deem and Ramdas Pophale) SiO2 
 PCOD9381624
Probable space group: P M M M
;
_chemical_formula_sum "Si O2"
_cell_formula_units_Z 56
_cell_length_a 30.331278
_cell_length_b 7.323036
_cell_length_c 11.601089
_cell_angle_alpha 90.000000
_cell_angle_beta 90.000000
_cell_angle_gamma 90.000000
_cell_volume 2576.799558
_symmetry_space_group_name_H-M "P M M M"
_symmetry_group_IT_number 47
_symmetry_cell_setting 'orthorhombic'
loop_
_space_group_symop_operation_xyz
x,y,z
-x,-y,z
x,-y,-z
-x,y,-z
-x,-y,-z
x,y,-z
-x,y,z
x,-y,z
loop_
_atom_site_type_symbol
_atom_site_label
_atom_site_fract_x
_atom_site_fract_y
_atom_site_fract_z
Si Si1 0.799406 0.215601 0.699306
Si Si2 0.051741 0.778708 0.870067
Si Si3 0.726387 0.281418 0.129827
Si Si4 0.452880 0.721162 0.134032
Si Si5 0.102548 0.222986 0.635003
Si Si6 0.363341 0.275603 0.749444
Si Si7 0.264670 0.222406 0.500000
Si Si8 0.365157 0.296765 0.500000
O O1 0.774929 0.241132 0.820293
O O2 0.847894 0.284372 0.669144
O O3 0.763342 0.283214 0.609296
O O4 0.803204 0.000000 0.679971
O O5 0.073760 0.720157 0.747957
O O6 0.000000 0.731890 0.865611
O O7 0.055380 0.000000 0.870713
O O8 0.068082 0.720530 0.000000
O O9 0.722667 0.500000 0.127712
O O10 0.684678 0.215014 0.205504
O O11 0.721720 0.213590 0.000000
O O12 0.500000 0.782009 0.186686
O O13 0.452385 0.500000 0.144551
O O14 0.405383 0.781835 0.177395
O O15 0.454545 0.765996 0.000000
O O16 0.092539 0.277563 0.500000
O O17 0.100619 0.000000 0.632955
O O18 0.361500 0.500000 0.746894
O O19 0.374446 0.209665 0.621572
O O20 0.312259 0.306461 0.500000
O O21 0.268992 0.000000 0.500000
O O22 0.385019 0.500000 0.500000
#
# Coordination Sequence:
#
# PCOD9381624 Si02
#       8
#     8   8   8   8   8   8   4   4
#     4  10  19  31  47  66  91 121 153 189 228 269
#     4   8  14  24  37  55  82 116 152 188 227 273
#     4  10  20  32  46  65  91 122 153 188 227 266
#     4   8  13  22  37  56  80 112 144 172 211 266
#     4   9  16  26  41  61  86 117 152 190 231 273
#     4   9  16  26  40  60  85 112 146 182 217 262
#     4  10  18  30  46  63  86 119 154 188 222 259
#     4  10  18  28  45  66  86 115 151 183 222 269
#
# _framework density 21.732385000000001
#
# number of rings (size 3 to 8) (size 9 to 14) (size 15 to 20)
#    0.000    2.857    2.143    1.286    0.000    2.857 
#    0.000    3.214    0.000    2.143    0.000    0.000 
#    0.000    3.429    0.000   12.286    0.000   12.286 
#
# Total GULP energy -311878.023234 kJ/mol
# GULP energy per Si atom -5569.250415 kJ/mol
# Density = 2.168292 g / cm^3
# Si number density = 21.732385 Si / 1000 Ang^3
#
#
#
# Elastic Constant Matrix: (Units=GPa)
#
#
# Indices 1 2 3 4 5 6 
#
# 1 95.9919 -2.7954 63.4876 0.0000 0.0000 0.0000
# 2 -2.7954 84.4181 -3.1711 0.0000 0.0000 0.0000
# 3 63.4876 -3.1711 156.9024 0.0000 0.0000 0.0000
# 4 0.0000 0.0000 0.0000 -19.5070 0.0000 0.0000
# 5 0.0000 0.0000 0.0000 0.0000 55.7869 0.0000
# 6 0.0000 0.0000 0.0000 0.0000 0.0000 -2.0798
#
#
#
# Elastic Compliance Matrix: (Units=1/GPa)
#
#
# Indices 1 2 3 4 5 6 
#
# 1 0.014230 0.000255 -0.005753 0.000000 0.000000 0.000000
# 2 0.000255 0.011859 0.000136 0.000000 0.000000 0.000000
# 3 -0.005753 0.000136 0.008704 0.000000 0.000000 0.000000
# 4 0.000000 0.000000 0.000000 -0.051264 0.000000 0.000000
# 5 0.000000 0.000000 0.000000 0.000000 0.017925 0.000000
# 6 0.000000 0.000000 0.000000 0.000000 0.000000 -0.480807
#
#
# Mechanical properties :
#
#
# Convention : Reuss Voigt Hill
#
# Bulk Modulus (GPa) = 41.54415 50.26164 45.90290
# Shear Modulus (GPa) = -10.85524 25.49277 7.31877
#
# Velocity S-wave (km/s) = -2.23736 3.42867 1.83711
# Velocity P-wave (km/s) = 3.53318 6.23315 5.06633
#
# Compressibility (1/GPa) = 0.02407078
#
# Stress axis : x y z
#
# Youngs Moduli (GPa) = 70.27573 84.32151 114.89190
#
# Poissons Ratio (x) = -0.02151 0.66093
# Poissons Ratio (y) = -0.01793 -0.01568
# Poissons Ratio (z) = 0.40427 -0.01151
#
# Static dielectric constant tensor:
#      x y z
#    x 1.756340 0.000000 0.000000 
#    y 0.000000 1.778890 0.000000 
#    z 0.000000 0.000000 1.846330 
# 
# From -- ./inp_files/19620.got.cif
#   From: 2010.05.17/outbox.cif.g08.bks.cpg/sg47_10_cif.got.tgz:19620.got - 2010.06.03 20:15:42.
