data_PCOD9381501
_publ_section_title
;
Structure prediction by ZEFSAII (Michael W. Deem and Ramdas Pophale) SiO2 
 PCOD9381501
Probable space group: P M M M
;
_chemical_formula_sum "Si O2"
_cell_formula_units_Z 64
_cell_length_a 29.325537
_cell_length_b 15.387774
_cell_length_c 7.676967
_cell_angle_alpha 90.000000
_cell_angle_beta 90.000000
_cell_angle_gamma 90.000000
_cell_volume 3464.267715
_symmetry_space_group_name_H-M "P M M M"
_symmetry_group_IT_number 47
_symmetry_cell_setting 'orthorhombic'
loop_
_space_group_symop_operation_xyz
x,y,z
-x,-y,z
x,-y,-z
-x,y,-z
-x,-y,-z
x,y,-z
-x,y,z
x,-y,z
loop_
_atom_site_type_symbol
_atom_site_label
_atom_site_fract_x
_atom_site_fract_y
_atom_site_fract_z
Si Si1 0.186489 0.902377 0.291307
Si Si2 0.133360 0.402250 0.706138
Si Si3 0.236109 0.597611 0.796007
Si Si4 0.269137 0.222580 0.207638
Si Si5 0.049538 0.721313 0.210334
Si Si6 0.451035 0.895438 0.791610
Si Si7 0.081190 0.904354 0.795191
Si Si8 0.350840 0.899014 0.786274
O O1 0.183306 0.900297 0.500000
O O2 0.222704 0.831228 0.234632
O O3 0.135567 0.889293 0.220364
O O4 0.201418 0.000000 0.237803
O O5 0.141013 0.403833 0.500000
O O6 0.121298 0.500000 0.765494
O O7 0.182299 0.379810 0.786279
O O8 0.092352 0.337334 0.741536
O O9 0.241892 0.500000 0.720929
O O10 0.263086 0.679922 0.720211
O O11 0.247946 0.591882 0.000000
O O12 0.310783 0.164117 0.275227
O O13 0.275910 0.230438 0.000000
O O14 0.056853 0.819458 0.277504
O O15 0.000000 0.687853 0.268159
O O16 0.049249 0.724825 0.000000
O O17 0.500000 0.863129 0.721531
O O18 0.401188 0.867861 0.727505
O O19 0.450967 0.000000 0.769466
O O20 0.451497 0.879541 0.000000
O O21 0.071309 0.000000 0.719489
O O22 0.069690 0.908442 0.000000
O O23 0.343727 0.000000 0.734198
O O24 0.350949 0.899453 0.000000
#
# Coordination Sequence:
#
# PCOD9381501 Si02
#       8
#     8   8   8   8   8   8   8   8
#     4  10  20  31  43  62  88 115 141 169 202 242
#     4  10  21  36  53  71  89 110 137 169 206 249
#     4   9  18  32  48  65  85 109 138 172 209 249
#     4  10  18  27  42  62  84 111 141 173 210 251
#     4  10  21  35  51  72  94 114 137 166 203 245
#     4   7   9  14  25  42  68 103 137 168 206 247
#     4   9  18  33  51  68  87 113 144 174 201 233
#     4   8  13  20  31  51  79 108 138 172 208 246
#
# _framework density 18.474322999999998
#
# number of rings (size 3 to 8) (size 9 to 14) (size 15 to 20)
#    0.000    2.875    0.000    3.000    0.000    6.750 
#    0.000    2.500    0.000    0.000    0.000    2.625 
#    0.000    1.000    0.000   11.625    0.000    4.000 
#
# Total GULP energy -356714.589291 kJ/mol
# GULP energy per Si atom -5573.665458 kJ/mol
# Density = 1.843227 g / cm^3
# Si number density = 18.474323 Si / 1000 Ang^3
#
#
#
# Elastic Constant Matrix: (Units=GPa)
#
#
# Indices 1 2 3 4 5 6 
#
# 1 47.1065 53.2923 -0.1284 0.0000 0.0000 0.0000
# 2 53.2923 100.4938 5.8039 0.0000 0.0000 0.0000
# 3 -0.1284 5.8039 33.4676 0.0000 0.0000 0.0000
# 4 0.0000 0.0000 0.0000 -7.9996 0.0000 0.0000
# 5 0.0000 0.0000 0.0000 0.0000 -44.0013 0.0000
# 6 0.0000 0.0000 0.0000 0.0000 0.0000 16.4538
#
#
#
# Elastic Compliance Matrix: (Units=1/GPa)
#
#
# Indices 1 2 3 4 5 6 
#
# 1 0.053952 -0.028913 0.005221 0.000000 0.000000 0.000000
# 2 -0.028913 0.025546 -0.004541 0.000000 0.000000 0.000000
# 3 0.005221 -0.004541 0.030687 0.000000 0.000000 0.000000
# 4 0.000000 0.000000 0.000000 -0.125006 0.000000 0.000000
# 5 0.000000 0.000000 0.000000 0.000000 -0.022727 0.000000
# 6 0.000000 0.000000 0.000000 0.000000 0.000000 0.060776
#
#
# Mechanical properties :
#
#
# Convention : Reuss Voigt Hill
#
# Bulk Modulus (GPa) = 18.61519 33.22261 25.91890
# Shear Modulus (GPa) = 51.22988 1.03059 26.13023
#
# Velocity S-wave (km/s) = 5.27167 0.74770 3.76494
# Velocity P-wave (km/s) = 6.86674 4.33216 5.74107
#
# Compressibility (1/GPa) = 0.05371958
#
# Stress axis : x y z
#
# Youngs Moduli (GPa) = 18.53501 39.14573 32.58695
#
# Poissons Ratio (x) = 1.13180 -0.17014
# Poissons Ratio (y) = 0.53589 0.14798
# Poissons Ratio (z) = -0.09677 0.17776
#
# Static dielectric constant tensor:
#      x y z
#    x 1.629940 0.000000 0.000000 
#    y 0.000000 1.940140 0.000000 
#    z 0.000000 0.000000 1.687090 
# 
# From -- ./inp_files/8330.got.cif
#   From: 2010.05.17/outbox.cif.g08.bks.cpg/sg47_5_cif.got.tgz:8330.got - 2010.06.03 20:15:42.
