data_PCOD9381949
_publ_section_title
;
Structure prediction by ZEFSAII (Michael W. Deem and Ramdas Pophale) SiO2 
 PCOD9381949
Probable space group: P M M M
;
_chemical_formula_sum "Si O2"
_cell_formula_units_Z 64
_cell_length_a 7.744894
_cell_length_b 14.914215
_cell_length_c 32.946170
_cell_angle_alpha 90.000000
_cell_angle_beta 90.000000
_cell_angle_gamma 90.000000
_cell_volume 3805.579621
_symmetry_space_group_name_H-M "P M M M"
_symmetry_group_IT_number 47
_symmetry_cell_setting 'orthorhombic'
loop_
_space_group_symop_operation_xyz
x,y,z
-x,-y,z
x,-y,-z
-x,y,-z
-x,-y,-z
x,y,-z
-x,y,z
x,-y,z
loop_
_atom_site_type_symbol
_atom_site_label
_atom_site_fract_x
_atom_site_fract_y
_atom_site_fract_z
Si Si1 0.295847 0.288878 0.955642
Si Si2 0.206825 0.099931 0.921439
Si Si3 0.795549 0.397756 0.719380
Si Si4 0.292073 0.396430 0.369068
Si Si5 0.706103 0.713009 0.798546
Si Si6 0.292700 0.901204 0.173596
Si Si7 0.292123 0.392035 0.456286
Si Si8 0.288187 0.396412 0.877118
O O1 0.500000 0.308402 0.957008
O O2 0.275581 0.183422 0.946627
O O3 0.226900 0.344189 0.917242
O O4 0.221982 0.310569 0.000000
O O5 0.257157 0.112828 0.874256
O O6 0.000000 0.101079 0.924276
O O7 0.267317 0.000000 0.933618
O O8 0.722274 0.500000 0.722285
O O9 0.754879 0.358421 0.674779
O O10 0.736537 0.336379 0.756292
O O11 0.000000 0.404919 0.722381
O O12 0.500000 0.398103 0.371128
O O13 0.230251 0.500000 0.367538
O O14 0.229363 0.357656 0.412355
O O15 0.500000 0.718831 0.803954
O O16 0.774168 0.814564 0.802460
O O17 0.771411 0.654043 0.836436
O O18 0.500000 0.904535 0.178553
O O19 0.223589 0.000000 0.184585
O O20 0.223897 0.359138 0.500000
O O21 0.500000 0.379001 0.457084
O O22 0.265371 0.500000 0.455574
O O23 0.500000 0.394482 0.876995
O O24 0.236186 0.500000 0.877203
#
# Coordination Sequence:
#
# PCOD9381949 Si02
#       8
#     8   8   8   8   8   8   8   8
#     4  10  20  34  51  70  91 115 143 172 204 242
#     4  10  20  33  50  71  94 117 137 162 200 244
#     4  10  20  30  39  56  84 115 146 181 218 250
#     4   8  13  22  36  52  72 102 140 179 218 258
#     4  10  18  30  49  68  86 109 137 169 205 248
#     4   9  17  31  52  74  93 110 131 163 202 246
#     4   7   9  14  27  48  70  92 126 175 222 257
#     4   9  17  30  48  70  91 109 135 172 208 240
#
# _framework density 16.817412999999998
#
# number of rings (size 3 to 8) (size 9 to 14) (size 15 to 20)
#    0.000    2.875    1.250    2.250    0.000    3.250 
#    0.000    2.500    0.000    0.750    0.000    3.500 
#    0.000    0.000    0.000    0.000    0.000    0.625 
#
# Total GULP energy -356425.588426 kJ/mol
# GULP energy per Si atom -5569.149819 kJ/mol
# Density = 1.677914 g / cm^3
# Si number density = 16.817413 Si / 1000 Ang^3
#
#
#
# Elastic Constant Matrix: (Units=GPa)
#
#
# Indices 1 2 3 4 5 6 
#
# 1 20.5082 8.1215 -0.4314 0.0000 0.0000 0.0000
# 2 8.1215 75.7097 71.6463 0.0000 0.0000 0.0000
# 3 -0.4314 71.6463 161.8120 0.0000 0.0000 0.0000
# 4 0.0000 0.0000 0.0000 3.9858 0.0000 0.0000
# 5 0.0000 0.0000 0.0000 0.0000 -44.3018 0.0000
# 6 0.0000 0.0000 0.0000 0.0000 0.0000 3.5731
#
#
#
# Elastic Compliance Matrix: (Units=1/GPa)
#
#
# Indices 1 2 3 4 5 6 
#
# 1 0.052809 -0.009980 0.004560 0.000000 0.000000 0.000000
# 2 -0.009980 0.024620 -0.010928 0.000000 0.000000 0.000000
# 3 0.004560 -0.010928 0.011031 0.000000 0.000000 0.000000
# 4 0.000000 0.000000 0.000000 0.250891 0.000000 0.000000
# 5 0.000000 0.000000 0.000000 0.000000 -0.022572 0.000000
# 6 0.000000 0.000000 0.000000 0.000000 0.000000 0.279867
#
#
# Mechanical properties :
#
#
# Convention : Reuss Voigt Hill
#
# Bulk Modulus (GPa) = 17.93275 46.30030 32.11652
# Shear Modulus (GPa) = 7.71690 4.56432 6.14061
#
# Velocity S-wave (km/s) = 2.14443 1.64922 1.91292
# Velocity P-wave (km/s) = 4.10095 5.58726 4.90078
#
# Compressibility (1/GPa) = 0.05576390
#
# Stress axis : x y z
#
# Youngs Moduli (GPa) = 18.93618 40.61707 90.65590
#
# Poissons Ratio (x) = 0.40535 -0.41335
# Poissons Ratio (y) = 0.18898 0.99067
# Poissons Ratio (z) = -0.08634 0.44386
#
# Static dielectric constant tensor:
#      x y z
#    x 1.612290 0.000000 0.000000 
#    y 0.000000 1.567190 0.000000 
#    z 0.000000 0.000000 1.608370 
# 
# From -- ./inp_files/22187.got.cif
#   From: 2010.05.17/outbox.cif.g08.bks.cpg/sg47_12_cif.got.tgz:22187.got - 2010.06.03 20:15:42.
