data_PCOD9381722
_publ_section_title
;
Structure prediction by ZEFSAII (Michael W. Deem and Ramdas Pophale) SiO2 
 PCOD9381722
Probable space group: P M M M
;
_chemical_formula_sum "Si O2"
_cell_formula_units_Z 40
_cell_length_a 28.912329
_cell_length_b 9.302384
_cell_length_c 7.576128
_cell_angle_alpha 90.000000
_cell_angle_beta 90.000000
_cell_angle_gamma 90.000000
_cell_volume 2037.626799
_symmetry_space_group_name_H-M "P M M M"
_symmetry_group_IT_number 47
_symmetry_cell_setting 'orthorhombic'
loop_
_space_group_symop_operation_xyz
x,y,z
-x,-y,z
x,-y,-z
-x,y,-z
-x,-y,-z
x,y,-z
-x,y,z
x,-y,z
loop_
_atom_site_type_symbol
_atom_site_label
_atom_site_fract_x
_atom_site_fract_y
_atom_site_fract_z
Si Si1 0.592538 0.662268 0.210676
Si Si2 0.682005 0.164944 0.784328
Si Si3 0.225347 0.330255 0.206651
Si Si4 0.945800 0.268030 0.500000
Si Si5 0.149588 0.323370 0.500000
Si Si6 0.500000 0.837471 0.289927
Si Si7 0.945915 0.500000 0.805707
O O1 0.588810 0.500000 0.280957
O O2 0.637500 0.746301 0.278727
O O3 0.545918 0.751390 0.238978
O O4 0.598668 0.651483 0.000000
O O5 0.730024 0.240248 0.734894
O O6 0.679798 0.000000 0.726821
O O7 0.681065 0.165459 0.000000
O O8 0.236428 0.500000 0.222220
O O9 0.181330 0.301602 0.328637
O O10 0.215986 0.300486 0.000000
O O11 0.893225 0.209824 0.500000
O O12 0.940378 0.363192 0.678311
O O13 0.000000 0.212527 0.500000
O O14 0.138297 0.500000 0.500000
O O15 0.500000 0.847079 0.500000
O O16 0.500000 0.000000 0.217108
O O17 0.000000 0.500000 0.836643
O O18 0.922441 0.500000 0.000000
#
# Coordination Sequence:
#
# PCOD9381722 Si02
#       7
#     8   8   8   4   4   4   4
#     4  10  20  35  58  84 107 135 174 216 262 319
#     4   9  17  32  55  79 101 129 167 210 257 309
#     4   9  18  32  49  70 100 134 168 211 261 313
#     4   9  16  26  38  59  92 128 169 212 252 304
#     4  10  18  29  43  67  96 133 175 209 252 313
#     4  11  24  39  52  74 110 145 180 219 260 308
#     4   8  13  21  34  53  81 120 165 209 250 293
#
# _framework density 19.630680000000002
#
# number of rings (size 3 to 8) (size 9 to 14) (size 15 to 20)
#    0.000    2.600    1.000    2.400    0.000    6.400 
#    1.800    0.500    0.000    0.000    0.000    0.000 
#    0.000    1.600    0.000    5.000    0.000    5.000 
#
# Total GULP energy -222685.789121 kJ/mol
# GULP energy per Si atom -5567.144728 kJ/mol
# Density = 1.958600 g / cm^3
# Si number density = 19.630680 Si / 1000 Ang^3
#
#
#
# Elastic Constant Matrix: (Units=GPa)
#
#
# Indices 1 2 3 4 5 6 
#
# 1 170.1734 70.6051 19.8663 0.0000 0.0000 0.0000
# 2 70.6051 98.6966 18.6627 0.0000 0.0000 0.0000
# 3 19.8663 18.6627 77.6818 0.0000 0.0000 0.0000
# 4 0.0000 0.0000 0.0000 5.5287 0.0000 0.0000
# 5 0.0000 0.0000 0.0000 0.0000 33.6517 0.0000
# 6 0.0000 0.0000 0.0000 0.0000 0.0000 -13.3495
#
#
#
# Elastic Compliance Matrix: (Units=1/GPa)
#
#
# Indices 1 2 3 4 5 6 
#
# 1 0.008397 -0.005867 -0.000738 0.000000 0.000000 0.000000
# 2 -0.005867 0.014714 -0.002034 0.000000 0.000000 0.000000
# 3 -0.000738 -0.002034 0.013550 0.000000 0.000000 0.000000
# 4 0.000000 0.000000 0.000000 0.180874 0.000000 0.000000
# 5 0.000000 0.000000 0.000000 0.000000 0.029716 0.000000
# 6 0.000000 0.000000 0.000000 0.000000 0.000000 -0.074909
#
#
# Mechanical properties :
#
#
# Convention : Reuss Voigt Hill
#
# Bulk Modulus (GPa) = 51.59386 62.75777 57.17582
# Shear Modulus (GPa) = 25.49940 20.99402 23.24671
#
# Velocity S-wave (km/s) = 3.60801 3.27379 3.44496
# Velocity P-wave (km/s) = 6.61032 6.80653 6.70914
#
# Compressibility (1/GPa) = 0.01938215
#
# Stress axis : x y z
#
# Youngs Moduli (GPa) = 119.09184 67.96174 73.79810
#
# Poissons Ratio (x) = 0.39876 0.05445
# Poissons Ratio (y) = 0.69876 0.15014
# Poissons Ratio (z) = 0.08787 0.13827
#
# Static dielectric constant tensor:
#      x y z
#    x 1.714930 0.000000 0.000000 
#    y 0.000000 1.701060 0.000000 
#    z 0.000000 0.000000 1.927170 
# 
# From -- ./inp_files/13092.got.cif
#   From: 2010.05.17/outbox.cif.g08.bks.cpg/sg47_7_cif.got.tgz:13092.got - 2010.06.03 20:15:42.
