data_PCOD9381069
_publ_section_title
;
Structure prediction by ZEFSAII (Michael W. Deem and Ramdas Pophale) SiO2 
 PCOD9381069
Probable space group: I M A 2
;
_chemical_formula_sum "Si O2"
_cell_formula_units_Z 48
_cell_length_a 7.312818
_cell_length_b 39.318114
_cell_length_c 7.863914
_cell_angle_alpha 90.000000
_cell_angle_beta 90.000000
_cell_angle_gamma 90.000000
_cell_volume 2261.081402
_symmetry_space_group_name_H-M "I M A 2"
_symmetry_group_IT_number 46
_symmetry_cell_setting 'orthorhombic'
loop_
_space_group_symop_operation_xyz
x,y,z
-x,-y,z
1/2-x,y,z
1/2+x,-y,z
1/2+x,1/2+y,1/2+z
1/2-x,1/2-y,1/2+z
-x,1/2+y,1/2+z
x,1/2-y,1/2+z
loop_
_atom_site_type_symbol
_atom_site_label
_atom_site_fract_x
_atom_site_fract_y
_atom_site_fract_z
Si Si1 0.026005 0.414179 0.893070
Si Si2 0.473041 0.164039 0.392919
Si Si3 0.531998 0.539182 0.585102
Si Si4 0.531997 0.960818 0.701033
Si Si5 0.472778 0.212124 0.085939
Si Si6 0.527222 0.787859 0.699862
O O1 0.250000 0.414546 0.893078
O O2 0.969090 0.375030 0.893013
O O3 0.964651 0.434683 0.726173
O O4 0.964648 0.434678 0.059980
O O5 0.250000 0.164225 0.392918
O O6 0.531023 0.184686 0.225371
O O7 0.531021 0.184711 0.560392
O O8 0.500000 0.500000 0.635868
O O9 0.750000 0.543700 0.576588
O O10 0.460092 0.543822 0.393068
O O11 0.750000 0.956302 0.709545
O O12 0.500000 0.000000 0.650261
O O13 0.250000 0.212076 0.086087
O O14 0.528296 0.249990 0.142934
O O15 0.531126 0.205246 0.892893
O O16 0.750000 0.787906 0.699711
#
# Coordination Sequence:
#
# PCOD9381069 Si02
#       6
#     8   8   8   8   8   8
#     4   9  17  27  38  54  78 104 134 172 210 247
#     4   9  16  23  31  46  66  92 126 164 203 237
#     4   9  17  29  45  63  83 108 140 173 206 246
#     4   9  17  29  45  63  83 108 140 173 206 246
#     4   9  14  20  30  42  59  85 120 162 200 231
#     4   9  14  20  30  42  59  85 120 162 200 231
#
# _framework density 21.228781000000001
#
# number of rings (size 3 to 8) (size 9 to 14) (size 15 to 20)
#    0.000    3.000    1.667    0.500    0.000    1.333 
#    0.000    6.667    0.000    0.000    0.000    0.000 
#    0.000    0.000    0.000    0.000    0.000    6.667 
#
# Total GULP energy -134038.218230 kJ/mol
# GULP energy per Si atom -5584.925760 kJ/mol
# Density = 2.118046 g / cm^3
# Si number density = 21.228781 Si / 1000 Ang^3
#
#
#
# Elastic Constant Matrix: (Units=GPa)
#
#
# Indices 1 2 3 4 5 6 
#
# 1 86.9933 3.3217 7.2455 -0.0001 0.0001 0.0001
# 2 3.3217 231.0616 163.3699 -0.0026 0.0044 0.0016
# 3 7.2455 163.3699 223.3712 -0.0120 0.0043 0.0015
# 4 -0.0001 -0.0026 -0.0120 78.1748 -0.0021 0.0014
# 5 0.0001 0.0044 0.0043 -0.0021 -23.7972 0.0005
# 6 0.0001 0.0016 0.0015 0.0014 0.0005 0.8023
#
#
#
# Elastic Compliance Matrix: (Units=1/GPa)
#
#
# Indices 1 2 3 4 5 6 
#
# 1 0.011531 0.000204 -0.000524 0.000000 0.000000 -0.000001
# 2 0.000204 0.008966 -0.006564 -0.000001 0.000000 -0.000005
# 3 -0.000524 -0.006564 0.009295 0.000001 0.000000 -0.000005
# 4 0.000000 -0.000001 0.000001 0.012792 -0.000001 -0.000022
# 5 0.000000 0.000000 0.000000 -0.000001 -0.042022 0.000026
# 6 -0.000001 -0.000005 -0.000005 -0.000022 0.000026 1.246436
#
#
# Mechanical properties :
#
#
# Convention : Reuss Voigt Hill
#
# Bulk Modulus (GPa) = 62.40231 98.81115 80.60673
# Shear Modulus (GPa) = 3.94911 35.53524 19.74218
#
# Velocity S-wave (km/s) = 1.36539 4.09579 3.05285
# Velocity P-wave (km/s) = 5.65196 8.30748 7.10489
#
# Compressibility (1/GPa) = 0.01602505
#
# Stress axis : x y z
#
# Youngs Moduli (GPa) = 86.72326 111.53054 107.58627
#
# Poissons Ratio (x) = -0.02279 0.05632
# Poissons Ratio (y) = -0.01772 0.70623
# Poissons Ratio (z) = 0.04540 0.73212
#
# Static dielectric constant tensor:
#      x y z
#    x 2.059030 0.000000 0.000000 
#    y 0.000000 1.694090 0.000000 
#    z 0.000000 0.000000 1.743920 
# 
# From -- ./inp_files/4798.got.cif
#   From: 2010.05.17/outbox.cif.g08.bks.cpg/sg46_3_cif.got.tgz:4798.got - 2010.06.03 19:58:25.
