data_PCOD9381521
_publ_section_title
;
Structure prediction by ZEFSAII (Michael W. Deem and Ramdas Pophale) SiO2 
 PCOD9381521
Probable space group: P M M M
;
_chemical_formula_sum "Si O2"
_cell_formula_units_Z 64
_cell_length_a 9.566280
_cell_length_b 20.067647
_cell_length_c 20.639878
_cell_angle_alpha 90.000000
_cell_angle_beta 90.000000
_cell_angle_gamma 90.000000
_cell_volume 3962.293729
_symmetry_space_group_name_H-M "P M M M"
_symmetry_group_IT_number 47
_symmetry_cell_setting 'orthorhombic'
loop_
_space_group_symop_operation_xyz
x,y,z
-x,-y,z
x,-y,-z
-x,y,-z
-x,-y,-z
x,y,-z
-x,y,z
x,-y,z
loop_
_atom_site_type_symbol
_atom_site_label
_atom_site_fract_x
_atom_site_fract_y
_atom_site_fract_z
Si Si1 0.338718 0.074984 0.758283
Si Si2 0.836203 0.798076 0.394061
Si Si3 0.167386 0.351062 0.427278
Si Si4 0.337922 0.925967 0.399258
Si Si5 0.164306 0.202410 0.237396
Si Si6 0.664907 0.422576 0.314822
Si Si7 0.330030 0.575681 0.925737
Si Si8 0.332859 0.670651 0.809810
O O1 0.500000 0.089310 0.776049
O O2 0.334434 0.074106 0.679563
O O3 0.235165 0.132307 0.781072
O O4 0.303133 0.000000 0.779854
O O5 0.791125 0.726788 0.421735
O O6 0.751201 0.861928 0.418638
O O7 0.821138 0.792247 0.315846
O O8 0.000000 0.807614 0.408503
O O9 0.196415 0.374998 0.500000
O O10 0.245729 0.393056 0.373282
O O11 0.000000 0.353466 0.416487
O O12 0.500000 0.919028 0.418447
O O13 0.288992 0.000000 0.419819
O O14 0.247164 0.262757 0.204542
O O15 0.000000 0.204291 0.222656
O O16 0.500000 0.417506 0.330417
O O17 0.697477 0.500000 0.303167
O O18 0.688817 0.379145 0.250621
O O19 0.500000 0.575170 0.924500
O O20 0.285989 0.500000 0.908341
O O21 0.286941 0.631088 0.874194
O O22 0.287545 0.588882 0.000000
O O23 0.500000 0.684640 0.813724
#
# Coordination Sequence:
#
# PCOD9381521 Si02
#       8
#     8   8   8   8   8   8   8   8
#     4   8  14  25  40  60  89 123 156 190 231 278
#     4   9  17  29  44  63  86 113 149 190 229 272
#     4  10  21  37  53  67  87 117 154 195 239 287
#     4   8  14  24  40  63  88 114 144 179 222 272
#     4  10  18  27  42  65  94 124 156 195 234 274
#     4  10  21  35  51  72  95 118 148 190 237 284
#     4   8  14  26  46  72  99 126 159 198 234 270
#     4  10  18  29  48  72  98 127 157 190 232 279
#
# _framework density 16.152260999999999
#
# number of rings (size 3 to 8) (size 9 to 14) (size 15 to 20)
#    0.000    2.875    1.250    1.875    0.000    3.750 
#    0.000    3.750    0.000    1.875    0.000    3.500 
#    0.000    0.500    0.000    5.750    0.000    1.875 
#
# Total GULP energy -356676.848779 kJ/mol
# GULP energy per Si atom -5573.075762 kJ/mol
# Density = 1.611550 g / cm^3
# Si number density = 16.152261 Si / 1000 Ang^3
#
#
#
# Elastic Constant Matrix: (Units=GPa)
#
#
# Indices 1 2 3 4 5 6 
#
# 1 51.8130 65.9534 37.5031 0.0000 0.0000 0.0000
# 2 65.9534 128.9591 49.9375 0.0000 0.0000 0.0000
# 3 37.5031 49.9375 59.0800 0.0000 0.0000 0.0000
# 4 0.0000 0.0000 0.0000 45.4522 0.0000 0.0000
# 5 0.0000 0.0000 0.0000 0.0000 8.7751 0.0000
# 6 0.0000 0.0000 0.0000 0.0000 0.0000 19.2486
#
#
#
# Elastic Compliance Matrix: (Units=1/GPa)
#
#
# Indices 1 2 3 4 5 6 
#
# 1 0.069055 -0.027267 -0.020788 0.000000 0.000000 0.000000
# 2 -0.027267 0.022294 -0.001535 0.000000 0.000000 0.000000
# 3 -0.020788 -0.001535 0.031420 0.000000 0.000000 0.000000
# 4 0.000000 0.000000 0.000000 0.022001 0.000000 0.000000
# 5 0.000000 0.000000 0.000000 0.000000 0.113959 0.000000
# 6 0.000000 0.000000 0.000000 0.000000 0.000000 0.051952
#
#
# Mechanical properties :
#
#
# Convention : Reuss Voigt Hill
#
# Bulk Modulus (GPa) = 42.39305 60.73779 51.56542
# Shear Modulus (GPa) = 11.96960 20.45906 16.21433
#
# Velocity S-wave (km/s) = 2.72517 3.56285 3.17178
# Velocity P-wave (km/s) = 6.01706 7.38986 6.73851
#
# Compressibility (1/GPa) = 0.02358877
#
# Stress axis : x y z
#
# Youngs Moduli (GPa) = 14.48112 44.85462 31.82718
#
# Poissons Ratio (x) = 1.22306 0.66161
# Poissons Ratio (y) = 0.39486 0.04887
# Poissons Ratio (z) = 0.30103 0.06887
#
# Static dielectric constant tensor:
#      x y z
#    x 1.531430 0.000000 0.000000 
#    y 0.000000 1.541320 0.000000 
#    z 0.000000 0.000000 1.539630 
# 
# From -- ./inp_files/27055.got.cif
#   From: 2010.05.17/outbox.cif.g08.bks.cpg/sg47_14_cif.got.tgz:27055.got - 2010.06.03 20:15:42.
