data_PCOD9381690
_publ_section_title
;
Structure prediction by ZEFSAII (Michael W. Deem and Ramdas Pophale) SiO2 
 PCOD9381690
Probable space group: P M M M
;
_chemical_formula_sum "Si O2"
_cell_formula_units_Z 44
_cell_length_a 13.862251
_cell_length_b 7.478620
_cell_length_c 19.713102
_cell_angle_alpha 90.000000
_cell_angle_beta 90.000000
_cell_angle_gamma 90.000000
_cell_volume 2043.667290
_symmetry_space_group_name_H-M "P M M M"
_symmetry_group_IT_number 47
_symmetry_cell_setting 'orthorhombic'
loop_
_space_group_symop_operation_xyz
x,y,z
-x,-y,z
x,-y,-z
-x,y,-z
-x,-y,-z
x,y,-z
-x,y,z
x,-y,z
loop_
_atom_site_type_symbol
_atom_site_label
_atom_site_fract_x
_atom_site_fract_y
_atom_site_fract_z
Si Si1 0.798821 0.705139 0.712936
Si Si2 0.614167 0.285179 0.072878
Si Si3 0.115135 0.284617 0.147910
Si Si4 0.882580 0.286834 0.000000
Si Si5 0.390686 0.208741 0.223842
Si Si6 0.113134 0.717525 0.574712
O O1 0.834440 0.500000 0.712286
O O2 0.842253 0.787669 0.781880
O O3 0.684684 0.705874 0.725153
O O4 0.830702 0.782975 0.641057
O O5 0.500000 0.237559 0.072391
O O6 0.621365 0.500000 0.072716
O O7 0.648341 0.226968 0.146631
O O8 0.654063 0.222382 0.000000
O O9 0.133921 0.500000 0.146498
O O10 0.149179 0.216747 0.073830
O O11 0.000000 0.260204 0.150547
O O12 0.860762 0.500000 0.000000
O O13 0.000000 0.271683 0.000000
O O14 0.500000 0.281587 0.225465
O O15 0.394936 0.000000 0.239303
O O16 0.145490 0.779846 0.500000
O O17 0.120027 0.500000 0.573289
O O18 0.000000 0.761193 0.582152
#
# Coordination Sequence:
#
# PCOD9381690 Si02
#       6
#     8   8   8   4   8   8
#     4  10  18  28  47  74  97 121 158 202 242 284
#     4   8  14  27  48  70  89 112 150 204 257 295
#     4   8  13  22  38  62  91 120 149 184 227 275
#     4   7  10  18  32  52  84 121 148 174 213 259
#     4  10  21  35  48  63  90 130 170 205 245 294
#     4   8  14  26  47  77 109 133 152 184 237 297
#
# _framework density 21.529923
#
# number of rings (size 3 to 8) (size 9 to 14) (size 15 to 20)
#    0.000    3.364    0.000    3.273    0.000    3.636 
#    1.636    1.818    0.000    3.273    0.000    5.091 
#    0.000    2.182    0.000    0.000    0.000    0.000 
#
# Total GULP energy -245380.423587 kJ/mol
# GULP energy per Si atom -5576.827809 kJ/mol
# Density = 2.148092 g / cm^3
# Si number density = 21.529923 Si / 1000 Ang^3
#
#
#
# Elastic Constant Matrix: (Units=GPa)
#
#
# Indices 1 2 3 4 5 6 
#
# 1 65.4179 -4.6761 91.8085 0.0000 0.0000 0.0000
# 2 -4.6761 57.6658 11.6900 0.0000 0.0000 0.0000
# 3 91.8085 11.6900 244.5460 0.0000 0.0000 0.0000
# 4 0.0000 0.0000 0.0000 117.0420 0.0000 0.0000
# 5 0.0000 0.0000 0.0000 0.0000 38.7276 0.0000
# 6 0.0000 0.0000 0.0000 0.0000 0.0000 -524.0092
#
#
#
# Elastic Compliance Matrix: (Units=1/GPa)
#
#
# Indices 1 2 3 4 5 6 
#
# 1 0.033885 0.005379 -0.012978 0.000000 0.000000 0.000000
# 2 0.005379 0.018365 -0.002897 0.000000 0.000000 0.000000
# 3 -0.012978 -0.002897 0.009100 0.000000 0.000000 0.000000
# 4 0.000000 0.000000 0.000000 0.008544 0.000000 0.000000
# 5 0.000000 0.000000 0.000000 0.000000 0.025821 0.000000
# 6 0.000000 0.000000 0.000000 0.000000 0.000000 -0.001908
#
#
# Mechanical properties :
#
#
# Convention : Reuss Voigt Hill
#
# Bulk Modulus (GPa) = 24.77948 62.80827 43.79387
# Shear Modulus (GPa) = 38.98576 -55.72742 -8.37083
#
# Velocity S-wave (km/s) = 4.25993 -5.09312 -1.97394
# Velocity P-wave (km/s) = 5.97749 2.31315 3.89741
#
# Compressibility (1/GPa) = 0.04035598
#
# Stress axis : x y z
#
# Youngs Moduli (GPa) = 29.51185 54.45214 109.88954
#
# Poissons Ratio (x) = -0.29288 1.42617
# Poissons Ratio (y) = -0.15873 0.31837
# Poissons Ratio (z) = 0.38301 0.15776
#
# Static dielectric constant tensor:
#      x y z
#    x 1.812050 0.000000 0.000000 
#    y 0.000000 1.810100 0.000000 
#    z 0.000000 0.000000 1.801110 
# 
# From -- ./inp_files/8987.got.cif
#   From: 2010.05.17/outbox.cif.g08.bks.cpg/sg47_5_cif.got.tgz:8987.got - 2010.06.03 20:15:42.
