data_PCOD9381503
_publ_section_title
;
Structure prediction by ZEFSAII (Michael W. Deem and Ramdas Pophale) SiO2 
 PCOD9381503
Probable space group: P M M M
;
_chemical_formula_sum "Si O2"
_cell_formula_units_Z 36
_cell_length_a 7.305326
_cell_length_b 14.523471
_cell_length_c 19.246282
_cell_angle_alpha 90.000000
_cell_angle_beta 90.000000
_cell_angle_gamma 90.000000
_cell_volume 2042.005313
_symmetry_space_group_name_H-M "P M M M"
_symmetry_group_IT_number 47
_symmetry_cell_setting 'orthorhombic'
loop_
_space_group_symop_operation_xyz
x,y,z
-x,-y,z
x,-y,-z
-x,y,-z
-x,-y,-z
x,y,-z
-x,y,z
x,-y,z
loop_
_atom_site_type_symbol
_atom_site_label
_atom_site_fract_x
_atom_site_fract_y
_atom_site_fract_z
Si Si1 0.720404 0.600993 0.919411
Si Si2 0.779211 0.607775 0.303208
Si Si3 0.222819 0.892250 0.922457
Si Si4 0.500000 0.610383 0.577889
Si Si5 0.796953 0.248427 0.812846
O O1 0.500000 0.608692 0.914214
O O2 0.772915 0.500000 0.893175
O O3 0.809032 0.679731 0.875762
O O4 0.768074 0.606667 0.000000
O O5 0.731816 0.500000 0.285093
O O6 0.677601 0.631029 0.375122
O O7 0.718813 0.685829 0.247727
O O8 0.000000 0.610809 0.308081
O O9 0.289552 0.837430 0.854324
O O10 0.000000 0.885602 0.921637
O O11 0.269668 0.000000 0.918633
O O12 0.280738 0.858127 0.000000
O O13 0.500000 0.500000 0.571227
O O14 0.500000 0.649707 0.500000
O O15 0.000000 0.219752 0.788841
#
# Coordination Sequence:
#
# PCOD9381503 Si02
#       5
#     8   8   8   4   8
#     4   9  18  29  38  52  77 111 149 183 216 258
#     4   9  18  30  44  68  98 122 150 189 226 265
#     4   8  14  25  41  61  85 114 150 192 234 274
#     4   9  18  32  50  70  92 125 158 176 210 269
#     4  10  18  27  42  63  85 111 145 185 230 273
#
# _framework density 17.629729000000001
#
# number of rings (size 3 to 8) (size 9 to 14) (size 15 to 20)
#    0.000    3.000    0.000    2.667    1.556    3.111 
#    0.000    3.333    0.000    0.667    0.000    3.111 
#    0.000    1.778    0.000    8.667    0.000    0.222 
#
# Total GULP energy -200403.941824 kJ/mol
# GULP energy per Si atom -5566.776162 kJ/mol
# Density = 1.758960 g / cm^3
# Si number density = 17.629729 Si / 1000 Ang^3
#
#
#
# Elastic Constant Matrix: (Units=GPa)
#
#
# Indices 1 2 3 4 5 6 
#
# 1 70.9175 10.3010 21.1915 0.0000 0.0000 0.0000
# 2 10.3010 67.5038 51.5839 0.0000 0.0000 0.0000
# 3 21.1915 51.5839 116.1195 0.0000 0.0000 0.0000
# 4 0.0000 0.0000 0.0000 35.7722 0.0000 0.0000
# 5 0.0000 0.0000 0.0000 0.0000 13.4318 0.0000
# 6 0.0000 0.0000 0.0000 0.0000 0.0000 8.0690
#
#
#
# Elastic Compliance Matrix: (Units=1/GPa)
#
#
# Indices 1 2 3 4 5 6 
#
# 1 0.014918 -0.000297 -0.002591 0.000000 0.000000 0.000000
# 2 -0.000297 0.022433 -0.009911 0.000000 0.000000 0.000000
# 3 -0.002591 -0.009911 0.013488 0.000000 0.000000 0.000000
# 4 0.000000 0.000000 0.000000 0.027955 0.000000 0.000000
# 5 0.000000 0.000000 0.000000 0.000000 0.074450 0.000000
# 6 0.000000 0.000000 0.000000 0.000000 0.000000 0.123931
#
#
# Mechanical properties :
#
#
# Convention : Reuss Voigt Hill
#
# Bulk Modulus (GPa) = 39.61771 46.74373 43.18072
# Shear Modulus (GPa) = 16.06757 22.88556 19.47656
#
# Velocity S-wave (km/s) = 3.02220 3.60686 3.32739
# Velocity P-wave (km/s) = 5.89060 6.62703 6.26964
#
# Compressibility (1/GPa) = 0.02524124
#
# Stress axis : x y z
#
# Youngs Moduli (GPa) = 67.03240 44.57681 74.14240
#
# Poissons Ratio (x) = 0.01323 0.19208
# Poissons Ratio (y) = 0.01989 0.73485
# Poissons Ratio (z) = 0.17366 0.44182
#
# Static dielectric constant tensor:
#      x y z
#    x 1.684830 0.000000 0.000000 
#    y 0.000000 1.628480 0.000000 
#    z 0.000000 0.000000 1.608910 
# 
# From -- ./inp_files/20549.got.cif
#   From: 2010.05.17/outbox.cif.g08.bks.cpg/sg47_11_cif.got.tgz:20549.got - 2010.06.03 20:15:42.
