data_PCOD9381918
_publ_section_title
;
Structure prediction by ZEFSAII (Michael W. Deem and Ramdas Pophale) SiO2 
 PCOD9381918
Probable space group: P M M M
;
_chemical_formula_sum "Si O2"
_cell_formula_units_Z 40
_cell_length_a 20.058861
_cell_length_b 12.959142
_cell_length_c 7.405014
_cell_angle_alpha 90.000000
_cell_angle_beta 90.000000
_cell_angle_gamma 90.000000
_cell_volume 1924.901015
_symmetry_space_group_name_H-M "P M M M"
_symmetry_group_IT_number 47
_symmetry_cell_setting 'orthorhombic'
loop_
_space_group_symop_operation_xyz
x,y,z
-x,-y,z
x,-y,-z
-x,y,-z
-x,-y,-z
x,y,-z
-x,y,z
x,-y,z
loop_
_atom_site_type_symbol
_atom_site_label
_atom_site_fract_x
_atom_site_fract_y
_atom_site_fract_z
Si Si1 0.808805 0.880484 0.720660
Si Si2 0.576179 0.000000 0.721288
Si Si3 0.574794 0.617157 0.783167
Si Si4 0.081019 0.500000 0.291976
Si Si5 0.923254 0.274011 0.278754
Si Si6 0.334834 0.809931 0.713474
O O1 0.809790 0.880124 0.500000
O O2 0.872546 0.814332 0.778531
O O3 0.739956 0.827248 0.782116
O O4 0.810222 0.000000 0.776316
O O5 0.615717 0.898665 0.782906
O O6 0.500000 0.000000 0.780737
O O7 0.575273 0.000000 0.500000
O O8 0.500000 0.648133 0.720342
O O9 0.587648 0.500000 0.720003
O O10 0.630989 0.699458 0.736779
O O11 0.572201 0.613796 0.000000
O O12 0.104107 0.500000 0.500000
O O13 0.099439 0.611715 0.215637
O O14 0.000000 0.500000 0.293237
O O15 0.923444 0.277328 0.500000
O O16 0.000000 0.256561 0.224321
O O17 0.329990 0.828157 0.500000
#
# Coordination Sequence:
#
# PCOD9381918 Si02
#       6
#     8   4   8   4   8   8
#     4   9  16  26  38  55  86 123 154 188 231 273
#     4   9  16  26  43  65  88 120 156 185 223 273
#     4   9  19  36  54  70  92 122 153 190 237 282
#     4   7  10  18  30  44  66  98 138 183 224 260
#     4   8  13  21  34  52  76 112 155 190 223 270
#     4  10  18  30  47  69  97 126 155 191 232 276
#
# _framework density 20.780290000000001
#
# number of rings (size 3 to 8) (size 9 to 14) (size 15 to 20)
#    0.000    3.200    1.000    2.400    0.000    2.000 
#    1.800    3.500    0.000    1.800    0.000    0.000 
#    0.000    0.800    0.000    4.000    0.000    3.600 
#
# Total GULP energy -223087.255532 kJ/mol
# GULP energy per Si atom -5577.181388 kJ/mol
# Density = 2.073299 g / cm^3
# Si number density = 20.780290 Si / 1000 Ang^3
#
#
#
# Elastic Constant Matrix: (Units=GPa)
#
#
# Indices 1 2 3 4 5 6 
#
# 1 174.0407 124.8838 4.7733 0.0000 0.0000 0.0000
# 2 124.8838 174.3536 -2.6848 0.0000 0.0000 0.0000
# 3 4.7733 -2.6848 65.5827 0.0000 0.0000 0.0000
# 4 0.0000 0.0000 0.0000 12.7118 0.0000 0.0000
# 5 0.0000 0.0000 0.0000 0.0000 19.4382 0.0000
# 6 0.0000 0.0000 0.0000 0.0000 0.0000 24.5977
#
#
#
# Elastic Compliance Matrix: (Units=1/GPa)
#
#
# Indices 1 2 3 4 5 6 
#
# 1 0.011918 -0.008555 -0.001218 0.000000 0.000000 0.000000
# 2 -0.008555 0.011880 0.001109 0.000000 0.000000 0.000000
# 3 -0.001218 0.001109 0.015382 0.000000 0.000000 0.000000
# 4 0.000000 0.000000 0.000000 0.078667 0.000000 0.000000
# 5 0.000000 0.000000 0.000000 0.000000 0.051445 0.000000
# 6 0.000000 0.000000 0.000000 0.000000 0.000000 0.040654
#
#
# Mechanical properties :
#
#
# Convention : Reuss Voigt Hill
#
# Bulk Modulus (GPa) = 45.76111 74.21350 59.98731
# Shear Modulus (GPa) = 21.31664 30.48320 25.89992
#
# Velocity S-wave (km/s) = 3.20630 3.83421 3.53423
# Velocity P-wave (km/s) = 5.98134 7.44261 6.75162
#
# Compressibility (1/GPa) = 0.02185262
#
# Stress axis : x y z
#
# Youngs Moduli (GPa) = 83.90629 84.17218 65.01129
#
# Poissons Ratio (x) = 0.72012 0.07916
# Poissons Ratio (y) = 0.71784 -0.07210
# Poissons Ratio (z) = 0.10217 -0.09335
#
# Static dielectric constant tensor:
#      x y z
#    x 1.709390 0.000000 0.000000 
#    y 0.000000 1.730580 0.000000 
#    z 0.000000 0.000000 1.807100 
# 
# From -- ./inp_files/10696.got.cif
#   From: 2010.05.17/outbox.cif.g08.bks.cpg/sg47_6_cif.got.tgz:10696.got - 2010.06.03 20:15:42.
