data_PCOD9381622
_publ_section_title
;
Structure prediction by ZEFSAII (Michael W. Deem and Ramdas Pophale) SiO2 
 PCOD9381622
Probable space group: P M M M
;
_chemical_formula_sum "Si O2"
_cell_formula_units_Z 64
_cell_length_a 18.762173
_cell_length_b 9.781305
_cell_length_c 22.187935
_cell_angle_alpha 90.000000
_cell_angle_beta 90.000000
_cell_angle_gamma 90.000000
_cell_volume 4071.897361
_symmetry_space_group_name_H-M "P M M M"
_symmetry_group_IT_number 47
_symmetry_cell_setting 'orthorhombic'
loop_
_space_group_symop_operation_xyz
x,y,z
-x,-y,z
x,-y,-z
-x,y,-z
-x,-y,-z
x,y,-z
-x,y,z
x,-y,z
loop_
_atom_site_type_symbol
_atom_site_label
_atom_site_fract_x
_atom_site_fract_y
_atom_site_fract_z
Si Si1 0.082557 0.659502 0.427403
Si Si2 0.287230 0.340429 0.728804
Si Si3 0.191052 0.158562 0.352039
Si Si4 0.163342 0.344546 0.169414
Si Si5 0.419059 0.661500 0.186573
Si Si6 0.779622 0.848037 0.068837
Si Si7 0.921351 0.149347 0.243812
Si Si8 0.607939 0.841097 0.931576
O O1 0.085780 0.664420 0.500000
O O2 0.093239 0.500000 0.408769
O O3 0.144435 0.755300 0.400256
O O4 0.000000 0.696779 0.410760
O O5 0.294031 0.500000 0.709325
O O6 0.258604 0.243105 0.674962
O O7 0.226641 0.337432 0.780859
O O8 0.359850 0.297730 0.763634
O O9 0.136395 0.151388 0.296141
O O10 0.207102 0.000000 0.369523
O O11 0.147773 0.500000 0.156558
O O12 0.189419 0.265867 0.111197
O O13 0.096768 0.267348 0.197797
O O14 0.500000 0.675559 0.209639
O O15 0.406121 0.500000 0.173536
O O16 0.414287 0.746813 0.124353
O O17 0.693898 0.839127 0.068839
O O18 0.798265 0.000000 0.091201
O O19 0.803410 0.834833 0.000000
O O20 0.000000 0.165020 0.269687
O O21 0.916991 0.000000 0.214093
O O22 0.586159 0.000000 0.922854
O O23 0.585682 0.799976 0.000000
#
# Coordination Sequence:
#
# PCOD9381622 Si02
#       8
#     8   8   8   8   8   8   8   8
#     4   9  18  32  49  71 103 142 175 198 226 267
#     4   9  18  32  46  64  90 120 155 191 232 281
#     4  10  19  30  48  72  96 125 161 201 234 261
#     4  10  18  28  45  66  85 108 140 182 228 270
#     4  10  20  33  48  66  91 122 155 194 239 286
#     4   9  17  29  45  63  82 107 140 177 220 273
#     4   9  18  31  45  63  89 119 148 180 222 270
#     4   9  18  31  46  64  87 116 150 188 230 282
#
# _framework density 15.717489
#
# number of rings (size 3 to 8) (size 9 to 14) (size 15 to 20)
#    0.000    2.625    1.250    2.250    0.000    3.750 
#    0.000    3.125    0.000    0.375    0.000    2.625 
#    0.000    0.500    0.000    5.750    0.000    1.625 
#
# Total GULP energy -356275.741041 kJ/mol
# GULP energy per Si atom -5566.808454 kJ/mol
# Density = 1.568172 g / cm^3
# Si number density = 15.717489 Si / 1000 Ang^3
#
#
#
# Elastic Constant Matrix: (Units=GPa)
#
#
# Indices 1 2 3 4 5 6 
#
# 1 56.5060 33.0078 26.6989 0.0000 0.0000 0.0000
# 2 33.0078 101.1885 46.2410 0.0000 0.0000 0.0000
# 3 26.6989 46.2410 47.0217 0.0000 0.0000 0.0000
# 4 0.0000 0.0000 0.0000 26.5056 0.0000 0.0000
# 5 0.0000 0.0000 0.0000 0.0000 13.8101 0.0000
# 6 0.0000 0.0000 0.0000 0.0000 0.0000 12.2369
#
#
#
# Elastic Compliance Matrix: (Units=1/GPa)
#
#
# Indices 1 2 3 4 5 6 
#
# 1 0.024674 -0.002990 -0.011069 0.000000 0.000000 0.000000
# 2 -0.002990 0.018311 -0.016309 0.000000 0.000000 0.000000
# 3 -0.011069 -0.016309 0.043590 0.000000 0.000000 0.000000
# 4 0.000000 0.000000 0.000000 0.037728 0.000000 0.000000
# 5 0.000000 0.000000 0.000000 0.000000 0.072411 0.000000
# 6 0.000000 0.000000 0.000000 0.000000 0.000000 0.081720
#
#
# Mechanical properties :
#
#
# Convention : Reuss Voigt Hill
#
# Bulk Modulus (GPa) = 38.70273 46.29021 42.49647
# Shear Modulus (GPa) = 14.37673 17.09507 15.73590
#
# Velocity S-wave (km/s) = 3.02768 3.30153 3.16756
# Velocity P-wave (km/s) = 6.07453 6.63692 6.36194
#
# Compressibility (1/GPa) = 0.02583797
#
# Stress axis : x y z
#
# Youngs Moduli (GPa) = 40.52802 54.61247 22.94097
#
# Poissons Ratio (x) = 0.16331 0.25394
# Poissons Ratio (y) = 0.12119 0.37414
# Poissons Ratio (z) = 0.44862 0.89067
#
# Static dielectric constant tensor:
#      x y z
#    x 1.531530 0.000000 0.000000 
#    y 0.000000 1.549910 0.000000 
#    z 0.000000 0.000000 1.505430 
# 
# From -- ./inp_files/31349.got.cif
#   From: 2010.05.17/outbox.cif.g08.bks.cpg/sg47_16_cif.got.tgz:31349.got - 2010.06.03 20:15:42.
