data_PCOD9381988
_publ_section_title
;
Structure prediction by ZEFSAII (Michael W. Deem and Ramdas Pophale) SiO2 
 PCOD9381988
Probable space group: P M M M
;
_chemical_formula_sum "Si O2"
_cell_formula_units_Z 48
_cell_length_a 13.213900
_cell_length_b 13.950677
_cell_length_c 15.355045
_cell_angle_alpha 90.000000
_cell_angle_beta 90.000000
_cell_angle_gamma 90.000000
_cell_volume 2830.592770
_symmetry_space_group_name_H-M "P M M M"
_symmetry_group_IT_number 47
_symmetry_cell_setting 'orthorhombic'
loop_
_space_group_symop_operation_xyz
x,y,z
-x,-y,z
x,-y,-z
-x,y,-z
-x,-y,-z
x,y,-z
-x,y,z
x,-y,z
loop_
_atom_site_type_symbol
_atom_site_label
_atom_site_fract_x
_atom_site_fract_y
_atom_site_fract_z
Si Si1 0.224506 0.113835 0.601652
Si Si2 0.804841 0.268843 0.100110
Si Si3 0.000000 0.392234 0.105376
Si Si4 0.617149 0.614970 0.840443
Si Si5 0.117250 0.112929 0.774715
Si Si6 0.381895 0.265917 0.661241
Si Si7 0.376955 0.606668 0.500000
O O1 0.208164 0.141937 0.500000
O O2 0.135112 0.130916 0.671635
O O3 0.316583 0.171423 0.645706
O O4 0.244218 0.000000 0.601127
O O5 0.898196 0.336384 0.128817
O O6 0.702948 0.332074 0.103842
O O7 0.811178 0.179249 0.165800
O O8 0.821655 0.237926 0.000000
O O9 0.000000 0.500000 0.139973
O O10 0.000000 0.397128 0.000000
O O11 0.500000 0.625622 0.870735
O O12 0.635239 0.500000 0.831942
O O13 0.625793 0.672731 0.749359
O O14 0.000000 0.131825 0.797369
O O15 0.137281 0.000000 0.789791
O O16 0.500000 0.242486 0.649081
O O17 0.346882 0.336771 0.585177
O O18 0.337222 0.500000 0.500000
O O19 0.500000 0.602553 0.500000
#
# Coordination Sequence:
#
# PCOD9381988 Si02
#       7
#     8   8   4   8   8   8   4
#     4  10  20  34  54  80 107 137 175 217 267 328
#     4  11  21  35  57  83 111 143 182 229 277 327
#     4   9  18  32  51  79 110 137 171 221 277 326
#     4  10  21  36  54  78 111 151 191 227 267 321
#     4  10  21  38  59  82 108 138 176 224 278 332
#     4  10  18  30  49  74 105 141 179 223 269 315
#     4   9  16  26  43  69 100 133 171 215 261 308
#
# _framework density 16.957578999999999
#
# number of rings (size 3 to 8) (size 9 to 14) (size 15 to 20)
#    0.000    2.000    3.333    1.000    0.000    4.333 
#    0.000    4.167    0.000    0.500    0.000    1.167 
#    0.000    2.667    0.000    0.000    0.000    0.000 
#
# Total GULP energy -267249.219426 kJ/mol
# GULP energy per Si atom -5567.692071 kJ/mol
# Density = 1.691898 g / cm^3
# Si number density = 16.957579 Si / 1000 Ang^3
#
#
#
# Elastic Constant Matrix: (Units=GPa)
#
#
# Indices 1 2 3 4 5 6 
#
# 1 69.5252 38.0242 26.7613 0.0000 0.0000 0.0000
# 2 38.0242 72.9324 35.4685 0.0000 0.0000 0.0000
# 3 26.7613 35.4685 73.5533 0.0000 0.0000 0.0000
# 4 0.0000 0.0000 0.0000 11.2286 0.0000 0.0000
# 5 0.0000 0.0000 0.0000 0.0000 21.2661 0.0000
# 6 0.0000 0.0000 0.0000 0.0000 0.0000 25.7623
#
#
#
# Elastic Compliance Matrix: (Units=1/GPa)
#
#
# Indices 1 2 3 4 5 6 
#
# 1 0.020624 -0.009280 -0.003029 0.000000 0.000000 0.000000
# 2 -0.009280 0.022087 -0.007274 0.000000 0.000000 0.000000
# 3 -0.003029 -0.007274 0.018206 0.000000 0.000000 0.000000
# 4 0.000000 0.000000 0.000000 0.089058 0.000000 0.000000
# 5 0.000000 0.000000 0.000000 0.000000 0.047023 0.000000
# 6 0.000000 0.000000 0.000000 0.000000 0.000000 0.038816
#
#
# Mechanical properties :
#
#
# Convention : Reuss Voigt Hill
#
# Bulk Modulus (GPa) = 45.97580 46.27991 46.12785
# Shear Modulus (GPa) = 17.71594 19.36851 18.54223
#
# Velocity S-wave (km/s) = 3.23572 3.38327 3.31032
# Velocity P-wave (km/s) = 6.41334 6.52785 6.47085
#
# Compressibility (1/GPa) = 0.02175057
#
# Stress axis : x y z
#
# Youngs Moduli (GPa) = 48.48627 45.27525 54.92830
#
# Poissons Ratio (x) = 0.42014 0.16638
# Poissons Ratio (y) = 0.44994 0.39957
# Poissons Ratio (z) = 0.14687 0.32935
#
# Static dielectric constant tensor:
#      x y z
#    x 1.576560 0.000000 0.000000 
#    y 0.000000 1.571230 0.000000 
#    z 0.000000 0.000000 1.593290 
# 
# From -- ./inp_files/17539.got.cif
#   From: 2010.05.17/outbox.cif.g08.bks.cpg/sg47_9_cif.got.tgz:17539.got - 2010.06.03 20:15:42.
