data_PCOD9381806
_publ_section_title
;
Structure prediction by ZEFSAII (Michael W. Deem and Ramdas Pophale) SiO2 
 PCOD9381806
Probable space group: P M M M
;
_chemical_formula_sum "Si O2"
_cell_formula_units_Z 60
_cell_length_a 22.587199
_cell_length_b 19.039431
_cell_length_c 8.407641
_cell_angle_alpha 90.000000
_cell_angle_beta 90.000000
_cell_angle_gamma 90.000000
_cell_volume 3615.684294
_symmetry_space_group_name_H-M "P M M M"
_symmetry_group_IT_number 47
_symmetry_cell_setting 'orthorhombic'
loop_
_space_group_symop_operation_xyz
x,y,z
-x,-y,z
x,-y,-z
-x,y,-z
-x,-y,-z
x,y,-z
-x,y,z
x,-y,z
loop_
_atom_site_type_symbol
_atom_site_label
_atom_site_fract_x
_atom_site_fract_y
_atom_site_fract_z
Si Si1 0.642207 0.082648 0.815479
Si Si2 0.852565 0.371451 0.190173
Si Si3 0.778130 0.080579 0.807598
Si Si4 0.807190 0.772177 0.690827
Si Si5 0.434024 0.800407 0.689029
Si Si6 0.321359 0.281685 0.689463
Si Si7 0.720546 0.578779 0.808639
Si Si8 0.931746 0.500000 0.309420
O O1 0.709649 0.093338 0.755180
O O2 0.592393 0.122704 0.718929
O O3 0.632132 0.000000 0.812295
O O4 0.640202 0.105842 0.000000
O O5 0.850542 0.290739 0.252026
O O6 0.788384 0.403498 0.235291
O O7 0.899684 0.428454 0.251516
O O8 0.856590 0.369121 0.000000
O O9 0.815651 0.147413 0.747942
O O10 0.794327 0.000000 0.758930
O O11 0.778140 0.080931 0.000000
O O12 0.807417 0.771465 0.500000
O O13 0.741039 0.749865 0.751241
O O14 0.437444 0.787785 0.500000
O O15 0.500000 0.791263 0.755425
O O16 0.380921 0.752498 0.755715
O O17 0.320425 0.270167 0.500000
O O18 0.319628 0.363352 0.727967
O O19 0.706302 0.500000 0.761268
O O20 0.716530 0.584569 0.000000
O O21 0.929757 0.500000 0.500000
O O22 0.000000 0.500000 0.256353
#
# Coordination Sequence:
#
# PCOD9381806 Si02
#       8
#     8   8   8   8   8   8   8   4
#     4   9  18  31  45  61  83 112 148 190 234 285
#     4  10  19  33  51  73 102 137 174 206 240 284
#     4   9  17  29  45  66  93 126 161 198 247 305
#     4  10  18  29  47  71  97 125 161 207 253 296
#     4  10  20  33  46  60  82 111 147 191 236 290
#     4   9  18  30  43  64  87 112 146 185 236 290
#     4   9  17  30  48  71  94 115 145 188 231 275
#     4  11  23  37  53  77 113 151 182 211 240 271
#
# _framework density 16.594369
#
# number of rings (size 3 to 8) (size 9 to 14) (size 15 to 20)
#    0.000    2.467    2.000    1.800    0.000    3.467 
#    0.000    2.667    0.000    0.400    0.000    2.800 
#    0.000    0.533    0.000    5.600    0.000    2.400 
#
# Total GULP energy -334106.776799 kJ/mol
# GULP energy per Si atom -5568.446280 kJ/mol
# Density = 1.655660 g / cm^3
# Si number density = 16.594369 Si / 1000 Ang^3
#
#
#
# Elastic Constant Matrix: (Units=GPa)
#
#
# Indices 1 2 3 4 5 6 
#
# 1 68.1514 49.2038 18.1170 0.0000 0.0000 0.0000
# 2 49.2038 121.8390 18.3065 0.0000 0.0000 0.0000
# 3 18.1170 18.3065 12.8845 0.0000 0.0000 0.0000
# 4 0.0000 0.0000 0.0000 34.5777 0.0000 0.0000
# 5 0.0000 0.0000 0.0000 0.0000 12.9362 0.0000
# 6 0.0000 0.0000 0.0000 0.0000 0.0000 14.7356
#
#
#
# Elastic Compliance Matrix: (Units=1/GPa)
#
#
# Indices 1 2 3 4 5 6 
#
# 1 0.027077 -0.006630 -0.028653 0.000000 0.000000 0.000000
# 2 -0.006630 0.012058 -0.007811 0.000000 0.000000 0.000000
# 3 -0.028653 -0.007811 0.129000 0.000000 0.000000 0.000000
# 4 0.000000 0.000000 0.000000 0.028920 0.000000 0.000000
# 5 0.000000 0.000000 0.000000 0.000000 0.077302 0.000000
# 6 0.000000 0.000000 0.000000 0.000000 0.000000 0.067863
#
#
# Mechanical properties :
#
#
# Convention : Reuss Voigt Hill
#
# Bulk Modulus (GPa) = 12.20291 41.56992 26.88642
# Shear Modulus (GPa) = 10.97154 20.26642 15.61898
#
# Velocity S-wave (km/s) = 2.57409 3.49848 3.07126
# Velocity P-wave (km/s) = 4.02545 6.43616 5.36788
#
# Compressibility (1/GPa) = 0.08194765
#
# Stress axis : x y z
#
# Youngs Moduli (GPa) = 36.93221 82.92942 7.75192
#
# Poissons Ratio (x) = 0.54978 0.22212
# Poissons Ratio (y) = 0.24484 0.06055
# Poissons Ratio (z) = 1.05823 0.64776
#
# Static dielectric constant tensor:
#      x y z
#    x 1.552320 0.000000 0.000000 
#    y 0.000000 1.592660 0.000000 
#    z 0.000000 0.000000 1.584160 
# 
# From -- ./inp_files/11595.got.cif
#   From: 2010.05.17/outbox.cif.g08.bks.cpg/sg47_6_cif.got.tgz:11595.got - 2010.06.03 20:15:42.
