data_PCOD9381627
_publ_section_title
;
Structure prediction by ZEFSAII (Michael W. Deem and Ramdas Pophale) SiO2 
 PCOD9381627
Probable space group: P M M M
;
_chemical_formula_sum "Si O2"
_cell_formula_units_Z 64
_cell_length_a 20.981561
_cell_length_b 7.493514
_cell_length_c 20.848843
_cell_angle_alpha 90.000000
_cell_angle_beta 90.000000
_cell_angle_gamma 90.000000
_cell_volume 3277.972290
_symmetry_space_group_name_H-M "P M M M"
_symmetry_group_IT_number 47
_symmetry_cell_setting 'orthorhombic'
loop_
_space_group_symop_operation_xyz
x,y,z
-x,-y,z
x,-y,-z
-x,y,-z
-x,-y,-z
x,y,-z
-x,y,z
x,-y,z
loop_
_atom_site_type_symbol
_atom_site_label
_atom_site_fract_x
_atom_site_fract_y
_atom_site_fract_z
Si Si1 0.233604 0.707922 0.294069
Si Si2 0.072554 0.214751 0.071970
Si Si3 0.809087 0.288295 0.840850
Si Si4 0.308430 0.718768 0.926298
Si Si5 0.251563 0.282910 0.431050
Si Si6 0.430758 0.287295 0.847554
Si Si7 0.383397 0.213873 0.293175
Si Si8 0.402018 0.207403 0.569435
O O1 0.215433 0.500000 0.297054
O O2 0.200915 0.786105 0.230783
O O3 0.220378 0.782552 0.365123
O O4 0.310577 0.718084 0.286483
O O5 0.123046 0.265112 0.125779
O O6 0.000000 0.275906 0.083886
O O7 0.071154 0.000000 0.070110
O O8 0.091682 0.276203 0.000000
O O9 0.797446 0.500000 0.835395
O O10 0.754110 0.219583 0.888242
O O11 0.308244 0.500000 0.926141
O O12 0.371066 0.780357 0.888258
O O13 0.308091 0.775112 0.000000
O O14 0.223286 0.231338 0.500000
O O15 0.254256 0.500000 0.428926
O O16 0.324787 0.218055 0.430860
O O17 0.500000 0.215183 0.866032
O O18 0.431822 0.500000 0.857731
O O19 0.419160 0.257662 0.772135
O O20 0.415969 0.281197 0.359418
O O21 0.379409 0.000000 0.298998
O O22 0.422495 0.284707 0.500000
O O23 0.421689 0.000000 0.568833
#
# Coordination Sequence:
#
# PCOD9381627 Si02
#       8
#     8   8   8   8   8   8   8   8
#     4   9  16  27  43  64  94 124 150 184 225 267
#     4   9  19  35  51  68  95 129 159 188 225 270
#     4  10  18  29  48  72  98 125 152 188 227 264
#     4   9  17  30  48  70  92 113 144 186 228 270
#     4   8  13  21  35  57  85 118 151 179 212 258
#     4  10  20  34  50  65  85 116 150 187 234 281
#     4  10  18  28  45  66  88 114 146 186 227 271
#     4   8  14  24  38  58  83 110 140 175 218 265
#
# _framework density 19.524265
#
# number of rings (size 3 to 8) (size 9 to 14) (size 15 to 20)
#    0.000    2.875    1.250    1.125    0.000    2.500 
#    0.000    1.875    0.000    0.750    0.000    3.500 
#    0.000    0.500    0.000    6.250    0.000    1.000 
#
# Total GULP energy -356717.148073 kJ/mol
# GULP energy per Si atom -5573.705439 kJ/mol
# Density = 1.947983 g / cm^3
# Si number density = 19.524265 Si / 1000 Ang^3
#
#
#
# Elastic Constant Matrix: (Units=GPa)
#
#
# Indices 1 2 3 4 5 6 
#
# 1 75.6608 -2.9833 78.9356 0.0000 0.0000 0.0000
# 2 -2.9833 55.2474 5.3595 0.0000 0.0000 0.0000
# 3 78.9356 5.3595 196.0877 0.0000 0.0000 0.0000
# 4 0.0000 0.0000 0.0000 -0.4931 0.0000 0.0000
# 5 0.0000 0.0000 0.0000 0.0000 103.5059 0.0000
# 6 0.0000 0.0000 0.0000 0.0000 0.0000 12.3529
#
#
#
# Elastic Compliance Matrix: (Units=1/GPa)
#
#
# Indices 1 2 3 4 5 6 
#
# 1 0.023039 0.002149 -0.009333 0.000000 0.000000 0.000000
# 2 0.002149 0.018349 -0.001367 0.000000 0.000000 0.000000
# 3 -0.009333 -0.001367 0.008894 0.000000 0.000000 0.000000
# 4 0.000000 0.000000 0.000000 -2.027987 0.000000 0.000000
# 5 0.000000 0.000000 0.000000 0.000000 0.009661 0.000000
# 6 0.000000 0.000000 0.000000 0.000000 0.000000 0.080953
#
#
# Mechanical properties :
#
#
# Convention : Reuss Voigt Hill
#
# Bulk Modulus (GPa) = 30.13762 54.40218 42.26990
# Shear Modulus (GPa) = -2.68972 39.45208 18.38118
#
# Velocity S-wave (km/s) = -1.17500 4.50006 3.07164
# Velocity P-wave (km/s) = 3.69170 7.41115 5.85465
#
# Compressibility (1/GPa) = 0.03318112
#
# Stress axis : x y z
#
# Youngs Moduli (GPa) = 43.40536 54.49874 112.43348
#
# Poissons Ratio (x) = -0.11714 1.04934
# Poissons Ratio (y) = -0.09330 0.15367
# Poissons Ratio (z) = 0.40510 0.07449
#
# Static dielectric constant tensor:
#      x y z
#    x 1.645780 0.000000 0.000000 
#    y 0.000000 1.775510 0.000000 
#    z 0.000000 0.000000 1.749430 
# 
# From -- ./inp_files/11561.got.cif
#   From: 2010.05.17/outbox.cif.g08.bks.cpg/sg47_6_cif.got.tgz:11561.got - 2010.06.03 20:15:42.
