data_PCOD9381675
_publ_section_title
;
Structure prediction by ZEFSAII (Michael W. Deem and Ramdas Pophale) SiO2 
 PCOD9381675
Probable space group: P M M M
;
_chemical_formula_sum "Si O2"
_cell_formula_units_Z 52
_cell_length_a 14.741352
_cell_length_b 22.085593
_cell_length_c 7.365367
_cell_angle_alpha 90.000000
_cell_angle_beta 90.000000
_cell_angle_gamma 90.000000
_cell_volume 2397.953586
_symmetry_space_group_name_H-M "P M M M"
_symmetry_group_IT_number 47
_symmetry_cell_setting 'orthorhombic'
loop_
_space_group_symop_operation_xyz
x,y,z
-x,-y,z
x,-y,-z
-x,y,-z
-x,-y,-z
x,y,-z
-x,y,z
x,-y,z
loop_
_atom_site_type_symbol
_atom_site_label
_atom_site_fract_x
_atom_site_fract_y
_atom_site_fract_z
Si Si1 0.096975 0.263781 0.217962
Si Si2 0.604154 0.260857 0.715240
Si Si3 0.103185 0.929774 0.221154
Si Si4 0.294522 0.617267 0.722845
Si Si5 0.755449 0.829421 0.781916
Si Si6 0.097510 0.402711 0.705037
Si Si7 0.606380 0.500000 0.290775
O O1 0.179012 0.224258 0.284053
O O2 0.094555 0.329689 0.301296
O O3 0.000000 0.233357 0.251949
O O4 0.104906 0.271511 0.000000
O O5 0.597909 0.270689 0.500000
O O6 0.500000 0.261738 0.784846
O O7 0.666974 0.317184 0.784232
O O8 0.655480 0.196336 0.739712
O O9 0.189298 0.889115 0.280783
O O10 0.000000 0.911690 0.278045
O O11 0.115307 0.000000 0.271706
O O12 0.101921 0.926715 0.000000
O O13 0.288104 0.621280 0.500000
O O14 0.196809 0.591669 0.788080
O O15 0.361401 0.564180 0.781589
O O16 0.758744 0.831942 0.000000
O O17 0.099503 0.427104 0.500000
O O18 0.000000 0.421759 0.786732
O O19 0.500000 0.500000 0.290486
O O20 0.640108 0.500000 0.500000
#
# Coordination Sequence:
#
# PCOD9381675 Si02
#       7
#     8   8   8   8   8   8   4
#     4   9  16  25  39  63  93 120 146 176 212 260
#     4  10  20  33  48  66  91 123 157 195 241 288
#     4   8  14  26  46  73 103 131 157 187 226 274
#     4   9  16  28  44  64  90 118 150 190 234 280
#     4  10  18  28  46  72  97 121 153 192 233 273
#     4   9  16  26  41  62  89 118 145 176 219 272
#     4   9  16  26  43  65  86 113 153 197 236 276
#
# _framework density 21.685157
#
# number of rings (size 3 to 8) (size 9 to 14) (size 15 to 20)
#    0.000    2.846    1.538    1.385    0.000    4.000 
#    0.000    0.385    0.000    4.615    0.000    6.462 
#    0.000    6.154    0.000    0.000    0.000    0.000 
#
# Total GULP energy -289498.035320 kJ/mol
# GULP energy per Si atom -5567.269910 kJ/mol
# Density = 2.163580 g / cm^3
# Si number density = 21.685157 Si / 1000 Ang^3
#
#
#
# Elastic Constant Matrix: (Units=GPa)
#
#
# Indices 1 2 3 4 5 6 
#
# 1 121.8806 50.0301 7.9414 0.0000 0.0000 0.0000
# 2 50.0301 107.7296 -0.9395 0.0000 0.0000 0.0000
# 3 7.9414 -0.9395 76.7262 0.0000 0.0000 0.0000
# 4 0.0000 0.0000 0.0000 47.3850 0.0000 0.0000
# 5 0.0000 0.0000 0.0000 0.0000 -230.5728 0.0000
# 6 0.0000 0.0000 0.0000 0.0000 0.0000 28.6776
#
#
#
# Elastic Compliance Matrix: (Units=1/GPa)
#
#
# Indices 1 2 3 4 5 6 
#
# 1 0.010232 -0.004762 -0.001117 0.000000 0.000000 0.000000
# 2 -0.004762 0.011499 0.000634 0.000000 0.000000 0.000000
# 3 -0.001117 0.000634 0.013157 0.000000 0.000000 0.000000
# 4 0.000000 0.000000 0.000000 0.021104 0.000000 0.000000
# 5 0.000000 0.000000 0.000000 0.000000 -0.004337 0.000000
# 6 0.000000 0.000000 0.000000 0.000000 0.000000 0.034870
#
#
# Mechanical properties :
#
#
# Convention : Reuss Voigt Hill
#
# Bulk Modulus (GPa) = 40.98762 46.71116 43.84939
# Shear Modulus (GPa) = 47.55183 -14.28175 16.63504
#
# Velocity S-wave (km/s) = 4.68784 -2.56910 2.77269
# Velocity P-wave (km/s) = 6.94575 3.57590 5.52406
#
# Compressibility (1/GPa) = 0.02439761
#
# Stress axis : x y z
#
# Youngs Moduli (GPa) = 97.73154 86.96158 76.00653
#
# Poissons Ratio (x) = 0.41407 0.08493
# Poissons Ratio (y) = 0.46536 -0.04816
# Poissons Ratio (z) = 0.10920 -0.05510
#
# Static dielectric constant tensor:
#      x y z
#    x 1.875690 0.000000 0.000000 
#    y 0.000000 1.775930 0.000000 
#    z 0.000000 0.000000 1.921090 
# 
# From -- ./inp_files/7000.got.cif
#   From: 2010.05.17/outbox.cif.g08.bks.cpg/sg47_4_cif.got.tgz:7000.got - 2010.06.03 20:15:42.
