data_PCOD9381118
_publ_section_title
;
Structure prediction by ZEFSAII (Michael W. Deem and Ramdas Pophale) SiO2 
 PCOD9381118
Probable space group: I M A 2
;
_chemical_formula_sum "Si O2"
_cell_formula_units_Z 20
_cell_length_a 21.000000
_cell_length_b 12.000000
_cell_length_c 9.000000
_cell_angle_alpha 90.000000
_cell_angle_beta 90.000000
_cell_angle_gamma 90.000000
_cell_volume 2268.000000
_symmetry_space_group_name_H-M "I M A 2"
_symmetry_group_IT_number 46
_symmetry_cell_setting 'orthorhombic'
loop_
_space_group_symop_operation_xyz
x,y,z
-x,-y,z
1/2-x,y,z
1/2+x,-y,z
1/2+x,1/2+y,1/2+z
1/2-x,1/2-y,1/2+z
-x,1/2+y,1/2+z
x,1/2-y,1/2+z
loop_
_atom_site_type_symbol
_atom_site_label
_atom_site_fract_x
_atom_site_fract_y
_atom_site_fract_z
Si Si1 0.545456 0.392759 0.600130
Si Si2 0.937391 0.919126 0.605709
Si Si3 0.324458 0.663531 0.715945
Si Si4 0.980348 0.751846 0.854900
Si Si5 0.175317 0.901334 0.563700
O O1 0.500000 0.500000 0.589460
O O2 0.620805 0.406534 0.629779
O O3 0.519058 0.323659 0.740103
O O4 0.530159 0.319781 0.455578
O O5 0.941301 0.841650 0.754485
O O6 0.942539 0.831810 0.466633
O O7 0.875840 0.000416 0.595029
O O8 0.000000 0.000000 0.602472
O O9 0.250000 0.638896 0.677010
O O10 0.335615 0.792776 0.668402
O O11 0.331695 0.639826 0.892043
O O12 0.250000 0.935338 0.582635
#
# Coordination Sequence:
#
# PCOD9381118 Si02
#       5
#     8   8   8   8   8
#     4  11  20  34  55  80 109 143 181 226 278 328
#     4  11  21  37  57  79 111 147 186 234 285 336
#     4  10  20  34  55  85 116 146 185 231 281 339
#     4  10  22  34  53  82 107 139 190 233 272 332
#     4  10  21  37  58  84 116 151 185 230 288 339
#
# _framework density 8.8183419999999995
#
# number of rings (size 3 to 8) (size 9 to 14) (size 15 to 20)
#    0.000    1.600    0.000    7.200    0.000    1.600 
#    0.000    1.000    0.000    4.800    0.000    0.000 
#    0.000    0.000    0.000    0.000    0.000    0.000 
#
# Total GULP energy -111678.014486 kJ/mol
# GULP energy per Si atom -5583.900724 kJ/mol
# Density = 0.879827 g / cm^3
# Si number density = 8.818342 Si / 1000 Ang^3
#
#
#
# Elastic Constant Matrix: (Units=GPa)
#
#
# Indices 1 2 3 4 5 6 
#
# 1 117.6342 46.1232 3.0854 0.0000 0.0000 0.0000
# 2 46.1232 90.7260 18.0907 0.0000 0.0000 0.0000
# 3 3.0854 18.0907 61.7481 0.0000 0.0000 0.0000
# 4 0.0000 0.0000 0.0000 36.4722 0.0000 0.0000
# 5 0.0000 0.0000 0.0000 0.0000 24.2579 0.0000
# 6 0.0000 0.0000 0.0000 0.0000 0.0000 40.9660
#
#
#
# Elastic Compliance Matrix: (Units=1/GPa)
#
#
# Indices 1 2 3 4 5 6 
#
# 1 0.010690 -0.005659 0.001124 0.000000 0.000000 0.000000
# 2 -0.005659 0.014701 -0.004024 0.000000 0.000000 0.000000
# 3 0.001124 -0.004024 0.017318 0.000000 0.000000 0.000000
# 4 0.000000 0.000000 0.000000 0.027418 0.000000 0.000000
# 5 0.000000 0.000000 0.000000 0.000000 0.041224 0.000000
# 6 0.000000 0.000000 0.000000 0.000000 0.000000 0.024411
#
#
# Mechanical properties :
#
#
# Convention : Reuss Voigt Hill
#
# Bulk Modulus (GPa) = 39.07700 44.96741 42.02220
# Shear Modulus (GPa) = 30.97687 33.85982 32.41834
#
# Velocity S-wave (km/s) = 4.19548 4.38636 4.29198
# Velocity P-wave (km/s) = 6.75826 7.15580 6.95987
#
# Compressibility (1/GPa) = 0.02559050
#
# Stress axis : x y z
#
# Youngs Moduli (GPa) = 93.54376 68.02054 57.74428
#
# Poissons Ratio (x) = 0.38491 -0.06489
# Poissons Ratio (y) = 0.52934 0.23239
# Poissons Ratio (z) = -0.10512 0.27374
#
# Static dielectric constant tensor:
#      x y z
#    x 1.613120 0.000000 0.000000 
#    y 0.000000 1.603830 0.000000 
#    z 0.000000 0.000000 1.624600 
# 
# From -- ./inp_files/6366.got.cif
#   From: 2010.05.17/outbox.ucp.g08.bks.cvg/sg46_4_cif.got.tgz:6366.got - 2010.06.11 16:34:52.
