data_PCOD9381971
_publ_section_title
;
Structure prediction by ZEFSAII (Michael W. Deem and Ramdas Pophale) SiO2 
 PCOD9381971
Probable space group: P M M M
;
_chemical_formula_sum "Si O2"
_cell_formula_units_Z 52
_cell_length_a 20.159451
_cell_length_b 7.366890
_cell_length_c 15.583577
_cell_angle_alpha 90.000000
_cell_angle_beta 90.000000
_cell_angle_gamma 90.000000
_cell_volume 2314.355324
_symmetry_space_group_name_H-M "P M M M"
_symmetry_group_IT_number 47
_symmetry_cell_setting 'orthorhombic'
loop_
_space_group_symop_operation_xyz
x,y,z
-x,-y,z
x,-y,-z
-x,y,-z
-x,-y,-z
x,y,-z
-x,y,z
x,-y,z
loop_
_atom_site_type_symbol
_atom_site_label
_atom_site_fract_x
_atom_site_fract_y
_atom_site_fract_z
Si Si1 0.859483 0.278889 0.331617
Si Si2 0.180567 0.280863 0.857366
Si Si3 0.384278 0.208660 0.274367
Si Si4 0.076364 0.278521 0.000000
Si Si5 0.500000 0.222326 0.400134
Si Si6 0.332898 0.214010 0.904810
Si Si7 0.000000 0.721741 0.400791
Si Si8 0.274897 0.719228 0.592418
O O1 0.861519 0.500000 0.330665
O O2 0.835319 0.219270 0.238350
O O3 0.801742 0.228482 0.397568
O O4 0.932507 0.216978 0.356037
O O5 0.180728 0.500000 0.857673
O O6 0.120819 0.222131 0.919016
O O7 0.253742 0.228268 0.888665
O O8 0.437256 0.283585 0.342685
O O9 0.370655 0.288584 0.179722
O O10 0.315756 0.212793 0.326726
O O11 0.404623 0.000000 0.260663
O O12 0.074401 0.500000 0.000000
O O13 0.000000 0.217673 0.000000
O O14 0.500000 0.282193 0.500000
O O15 0.500000 0.000000 0.404046
O O16 0.348071 0.000000 0.907381
O O17 0.347843 0.288819 0.000000
O O18 0.000000 0.500000 0.398501
O O19 0.000000 0.774559 0.500000
O O20 0.301817 0.779928 0.500000
O O21 0.278448 0.500000 0.595030
#
# Coordination Sequence:
#
# PCOD9381971 Si02
#       8
#     8   8   8   4   4   8   4   8
#     4   9  17  27  42  66  96 128 166 207 248 295
#     4  10  18  30  49  71  96 130 169 209 255 304
#     4  10  20  35  55  78 103 135 173 209 251 303
#     4   9  18  28  43  71 101 124 161 218 268 307
#     4   9  18  34  56  80 106 135 169 209 250 303
#     4  10  20  34  52  75 103 132 166 211 257 299
#     4   9  16  26  40  61  94 133 166 201 253 309
#     4  10  19  31  49  75 106 134 164 210 259 301
#
# _framework density 22.468461000000001
#
# number of rings (size 3 to 8) (size 9 to 14) (size 15 to 20)
#    0.000    2.385    2.308    0.923    1.077    2.769 
#    0.000    0.769    0.000    4.615    0.000    1.615 
#    0.000    6.154    0.000    0.000    0.000    0.000 
#
# Total GULP energy -290323.844730 kJ/mol
# GULP energy per Si atom -5583.150860 kJ/mol
# Density = 2.241732 g / cm^3
# Si number density = 22.468461 Si / 1000 Ang^3
#
#
#
# Elastic Constant Matrix: (Units=GPa)
#
#
# Indices 1 2 3 4 5 6 
#
# 1 117.0905 -1.9075 69.7233 0.0000 0.0000 0.0000
# 2 -1.9075 81.3660 8.4238 0.0000 0.0000 0.0000
# 3 69.7233 8.4238 219.9504 0.0000 0.0000 0.0000
# 4 0.0000 0.0000 0.0000 5.6768 0.0000 0.0000
# 5 0.0000 0.0000 0.0000 0.0000 40.5754 0.0000
# 6 0.0000 0.0000 0.0000 0.0000 0.0000 9.5677
#
#
#
# Elastic Compliance Matrix: (Units=1/GPa)
#
#
# Indices 1 2 3 4 5 6 
#
# 1 0.010556 0.000596 -0.003369 0.000000 0.000000 0.000000
# 2 0.000596 0.012373 -0.000663 0.000000 0.000000 0.000000
# 3 -0.003369 -0.000663 0.005640 0.000000 0.000000 0.000000
# 4 0.000000 0.000000 0.000000 0.176156 0.000000 0.000000
# 5 0.000000 0.000000 0.000000 0.000000 0.024645 0.000000
# 6 0.000000 0.000000 0.000000 0.000000 0.000000 0.104518
#
#
# Mechanical properties :
#
#
# Convention : Reuss Voigt Hill
#
# Bulk Modulus (GPa) = 46.08831 63.43179 54.76005
# Shear Modulus (GPa) = 14.36812 33.97513 24.17163
#
# Velocity S-wave (km/s) = 2.53154 3.89282 3.28350
# Velocity P-wave (km/s) = 5.39462 6.96407 6.22897
#
# Compressibility (1/GPa) = 0.02169747
#
# Stress axis : x y z
#
# Youngs Moduli (GPa) = 94.72987 80.82272 177.30900
#
# Poissons Ratio (x) = -0.04819 0.59738
# Poissons Ratio (y) = -0.05649 0.11753
# Poissons Ratio (z) = 0.31916 0.05358
#
# Static dielectric constant tensor:
#      x y z
#    x 1.797370 0.000000 0.000000 
#    y 0.000000 1.913640 0.000000 
#    z 0.000000 0.000000 1.832160 
# 
# From -- ./inp_files/24649.got.cif
#   From: 2010.05.17/outbox.cif.g08.bks.cpg/sg47_13_cif.got.tgz:24649.got - 2010.06.03 20:15:42.
