data_PCOD9381643
_publ_section_title
;
Structure prediction by ZEFSAII (Michael W. Deem and Ramdas Pophale) SiO2 
 PCOD9381643
Probable space group: P M M M
;
_chemical_formula_sum "Si O2"
_cell_formula_units_Z 64
_cell_length_a 7.456053
_cell_length_b 21.192101
_cell_length_c 20.739105
_cell_angle_alpha 90.000000
_cell_angle_beta 90.000000
_cell_angle_gamma 90.000000
_cell_volume 3276.974123
_symmetry_space_group_name_H-M "P M M M"
_symmetry_group_IT_number 47
_symmetry_cell_setting 'orthorhombic'
loop_
_space_group_symop_operation_xyz
x,y,z
-x,-y,z
x,-y,-z
-x,y,-z
-x,-y,-z
x,y,-z
-x,y,z
x,-y,z
loop_
_atom_site_type_symbol
_atom_site_label
_atom_site_fract_x
_atom_site_fract_y
_atom_site_fract_z
Si Si1 0.714345 0.253629 0.568842
Si Si2 0.713799 0.101060 0.429994
Si Si3 0.285114 0.743977 0.292488
Si Si4 0.218699 0.571758 0.073765
Si Si5 0.280386 0.890134 0.289435
Si Si6 0.212670 0.194493 0.927466
Si Si7 0.785781 0.688639 0.843639
Si Si8 0.716034 0.067920 0.149890
O O1 0.787985 0.275947 0.500000
O O2 0.500000 0.264981 0.567452
O O3 0.734963 0.177371 0.570475
O O4 0.783383 0.277854 0.637395
O O5 0.784563 0.078806 0.500000
O O6 0.500000 0.087713 0.430880
O O7 0.780226 0.082390 0.358750
O O8 0.500000 0.747946 0.297182
O O9 0.224515 0.816568 0.282607
O O10 0.245159 0.700779 0.231635
O O11 0.276698 0.500000 0.087294
O O12 0.281692 0.624217 0.124157
O O13 0.000000 0.571185 0.074735
O O14 0.269932 0.588049 0.000000
O O15 0.500000 0.891446 0.291376
O O16 0.223227 0.923551 0.223923
O O17 0.285673 0.250720 0.882863
O O18 0.234436 0.127609 0.892806
O O19 0.000000 0.205421 0.932411
O O20 0.286177 0.194711 0.000000
O O21 0.000000 0.687511 0.851746
O O22 0.500000 0.067491 0.151715
O O23 0.777571 0.000000 0.124702
#
# Coordination Sequence:
#
# PCOD9381643 Si02
#       8
#     8   8   8   8   8   8   8   8
#     4   7  10  17  31  54  81 108 141 176 205 240
#     4   7   9  14  28  51  76 102 131 162 198 240
#     4   9  15  24  41  62  86 116 145 174 212 256
#     4   8  14  26  45  67  89 115 147 178 207 246
#     4   8  13  23  38  56  80 108 137 169 206 249
#     4  10  21  35  49  65  85 109 137 173 217 260
#     4  10  18  28  45  69  93 113 138 175 214 252
#     4  10  20  33  48  64  83 109 142 180 220 261
#
# _framework density 19.530213
#
# number of rings (size 3 to 8) (size 9 to 14) (size 15 to 20)
#    0.000    3.375    1.250    3.000    0.000    2.250 
#    0.000    1.250    0.000    2.250    0.000    3.500 
#    0.000    1.000    0.000    7.375    0.000    1.500 
#
# Total GULP energy -356592.599724 kJ/mol
# GULP energy per Si atom -5571.759371 kJ/mol
# Density = 1.948576 g / cm^3
# Si number density = 19.530213 Si / 1000 Ang^3
#
#
#
# Elastic Constant Matrix: (Units=GPa)
#
#
# Indices 1 2 3 4 5 6 
#
# 1 55.3633 2.5610 5.1567 0.0000 0.0000 0.0000
# 2 2.5610 90.2519 73.8892 0.0000 0.0000 0.0000
# 3 5.1567 73.8892 180.4011 0.0000 0.0000 0.0000
# 4 0.0000 0.0000 0.0000 19.9618 0.0000 0.0000
# 5 0.0000 0.0000 0.0000 0.0000 13.4350 0.0000
# 6 0.0000 0.0000 0.0000 0.0000 0.0000 8.0168
#
#
#
# Elastic Compliance Matrix: (Units=1/GPa)
#
#
# Indices 1 2 3 4 5 6 
#
# 1 0.018112 -0.000136 -0.000462 0.000000 0.000000 0.000000
# 2 -0.000136 0.016671 -0.006824 0.000000 0.000000 0.000000
# 3 -0.000462 -0.006824 0.008352 0.000000 0.000000 0.000000
# 4 0.000000 0.000000 0.000000 0.050096 0.000000 0.000000
# 5 0.000000 0.000000 0.000000 0.000000 0.074433 0.000000
# 6 0.000000 0.000000 0.000000 0.000000 0.000000 0.124739
#
#
# Mechanical properties :
#
#
# Convention : Reuss Voigt Hill
#
# Bulk Modulus (GPa) = 35.34782 54.35891 44.85336
# Shear Modulus (GPa) = 15.78903 24.57665 20.18284
#
# Velocity S-wave (km/s) = 2.84639 3.55123 3.21817
# Velocity P-wave (km/s) = 5.37968 6.68645 6.06834
#
# Compressibility (1/GPa) = 0.02829029
#
# Stress axis : x y z
#
# Youngs Moduli (GPa) = 55.21257 59.98444 119.73856
#
# Poissons Ratio (x) = 0.00813 0.05534
# Poissons Ratio (y) = 0.00748 0.81713
# Poissons Ratio (z) = 0.02552 0.40935
#
# Static dielectric constant tensor:
#      x y z
#    x 1.799200 0.000000 0.000000 
#    y 0.000000 1.658170 0.000000 
#    z 0.000000 0.000000 1.736660 
# 
# From -- ./inp_files/27723.got.cif
#   From: 2010.05.17/outbox.cif.g08.bks.cpg/sg47_14_cif.got.tgz:27723.got - 2010.06.03 20:15:42.
