data_PCOD9381756
_publ_section_title
;
Structure prediction by ZEFSAII (Michael W. Deem and Ramdas Pophale) SiO2 
 PCOD9381756
Probable space group: P M M M
;
_chemical_formula_sum "Si O2"
_cell_formula_units_Z 52
_cell_length_a 18.939263
_cell_length_b 18.779539
_cell_length_c 8.909201
_cell_angle_alpha 90.000000
_cell_angle_beta 90.000000
_cell_angle_gamma 90.000000
_cell_volume 3168.741116
_symmetry_space_group_name_H-M "P M M M"
_symmetry_group_IT_number 47
_symmetry_cell_setting 'orthorhombic'
loop_
_space_group_symop_operation_xyz
x,y,z
-x,-y,z
x,-y,-z
-x,y,-z
-x,-y,-z
x,y,-z
-x,y,z
x,-y,z
loop_
_atom_site_type_symbol
_atom_site_label
_atom_site_fract_x
_atom_site_fract_y
_atom_site_fract_z
Si Si1 0.649652 0.077719 0.819805
Si Si2 0.288099 0.706075 0.327851
Si Si3 0.216333 0.136760 0.671916
Si Si4 0.580869 0.773930 0.818670
Si Si5 0.918894 0.500000 0.817274
Si Si6 0.846468 0.647285 0.180222
Si Si7 0.918669 0.213722 0.318482
O O1 0.730275 0.090178 0.768523
O O2 0.604410 0.146156 0.769640
O O3 0.624948 0.000000 0.766412
O O4 0.646920 0.077873 0.000000
O O5 0.295372 0.683319 0.500000
O O6 0.250954 0.784141 0.327895
O O7 0.363291 0.719173 0.250858
O O8 0.233176 0.656959 0.239388
O O9 0.215286 0.110838 0.500000
O O10 0.136730 0.151795 0.726021
O O11 0.500000 0.760716 0.776198
O O12 0.586209 0.771434 0.000000
O O13 0.879586 0.427843 0.771353
O O14 0.000000 0.500000 0.766113
O O15 0.919707 0.500000 0.000000
O O16 0.892441 0.712503 0.245983
O O17 0.847332 0.651723 0.000000
O O18 0.912664 0.220393 0.500000
O O19 0.000000 0.199653 0.280643
#
# Coordination Sequence:
#
# PCOD9381756 Si02
#       7
#     8   8   8   8   4   8   8
#     4   9  17  28  42  61  86 116 146 176 214 260
#     4   9  17  30  46  64  88 117 150 186 222 259
#     4   8  15  27  42  59  79 107 143 182 220 259
#     4   9  17  29  46  69  94 117 144 180 220 263
#     4   9  18  30  43  65  98 129 154 183 219 258
#     4  10  18  29  46  66  90 121 155 185 215 258
#     4   9  17  29  44  63  87 112 142 185 232 269
#
# _framework density 16.410302000000001
#
# number of rings (size 3 to 8) (size 9 to 14) (size 15 to 20)
#    0.000    3.000    0.000    2.308    0.000    5.538 
#    0.000    3.077    0.000    3.231    0.000    8.077 
#    0.000    4.308    0.000    0.000    0.000    0.000 
#
# Total GULP energy -289550.267141 kJ/mol
# GULP energy per Si atom -5568.274368 kJ/mol
# Density = 1.637295 g / cm^3
# Si number density = 16.410302 Si / 1000 Ang^3
#
#
#
# Elastic Constant Matrix: (Units=GPa)
#
#
# Indices 1 2 3 4 5 6 
#
# 1 140.2262 23.2191 24.1260 0.0000 0.0000 0.0000
# 2 23.2191 32.1206 7.4703 0.0000 0.0000 0.0000
# 3 24.1260 7.4703 19.9711 0.0000 0.0000 0.0000
# 4 0.0000 0.0000 0.0000 8.9920 0.0000 0.0000
# 5 0.0000 0.0000 0.0000 0.0000 22.7010 0.0000
# 6 0.0000 0.0000 0.0000 0.0000 0.0000 16.3122
#
#
#
# Elastic Compliance Matrix: (Units=1/GPa)
#
#
# Indices 1 2 3 4 5 6 
#
# 1 0.009596 -0.004645 -0.009855 0.000000 0.000000 0.000000
# 2 -0.004645 0.036347 -0.007985 0.000000 0.000000 0.000000
# 3 -0.009855 -0.007985 0.064964 0.000000 0.000000 0.000000
# 4 0.000000 0.000000 0.000000 0.111210 0.000000 0.000000
# 5 0.000000 0.000000 0.000000 0.000000 0.044051 0.000000
# 6 0.000000 0.000000 0.000000 0.000000 0.000000 0.061304
#
#
# Mechanical properties :
#
#
# Convention : Reuss Voigt Hill
#
# Bulk Modulus (GPa) = 15.16569 33.54986 24.35777
# Shear Modulus (GPa) = 12.67680 18.76787 15.72233
#
# Velocity S-wave (km/s) = 2.78239 3.38548 3.09864
# Velocity P-wave (km/s) = 4.42537 5.98086 5.26092
#
# Compressibility (1/GPa) = 0.06593831
#
# Stress axis : x y z
#
# Youngs Moduli (GPa) = 104.21037 27.51237 15.39307
#
# Poissons Ratio (x) = 0.12779 0.15170
# Poissons Ratio (y) = 0.48402 0.12291
# Poissons Ratio (z) = 1.02699 0.21969
#
# Static dielectric constant tensor:
#      x y z
#    x 1.565050 0.000000 0.000000 
#    y 0.000000 1.544570 0.000000 
#    z 0.000000 0.000000 1.556150 
# 
# From -- ./inp_files/9504.got.cif
#   From: 2010.05.17/outbox.cif.g08.bks.cpg/sg47_5_cif.got.tgz:9504.got - 2010.06.03 20:15:42.
