data_PCOD9381798
_publ_section_title
;
Structure prediction by ZEFSAII (Michael W. Deem and Ramdas Pophale) SiO2 
 PCOD9381798
Probable space group: P M M M
;
_chemical_formula_sum "Si O2"
_cell_formula_units_Z 64
_cell_length_a 25.334943
_cell_length_b 7.627319
_cell_length_c 16.160288
_cell_angle_alpha 90.000000
_cell_angle_beta 90.000000
_cell_angle_gamma 90.000000
_cell_volume 3122.776757
_symmetry_space_group_name_H-M "P M M M"
_symmetry_group_IT_number 47
_symmetry_cell_setting 'orthorhombic'
loop_
_space_group_symop_operation_xyz
x,y,z
-x,-y,z
x,-y,-z
-x,y,-z
-x,-y,-z
x,y,-z
-x,y,z
x,-y,z
loop_
_atom_site_type_symbol
_atom_site_label
_atom_site_fract_x
_atom_site_fract_y
_atom_site_fract_z
Si Si1 0.938844 0.785808 0.593152
Si Si2 0.558724 0.789065 0.266930
Si Si3 0.170992 0.209143 0.089463
Si Si4 0.858170 0.794238 0.730156
Si Si5 0.258845 0.288565 0.315119
Si Si6 0.290384 0.709336 0.130956
Si Si7 0.593428 0.203638 0.088636
Si Si8 0.357765 0.710379 0.409598
O O1 0.922832 0.730737 0.500000
O O2 0.901309 0.720954 0.666701
O O3 0.000000 0.736608 0.605539
O O4 0.936872 0.000000 0.593374
O O5 0.500000 0.728981 0.289963
O O6 0.573309 0.719500 0.175363
O O7 0.601344 0.747087 0.336597
O O8 0.558175 0.000000 0.260979
O O9 0.147457 0.280238 0.176225
O O10 0.234092 0.237306 0.094069
O O11 0.162066 0.000000 0.089706
O O12 0.152237 0.278296 0.000000
O O13 0.800489 0.779995 0.688436
O O14 0.870325 0.000000 0.740230
O O15 0.254921 0.500000 0.318143
O O16 0.285958 0.242383 0.227595
O O17 0.299197 0.226260 0.384816
O O18 0.295157 0.500000 0.123433
O O19 0.342951 0.789692 0.093700
O O20 0.576856 0.000000 0.087558
O O21 0.577051 0.281883 0.000000
O O22 0.374053 0.776469 0.500000
O O23 0.354153 0.500000 0.413612
#
# Coordination Sequence:
#
# PCOD9381798 Si02
#       8
#     8   8   8   8   8   8   8   8
#     4   8  14  26  45  69  96 124 157 201 247 285
#     4  10  22  39  57  76  99 127 161 205 249 289
#     4   9  17  28  41  61  94 131 161 192 234 282
#     4   9  17  28  46  71  95 125 164 200 234 282
#     4   9  18  32  48  70 101 131 157 192 240 290
#     4  10  18  29  47  70  96 126 161 199 236 280
#     4  10  20  33  51  74  99 128 160 195 241 295
#     4  10  21  38  58  77  99 130 164 197 243 303
#
# _framework density 20.494581
#
# number of rings (size 3 to 8) (size 9 to 14) (size 15 to 20)
#    0.000    2.625    1.250    1.125    0.000    4.500 
#    0.000    2.500    0.000    0.750    0.000    5.250 
#    0.000    0.000    0.000    6.250    0.000    6.500 
#
# Total GULP energy -356928.994555 kJ/mol
# GULP energy per Si atom -5577.015540 kJ/mol
# Density = 2.044793 g / cm^3
# Si number density = 20.494581 Si / 1000 Ang^3
#
#
#
# Elastic Constant Matrix: (Units=GPa)
#
#
# Indices 1 2 3 4 5 6 
#
# 1 81.1913 -0.6919 77.0899 0.0000 0.0000 0.0000
# 2 -0.6919 39.8266 10.8281 0.0000 0.0000 0.0000
# 3 77.0899 10.8281 178.6163 0.0000 0.0000 0.0000
# 4 0.0000 0.0000 0.0000 -3.9944 0.0000 0.0000
# 5 0.0000 0.0000 0.0000 0.0000 30.9951 0.0000
# 6 0.0000 0.0000 0.0000 0.0000 0.0000 45.3971
#
#
#
# Elastic Compliance Matrix: (Units=1/GPa)
#
#
# Indices 1 2 3 4 5 6 
#
# 1 0.021193 0.002903 -0.009323 0.000000 0.000000 0.000000
# 2 0.002903 0.025927 -0.002825 0.000000 0.000000 0.000000
# 3 -0.009323 -0.002825 0.009794 0.000000 0.000000 0.000000
# 4 0.000000 0.000000 0.000000 -0.250350 0.000000 0.000000
# 5 0.000000 0.000000 0.000000 0.000000 0.032263 0.000000
# 6 0.000000 0.000000 0.000000 0.000000 0.000000 0.022028
#
#
# Mechanical properties :
#
#
# Convention : Reuss Voigt Hill
#
# Bulk Modulus (GPa) = 26.02483 52.67626 39.35054
# Shear Modulus (GPa) = -46.36174 28.64009 -8.86083
#
# Velocity S-wave (km/s) = -4.76136 3.74230 -2.08156
# Velocity P-wave (km/s) = 4.18348 6.66569 3.66946
#
# Compressibility (1/GPa) = 0.03842484
#
# Stress axis : x y z
#
# Youngs Moduli (GPa) = 47.18477 38.56943 102.10804
#
# Poissons Ratio (x) = -0.11196 0.95194
# Poissons Ratio (y) = -0.13697 0.28842
# Poissons Ratio (z) = 0.43990 0.10895
#
# Static dielectric constant tensor:
#      x y z
#    x 1.690040 0.000000 0.000000 
#    y 0.000000 1.768860 0.000000 
#    z 0.000000 0.000000 1.784640 
# 
# From -- ./inp_files/25574.got.cif
#   From: 2010.05.17/outbox.cif.g08.bks.cpg/sg47_13_cif.got.tgz:25574.got - 2010.06.03 20:15:42.
