data_PCOD9381179
_publ_section_title
;
Structure prediction by ZEFSAII (Michael W. Deem and Ramdas Pophale) SiO2 
 PCOD9381179
Probable space group: P M M M
;
_chemical_formula_sum "Si O2"
_cell_formula_units_Z 52
_cell_length_a 7.474094
_cell_length_b 30.088049
_cell_length_c 11.389635
_cell_angle_alpha 90.000000
_cell_angle_beta 90.000000
_cell_angle_gamma 90.000000
_cell_volume 2561.311444
_symmetry_space_group_name_H-M "P M M M"
_symmetry_group_IT_number 47
_symmetry_cell_setting 'orthorhombic'
loop_
_space_group_symop_operation_xyz
x,y,z
-x,-y,z
x,-y,-z
-x,y,-z
-x,-y,-z
x,y,-z
-x,y,z
x,-y,z
loop_
_atom_site_type_symbol
_atom_site_label
_atom_site_fract_x
_atom_site_fract_y
_atom_site_fract_z
Si Si1 0.716790 0.182763 0.630392
Si Si2 0.216277 0.052293 0.500000
Si Si3 0.283860 0.204480 0.000000
Si Si4 0.712703 0.645005 0.134621
Si Si5 0.790165 0.899804 0.000000
Si Si6 0.282228 0.737327 0.774219
Si Si7 0.791947 0.906983 0.256153
Si Si8 0.214678 0.547769 0.863873
O O1 0.777492 0.170738 0.500000
O O2 0.500000 0.181224 0.633050
O O3 0.773756 0.232346 0.665234
O O4 0.782020 0.145850 0.720976
O O5 0.285292 0.072333 0.376518
O O6 0.000000 0.059794 0.500000
O O7 0.249127 0.000000 0.500000
O O8 0.231222 0.233389 0.112662
O O9 0.500000 0.201875 0.000000
O O10 0.219497 0.153969 0.000000
O O11 0.500000 0.650990 0.124756
O O12 0.781622 0.687042 0.207810
O O13 0.738985 0.595831 0.186993
O O14 0.784422 0.646066 0.000000
O O15 0.714821 0.915775 0.873903
O O16 0.000000 0.911741 0.000000
O O17 0.500000 0.735909 0.770637
O O18 0.000000 0.920741 0.252134
O O19 0.276279 0.500000 0.813829
O O20 0.000000 0.546404 0.866170
O O21 0.277619 0.549026 0.000000
#
# Coordination Sequence:
#
# PCOD9381179 Si02
#       8
#     8   4   4   8   4   8   8   8
#     4  10  19  30  47  70  93 120 158 194 223 268
#     4   9  18  34  55  73  91 125 167 197 232 287
#     4  10  16  26  44  61  84 124 158 177 212 269
#     4   9  15  23  36  53  74 104 141 175 208 254
#     4  10  20  30  43  72 104 121 147 196 240 270
#     4   9  16  26  40  60  87 116 147 181 217 261
#     4  10  19  32  50  72  98 125 154 193 237 277
#     4   8  14  24  35  48  71 103 136 172 216 263
#
# _framework density 20.302099999999999
#
# number of rings (size 3 to 8) (size 9 to 14) (size 15 to 20)
#    0.000    2.692    3.077    0.462    0.000    0.308 
#    0.000    3.462    0.000    3.231    0.000    0.000 
#    0.000    2.462    0.000    7.692    0.000    1.538 
#
# Total GULP energy -289689.392155 kJ/mol
# GULP energy per Si atom -5570.949849 kJ/mol
# Density = 2.025589 g / cm^3
# Si number density = 20.302100 Si / 1000 Ang^3
#
#
#
# Elastic Constant Matrix: (Units=GPa)
#
#
# Indices 1 2 3 4 5 6 
#
# 1 57.0545 -3.3799 5.4395 0.0000 0.0000 0.0000
# 2 -3.3799 94.4209 41.6994 0.0000 0.0000 0.0000
# 3 5.4395 41.6994 127.6064 0.0000 0.0000 0.0000
# 4 0.0000 0.0000 0.0000 22.7937 0.0000 0.0000
# 5 0.0000 0.0000 0.0000 0.0000 1.9777 0.0000
# 6 0.0000 0.0000 0.0000 0.0000 0.0000 12.4278
#
#
#
# Elastic Compliance Matrix: (Units=1/GPa)
#
#
# Indices 1 2 3 4 5 6 
#
# 1 0.017701 0.001130 -0.001124 0.000000 0.000000 0.000000
# 2 0.001130 0.012449 -0.004116 0.000000 0.000000 0.000000
# 3 -0.001124 -0.004116 0.009230 0.000000 0.000000 0.000000
# 4 0.000000 0.000000 0.000000 0.043872 0.000000 0.000000
# 5 0.000000 0.000000 0.000000 0.000000 0.505638 0.000000
# 6 0.000000 0.000000 0.000000 0.000000 0.000000 0.080465
#
#
# Mechanical properties :
#
#
# Convention : Reuss Voigt Hill
#
# Bulk Modulus (GPa) = 32.09278 40.73330 36.41304
# Shear Modulus (GPa) = 7.26785 23.12803 15.19794
#
# Velocity S-wave (km/s) = 1.89410 3.37886 2.73900
# Velocity P-wave (km/s) = 4.54152 5.94385 5.28937
#
# Compressibility (1/GPa) = 0.03115966
#
# Stress axis : x y z
#
# Youngs Moduli (GPa) = 56.49344 80.32628 108.34657
#
# Poissons Ratio (x) = -0.09076 0.12176
# Poissons Ratio (y) = -0.06383 0.44599
# Poissons Ratio (z) = 0.06349 0.33065
#
# Static dielectric constant tensor:
#      x y z
#    x 1.781670 0.000000 0.000000 
#    y 0.000000 1.746740 0.000000 
#    z 0.000000 0.000000 1.730480 
# 
# From -- ./inp_files/15686.got.cif
#   From: 2010.05.17/outbox.cif.g08.bks.cpg/sg47_8_cif.got.tgz:15686.got - 2010.06.03 20:15:42.
