data_PCOD9381978
_publ_section_title
;
Structure prediction by ZEFSAII (Michael W. Deem and Ramdas Pophale) SiO2 
 PCOD9381978
Probable space group: P M M M
;
_chemical_formula_sum "Si O2"
_cell_formula_units_Z 52
_cell_length_a 15.054550
_cell_length_b 18.280274
_cell_length_c 8.399922
_cell_angle_alpha 90.000000
_cell_angle_beta 90.000000
_cell_angle_gamma 90.000000
_cell_volume 2311.669445
_symmetry_space_group_name_H-M "P M M M"
_symmetry_group_IT_number 47
_symmetry_cell_setting 'orthorhombic'
loop_
_space_group_symop_operation_xyz
x,y,z
-x,-y,z
x,-y,-z
-x,y,-z
-x,-y,-z
x,y,-z
-x,y,z
x,-y,z
loop_
_atom_site_type_symbol
_atom_site_label
_atom_site_fract_x
_atom_site_fract_y
_atom_site_fract_z
Si Si1 0.395322 0.176407 0.681607
Si Si2 0.372295 0.500000 0.187240
Si Si3 0.182085 0.500000 0.673376
Si Si4 0.157099 0.363825 0.174073
Si Si5 0.391298 0.086834 0.000000
Si Si6 0.104345 0.775506 0.330266
Si Si7 0.367916 0.661433 0.813088
Si Si8 0.891284 0.078973 0.185331
O O1 0.359443 0.163877 0.500000
O O2 0.500000 0.158513 0.673765
O O3 0.389642 0.263531 0.722982
O O4 0.361687 0.129881 0.837052
O O5 0.265085 0.500000 0.206037
O O6 0.400444 0.419063 0.247589
O O7 0.393409 0.500000 0.000000
O O8 0.223344 0.500000 0.500000
O O9 0.129890 0.574225 0.702140
O O10 0.113562 0.286453 0.201222
O O11 0.261411 0.346575 0.191000
O O12 0.138066 0.393055 0.000000
O O13 0.500000 0.089199 0.000000
O O14 0.365894 0.000000 0.000000
O O15 0.140812 0.749452 0.500000
O O16 0.144752 0.852285 0.279913
O O17 0.000000 0.788326 0.346173
O O18 0.393971 0.668994 0.000000
O O19 0.000000 0.079533 0.189605
O O20 0.862623 0.000000 0.247005
O O21 0.867275 0.085379 0.000000
#
# Coordination Sequence:
#
# PCOD9381978 Si02
#       8
#     8   4   4   8   4   8   8   8
#     4  10  20  33  53  82 113 144 179 221 269 319
#     4   8  16  30  49  74 103 137 180 217 247 298
#     4  10  18  30  49  72  99 126 161 210 256 297
#     4  10  20  34  53  74  97 130 172 210 249 302
#     4   9  18  34  56  79 107 143 180 223 270 317
#     4  10  20  32  47  71 101 128 159 205 259 308
#     4   9  17  32  53  76 104 138 176 219 263 308
#     4   8  14  26  45  67  90 119 155 192 232 284
#
# _framework density 22.494565000000001
#
# number of rings (size 3 to 8) (size 9 to 14) (size 15 to 20)
#    0.000    2.692    0.769    3.000    0.000    4.615 
#    0.000    3.846    0.000    5.538    0.000    2.154 
#    0.000    0.000    0.000    0.000    0.000    0.000 
#
# Total GULP energy -289689.183889 kJ/mol
# GULP energy per Si atom -5570.945844 kJ/mol
# Density = 2.244337 g / cm^3
# Si number density = 22.494565 Si / 1000 Ang^3
#
#
#
# Elastic Constant Matrix: (Units=GPa)
#
#
# Indices 1 2 3 4 5 6 
#
# 1 14.4087 10.1135 10.9761 0.0000 0.0000 0.0000
# 2 10.1135 160.5196 65.4690 0.0000 0.0000 0.0000
# 3 10.9761 65.4690 110.8241 0.0000 0.0000 0.0000
# 4 0.0000 0.0000 0.0000 30.5326 0.0000 0.0000
# 5 0.0000 0.0000 0.0000 0.0000 7.5853 0.0000
# 6 0.0000 0.0000 0.0000 0.0000 0.0000 12.3567
#
#
#
# Elastic Compliance Matrix: (Units=1/GPa)
#
#
# Indices 1 2 3 4 5 6 
#
# 1 0.075680 -0.002254 -0.006164 0.000000 0.000000 0.000000
# 2 -0.002254 0.008274 -0.004665 0.000000 0.000000 0.000000
# 3 -0.006164 -0.004665 0.012389 0.000000 0.000000 0.000000
# 4 0.000000 0.000000 0.000000 0.032752 0.000000 0.000000
# 5 0.000000 0.000000 0.000000 0.000000 0.131834 0.000000
# 6 0.000000 0.000000 0.000000 0.000000 0.000000 0.080928
#
#
# Mechanical properties :
#
#
# Convention : Reuss Voigt Hill
#
# Bulk Modulus (GPa) = 14.24937 50.98551 32.61744
# Shear Modulus (GPa) = 12.77411 23.37451 18.07431
#
# Velocity S-wave (km/s) = 2.38560 3.22703 2.83768
# Velocity P-wave (km/s) = 3.73316 6.04978 5.02675
#
# Compressibility (1/GPa) = 0.07017855
#
# Stress axis : x y z
#
# Youngs Moduli (GPa) = 13.21347 120.85525 80.71363
#
# Poissons Ratio (x) = 0.27244 0.49750
# Poissons Ratio (y) = 0.02979 0.37651
# Poissons Ratio (z) = 0.08144 0.56376
#
# Static dielectric constant tensor:
#      x y z
#    x 1.882820 0.000000 0.000000 
#    y 0.000000 1.887010 0.000000 
#    z 0.000000 0.000000 1.872050 
# 
# From -- ./inp_files/9632.got.cif
#   From: 2010.05.17/outbox.cif.g08.bks.cpg/sg47_5_cif.got.tgz:9632.got - 2010.06.03 20:15:42.
