data_PCOD9381557
_publ_section_title
;
Structure prediction by ZEFSAII (Michael W. Deem and Ramdas Pophale) SiO2 
 PCOD9381557
Probable space group: P M M M
;
_chemical_formula_sum "Si O2"
_cell_formula_units_Z 56
_cell_length_a 24.027110
_cell_length_b 14.874026
_cell_length_c 8.966669
_cell_angle_alpha 90.000000
_cell_angle_beta 90.000000
_cell_angle_gamma 90.000000
_cell_volume 3204.506902
_symmetry_space_group_name_H-M "P M M M"
_symmetry_group_IT_number 47
_symmetry_cell_setting 'orthorhombic'
loop_
_space_group_symop_operation_xyz
x,y,z
-x,-y,z
x,-y,-z
-x,y,-z
-x,-y,-z
x,y,-z
-x,y,z
x,-y,z
loop_
_atom_site_type_symbol
_atom_site_label
_atom_site_fract_x
_atom_site_fract_y
_atom_site_fract_z
Si Si1 0.770253 0.894370 0.324038
Si Si2 0.888528 0.896061 0.822330
Si Si3 0.563584 0.102599 0.318347
Si Si4 0.842691 0.606813 0.176988
Si Si5 0.715619 0.603884 0.179873
Si Si6 0.061964 0.725973 0.322115
Si Si7 0.664206 0.227452 0.320195
O O1 0.782560 0.879950 0.500000
O O2 0.825482 0.875282 0.230025
O O3 0.717906 0.833614 0.282210
O O4 0.756274 0.000000 0.305803
O O5 0.928024 0.825076 0.743194
O O6 0.899800 0.000000 0.781472
O O7 0.892683 0.887384 0.000000
O O8 0.564434 0.102806 0.500000
O O9 0.500000 0.121940 0.272622
O O10 0.609112 0.174622 0.268913
O O11 0.577527 0.000000 0.272934
O O12 0.850786 0.500000 0.198218
O O13 0.779301 0.627309 0.225749
O O14 0.889466 0.663047 0.259505
O O15 0.846263 0.625272 0.000000
O O16 0.705130 0.500000 0.222108
O O17 0.674042 0.675332 0.250043
O O18 0.713896 0.608494 0.000000
O O19 0.065577 0.728967 0.500000
O O20 0.000000 0.693960 0.279745
O O21 0.662294 0.234695 0.500000
#
# Coordination Sequence:
#
# PCOD9381557 Si02
#       7
#     8   8   8   8   8   8   8
#     4   9  17  29  46  71 103 131 153 187 241 300
#     4  10  21  36  53  72  95 126 165 206 245 289
#     4   8  14  26  45  70 102 138 171 202 238 281
#     4   9  19  37  59  79  99 126 160 198 242 293
#     4   9  19  35  52  71  97 128 160 196 243 296
#     4  11  24  38  52  73 100 129 161 198 242 293
#     4  10  18  27  46  76 102 126 163 206 242 281
#
# _framework density 17.475387000000001
#
# number of rings (size 3 to 8) (size 9 to 14) (size 15 to 20)
#    0.000    2.571    0.000    3.429    0.000    8.286 
#    0.000    4.286    0.000    2.143    0.000    4.000 
#    0.000    0.000    0.000    0.000    0.000    0.000 
#
# Total GULP energy -312453.716105 kJ/mol
# GULP energy per Si atom -5579.530645 kJ/mol
# Density = 1.743561 g / cm^3
# Si number density = 17.475387 Si / 1000 Ang^3
#
#
#
# Elastic Constant Matrix: (Units=GPa)
#
#
# Indices 1 2 3 4 5 6 
#
# 1 98.1865 79.5179 28.0445 0.0000 0.0000 0.0000
# 2 79.5179 90.2792 30.7571 0.0000 0.0000 0.0000
# 3 28.0445 30.7571 17.6758 0.0000 0.0000 0.0000
# 4 0.0000 0.0000 0.0000 28.6853 0.0000 0.0000
# 5 0.0000 0.0000 0.0000 0.0000 -1.6545 0.0000
# 6 0.0000 0.0000 0.0000 0.0000 0.0000 21.3167
#
#
#
# Elastic Compliance Matrix: (Units=1/GPa)
#
#
# Indices 1 2 3 4 5 6 
#
# 1 0.035688 -0.029823 -0.004729 0.000000 0.000000 0.000000
# 2 -0.029823 0.052125 -0.043384 0.000000 0.000000 0.000000
# 3 -0.004729 -0.043384 0.139569 0.000000 0.000000 0.000000
# 4 0.000000 0.000000 0.000000 0.034861 0.000000 0.000000
# 5 0.000000 0.000000 0.000000 0.000000 -0.604427 0.000000
# 6 0.000000 0.000000 0.000000 0.000000 0.000000 0.046912
#
#
# Mechanical properties :
#
#
# Convention : Reuss Voigt Hill
#
# Bulk Modulus (GPa) = 13.98407 53.64230 33.81318
# Shear Modulus (GPa) = -43.26606 14.19097 -14.53755
#
# Velocity S-wave (km/s) = -4.98117 2.85275 -2.88737
# Velocity P-wave (km/s) = 5.00631 6.45085 2.87665
#
# Compressibility (1/GPa) = 0.07150993
#
# Stress axis : x y z
#
# Youngs Moduli (GPa) = 28.02081 19.18462 7.16492
#
# Poissons Ratio (x) = 0.57214 0.03388
# Poissons Ratio (y) = 0.83566 0.31085
# Poissons Ratio (z) = 0.13251 0.83231
#
# Static dielectric constant tensor:
#      x y z
#    x 1.587480 0.000000 0.000000 
#    y 0.000000 1.594890 0.000000 
#    z 0.000000 0.000000 1.585350 
# 
# From -- ./inp_files/7260.got.cif
#   From: 2010.05.17/outbox.cif.g08.bks.cpg/sg47_4_cif.got.tgz:7260.got - 2010.06.03 20:15:42.
