data_PCOD9381799
_publ_section_title
;
Structure prediction by ZEFSAII (Michael W. Deem and Ramdas Pophale) SiO2 
 PCOD9381799
Probable space group: P M M M
;
_chemical_formula_sum "Si O2"
_cell_formula_units_Z 52
_cell_length_a 27.057899
_cell_length_b 13.200415
_cell_length_c 8.562634
_cell_angle_alpha 90.000000
_cell_angle_beta 90.000000
_cell_angle_gamma 90.000000
_cell_volume 3058.363045
_symmetry_space_group_name_H-M "P M M M"
_symmetry_group_IT_number 47
_symmetry_cell_setting 'orthorhombic'
loop_
_space_group_symop_operation_xyz
x,y,z
-x,-y,z
x,-y,-z
-x,y,-z
-x,-y,-z
x,y,-z
-x,y,z
x,-y,z
loop_
_atom_site_type_symbol
_atom_site_label
_atom_site_fract_x
_atom_site_fract_y
_atom_site_fract_z
Si Si1 0.056615 0.194511 0.188487
Si Si2 0.768997 0.000000 0.688625
Si Si3 0.115804 0.615839 0.688507
Si Si4 0.293948 0.196454 0.688824
Si Si5 0.500000 0.877633 0.317525
Si Si6 0.604919 0.117710 0.186447
Si Si7 0.880245 0.000000 0.188968
Si Si8 0.229665 0.385559 0.690280
O O1 0.080154 0.299626 0.243603
O O2 0.000000 0.183580 0.241914
O O3 0.090307 0.100284 0.241447
O O4 0.056357 0.192845 0.000000
O O5 0.738969 0.099869 0.738449
O O6 0.770935 0.000000 0.500000
O O7 0.824418 0.000000 0.751371
O O8 0.113934 0.620144 0.500000
O O9 0.103717 0.500000 0.734731
O O10 0.172846 0.636220 0.735829
O O11 0.295030 0.196896 0.500000
O O12 0.349192 0.180552 0.748959
O O13 0.267043 0.298885 0.743046
O O14 0.500000 0.853783 0.500000
O O15 0.448590 0.843573 0.241795
O O16 0.500000 0.000000 0.299080
O O17 0.610553 0.000000 0.241158
O O18 0.606055 0.117116 0.000000
O O19 0.879621 0.000000 0.000000
O O20 0.230110 0.385250 0.500000
O O21 0.242092 0.500000 0.740499
#
# Coordination Sequence:
#
# PCOD9381799 Si02
#       8
#     8   4   8   8   4   8   4   8
#     4  10  21  36  52  70  94 125 160 198 240 289
#     4  10  20  31  47  72  99 126 158 197 243 289
#     4   9  18  34  55  76  98 123 154 196 246 296
#     4  10  18  29  47  70  97 127 160 197 235 280
#     4   9  17  29  47  67  92 129 170 207 239 279
#     4  10  19  30  44  66  99 134 165 198 239 284
#     4  10  21  36  52  68  91 127 166 199 236 287
#     4   8  15  29  49  71  94 123 158 195 236 282
#
# _framework density 17.002559999999999
#
# number of rings (size 3 to 8) (size 9 to 14) (size 15 to 20)
#    0.000    2.538    0.769    2.769    0.000    5.846 
#    0.000    2.308    0.000    2.769    0.000    0.538 
#    0.000    4.308    0.000    0.000    0.000    0.000 
#
# Total GULP energy -290029.717202 kJ/mol
# GULP energy per Si atom -5577.494562 kJ/mol
# Density = 1.696386 g / cm^3
# Si number density = 17.002560 Si / 1000 Ang^3
#
#
#
# Elastic Constant Matrix: (Units=GPa)
#
#
# Indices 1 2 3 4 5 6 
#
# 1 150.3436 74.7843 27.8197 0.0000 0.0000 0.0000
# 2 74.7843 90.0863 17.7476 0.0000 0.0000 0.0000
# 3 27.8197 17.7476 4.4489 0.0000 0.0000 0.0000
# 4 0.0000 0.0000 0.0000 15.7335 0.0000 0.0000
# 5 0.0000 0.0000 0.0000 0.0000 51.9950 0.0000
# 6 0.0000 0.0000 0.0000 0.0000 0.0000 7.3410
#
#
#
# Elastic Compliance Matrix: (Units=1/GPa)
#
#
# Indices 1 2 3 4 5 6 
#
# 1 -0.010926 -0.020501 0.150100 0.000000 0.000000 0.000000
# 2 -0.020501 0.013377 0.074832 0.000000 0.000000 0.000000
# 3 0.150100 0.074832 -1.012332 0.000000 0.000000 0.000000
# 4 0.000000 0.000000 0.000000 0.063559 0.000000 0.000000
# 5 0.000000 0.000000 0.000000 0.000000 0.019233 0.000000
# 6 0.000000 0.000000 0.000000 0.000000 0.000000 0.136220
#
#
# Mechanical properties :
#
#
# Convention : Reuss Voigt Hill
#
# Bulk Modulus (GPa) = -1.66384 53.95355 26.14486
# Shear Modulus (GPa) = -3.57125 23.31571 9.87223
#
# Velocity S-wave (km/s) = -1.45085 3.70713 2.41224
# Velocity P-wave (km/s) = 1.94611 7.07992 4.81341
#
# Compressibility (1/GPa) = -0.60101964
#
# Stress axis : x y z
#
# Youngs Moduli (GPa) = -91.52841 74.75681 -0.98782
#
# Poissons Ratio (x) = 1.53258 0.14827
# Poissons Ratio (y) = -1.87641 0.07392
# Poissons Ratio (z) = 13.73839 -5.59419
#
# Static dielectric constant tensor:
#      x y z
#    x 1.558000 0.000000 0.000000 
#    y 0.000000 1.566270 0.000000 
#    z 0.000000 0.000000 1.580590 
# 
# From -- ./inp_files/13349.got.cif
#   From: 2010.05.17/outbox.cif.g08.bks.cpg/sg47_7_cif.got.tgz:13349.got - 2010.06.03 20:15:42.
