data_PCOD9381559
_publ_section_title
;
Structure prediction by ZEFSAII (Michael W. Deem and Ramdas Pophale) SiO2 
 PCOD9381559
Probable space group: P M M M
;
_chemical_formula_sum "Si O2"
_cell_formula_units_Z 64
_cell_length_a 7.804652
_cell_length_b 14.435131
_cell_length_c 27.478363
_cell_angle_alpha 90.000000
_cell_angle_beta 90.000000
_cell_angle_gamma 90.000000
_cell_volume 3095.744636
_symmetry_space_group_name_H-M "P M M M"
_symmetry_group_IT_number 47
_symmetry_cell_setting 'orthorhombic'
loop_
_space_group_symop_operation_xyz
x,y,z
-x,-y,z
x,-y,-z
-x,y,-z
-x,-y,-z
x,y,-z
-x,y,z
x,-y,z
loop_
_atom_site_type_symbol
_atom_site_label
_atom_site_fract_x
_atom_site_fract_y
_atom_site_fract_z
Si Si1 0.699541 0.295191 0.052531
Si Si2 0.290811 0.392642 0.445412
Si Si3 0.802879 0.105248 0.088938
Si Si4 0.203825 0.894977 0.302972
Si Si5 0.708165 0.390684 0.149269
Si Si6 0.703970 0.285817 0.648696
Si Si7 0.307508 0.887800 0.804779
Si Si8 0.708780 0.609153 0.744173
O O1 0.500000 0.323069 0.051303
O O2 0.708342 0.184819 0.059833
O O3 0.775714 0.340455 0.101188
O O4 0.776124 0.320068 0.000000
O O5 0.233929 0.366976 0.500000
O O6 0.500000 0.389710 0.445925
O O7 0.244004 0.500000 0.436427
O O8 0.228794 0.328265 0.401541
O O9 0.794970 0.131965 0.146268
O O10 0.000000 0.104679 0.073411
O O11 0.734694 0.000000 0.084301
O O12 0.267284 0.822499 0.342576
O O13 0.250919 0.858818 0.248844
O O14 0.000000 0.899248 0.305244
O O15 0.271760 0.000000 0.308545
O O16 0.500000 0.381213 0.149586
O O17 0.745290 0.500000 0.146375
O O18 0.767844 0.356701 0.202506
O O19 0.500000 0.302475 0.648408
O O20 0.773715 0.337583 0.696777
O O21 0.500000 0.853558 0.813321
O O22 0.307765 0.000000 0.801891
O O23 0.500000 0.615836 0.744324
O O24 0.749565 0.500000 0.740351
#
# Coordination Sequence:
#
# PCOD9381559 Si02
#       8
#     8   8   8   8   8   8   8   8
#     4  10  21  34  50  74  99 126 167 215 256 298
#     4   8  14  26  46  75 111 144 173 213 265 315
#     4  10  21  36  53  73  99 132 166 201 250 311
#     4  10  21  35  48  67 102 143 177 210 254 305
#     4   8  15  29  48  70  98 128 157 198 252 303
#     4  10  18  27  48  79 103 132 176 218 254 299
#     4   9  17  31  52  75  97 124 162 206 248 294
#     4   8  14  25  43  71 103 128 155 197 248 302
#
# _framework density 20.673539000000002
#
# number of rings (size 3 to 8) (size 9 to 14) (size 15 to 20)
#    0.000    2.875    0.000    2.625    1.750    5.250 
#    0.000    2.500    0.000    2.625    0.000    6.125 
#    0.000    0.000    0.000    0.000    0.000    0.000 
#
# Total GULP energy -357029.530296 kJ/mol
# GULP energy per Si atom -5578.586411 kJ/mol
# Density = 2.062649 g / cm^3
# Si number density = 20.673539 Si / 1000 Ang^3
#
#
#
# Elastic Constant Matrix: (Units=GPa)
#
#
# Indices 1 2 3 4 5 6 
#
# 1 24.3280 -5.1986 12.7984 0.0000 0.0000 0.0000
# 2 -5.1986 76.5863 76.3970 0.0000 0.0000 0.0000
# 3 12.7984 76.3970 152.3379 0.0000 0.0000 0.0000
# 4 0.0000 0.0000 0.0000 27.1861 0.0000 0.0000
# 5 0.0000 0.0000 0.0000 0.0000 0.1053 0.0000
# 6 0.0000 0.0000 0.0000 0.0000 0.0000 -24.6984
#
#
#
# Elastic Compliance Matrix: (Units=1/GPa)
#
#
# Indices 1 2 3 4 5 6 
#
# 1 0.050693 0.015387 -0.011975 0.000000 0.000000 0.000000
# 2 0.015387 0.030798 -0.016738 0.000000 0.000000 0.000000
# 3 -0.011975 -0.016738 0.015964 0.000000 0.000000 0.000000
# 4 0.000000 0.000000 0.000000 0.036783 0.000000 0.000000
# 5 0.000000 0.000000 0.000000 0.000000 9.496998 0.000000
# 6 0.000000 0.000000 0.000000 0.000000 0.000000 -0.040488
#
#
# Mechanical properties :
#
#
# Convention : Reuss Voigt Hill
#
# Bulk Modulus (GPa) = 14.12383 46.80508 30.46446
# Shear Modulus (GPa) = 0.51862 11.80230 6.16046
#
# Velocity S-wave (km/s) = 0.50140 2.39192 1.72810
# Velocity P-wave (km/s) = 2.67990 5.50614 4.33010
#
# Compressibility (1/GPa) = 0.07080230
#
# Stress axis : x y z
#
# Youngs Moduli (GPa) = 19.72669 32.46967 62.63949
#
# Poissons Ratio (x) = -0.49960 0.75012
# Poissons Ratio (y) = -0.30353 1.04845
# Poissons Ratio (z) = 0.23623 0.54347
#
# Static dielectric constant tensor:
#      x y z
#    x 1.755490 0.000000 0.000000 
#    y 0.000000 1.733030 0.000000 
#    z 0.000000 0.000000 1.759920 
# 
# From -- ./inp_files/34434.got.cif
#   From: 2010.05.17/outbox.cif.g08.bks.cpg/sg47_18_cif.got.tgz:34434.got - 2010.06.03 20:15:42.
