data_PCOD9381679
_publ_section_title
;
Structure prediction by ZEFSAII (Michael W. Deem and Ramdas Pophale) SiO2 
 PCOD9381679
Probable space group: P M M M
;
_chemical_formula_sum "Si O2"
_cell_formula_units_Z 56
_cell_length_a 30.336155
_cell_length_b 8.588743
_cell_length_c 14.116010
_cell_angle_alpha 90.000000
_cell_angle_beta 90.000000
_cell_angle_gamma 90.000000
_cell_volume 3677.918485
_symmetry_space_group_name_H-M "P M M M"
_symmetry_group_IT_number 47
_symmetry_cell_setting 'orthorhombic'
loop_
_space_group_symop_operation_xyz
x,y,z
-x,-y,z
x,-y,-z
-x,y,-z
-x,-y,-z
x,y,-z
-x,y,z
x,-y,z
loop_
_atom_site_type_symbol
_atom_site_label
_atom_site_fract_x
_atom_site_fract_y
_atom_site_fract_z
Si Si1 0.640893 0.687315 0.609659
Si Si2 0.729104 0.687227 0.714407
Si Si3 0.222213 0.813164 0.108979
Si Si4 0.547898 0.185831 0.613494
Si Si5 0.136723 0.312701 0.784899
Si Si6 0.950582 0.689607 0.890484
Si Si7 0.185407 0.813246 0.391174
O O1 0.645882 0.741960 0.500000
O O2 0.641449 0.500000 0.607398
O O3 0.682228 0.739389 0.672458
O O4 0.593346 0.740425 0.647924
O O5 0.730190 0.500000 0.716946
O O6 0.741193 0.751485 0.817937
O O7 0.768203 0.745419 0.645814
O O8 0.175743 0.745877 0.146266
O O9 0.220429 0.000000 0.115283
O O10 0.229806 0.768410 0.000000
O O11 0.547473 0.214636 0.500000
O O12 0.500000 0.241309 0.650195
O O13 0.549833 0.000000 0.626820
O O14 0.137844 0.500000 0.783324
O O15 0.089553 0.259222 0.824673
O O16 0.148860 0.249344 0.681396
O O17 0.950515 0.500000 0.889342
O O18 0.000000 0.739931 0.862774
O O19 0.943023 0.735917 0.000000
O O20 0.177724 0.768964 0.500000
O O21 0.187263 0.000000 0.384409
#
# Coordination Sequence:
#
# PCOD9381679 Si02
#       7
#     8   8   8   8   8   8   8
#     4   9  17  27  39  58  84 112 140 172 211 249
#     4  10  19  30  45  64  86 111 142 180 215 250
#     4  10  20  32  45  62  87 116 142 171 208 251
#     4   8  14  24  37  54  77 107 143 177 206 240
#     4  10  18  28  47  70  88 110 141 175 210 249
#     4   8  14  25  42  66  93 114 133 164 208 255
#     4  10  20  32  45  61  84 115 147 177 211 251
#
# _framework density 15.226004
#
# number of rings (size 3 to 8) (size 9 to 14) (size 15 to 20)
#    0.000    2.714    0.000    5.143    0.000    4.857 
#    0.000    2.857    0.000    2.143    0.000    8.000 
#    0.000    0.571    0.000    6.286    0.000    4.857 
#
# Total GULP energy -311984.474724 kJ/mol
# GULP energy per Si atom -5571.151334 kJ/mol
# Density = 1.519135 g / cm^3
# Si number density = 15.226004 Si / 1000 Ang^3
#
#
#
# Elastic Constant Matrix: (Units=GPa)
#
#
# Indices 1 2 3 4 5 6 
#
# 1 149.3381 25.5195 78.5816 0.0000 0.0000 0.0000
# 2 25.5195 28.4539 28.3564 0.0000 0.0000 0.0000
# 3 78.5816 28.3564 112.4962 0.0000 0.0000 0.0000
# 4 0.0000 0.0000 0.0000 19.5845 0.0000 0.0000
# 5 0.0000 0.0000 0.0000 0.0000 20.8997 0.0000
# 6 0.0000 0.0000 0.0000 0.0000 0.0000 438.7002
#
#
#
# Elastic Compliance Matrix: (Units=1/GPa)
#
#
# Indices 1 2 3 4 5 6 
#
# 1 0.010762 -0.002885 -0.006791 0.000000 0.000000 0.000000
# 2 -0.002885 0.047708 -0.010010 0.000000 0.000000 0.000000
# 3 -0.006791 -0.010010 0.016156 0.000000 0.000000 0.000000
# 4 0.000000 0.000000 0.000000 0.051061 0.000000 0.000000
# 5 0.000000 0.000000 0.000000 0.000000 0.047848 0.000000
# 6 0.000000 0.000000 0.000000 0.000000 0.000000 0.002279
#
#
# Mechanical properties :
#
#
# Convention : Reuss Voigt Hill
#
# Bulk Modulus (GPa) = 28.36525 61.68928 45.02726
# Shear Modulus (GPa) = 22.03249 106.35892 64.19571
#
# Velocity S-wave (km/s) = 3.80811 8.36691 6.50026
# Velocity P-wave (km/s) = 6.16486 11.57341 9.27225
#
# Compressibility (1/GPa) = 0.03525440
#
# Stress axis : x y z
#
# Youngs Moduli (GPa) = 92.91553 20.96080 61.89717
#
# Poissons Ratio (x) = 0.06048 0.42032
# Poissons Ratio (y) = 0.26808 0.61960
# Poissons Ratio (z) = 0.63095 0.20982
#
# Static dielectric constant tensor:
#      x y z
#    x 1.511020 0.000000 0.000000 
#    y 0.000000 1.519770 0.000000 
#    z 0.000000 0.000000 1.492250 
# 
# From -- ./inp_files/25788.got.cif
#   From: 2010.05.17/outbox.cif.g08.bks.cpg/sg47_13_cif.got.tgz:25788.got - 2010.06.03 20:15:42.
