data_PCOD9381236
_publ_section_title
;
Structure prediction by ZEFSAII (Michael W. Deem and Ramdas Pophale) SiO2 
 PCOD9381236
Probable space group: P M M M
;
_chemical_formula_sum "Si O2"
_cell_formula_units_Z 36
_cell_length_a 20.953347
_cell_length_b 7.427035
_cell_length_c 13.051683
_cell_angle_alpha 90.000000
_cell_angle_beta 90.000000
_cell_angle_gamma 90.000000
_cell_volume 2031.119113
_symmetry_space_group_name_H-M "P M M M"
_symmetry_group_IT_number 47
_symmetry_cell_setting 'orthorhombic'
loop_
_space_group_symop_operation_xyz
x,y,z
-x,-y,z
x,-y,-z
-x,y,-z
-x,-y,-z
x,y,-z
-x,y,z
x,-y,z
loop_
_atom_site_type_symbol
_atom_site_label
_atom_site_fract_x
_atom_site_fract_y
_atom_site_fract_z
Si Si1 0.931295 0.782967 0.122594
Si Si2 0.207524 0.219546 0.879620
Si Si3 0.657443 0.212811 0.808889
Si Si4 0.571751 0.283593 0.616060
Si Si5 0.426650 0.220646 0.000000
O O1 0.862022 0.717909 0.159433
O O2 0.000000 0.715601 0.162345
O O3 0.931986 0.000000 0.135275
O O4 0.930806 0.749960 0.000000
O O5 0.270474 0.282854 0.820574
O O6 0.205484 0.000000 0.876389
O O7 0.214671 0.267041 0.000000
O O8 0.623730 0.235600 0.700167
O O9 0.611406 0.281864 0.899149
O O10 0.662491 0.000000 0.827945
O O11 0.585231 0.221113 0.500000
O O12 0.500000 0.220972 0.644833
O O13 0.569531 0.500000 0.612968
O O14 0.500000 0.279121 0.000000
O O15 0.427570 0.000000 0.000000
#
# Coordination Sequence:
#
# PCOD9381236 Si02
#       5
#     8   8   8   8   4
#     4   7   9  13  23  41  68 104 139 161 177 210
#     4   8  12  19  31  50  79 110 134 156 189 229
#     4  10  17  26  42  63  84 106 132 163 197 235
#     4   9  19  35  49  58  73 100 132 168 210 247
#     4   9  16  24  35  55  82 108 130 153 187 233
#
# _framework density 17.724219000000002
#
# number of rings (size 3 to 8) (size 9 to 14) (size 15 to 20)
#    0.000    3.444    1.111    3.333    0.000    1.778 
#    0.000    1.667    0.000    2.000    0.000    0.000 
#    0.000    1.778    0.000   16.667    0.000    6.667 
#
# Total GULP energy -200445.505663 kJ/mol
# GULP energy per Si atom -5567.930713 kJ/mol
# Density = 1.768388 g / cm^3
# Si number density = 17.724219 Si / 1000 Ang^3
#
#
#
# Elastic Constant Matrix: (Units=GPa)
#
#
# Indices 1 2 3 4 5 6 
#
# 1 238.0859 7.8187 80.0055 0.0000 0.0000 0.0000
# 2 7.8187 51.4262 -3.4551 0.0000 0.0000 0.0000
# 3 80.0055 -3.4551 64.4736 0.0000 0.0000 0.0000
# 4 0.0000 0.0000 0.0000 17.5484 0.0000 0.0000
# 5 0.0000 0.0000 0.0000 0.0000 16.4073 0.0000
# 6 0.0000 0.0000 0.0000 0.0000 0.0000 -111.2788
#
#
#
# Elastic Compliance Matrix: (Units=1/GPa)
#
#
# Indices 1 2 3 4 5 6 
#
# 1 0.007356 -0.001738 -0.009221 0.000000 0.000000 0.000000
# 2 -0.001738 0.019926 0.003224 0.000000 0.000000 0.000000
# 3 -0.009221 0.003224 0.027125 0.000000 0.000000 0.000000
# 4 0.000000 0.000000 0.000000 0.056985 0.000000 0.000000
# 5 0.000000 0.000000 0.000000 0.000000 0.060948 0.000000
# 6 0.000000 0.000000 0.000000 0.000000 0.000000 -0.008986
#
#
# Mechanical properties :
#
#
# Convention : Reuss Voigt Hill
#
# Bulk Modulus (GPa) = 25.68160 58.08043 41.88101
# Shear Modulus (GPa) = 26.06841 2.50983 14.28912
#
# Velocity S-wave (km/s) = 3.83923 1.19127 2.84243
# Velocity P-wave (km/s) = 5.84585 5.89341 5.86968
#
# Compressibility (1/GPa) = 0.03893839
#
# Stress axis : x y z
#
# Youngs Moduli (GPa) = 135.94652 50.18517 36.86579
#
# Poissons Ratio (x) = 0.08722 0.33994
# Poissons Ratio (y) = 0.23626 -0.11887
# Poissons Ratio (z) = 1.25356 -0.16181
#
# Static dielectric constant tensor:
#      x y z
#    x 1.672810 0.000000 0.000000 
#    y 0.000000 1.678290 0.000000 
#    z 0.000000 0.000000 1.558470 
# 
# From -- ./inp_files/3927.got.cif
#   From: 2010.05.17/outbox.cif.g08.bks.cpg/sg47_2_cif.got.tgz:3927.got - 2010.06.03 20:15:42.
