data_PCOD9381376
_publ_section_title
;
Structure prediction by ZEFSAII (Michael W. Deem and Ramdas Pophale) SiO2 
 PCOD9381376
Probable space group: P M M M
;
_chemical_formula_sum "Si O2"
_cell_formula_units_Z 52
_cell_length_a 12.172831
_cell_length_b 7.468287
_cell_length_c 29.437582
_cell_angle_alpha 90.000000
_cell_angle_beta 90.000000
_cell_angle_gamma 90.000000
_cell_volume 2676.176335
_symmetry_space_group_name_H-M "P M M M"
_symmetry_group_IT_number 47
_symmetry_cell_setting 'orthorhombic'
loop_
_space_group_symop_operation_xyz
x,y,z
-x,-y,z
x,-y,-z
-x,y,-z
-x,-y,-z
x,y,-z
-x,y,z
x,-y,z
loop_
_atom_site_type_symbol
_atom_site_label
_atom_site_fract_x
_atom_site_fract_y
_atom_site_fract_z
Si Si1 0.127078 0.719061 0.275878
Si Si2 0.125025 0.712302 0.900880
Si Si3 0.500000 0.283432 0.209966
Si Si4 0.124821 0.212266 0.000000
Si Si5 0.373099 0.718839 0.551465
Si Si6 0.500000 0.208451 0.683531
Si Si7 0.269089 0.294715 0.359182
Si Si8 0.740299 0.719157 0.814280
O O1 0.130484 0.500000 0.276329
O O2 0.185880 0.783374 0.322074
O O3 0.195613 0.774439 0.231436
O O4 0.000000 0.771962 0.272933
O O5 0.116203 0.500000 0.893824
O O6 0.196973 0.781761 0.859317
O O7 0.000000 0.785671 0.900521
O O8 0.173834 0.736902 0.951348
O O9 0.500000 0.500000 0.209211
O O10 0.500000 0.227885 0.262441
O O11 0.613890 0.222879 0.187871
O O12 0.000000 0.289049 0.000000
O O13 0.117730 0.000000 0.000000
O O14 0.345477 0.772066 0.500000
O O15 0.500000 0.772202 0.560557
O O16 0.372676 0.500000 0.552811
O O17 0.292366 0.784004 0.591014
O O18 0.610743 0.293312 0.664071
O O19 0.500000 0.000000 0.671130
O O20 0.233546 0.500000 0.366211
O O21 0.740571 0.500000 0.814313
#
# Coordination Sequence:
#
# PCOD9381376 Si02
#       8
#     8   8   4   4   8   4   8   8
#     4   9  16  25  42  70  95 116 150 191 225 264
#     4   9  16  27  45  69  94 118 145 183 230 269
#     4  10  18  32  50  68  90 122 159 185 221 274
#     4   9  17  29  45  66  91 120 154 189 222 261
#     4   8  13  21  38  65  89 110 145 189 227 270
#     4  12  22  30  43  67  95 120 152 192 232 272
#     4  10  17  29  49  66  88 122 155 186 226 277
#     4   9  16  26  45  70  94 116 146 188 226 268
#
# _framework density 19.430709
#
# number of rings (size 3 to 8) (size 9 to 14) (size 15 to 20)
#    0.000    2.692    2.308    1.846    0.000    2.769 
#    0.000    0.769    0.000    2.308    0.000    6.462 
#    0.000    0.000    0.000    1.385    0.000    1.538 
#
# Total GULP energy -290001.748562 kJ/mol
# GULP energy per Si atom -5576.956703 kJ/mol
# Density = 1.938648 g / cm^3
# Si number density = 19.430709 Si / 1000 Ang^3
#
#
#
# Elastic Constant Matrix: (Units=GPa)
#
#
# Indices 1 2 3 4 5 6 
#
# 1 121.1543 2.5852 85.5277 0.0000 0.0000 0.0000
# 2 2.5852 60.6579 2.9094 0.0000 0.0000 0.0000
# 3 85.5277 2.9094 197.5322 0.0000 0.0000 0.0000
# 4 0.0000 0.0000 0.0000 -31.0459 0.0000 0.0000
# 5 0.0000 0.0000 0.0000 0.0000 47.8584 0.0000
# 6 0.0000 0.0000 0.0000 0.0000 0.0000 -10.5608
#
#
#
# Elastic Compliance Matrix: (Units=1/GPa)
#
#
# Indices 1 2 3 4 5 6 
#
# 1 0.011892 -0.000260 -0.005145 0.000000 0.000000 0.000000
# 2 -0.000260 0.016503 -0.000130 0.000000 0.000000 0.000000
# 3 -0.005145 -0.000130 0.007292 0.000000 0.000000 0.000000
# 4 0.000000 0.000000 0.000000 -0.032210 0.000000 0.000000
# 5 0.000000 0.000000 0.000000 0.000000 0.020895 0.000000
# 6 0.000000 0.000000 0.000000 0.000000 0.000000 -0.094690
#
#
# Mechanical properties :
#
#
# Convention : Reuss Voigt Hill
#
# Bulk Modulus (GPa) = 40.62427 62.37658 51.50042
# Shear Modulus (GPa) = -97.95758 20.47182 -38.74288
#
# Velocity S-wave (km/s) = -7.10797 3.24941 -4.47015
# Velocity P-wave (km/s) = 6.81261 6.80073 0.28434
#
# Compressibility (1/GPa) = 0.02461583
#
# Stress axis : x y z
#
# Youngs Moduli (GPa) = 84.09349 60.59418 137.13545
#
# Poissons Ratio (x) = 0.01576 0.70556
# Poissons Ratio (y) = 0.02187 0.01789
# Poissons Ratio (z) = 0.43266 0.00791
#
# Static dielectric constant tensor:
#      x y z
#    x 1.651080 0.000000 0.000000 
#    y 0.000000 1.723360 0.000000 
#    z 0.000000 0.000000 1.697030 
# 
# From -- ./inp_files/33617.got.cif
#   From: 2010.05.17/outbox.cif.g08.bks.cpg/sg47_17_cif.got.tgz:33617.got - 2010.06.03 20:15:42.
