data_PCOD9381865
_publ_section_title
;
Structure prediction by ZEFSAII (Michael W. Deem and Ramdas Pophale) SiO2 
 PCOD9381865
Probable space group: P M M M
;
_chemical_formula_sum "Si O2"
_cell_formula_units_Z 41
_cell_length_a 9.822588
_cell_length_b 11.714948
_cell_length_c 20.493105
_cell_angle_alpha 90.000000
_cell_angle_beta 90.000000
_cell_angle_gamma 90.000000
_cell_volume 2358.164291
_symmetry_space_group_name_H-M "P M M M"
_symmetry_group_IT_number 47
_symmetry_cell_setting 'orthorhombic'
loop_
_space_group_symop_operation_xyz
x,y,z
-x,-y,z
x,-y,-z
-x,y,-z
-x,-y,-z
x,y,-z
-x,y,z
x,-y,z
loop_
_atom_site_type_symbol
_atom_site_label
_atom_site_fract_x
_atom_site_fract_y
_atom_site_fract_z
Si Si1 0.655758 0.500000 0.732336
Si Si2 0.838290 0.365674 0.923257
Si Si3 0.659774 0.864302 0.314471
Si Si4 0.340426 0.731937 0.186576
Si Si5 0.766596 0.500000 0.407886
Si Si6 0.156048 0.244179 0.573039
Si Si7 0.500000 0.500000 0.500000
O O1 0.500000 0.500000 0.708821
O O2 0.673925 0.612179 0.775246
O O3 0.750241 0.500000 0.669895
O O4 0.803902 0.500000 0.911157
O O5 0.752149 0.283330 0.876859
O O6 0.000000 0.353465 0.911251
O O7 0.813683 0.344506 0.000000
O O8 0.500000 0.832047 0.322466
O O9 0.698805 0.824836 0.241324
O O10 0.747821 0.803155 0.370109
O O11 0.672127 0.000000 0.320961
O O12 0.500000 0.747901 0.169607
O O13 0.837735 0.381596 0.425870
O O14 0.620752 0.500000 0.443714
O O15 0.200495 0.207404 0.500000
O O16 0.000000 0.207406 0.582992
#
# Coordination Sequence:
#
# PCOD9381865 Si02
#       7
#     4   8   8   8   4   8   1
#     4  10  18  29  49  80 110 134 172 225 273 321
#     4   9  18  32  50  78 116 149 176 209 254 317
#     4  10  23  41  60  80 104 140 189 240 281 324
#     4  10  19  33  54  79 110 139 173 221 275 324
#     4  12  21  35  54  85 116 142 182 224 276 335
#     4  11  24  39  56  79 113 147 179 226 282 339
#     4  12  24  28  62  88 110 160 184 224 276 350
#
# _framework density 17.386405
#
# number of rings (size 3 to 8) (size 9 to 14) (size 15 to 20)
#    0.000    1.756    4.390    0.878    1.366    3.122 
#    0.000    2.927    0.000    0.585    0.000    4.098 
#    0.000    0.000    0.000    0.000    0.000    0.000 
#
# Total GULP energy -228426.586799 kJ/mol
# GULP energy per Si atom -5571.380166 kJ/mol
# Density = 1.734683 g / cm^3
# Si number density = 17.386405 Si / 1000 Ang^3
#
#
#
# Elastic Constant Matrix: (Units=GPa)
#
#
# Indices 1 2 3 4 5 6 
#
# 1 72.1957 26.5611 71.8626 0.0000 0.0000 0.0000
# 2 26.5611 53.8071 32.6446 0.0000 0.0000 0.0000
# 3 71.8626 32.6446 132.4716 0.0000 0.0000 0.0000
# 4 0.0000 0.0000 0.0000 0.2264 0.0000 0.0000
# 5 0.0000 0.0000 0.0000 0.0000 29.3476 0.0000
# 6 0.0000 0.0000 0.0000 0.0000 0.0000 5.4361
#
#
#
# Elastic Compliance Matrix: (Units=1/GPa)
#
#
# Indices 1 2 3 4 5 6 
#
# 1 0.031746 -0.006141 -0.015708 0.000000 0.000000 0.000000
# 2 -0.006141 0.023040 -0.002346 0.000000 0.000000 0.000000
# 3 -0.015708 -0.002346 0.016648 0.000000 0.000000 0.000000
# 4 0.000000 0.000000 0.000000 4.416587 0.000000 0.000000
# 5 0.000000 0.000000 0.000000 0.000000 0.034074 0.000000
# 6 0.000000 0.000000 0.000000 0.000000 0.000000 0.183954
#
#
# Mechanical properties :
#
#
# Convention : Reuss Voigt Hill
#
# Bulk Modulus (GPa) = 43.39643 57.84565 50.62104
# Shear Modulus (GPa) = 1.04995 15.49578 8.27286
#
# Velocity S-wave (km/s) = 0.77795 2.98863 2.18370
# Velocity P-wave (km/s) = 5.08145 6.72697 5.96126
#
# Compressibility (1/GPa) = 0.02304337
#
# Stress axis : x y z
#
# Youngs Moduli (GPa) = 31.49961 43.40314 60.06587
#
# Poissons Ratio (x) = 0.26654 0.94354
# Poissons Ratio (y) = 0.19344 0.14093
# Poissons Ratio (z) = 0.49481 0.10184
#
# Static dielectric constant tensor:
#      x y z
#    x 1.588080 0.000000 0.000000 
#    y 0.000000 1.588620 0.000000 
#    z 0.000000 0.000000 1.593230 
# 
# From -- ./inp_files/29388.got.cif
#   From: 2010.05.17/outbox.cif.g08.bks.cpg/sg47_15_cif.got.tgz:29388.got - 2010.06.03 20:15:42.
