data_PCOD9381771
_publ_section_title
;
Structure prediction by ZEFSAII (Michael W. Deem and Ramdas Pophale) SiO2 
 PCOD9381771
Probable space group: P M M M
;
_chemical_formula_sum "Si O2"
_cell_formula_units_Z 64
_cell_length_a 8.348762
_cell_length_b 14.972851
_cell_length_c 28.818759
_cell_angle_alpha 90.000000
_cell_angle_beta 90.000000
_cell_angle_gamma 90.000000
_cell_volume 3602.482325
_symmetry_space_group_name_H-M "P M M M"
_symmetry_group_IT_number 47
_symmetry_cell_setting 'orthorhombic'
loop_
_space_group_symop_operation_xyz
x,y,z
-x,-y,z
x,-y,-z
-x,y,-z
-x,-y,-z
x,y,-z
-x,y,z
x,-y,z
loop_
_atom_site_type_symbol
_atom_site_label
_atom_site_fract_x
_atom_site_fract_y
_atom_site_fract_z
Si Si1 0.193229 0.897585 0.552635
Si Si2 0.813928 0.328959 0.235175
Si Si3 0.687758 0.290833 0.140268
Si Si4 0.693458 0.403677 0.674964
Si Si5 0.810804 0.096830 0.166866
Si Si6 0.315192 0.143287 0.263847
Si Si7 0.692976 0.209702 0.640189
Si Si8 0.193387 0.396966 0.053139
O O1 0.244598 0.875067 0.500000
O O2 0.254144 0.831041 0.591753
O O3 0.000000 0.896764 0.553227
O O4 0.244805 0.000000 0.562263
O O5 0.779349 0.344388 0.181238
O O6 0.770095 0.400613 0.273779
O O7 0.698387 0.247080 0.249191
O O8 0.000000 0.302648 0.240122
O O9 0.500000 0.301510 0.147685
O O10 0.731473 0.185969 0.146304
O O11 0.736433 0.330259 0.090861
O O12 0.500000 0.399546 0.678959
O O13 0.733928 0.500000 0.653100
O O14 0.746245 0.312305 0.649270
O O15 0.780219 0.097753 0.222401
O O16 0.000000 0.103614 0.158615
O O17 0.752940 0.000000 0.149222
O O18 0.500000 0.113777 0.262881
O O19 0.252743 0.146607 0.316610
O O20 0.500000 0.209731 0.642653
O O21 0.240229 0.500000 0.062986
O O22 0.000000 0.392929 0.055238
O O23 0.240849 0.376657 0.000000
#
# Coordination Sequence:
#
# PCOD9381771 Si02
#       8
#     8   8   8   8   8   8   8   8
#     4   9  19  35  52  70  93 122 156 195 243 296
#     4  10  18  29  46  68  96 128 166 207 240 277
#     4  11  21  33  52  76 104 137 170 206 250 299
#     4   9  18  33  50  69  99 135 166 198 239 288
#     4  10  20  33  50  73 102 137 176 213 247 288
#     4   9  17  30  46  66  96 130 163 199 240 287
#     4   9  18  31  49  74  98 124 160 199 241 288
#     4   9  19  37  59  80 102 129 162 203 252 303
#
# _framework density 17.765529000000001
#
# number of rings (size 3 to 8) (size 9 to 14) (size 15 to 20)
#    0.000    2.500    0.000    6.000    0.000    5.750 
#    0.000    3.750    0.000    0.750    0.000    5.250 
#    0.000    0.000    0.000    0.000    0.000    0.000 
#
# Total GULP energy -356527.207998 kJ/mol
# GULP energy per Si atom -5570.737625 kJ/mol
# Density = 1.772509 g / cm^3
# Si number density = 17.765529 Si / 1000 Ang^3
#
#
#
# Elastic Constant Matrix: (Units=GPa)
#
#
# Indices 1 2 3 4 5 6 
#
# 1 32.0715 16.4143 16.4929 0.0000 0.0000 0.0000
# 2 16.4143 102.8102 67.3288 0.0000 0.0000 0.0000
# 3 16.4929 67.3288 116.5135 0.0000 0.0000 0.0000
# 4 0.0000 0.0000 0.0000 23.0626 0.0000 0.0000
# 5 0.0000 0.0000 0.0000 0.0000 30.9533 0.0000
# 6 0.0000 0.0000 0.0000 0.0000 0.0000 10.3361
#
#
#
# Elastic Compliance Matrix: (Units=1/GPa)
#
#
# Indices 1 2 3 4 5 6 
#
# 1 0.034488 -0.003715 -0.002735 0.000000 0.000000 0.000000
# 2 -0.003715 0.016049 -0.008748 0.000000 0.000000 0.000000
# 3 -0.002735 -0.008748 0.014025 0.000000 0.000000 0.000000
# 4 0.000000 0.000000 0.000000 0.043360 0.000000 0.000000
# 5 0.000000 0.000000 0.000000 0.000000 0.032307 0.000000
# 6 0.000000 0.000000 0.000000 0.000000 0.000000 0.096748
#
#
# Mechanical properties :
#
#
# Convention : Reuss Voigt Hill
#
# Bulk Modulus (GPa) = 29.26929 50.20746 39.73837
# Shear Modulus (GPa) = 17.93643 22.94768 20.44205
#
# Velocity S-wave (km/s) = 3.18090 3.59792 3.39582
# Velocity P-wave (km/s) = 5.47740 6.75148 6.14754
#
# Compressibility (1/GPa) = 0.03416550
#
# Stress axis : x y z
#
# Youngs Moduli (GPa) = 28.99536 62.30992 71.30081
#
# Poissons Ratio (x) = 0.23149 0.19502
# Poissons Ratio (y) = 0.10772 0.62375
# Poissons Ratio (z) = 0.07931 0.54510
#
# Static dielectric constant tensor:
#      x y z
#    x 1.605000 0.000000 0.000000 
#    y 0.000000 1.650950 0.000000 
#    z 0.000000 0.000000 1.611520 
# 
# From -- ./inp_files/34417.got.cif
#   From: 2010.05.17/outbox.cif.g08.bks.cpg/sg47_18_cif.got.tgz:34417.got - 2010.06.03 20:15:42.
