data_PCOD9381902
_publ_section_title
;
Structure prediction by ZEFSAII (Michael W. Deem and Ramdas Pophale) SiO2 
 PCOD9381902
Probable space group: P M M M
;
_chemical_formula_sum "Si O2"
_cell_formula_units_Z 40
_cell_length_a 14.777799
_cell_length_b 9.131473
_cell_length_c 21.349983
_cell_angle_alpha 90.000000
_cell_angle_beta 90.000000
_cell_angle_gamma 90.000000
_cell_volume 2881.032305
_symmetry_space_group_name_H-M "P M M M"
_symmetry_group_IT_number 47
_symmetry_cell_setting 'orthorhombic'
loop_
_space_group_symop_operation_xyz
x,y,z
-x,-y,z
x,-y,-z
-x,y,-z
-x,-y,-z
x,y,-z
-x,y,z
x,-y,z
loop_
_atom_site_type_symbol
_atom_site_label
_atom_site_fract_x
_atom_site_fract_y
_atom_site_fract_z
Si Si1 0.606282 0.824673 0.254405
Si Si2 0.392121 0.325516 0.500000
Si Si3 0.610136 0.668700 0.126362
Si Si4 0.900028 0.822301 0.426955
Si Si5 0.389665 0.168880 0.000000
Si Si6 0.293680 0.822496 0.382365
O O1 0.500000 0.789245 0.264842
O O2 0.637316 0.746943 0.190744
O O3 0.662943 0.783608 0.315697
O O4 0.612328 0.000000 0.246004
O O5 0.375452 0.500000 0.500000
O O6 0.500000 0.301411 0.500000
O O7 0.348157 0.251743 0.561147
O O8 0.500000 0.672383 0.125728
O O9 0.638160 0.500000 0.125345
O O10 0.640196 0.750991 0.063459
O O11 0.887847 0.780316 0.500000
O O12 0.811519 0.777881 0.388788
O O13 0.000000 0.771702 0.406352
O O14 0.901717 0.000000 0.425825
O O15 0.500000 0.172146 0.000000
O O16 0.362127 0.000000 0.000000
O O17 0.299449 0.000000 0.389307
#
# Coordination Sequence:
#
# PCOD9381902 Si02
#       6
#     8   4   8   8   4   8
#     4   9  17  27  38  54  76 102 134 169 200 231
#     4  11  23  33  40  55  80 106 133 169 210 245
#     4   9  16  25  37  53  74 102 134 164 196 235
#     4   8  13  23  42  66  84  96 120 164 212 252
#     4   9  15  23  37  55  75  99 130 169 202 225
#     4  10  18  30  47  62  76 102 138 171 203 244
#
# _framework density 13.883912
#
# number of rings (size 3 to 8) (size 9 to 14) (size 15 to 20)
#    0.000    2.800    1.000    2.400    0.000    6.000 
#    0.000    2.000    0.000    1.200    0.000    0.000 
#    0.000    0.000    0.000    0.900    0.000   21.300 
#
# Total GULP energy -222748.018215 kJ/mol
# GULP energy per Si atom -5568.700455 kJ/mol
# Density = 1.385231 g / cm^3
# Si number density = 13.883912 Si / 1000 Ang^3
#
#
#
# Elastic Constant Matrix: (Units=GPa)
#
#
# Indices 1 2 3 4 5 6 
#
# 1 74.6217 30.6728 60.5203 0.0000 0.0000 0.0000
# 2 30.6728 45.4169 59.8862 0.0000 0.0000 0.0000
# 3 60.5203 59.8862 149.8182 0.0000 0.0000 0.0000
# 4 0.0000 0.0000 0.0000 6.1984 0.0000 0.0000
# 5 0.0000 0.0000 0.0000 0.0000 2.6242 0.0000
# 6 0.0000 0.0000 0.0000 0.0000 0.0000 6.3144
#
#
#
# Elastic Compliance Matrix: (Units=1/GPa)
#
#
# Indices 1 2 3 4 5 6 
#
# 1 0.020739 -0.006258 -0.005876 0.000000 0.000000 0.000000
# 2 -0.006258 0.048446 -0.016837 0.000000 0.000000 0.000000
# 3 -0.005876 -0.016837 0.015779 0.000000 0.000000 0.000000
# 4 0.000000 0.000000 0.000000 0.161332 0.000000 0.000000
# 5 0.000000 0.000000 0.000000 0.000000 0.381069 0.000000
# 6 0.000000 0.000000 0.000000 0.000000 0.000000 0.158368
#
#
# Mechanical properties :
#
#
# Convention : Reuss Voigt Hill
#
# Bulk Modulus (GPa) = 37.00829 63.55726 50.28277
# Shear Modulus (GPa) = 5.86385 10.94590 8.40488
#
# Velocity S-wave (km/s) = 2.05734 2.81087 2.46309
# Velocity P-wave (km/s) = 5.68831 7.51077 6.66215
#
# Compressibility (1/GPa) = 0.02702097
#
# Stress axis : x y z
#
# Youngs Moduli (GPa) = 48.21833 20.64161 63.37651
#
# Poissons Ratio (x) = 0.12918 0.37241
# Poissons Ratio (y) = 0.30175 1.06708
# Poissons Ratio (z) = 0.28334 0.34754
#
# Static dielectric constant tensor:
#      x y z
#    x 1.447170 0.000000 0.000000 
#    y 0.000000 1.460890 0.000000 
#    z 0.000000 0.000000 1.441080 
# 
# From -- ./inp_files/21242.got.cif
#   From: 2010.05.17/outbox.cif.g08.bks.cpg/sg47_11_cif.got.tgz:21242.got - 2010.06.03 20:15:42.
