data_PCOD9381066
_publ_section_title
;
Structure prediction by ZEFSAII (Michael W. Deem and Ramdas Pophale) SiO2 
 PCOD9381066
Probable space group: I M A 2
;
_chemical_formula_sum "Si O2"
_cell_formula_units_Z 56
_cell_length_a 38.281232
_cell_length_b 9.795411
_cell_length_c 7.512881
_cell_angle_alpha 90.000000
_cell_angle_beta 90.000000
_cell_angle_gamma 90.000000
_cell_volume 2817.183130
_symmetry_space_group_name_H-M "I M A 2"
_symmetry_group_IT_number 46
_symmetry_cell_setting 'orthorhombic'
loop_
_space_group_symop_operation_xyz
x,y,z
-x,-y,z
1/2-x,y,z
1/2+x,-y,z
1/2+x,1/2+y,1/2+z
1/2-x,1/2-y,1/2+z
-x,1/2+y,1/2+z
x,1/2-y,1/2+z
loop_
_atom_site_type_symbol
_atom_site_label
_atom_site_fract_x
_atom_site_fract_y
_atom_site_fract_z
Si Si1 0.890261 0.590250 0.389430
Si Si2 0.173959 0.588646 0.389058
Si Si3 0.890261 0.590249 0.816566
Si Si4 0.531845 0.590475 0.816494
Si Si5 0.968155 0.590475 0.389504
Si Si6 0.750000 0.087773 0.315901
Si Si7 0.250000 0.912228 0.890093
Si Si8 0.173959 0.911353 0.316937
O O1 0.858837 0.497065 0.319976
O O2 0.891178 0.573458 0.602998
O O3 0.884017 0.750000 0.352998
O O4 0.929222 0.555471 0.321492
O O5 0.212185 0.539940 0.321712
O O6 0.170106 0.750000 0.352997
O O7 0.174661 0.573345 0.602997
O O8 0.929222 0.555471 0.884505
O O9 0.858837 0.497065 0.886020
O O10 0.500000 0.500000 0.886583
O O11 0.532796 0.572789 0.602999
O O12 0.525841 0.750000 0.852999
O O13 0.000000 0.500000 0.319415
O O14 0.750000 0.250000 0.352997
O O15 0.787815 0.039941 0.384283
O O16 0.750000 0.067177 0.102997
#
# Coordination Sequence:
#
# PCOD9381066 Si02
#       8
#     8   8   8   8   8   4   4   8
#     4   9  18  32  47  64  89 119 147 177 216 260
#     4   9  17  29  46  67  89 114 146 182 218 257
#     4   9  18  32  47  64  89 119 147 177 216 260
#     4   9  18  32  48  66  89 116 146 180 217 258
#     4   9  18  32  48  66  89 116 146 180 217 258
#     4   8  14  26  43  62  86 114 142 176 217 256
#     4   8  14  26  43  62  86 114 142 176 217 256
#     4   9  17  29  46  67  89 114 146 182 218 257
#
# _framework density 19.87801
#
# number of rings (size 3 to 8) (size 9 to 14) (size 15 to 20)
#    0.000    3.143    0.000    0.000    0.000    2.857 
#    0.000    0.714    0.000    0.000    0.000    0.000 
#    0.000    0.000    0.000    0.000    0.000    0.000 
#
# Total GULP energy -156006.344059 kJ/mol
# GULP energy per Si atom -5571.655145 kJ/mol
# Density = 1.983277 g / cm^3
# Si number density = 19.878010 Si / 1000 Ang^3
#
#
#
# Elastic Constant Matrix: (Units=GPa)
#
#
# Indices 1 2 3 4 5 6 
#
# 1 272.9244 120.6081 12.9260 0.0000 0.0000 0.0000
# 2 120.6081 68.2090 -2.3693 0.0000 0.0000 0.0000
# 3 12.9260 -2.3693 55.6493 0.0000 0.0000 0.0000
# 4 0.0000 0.0000 0.0000 20.0645 0.0000 0.0000
# 5 0.0000 0.0000 0.0000 0.0000 -24.8838 0.0000
# 6 0.0000 0.0000 0.0000 0.0000 0.0000 44.5615
#
#
#
# Elastic Compliance Matrix: (Units=1/GPa)
#
#
# Indices 1 2 3 4 5 6 
#
# 1 0.018385 -0.032706 -0.005663 0.000000 0.000000 0.000000
# 2 -0.032706 0.072863 0.010699 0.000000 0.000000 0.000000
# 3 -0.005663 0.010699 0.019741 0.000000 0.000000 0.000000
# 4 0.000000 0.000000 0.000000 0.049839 0.000000 0.000000
# 5 0.000000 0.000000 0.000000 0.000000 -0.040187 0.000000
# 6 0.000000 0.000000 0.000000 0.000000 0.000000 0.022441
#
#
# Mechanical properties :
#
#
# Convention : Reuss Voigt Hill
#
# Bulk Modulus (GPa) = 17.96961 73.23471 45.60216
# Shear Modulus (GPa) = 23.04453 25.65630 24.35041
#
# Velocity S-wave (km/s) = 3.40854 3.59651 3.50379
# Velocity P-wave (km/s) = 4.95484 7.35993 6.27372
#
# Compressibility (1/GPa) = 0.05564952
#
# Stress axis : x y z
#
# Youngs Moduli (GPa) = 54.39165 13.72438 50.65719
#
# Poissons Ratio (x) = 0.44886 0.28687
# Poissons Ratio (y) = 1.77891 -0.54198
# Poissons Ratio (z) = 0.30801 -0.14684
#
# Static dielectric constant tensor:
#      x y z
#    x 1.769870 0.000000 0.000000 
#    y 0.000000 1.631590 0.000000 
#    z 0.000000 0.000000 1.720050 
# 
# From -- ./inp_files/13183.got.cif
#   From: 2010.05.17/outbox.cif.g08.bks.cpg/sg46_7_cif.got.tgz:13183.got - 2010.06.03 19:58:25.
