data_PCOD9381841
_publ_section_title
;
Structure prediction by ZEFSAII (Michael W. Deem and Ramdas Pophale) SiO2 
 PCOD9381841
Probable space group: P M M M
;
_chemical_formula_sum "Si O2"
_cell_formula_units_Z 52
_cell_length_a 8.439785
_cell_length_b 27.155771
_cell_length_c 13.119500
_cell_angle_alpha 90.000000
_cell_angle_beta 90.000000
_cell_angle_gamma 90.000000
_cell_volume 3006.843364
_symmetry_space_group_name_H-M "P M M M"
_symmetry_group_IT_number 47
_symmetry_cell_setting 'orthorhombic'
loop_
_space_group_symop_operation_xyz
x,y,z
-x,-y,z
x,-y,-z
-x,y,-z
-x,-y,-z
x,y,-z
-x,y,z
x,-y,z
loop_
_atom_site_type_symbol
_atom_site_label
_atom_site_fract_x
_atom_site_fract_y
_atom_site_fract_z
Si Si1 0.691097 0.222016 0.616130
Si Si2 0.193174 0.500000 0.118535
Si Si3 0.189751 0.606402 0.191601
Si Si4 0.191349 0.157993 0.801204
Si Si5 0.191578 0.780612 0.000000
Si Si6 0.192948 0.054639 0.119190
Si Si7 0.311604 0.669061 0.000000
Si Si8 0.308670 0.334810 0.383217
O O1 0.741529 0.211083 0.500000
O O2 0.500000 0.221490 0.617958
O O3 0.753391 0.184086 0.698723
O O4 0.740868 0.278347 0.640150
O O5 0.245470 0.550446 0.171816
O O6 0.000000 0.500000 0.119018
O O7 0.242323 0.500000 0.000000
O O8 0.252056 0.640449 0.099997
O O9 0.243125 0.628531 0.299029
O O10 0.000000 0.606664 0.186662
O O11 0.247107 0.101806 0.817214
O O12 0.000000 0.157459 0.802388
O O13 0.243742 0.190196 0.898862
O O14 0.250236 0.724877 0.000000
O O15 0.000000 0.780320 0.000000
O O16 0.000000 0.054381 0.122226
O O17 0.246451 0.000000 0.151432
O O18 0.235327 0.061539 0.000000
O O19 0.500000 0.669507 0.000000
O O20 0.260840 0.345822 0.500000
O O21 0.500000 0.335995 0.379789
#
# Coordination Sequence:
#
# PCOD9381841 Si02
#       8
#     8   4   8   8   4   8   4   8
#     4   9  19  35  52  69  95 135 174 204 244 299
#     4   9  18  36  57  76 103 137 170 205 253 304
#     4  11  21  36  58  80 102 133 172 214 254 298
#     4  10  18  29  48  75 103 127 161 209 251 293
#     4  10  20  32  46  73 108 134 157 199 254 303
#     4   8  13  24  44  69  98 132 164 196 244 302
#     4  12  24  35  49  73 106 139 172 205 250 311
#     4   9  19  37  57  77 105 138 171 209 254 306
#
# _framework density 17.293883999999998
#
# number of rings (size 3 to 8) (size 9 to 14) (size 15 to 20)
#    0.000    2.385    1.538    3.462    0.000    4.308 
#    0.000    3.846    0.000    3.231    0.000    4.308 
#    0.000    0.000    0.000    0.000    0.000    0.000 
#
# Total GULP energy -290081.509286 kJ/mol
# GULP energy per Si atom -5578.490563 kJ/mol
# Density = 1.725452 g / cm^3
# Si number density = 17.293884 Si / 1000 Ang^3
#
#
#
# Elastic Constant Matrix: (Units=GPa)
#
#
# Indices 1 2 3 4 5 6 
#
# 1 15.1051 25.4284 20.5132 0.0000 0.0000 0.0000
# 2 25.4284 191.5767 111.2388 0.0000 0.0000 0.0000
# 3 20.5132 111.2388 129.2909 0.0000 0.0000 0.0000
# 4 0.0000 0.0000 0.0000 17.7390 0.0000 0.0000
# 5 0.0000 0.0000 0.0000 0.0000 29.9948 0.0000
# 6 0.0000 0.0000 0.0000 0.0000 0.0000 -1.7429
#
#
#
# Elastic Compliance Matrix: (Units=1/GPa)
#
#
# Indices 1 2 3 4 5 6 
#
# 1 0.089132 -0.007233 -0.007919 0.000000 0.000000 0.000000
# 2 -0.007233 0.011018 -0.008332 0.000000 0.000000 0.000000
# 3 -0.007919 -0.008332 0.016159 0.000000 0.000000 0.000000
# 4 0.000000 0.000000 0.000000 0.056373 0.000000 0.000000
# 5 0.000000 0.000000 0.000000 0.000000 0.033339 0.000000
# 6 0.000000 0.000000 0.000000 0.000000 0.000000 -0.573745
#
#
# Mechanical properties :
#
#
# Convention : Reuss Voigt Hill
#
# Bulk Modulus (GPa) = 14.42110 72.25928 43.34019
# Shear Modulus (GPa) = -16.79868 21.11766 2.15949
#
# Velocity S-wave (km/s) = -3.12006 3.49822 1.11866
# Velocity P-wave (km/s) = 2.15005 7.62828 5.17532
#
# Compressibility (1/GPa) = 0.06934286
#
# Stress axis : x y z
#
# Youngs Moduli (GPa) = 11.21925 90.76263 61.88328
#
# Poissons Ratio (x) = 0.65645 0.49005
# Poissons Ratio (y) = 0.08115 0.51560
# Poissons Ratio (z) = 0.08884 0.75622
#
# Static dielectric constant tensor:
#      x y z
#    x 1.597950 0.000000 0.000000 
#    y 0.000000 1.591320 0.000000 
#    z 0.000000 0.000000 1.562220 
# 
# From -- ./inp_files/15570.got.cif
#   From: 2010.05.17/outbox.cif.g08.bks.cpg/sg47_8_cif.got.tgz:15570.got - 2010.06.03 20:15:42.
