data_PCOD9381361
_publ_section_title
;
Structure prediction by ZEFSAII (Michael W. Deem and Ramdas Pophale) SiO2 
 PCOD9381361
Probable space group: P M M M
;
_chemical_formula_sum "Si O2"
_cell_formula_units_Z 48
_cell_length_a 7.479189
_cell_length_b 13.730076
_cell_length_c 23.086073
_cell_angle_alpha 90.000000
_cell_angle_beta 90.000000
_cell_angle_gamma 90.000000
_cell_volume 2370.704990
_symmetry_space_group_name_H-M "P M M M"
_symmetry_group_IT_number 47
_symmetry_cell_setting 'orthorhombic'
loop_
_space_group_symop_operation_xyz
x,y,z
-x,-y,z
x,-y,-z
-x,y,-z
-x,-y,-z
x,y,-z
-x,y,z
x,-y,z
loop_
_atom_site_type_symbol
_atom_site_label
_atom_site_fract_x
_atom_site_fract_y
_atom_site_fract_z
Si Si1 0.215616 0.610799 0.812521
Si Si2 0.283573 0.886631 0.762884
Si Si3 0.785665 0.389523 0.680416
Si Si4 0.718847 0.886012 0.000000
Si Si5 0.291128 0.796640 0.119755
Si Si6 0.713388 0.186453 0.358798
Si Si7 0.281095 0.000000 0.566757
O O1 0.268874 0.500000 0.824173
O O2 0.278581 0.634039 0.746535
O O3 0.278855 0.684300 0.861789
O O4 0.000000 0.615386 0.811712
O O5 0.500000 0.872380 0.763580
O O6 0.211547 0.848975 0.823743
O O7 0.213244 0.836481 0.705219
O O8 0.250156 0.000000 0.757221
O O9 0.723664 0.500000 0.666362
O O10 0.742763 0.302516 0.635853
O O11 0.000000 0.393897 0.683671
O O12 0.781616 0.831512 0.058268
O O13 0.500000 0.883339 0.000000
O O14 0.769392 0.000000 0.000000
O O15 0.500000 0.824166 0.117873
O O16 0.500000 0.173696 0.357927
O O17 0.777660 0.100456 0.401508
O O18 0.500000 0.000000 0.567864
O O19 0.225770 0.000000 0.500000
#
# Coordination Sequence:
#
# PCOD9381361 Si02
#       7
#     8   8   8   4   8   8   4
#     4   9  18  32  48  67  94 126 156 191 244 301
#     4   9  15  24  41  68  96 120 149 194 241 279
#     4   9  18  32  49  71 102 135 163 202 258 304
#     4   9  18  32  48  69  94 124 157 189 236 297
#     4  10  18  29  48  70  92 121 158 199 239 281
#     4  10  17  28  49  76 102 128 166 205 238 286
#     4   9  18  32  51  77 111 144 166 195 244 295
#
# _framework density 20.247142
#
# number of rings (size 3 to 8) (size 9 to 14) (size 15 to 20)
#    0.000    2.667    2.500    1.500    0.000    2.667 
#    0.000    2.917    0.000    7.500    0.000    3.500 
#    0.000    0.000    0.000    0.000    0.000    0.000 
#
# Total GULP energy -267508.432395 kJ/mol
# GULP energy per Si atom -5573.092342 kJ/mol
# Density = 2.020106 g / cm^3
# Si number density = 20.247142 Si / 1000 Ang^3
#
#
#
# Elastic Constant Matrix: (Units=GPa)
#
#
# Indices 1 2 3 4 5 6 
#
# 1 57.6225 -2.7510 6.0341 0.0000 0.0000 0.0000
# 2 -2.7510 153.3352 99.3854 0.0000 0.0000 0.0000
# 3 6.0341 99.3854 112.6450 0.0000 0.0000 0.0000
# 4 0.0000 0.0000 0.0000 22.1872 0.0000 0.0000
# 5 0.0000 0.0000 0.0000 0.0000 -2.3904 0.0000
# 6 0.0000 0.0000 0.0000 0.0000 0.0000 33.5941
#
#
#
# Elastic Compliance Matrix: (Units=1/GPa)
#
#
# Indices 1 2 3 4 5 6 
#
# 1 0.017760 0.002184 -0.002879 0.000000 0.000000 0.000000
# 2 0.002184 0.015501 -0.013794 0.000000 0.000000 0.000000
# 3 -0.002879 -0.013794 0.021202 0.000000 0.000000 0.000000
# 4 0.000000 0.000000 0.000000 0.045071 0.000000 0.000000
# 5 0.000000 0.000000 0.000000 0.000000 -0.418335 0.000000
# 6 0.000000 0.000000 0.000000 0.000000 0.000000 0.029767
#
#
# Mechanical properties :
#
#
# Convention : Reuss Voigt Hill
#
# Bulk Modulus (GPa) = 39.23528 58.77108 49.00318
# Shear Modulus (GPa) = -19.87575 25.40711 2.76568
#
# Velocity S-wave (km/s) = -3.13654 3.54623 1.17001
# Velocity P-wave (km/s) = 2.51059 6.77182 5.10689
#
# Compressibility (1/GPa) = 0.02548727
#
# Stress axis : x y z
#
# Youngs Moduli (GPa) = 56.30611 64.51075 47.16623
#
# Poissons Ratio (x) = -0.14092 0.13578
# Poissons Ratio (y) = -0.12300 0.65059
# Poissons Ratio (z) = 0.16209 0.88984
#
# Static dielectric constant tensor:
#      x y z
#    x 1.774360 0.000000 0.000000 
#    y 0.000000 1.764610 0.000000 
#    z 0.000000 0.000000 1.703330 
# 
# From -- ./inp_files/30448.got.cif
#   From: 2010.05.17/outbox.cif.g08.bks.cpg/sg47_16_cif.got.tgz:30448.got - 2010.06.03 20:15:42.
