data_PCOD9381229
_publ_section_title
;
Structure prediction by ZEFSAII (Michael W. Deem and Ramdas Pophale) SiO2 
 PCOD9381229
Probable space group: P M M M
;
_chemical_formula_sum "Si O2"
_cell_formula_units_Z 64
_cell_length_a 19.295137
_cell_length_b 7.587625
_cell_length_c 22.482182
_cell_angle_alpha 90.000000
_cell_angle_beta 90.000000
_cell_angle_gamma 90.000000
_cell_volume 3291.487306
_symmetry_space_group_name_H-M "P M M M"
_symmetry_group_IT_number 47
_symmetry_cell_setting 'orthorhombic'
loop_
_space_group_symop_operation_xyz
x,y,z
-x,-y,z
x,-y,-z
-x,y,-z
-x,-y,-z
x,y,-z
-x,y,z
x,-y,z
loop_
_atom_site_type_symbol
_atom_site_label
_atom_site_fract_x
_atom_site_fract_y
_atom_site_fract_z
Si Si1 0.122713 0.705644 0.936281
Si Si2 0.422142 0.784844 0.569251
Si Si3 0.924259 0.713244 0.809078
Si Si4 0.271090 0.208669 0.892106
Si Si5 0.684944 0.198225 0.664022
Si Si6 0.224032 0.209128 0.237262
Si Si7 0.422608 0.289272 0.760164
Si Si8 0.575905 0.288277 0.898670
O O1 0.102940 0.500000 0.937820
O O2 0.089345 0.779887 0.876402
O O3 0.205880 0.714941 0.927404
O O4 0.104112 0.784965 0.000000
O O5 0.412538 0.739869 0.500000
O O6 0.500000 0.726794 0.587061
O O7 0.359700 0.719278 0.610741
O O8 0.422210 0.000000 0.573483
O O9 0.923664 0.500000 0.810927
O O10 0.857384 0.766292 0.771852
O O11 0.000000 0.770756 0.788264
O O12 0.261965 0.277026 0.823406
O O13 0.347145 0.238653 0.919931
O O14 0.260177 0.000000 0.889769
O O15 0.748508 0.283726 0.700060
O O16 0.630150 0.192779 0.718184
O O17 0.704593 0.000000 0.644683
O O18 0.237979 0.000000 0.239302
O O19 0.500000 0.257226 0.738021
O O20 0.409713 0.500000 0.758373
O O21 0.421267 0.234944 0.829094
O O22 0.500000 0.225946 0.922231
O O23 0.573320 0.500000 0.901844
#
# Coordination Sequence:
#
# PCOD9381229 Si02
#       8
#     8   8   8   8   8   8   8   8
#     4   9  18  32  50  70  90 115 145 174 207 250
#     4   8  14  24  38  58  85 119 159 199 234 262
#     4   9  18  32  50  71  93 117 143 171 206 252
#     4  10  18  29  44  63  89 116 143 180 222 262
#     4  10  17  26  41  61  85 114 152 192 223 259
#     4   9  18  29  41  63  91 117 144 174 216 266
#     4   9  17  26  36  55  83 112 142 178 221 264
#     4   9  17  28  41  58  82 112 144 178 219 267
#
# _framework density 19.444095999999998
#
# number of rings (size 3 to 8) (size 9 to 14) (size 15 to 20)
#    0.000    2.875    1.250    1.875    0.000    2.750 
#    0.000    2.500    0.000    0.750    0.000    7.875 
#    0.000    0.500    0.000    6.250    0.000    1.000 
#
# Total GULP energy -356608.983712 kJ/mol
# GULP energy per Si atom -5572.015371 kJ/mol
# Density = 1.939984 g / cm^3
# Si number density = 19.444096 Si / 1000 Ang^3
#
#
#
# Elastic Constant Matrix: (Units=GPa)
#
#
# Indices 1 2 3 4 5 6 
#
# 1 121.0637 0.6802 34.1360 0.0000 0.0000 0.0000
# 2 0.6802 41.3028 0.6830 0.0000 0.0000 0.0000
# 3 34.1360 0.6830 77.8859 0.0000 0.0000 0.0000
# 4 0.0000 0.0000 0.0000 4.3742 0.0000 0.0000
# 5 0.0000 0.0000 0.0000 0.0000 -31.3264 0.0000
# 6 0.0000 0.0000 0.0000 0.0000 0.0000 18.7918
#
#
#
# Elastic Compliance Matrix: (Units=1/GPa)
#
#
# Indices 1 2 3 4 5 6 
#
# 1 0.009425 -0.000087 -0.004130 0.000000 0.000000 0.000000
# 2 -0.000087 0.024216 -0.000174 0.000000 0.000000 0.000000
# 3 -0.004130 -0.000174 0.014651 0.000000 0.000000 0.000000
# 4 0.000000 0.000000 0.000000 0.228611 0.000000 0.000000
# 5 0.000000 0.000000 0.000000 0.000000 -0.031922 0.000000
# 6 0.000000 0.000000 0.000000 0.000000 0.000000 0.053215
#
#
# Mechanical properties :
#
#
# Convention : Reuss Voigt Hill
#
# Bulk Modulus (GPa) = 25.31051 34.58342 29.94696
# Shear Modulus (GPa) = 15.61776 12.01814 13.81795
#
# Velocity S-wave (km/s) = 2.83718 2.48883 2.66869
# Velocity P-wave (km/s) = 4.87628 5.10722 4.99309
#
# Compressibility (1/GPa) = 0.03950929
#
# Stress axis : x y z
#
# Youngs Moduli (GPa) = 106.09901 41.29548 68.25483
#
# Poissons Ratio (x) = 0.00359 0.28190
# Poissons Ratio (y) = 0.00922 0.01189
# Poissons Ratio (z) = 0.43820 0.00720
#
# Static dielectric constant tensor:
#      x y z
#    x 1.730490 0.000000 0.000000 
#    y 0.000000 1.743840 0.000000 
#    z 0.000000 0.000000 1.705710 
# 
# From -- ./inp_files/10180.got.cif
#   From: 2010.05.17/outbox.cif.g08.bks.cpg/sg47_6_cif.got.tgz:10180.got - 2010.06.03 20:15:42.
