data_PCOD9381743
_publ_section_title
;
Structure prediction by ZEFSAII (Michael W. Deem and Ramdas Pophale) SiO2 
 PCOD9381743
Probable space group: P M M M
;
_chemical_formula_sum "Si O2"
_cell_formula_units_Z 64
_cell_length_a 20.955630
_cell_length_b 20.661353
_cell_length_c 7.712366
_cell_angle_alpha 90.000000
_cell_angle_beta 90.000000
_cell_angle_gamma 90.000000
_cell_volume 3339.235977
_symmetry_space_group_name_H-M "P M M M"
_symmetry_group_IT_number 47
_symmetry_cell_setting 'orthorhombic'
loop_
_space_group_symop_operation_xyz
x,y,z
-x,-y,z
x,-y,-z
-x,y,-z
-x,-y,-z
x,y,-z
-x,y,z
x,-y,z
loop_
_atom_site_type_symbol
_atom_site_label
_atom_site_fract_x
_atom_site_fract_y
_atom_site_fract_z
Si Si1 0.399102 0.750289 0.799379
Si Si2 0.742743 0.788075 0.705845
Si Si3 0.290391 0.069952 0.790742
Si Si4 0.568584 0.893746 0.788179
Si Si5 0.072648 0.428069 0.792137
Si Si6 0.184159 0.668553 0.708075
Si Si7 0.569124 0.608779 0.299701
Si Si8 0.706869 0.428418 0.288129
O O1 0.323009 0.761257 0.786627
O O2 0.427882 0.818188 0.737957
O O3 0.421555 0.686357 0.703461
O O4 0.416909 0.741655 0.000000
O O5 0.735006 0.780117 0.500000
O O6 0.745939 0.864598 0.740233
O O7 0.800846 0.742077 0.764889
O O8 0.364387 0.076242 0.730542
O O9 0.265120 0.000000 0.732600
O O10 0.291899 0.069990 0.000000
O O11 0.500000 0.920777 0.732281
O O12 0.569594 0.896570 0.000000
O O13 0.094070 0.500000 0.729280
O O14 0.120042 0.369672 0.751590
O O15 0.000000 0.417744 0.729411
O O16 0.070127 0.431671 0.000000
O O17 0.186598 0.668825 0.500000
O O18 0.243542 0.625150 0.772703
O O19 0.567480 0.587109 0.500000
O O20 0.500000 0.592606 0.221757
O O21 0.634786 0.581820 0.222938
O O22 0.704597 0.423973 0.500000
O O23 0.729504 0.500000 0.242419
#
# Coordination Sequence:
#
# PCOD9381743 Si02
#       8
#     8   8   8   8   8   8   8   8
#     4  10  18  29  45  64  87 115 151 197 250 306
#     4  10  19  32  50  71  96 123 160 206 251 294
#     4   9  18  31  46  67  95 126 161 200 246 303
#     4   8  14  24  39  60  83 108 143 187 235 289
#     4   9  19  35  53  77 112 147 173 200 239 290
#     4  10  19  32  52  75 100 131 170 213 247 284
#     4  10  19  30  44  62  86 116 153 203 261 310
#     4   9  17  30  46  65  91 121 157 203 251 296
#
# _framework density 19.166062
#
# number of rings (size 3 to 8) (size 9 to 14) (size 15 to 20)
#    0.000    2.625    1.250    2.625    0.000    3.500 
#    0.000    3.125    0.000    3.750    0.000    4.375 
#    0.000    0.500    0.000    5.500    0.000    4.000 
#
# Total GULP energy -356893.593897 kJ/mol
# GULP energy per Si atom -5576.462405 kJ/mol
# Density = 1.912244 g / cm^3
# Si number density = 19.166062 Si / 1000 Ang^3
#
#
#
# Elastic Constant Matrix: (Units=GPa)
#
#
# Indices 1 2 3 4 5 6 
#
# 1 91.2327 61.5065 3.7085 0.0000 0.0000 0.0000
# 2 61.5065 134.4328 7.1097 0.0000 0.0000 0.0000
# 3 3.7085 7.1097 34.8594 0.0000 0.0000 0.0000
# 4 0.0000 0.0000 0.0000 17.8287 0.0000 0.0000
# 5 0.0000 0.0000 0.0000 0.0000 8.5425 0.0000
# 6 0.0000 0.0000 0.0000 0.0000 0.0000 106.5634
#
#
#
# Elastic Compliance Matrix: (Units=1/GPa)
#
#
# Indices 1 2 3 4 5 6 
#
# 1 0.015851 -0.007241 -0.000209 0.000000 0.000000 0.000000
# 2 -0.007241 0.010828 -0.001438 0.000000 0.000000 0.000000
# 3 -0.000209 -0.001438 0.029002 0.000000 0.000000 0.000000
# 4 0.000000 0.000000 0.000000 0.056089 0.000000 0.000000
# 5 0.000000 0.000000 0.000000 0.000000 0.117062 0.000000
# 6 0.000000 0.000000 0.000000 0.000000 0.000000 0.009384
#
#
# Mechanical properties :
#
#
# Convention : Reuss Voigt Hill
#
# Bulk Modulus (GPa) = 26.38253 45.01938 35.70095
# Shear Modulus (GPa) = 18.61302 39.13359 28.87331
#
# Velocity S-wave (km/s) = 3.11970 4.52355 3.88555
# Velocity P-wave (km/s) = 5.17415 7.12906 6.22877
#
# Compressibility (1/GPa) = 0.03790388
#
# Stress axis : x y z
#
# Youngs Moduli (GPa) = 63.08587 92.35462 34.48006
#
# Poissons Ratio (x) = 0.66877 0.00722
# Poissons Ratio (y) = 0.45683 0.04958
# Poissons Ratio (z) = 0.01321 0.13281
#
# Static dielectric constant tensor:
#      x y z
#    x 1.667810 0.000000 0.000000 
#    y 0.000000 1.701230 0.000000 
#    z 0.000000 0.000000 1.728660 
# 
# From -- ./inp_files/11843.got.cif
#   From: 2010.05.17/outbox.cif.g08.bks.cpg/sg47_6_cif.got.tgz:11843.got - 2010.06.03 20:15:42.
