data_PCOD9381017
_publ_section_title
;
Structure prediction by ZEFSAII (Michael W. Deem and Ramdas Pophale) SiO2 
 PCOD9381017
Probable space group: I M A 2
;
_chemical_formula_sum "Si O2"
_cell_formula_units_Z 40
_cell_length_a 23.240786
_cell_length_b 9.458032
_cell_length_c 8.288443
_cell_angle_alpha 90.000000
_cell_angle_beta 90.000000
_cell_angle_gamma 90.000000
_cell_volume 1821.900042
_symmetry_space_group_name_H-M "I M A 2"
_symmetry_group_IT_number 46
_symmetry_cell_setting 'orthorhombic'
loop_
_space_group_symop_operation_xyz
x,y,z
-x,-y,z
1/2-x,y,z
1/2+x,-y,z
1/2+x,1/2+y,1/2+z
1/2-x,1/2-y,1/2+z
-x,1/2+y,1/2+z
x,1/2-y,1/2+z
loop_
_atom_site_type_symbol
_atom_site_label
_atom_site_fract_x
_atom_site_fract_y
_atom_site_fract_z
Si Si1 0.565649 0.550034 0.330530
Si Si2 0.250000 0.247507 0.528723
Si Si3 0.750000 0.528940 0.260787
Si Si4 0.151199 0.657385 0.183070
Si Si5 0.378525 0.320618 0.652440
Si Si6 0.818410 0.056476 0.326899
O O1 0.500000 0.500000 0.345462
O O2 0.593297 0.412478 0.244522
O O3 0.589243 0.596808 0.507693
O O4 0.585909 0.684728 0.217928
O O5 0.250000 0.325881 0.357897
O O6 0.250000 0.082938 0.576184
O O7 0.314133 0.285669 0.589090
O O8 0.803592 0.430640 0.292235
O O9 0.159788 0.822026 0.206238
O O10 0.167863 0.620279 0.001310
O O11 0.359843 0.422504 0.800011
O O12 0.750000 0.034328 0.289171
#
# Coordination Sequence:
#
# PCOD9381017 Si02
#       6
#     8   4   4   8   8   8
#     4  12  29  51  74 104 147 205 262 305 360 454
#     4  12  22  39  73 112 146 178 244 316 390 445
#     4  12  24  37  71 110 156 184 238 312 396 461
#     4  12  25  43  68 109 153 197 245 306 385 451
#     4  12  25  46  77 109 145 195 248 319 380 446
#     4  12  25  41  72 112 154 188 235 313 397 465
#
# _framework density 21.955102
#
# number of rings (size 3 to 8) (size 9 to 14) (size 15 to 20)
#    0.000    0.000    7.000    2.400    2.800    3.200 
#    0.000    2.000    0.000    0.000    0.000    0.000 
#    0.000    0.000    0.000    0.000    0.000    0.000 
#
# Total GULP energy -111565.993521 kJ/mol
# GULP energy per Si atom -5578.299676 kJ/mol
# Density = 2.190513 g / cm^3
# Si number density = 21.955102 Si / 1000 Ang^3
#
#
#
# Elastic Constant Matrix: (Units=GPa)
#
#
# Indices 1 2 3 4 5 6 
#
# 1 166.6169 45.9706 37.4841 0.0000 0.0000 0.0000
# 2 45.9706 85.8666 22.1247 0.0000 0.0000 0.0000
# 3 37.4841 22.1247 82.7764 0.0000 0.0000 0.0000
# 4 0.0000 0.0000 0.0000 37.3919 0.0000 0.0000
# 5 0.0000 0.0000 0.0000 0.0000 25.2394 0.0000
# 6 0.0000 0.0000 0.0000 0.0000 0.0000 13.0714
#
#
#
# Elastic Compliance Matrix: (Units=1/GPa)
#
#
# Indices 1 2 3 4 5 6 
#
# 1 0.007492 -0.003369 -0.002492 0.000000 0.000000 0.000000
# 2 -0.003369 0.014022 -0.002222 0.000000 0.000000 0.000000
# 3 -0.002492 -0.002222 0.013803 0.000000 0.000000 0.000000
# 4 0.000000 0.000000 0.000000 0.026744 0.000000 0.000000
# 5 0.000000 0.000000 0.000000 0.000000 0.039621 0.000000
# 6 0.000000 0.000000 0.000000 0.000000 0.000000 0.076503
#
#
# Mechanical properties :
#
#
# Convention : Reuss Voigt Hill
#
# Bulk Modulus (GPa) = 52.21757 60.71321 56.46539
# Shear Modulus (GPa) = 24.90850 30.45258 27.68054
#
# Velocity S-wave (km/s) = 3.37192 3.72834 3.55460
# Velocity P-wave (km/s) = 6.24461 6.80054 6.52850
#
# Compressibility (1/GPa) = 0.01915064
#
# Stress axis : x y z
#
# Youngs Moduli (GPa) = 133.47662 71.31566 72.44646
#
# Poissons Ratio (x) = 0.24025 0.18055
# Poissons Ratio (y) = 0.44966 0.16100
# Poissons Ratio (z) = 0.33265 0.15849
#
# Static dielectric constant tensor:
#      x y z
#    x -57.489370 0.000000 0.000000 
#    y 0.000000 1.844870 0.000000 
#    z 0.000000 0.000000 1.890650 
# 
# From -- ./inp_files/7735.got.cif
#   From: 2010.05.17/outbox.cif.g08.bks.cpg/sg46_4_cif.got.tgz:7735.got - 2010.06.03 19:58:25.
