data_PCOD9381646
_publ_section_title
;
Structure prediction by ZEFSAII (Michael W. Deem and Ramdas Pophale) SiO2 
 PCOD9381646
Probable space group: P M M M
;
_chemical_formula_sum "Si O2"
_cell_formula_units_Z 52
_cell_length_a 14.773053
_cell_length_b 7.443044
_cell_length_c 25.360752
_cell_angle_alpha 90.000000
_cell_angle_beta 90.000000
_cell_angle_gamma 90.000000
_cell_volume 2788.579109
_symmetry_space_group_name_H-M "P M M M"
_symmetry_group_IT_number 47
_symmetry_cell_setting 'orthorhombic'
loop_
_space_group_symop_operation_xyz
x,y,z
-x,-y,z
x,-y,-z
-x,y,-z
-x,-y,-z
x,y,-z
-x,y,z
x,-y,z
loop_
_atom_site_type_symbol
_atom_site_label
_atom_site_fract_x
_atom_site_fract_y
_atom_site_fract_z
Si Si1 0.101093 0.216389 0.172434
Si Si2 0.604488 0.281051 0.559173
Si Si3 0.100040 0.286924 0.296298
Si Si4 0.395236 0.282130 0.766761
Si Si5 0.287974 0.793751 0.872795
Si Si6 0.288572 0.719908 0.661555
Si Si7 0.605693 0.500000 0.063003
O O1 0.116415 0.264160 0.233722
O O2 0.186095 0.276631 0.137887
O O3 0.000000 0.280019 0.157877
O O4 0.100935 0.000000 0.169732
O O5 0.630734 0.224452 0.500000
O O6 0.500000 0.228105 0.568286
O O7 0.605551 0.500000 0.559475
O O8 0.667841 0.220569 0.606706
O O9 0.096389 0.500000 0.306209
O O10 0.186428 0.216999 0.327743
O O11 0.000000 0.212099 0.307910
O O12 0.500000 0.227484 0.769515
O O13 0.392293 0.500000 0.769310
O O14 0.338415 0.213245 0.816289
O O15 0.349795 0.227718 0.711619
O O16 0.344101 0.671141 0.912312
O O17 0.284038 0.000000 0.890618
O O18 0.287885 0.500000 0.661243
O O19 0.500000 0.500000 0.079069
O O20 0.610508 0.500000 0.000000
#
# Coordination Sequence:
#
# PCOD9381646 Si02
#       7
#     8   8   8   8   8   8   4
#     4   9  18  32  51  78 110 141 173 212 264 325
#     4   8  13  21  33  51  78 117 168 218 260 309
#     4   9  16  25  40  64  94 128 164 202 250 318
#     4  10  18  28  45  71 104 137 168 209 268 331
#     4  11  22  37  60  86 114 146 183 228 276 325
#     4   9  15  23  37  58  89 127 165 210 263 316
#     4  11  26  46  65  85 113 151 193 231 265 312
#
# _framework density 18.647487999999999
#
# number of rings (size 3 to 8) (size 9 to 14) (size 15 to 20)
#    0.000    2.538    2.308    1.385    1.077    3.385 
#    0.000    0.769    0.000    1.385    0.000    5.385 
#    0.000    2.462    0.000   12.308    0.000   11.692 
#
# Total GULP energy -290237.430994 kJ/mol
# GULP energy per Si atom -5581.489058 kJ/mol
# Density = 1.860505 g / cm^3
# Si number density = 18.647488 Si / 1000 Ang^3
#
#
#
# Elastic Constant Matrix: (Units=GPa)
#
#
# Indices 1 2 3 4 5 6 
#
# 1 167.8433 28.8003 70.4254 0.0000 0.0000 0.0000
# 2 28.8003 69.8970 20.4768 0.0000 0.0000 0.0000
# 3 70.4254 20.4768 88.0315 0.0000 0.0000 0.0000
# 4 0.0000 0.0000 0.0000 71.4934 0.0000 0.0000
# 5 0.0000 0.0000 0.0000 0.0000 20.8519 0.0000
# 6 0.0000 0.0000 0.0000 0.0000 0.0000 8.3422
#
#
#
# Elastic Compliance Matrix: (Units=1/GPa)
#
#
# Indices 1 2 3 4 5 6 
#
# 1 0.009163 -0.001747 -0.006924 0.000000 0.000000 0.000000
# 2 -0.001747 0.015686 -0.002251 0.000000 0.000000 0.000000
# 3 -0.006924 -0.002251 0.017422 0.000000 0.000000 0.000000
# 4 0.000000 0.000000 0.000000 0.013987 0.000000 0.000000
# 5 0.000000 0.000000 0.000000 0.000000 0.047957 0.000000
# 6 0.000000 0.000000 0.000000 0.000000 0.000000 0.119872
#
#
# Mechanical properties :
#
#
# Convention : Reuss Voigt Hill
#
# Bulk Modulus (GPa) = 48.95433 62.79742 55.87587
# Shear Modulus (GPa) = 19.78303 33.87545 26.82924
#
# Velocity S-wave (km/s) = 3.26067 4.26681 3.79721
# Velocity P-wave (km/s) = 6.36282 7.61731 7.01815
#
# Compressibility (1/GPa) = 0.02042720
#
# Stress axis : x y z
#
# Youngs Moduli (GPa) = 109.13492 63.75078 57.39731
#
# Poissons Ratio (x) = 0.11138 0.39742
# Poissons Ratio (y) = 0.19067 0.12920
# Poissons Ratio (z) = 0.75565 0.14351
#
# Static dielectric constant tensor:
#      x y z
#    x 1.662530 0.000000 0.000000 
#    y 0.000000 2.264680 0.000000 
#    z 0.000000 0.000000 1.593290 
# 
# From -- ./inp_files/12475.got.cif
#   From: 2010.05.17/outbox.cif.g08.bks.cpg/sg47_7_cif.got.tgz:12475.got - 2010.06.03 20:15:42.
