data_PCOD9381400
_publ_section_title
;
Structure prediction by ZEFSAII (Michael W. Deem and Ramdas Pophale) SiO2 
 PCOD9381400
Probable space group: P M M M
;
_chemical_formula_sum "Si O2"
_cell_formula_units_Z 52
_cell_length_a 16.884759
_cell_length_b 21.427912
_cell_length_c 8.561722
_cell_angle_alpha 90.000000
_cell_angle_beta 90.000000
_cell_angle_gamma 90.000000
_cell_volume 3097.674941
_symmetry_space_group_name_H-M "P M M M"
_symmetry_group_IT_number 47
_symmetry_cell_setting 'orthorhombic'
loop_
_space_group_symop_operation_xyz
x,y,z
-x,-y,z
x,-y,-z
-x,y,-z
-x,-y,-z
x,y,-z
-x,y,z
x,-y,z
loop_
_atom_site_type_symbol
_atom_site_label
_atom_site_fract_x
_atom_site_fract_y
_atom_site_fract_z
Si Si1 0.660043 0.929011 0.190521
Si Si2 0.500000 0.715912 0.314296
Si Si3 0.180033 0.377513 0.687506
Si Si4 0.669918 0.689710 0.812605
Si Si5 0.910430 0.748767 0.311862
Si Si6 0.500000 0.142776 0.189001
Si Si7 0.092542 0.500000 0.812577
Si Si8 0.763173 0.815347 0.811912
O O1 0.577251 0.896609 0.233641
O O2 0.727923 0.881084 0.241813
O O3 0.666808 0.000000 0.246072
O O4 0.661329 0.930793 0.000000
O O5 0.500000 0.713277 0.500000
O O6 0.419098 0.685499 0.250279
O O7 0.500000 0.788197 0.259124
O O8 0.182727 0.380441 0.500000
O O9 0.267724 0.361354 0.750362
O O10 0.125634 0.318306 0.734805
O O11 0.139237 0.439379 0.752287
O O12 0.706110 0.757532 0.763886
O O13 0.668667 0.687898 0.000000
O O14 0.910409 0.750500 0.500000
O O15 0.849858 0.799985 0.249636
O O16 0.000000 0.755926 0.255867
O O17 0.500000 0.149982 0.000000
O O18 0.000000 0.500000 0.760096
O O19 0.092620 0.500000 0.000000
O O20 0.763953 0.815078 0.000000
#
# Coordination Sequence:
#
# PCOD9381400 Si02
#       8
#     8   4   8   8   8   4   4   8
#     4   9  16  27  46  71  97 127 166 209 255 309
#     4  12  22  31  49  76 105 138 175 216 257 300
#     4  10  20  35  55  80 108 138 172 212 261 311
#     4  10  19  34  53  75 103 136 173 216 261 306
#     4   9  18  32  50  72  98 128 163 204 252 305
#     4  10  17  30  48  70  97 131 169 208 255 307
#     4  11  23  37  55  82 115 150 183 213 249 299
#     4   9  17  29  47  71  96 124 162 208 257 305
#
# _framework density 16.786784000000001
#
# number of rings (size 3 to 8) (size 9 to 14) (size 15 to 20)
#    0.000    2.231    1.538    2.538    0.000    3.692 
#    0.000    0.000    0.000    3.231    0.000    6.462 
#    0.000    0.000    0.000    0.000    0.000    0.000 
#
# Total GULP energy -290090.065398 kJ/mol
# GULP energy per Si atom -5578.655104 kJ/mol
# Density = 1.674858 g / cm^3
# Si number density = 16.786784 Si / 1000 Ang^3
#
#
#
# Elastic Constant Matrix: (Units=GPa)
#
#
# Indices 1 2 3 4 5 6 
#
# 1 184.0238 87.0703 38.3998 0.0000 0.0000 0.0000
# 2 87.0703 119.6755 28.0469 0.0000 0.0000 0.0000
# 3 38.3998 28.0469 33.9708 0.0000 0.0000 0.0000
# 4 0.0000 0.0000 0.0000 15.4243 0.0000 0.0000
# 5 0.0000 0.0000 0.0000 0.0000 25.0793 0.0000
# 6 0.0000 0.0000 0.0000 0.0000 0.0000 20.5971
#
#
#
# Elastic Compliance Matrix: (Units=1/GPa)
#
#
# Indices 1 2 3 4 5 6 
#
# 1 0.009186 -0.005270 -0.006033 0.000000 0.000000 0.000000
# 2 -0.005270 0.013383 -0.005093 0.000000 0.000000 0.000000
# 3 -0.006033 -0.005093 0.040462 0.000000 0.000000 0.000000
# 4 0.000000 0.000000 0.000000 0.064833 0.000000 0.000000
# 5 0.000000 0.000000 0.000000 0.000000 0.039874 0.000000
# 6 0.000000 0.000000 0.000000 0.000000 0.000000 0.048551
#
#
# Mechanical properties :
#
#
# Convention : Reuss Voigt Hill
#
# Bulk Modulus (GPa) = 33.06906 71.63378 52.35142
# Shear Modulus (GPa) = 19.29310 24.49701 21.89506
#
# Velocity S-wave (km/s) = 3.39382 3.82423 3.61543
# Velocity P-wave (km/s) = 5.92449 7.89082 6.97727
#
# Compressibility (1/GPa) = 0.03023974
#
# Stress axis : x y z
#
# Youngs Moduli (GPa) = 108.85738 74.71933 24.71469
#
# Poissons Ratio (x) = 0.39374 0.14911
# Poissons Ratio (y) = 0.57363 0.12587
# Poissons Ratio (z) = 0.65677 0.38054
#
# Static dielectric constant tensor:
#      x y z
#    x 1.563440 0.000000 0.000000 
#    y 0.000000 1.551280 0.000000 
#    z 0.000000 0.000000 1.572670 
# 
# From -- ./inp_files/7166.got.cif
#   From: 2010.05.17/outbox.cif.g08.bks.cpg/sg47_4_cif.got.tgz:7166.got - 2010.06.03 20:15:42.
