data_PCOD9381795
_publ_section_title
;
Structure prediction by ZEFSAII (Michael W. Deem and Ramdas Pophale) SiO2 
 PCOD9381795
Probable space group: P M M M
;
_chemical_formula_sum "Si O2"
_cell_formula_units_Z 56
_cell_length_a 28.657059
_cell_length_b 7.426034
_cell_length_c 13.748416
_cell_angle_alpha 90.000000
_cell_angle_beta 90.000000
_cell_angle_gamma 90.000000
_cell_volume 2925.776961
_symmetry_space_group_name_H-M "P M M M"
_symmetry_group_IT_number 47
_symmetry_cell_setting 'orthorhombic'
loop_
_space_group_symop_operation_xyz
x,y,z
-x,-y,z
x,-y,-z
-x,y,-z
-x,-y,-z
x,y,-z
-x,y,z
x,-y,z
loop_
_atom_site_type_symbol
_atom_site_label
_atom_site_fract_x
_atom_site_fract_y
_atom_site_fract_z
Si Si1 0.054289 0.719325 0.609705
Si Si2 0.203464 0.713503 0.111342
Si Si3 0.500000 0.216512 0.885308
Si Si4 0.107726 0.279893 0.196649
Si Si5 0.402963 0.792412 0.197792
Si Si6 0.307051 0.216473 0.888465
Si Si7 0.447179 0.282592 0.389528
Si Si8 0.946284 0.280722 0.000000
O O1 0.068577 0.775748 0.500000
O O2 0.055417 0.500000 0.609845
O O3 0.084899 0.780245 0.701727
O O4 0.000000 0.770761 0.623627
O O5 0.196358 0.500000 0.102913
O O6 0.160917 0.779679 0.177126
O O7 0.255719 0.739247 0.150699
O O8 0.201376 0.786409 0.000000
O O9 0.451159 0.289210 0.843451
O O10 0.500000 0.000000 0.865872
O O11 0.500000 0.243512 0.000000
O O12 0.106454 0.500000 0.199241
O O13 0.079176 0.225218 0.099731
O O14 0.353436 0.715548 0.165036
O O15 0.410223 0.786345 0.312867
O O16 0.402920 0.000000 0.163668
O O17 0.308945 0.000000 0.889320
O O18 0.308570 0.280833 0.000000
O O19 0.438788 0.226062 0.500000
O O20 0.500000 0.224428 0.362389
O O21 0.446831 0.500000 0.387249
O O22 0.945276 0.500000 0.000000
O O23 0.000000 0.224077 0.000000
#
# Coordination Sequence:
#
# PCOD9381795 Si02
#       8
#     8   8   4   8   8   8   8   4
#     4   8  13  20  30  47  75 111 143 168 204 258
#     4   9  16  27  42  60  82 110 146 185 220 255
#     4   9  16  26  42  65  92 116 137 167 214 265
#     4   9  14  21  33  51  77 107 139 176 214 254
#     4  10  18  29  47  70  90 113 147 185 220 259
#     4   9  18  31  46  65  90 118 149 183 219 263
#     4   9  18  32  48  66  91 121 147 174 214 263
#     4   9  14  18  28  50  79 107 131 164 217 268
#
# _framework density 19.140214
#
# number of rings (size 3 to 8) (size 9 to 14) (size 15 to 20)
#    0.000    3.000    1.429    1.714    0.000    4.286 
#    0.000    0.714    0.000    2.571    0.000    2.000 
#    0.000    2.857    0.000    1.571    0.000    1.429 
#
# Total GULP energy -312184.134791 kJ/mol
# GULP energy per Si atom -5574.716693 kJ/mol
# Density = 1.909665 g / cm^3
# Si number density = 19.140214 Si / 1000 Ang^3
#
#
#
# Elastic Constant Matrix: (Units=GPa)
#
#
# Indices 1 2 3 4 5 6 
#
# 1 194.2359 4.6427 106.7303 0.0000 0.0000 0.0000
# 2 4.6427 58.8472 2.1408 0.0000 0.0000 0.0000
# 3 106.7303 2.1408 128.1436 0.0000 0.0000 0.0000
# 4 0.0000 0.0000 0.0000 9.9639 0.0000 0.0000
# 5 0.0000 0.0000 0.0000 0.0000 28.6849 0.0000
# 6 0.0000 0.0000 0.0000 0.0000 0.0000 12.2320
#
#
#
# Elastic Compliance Matrix: (Units=1/GPa)
#
#
# Indices 1 2 3 4 5 6 
#
# 1 0.009506 -0.000462 -0.007909 0.000000 0.000000 0.000000
# 2 -0.000462 0.017026 0.000101 0.000000 0.000000 0.000000
# 3 -0.007909 0.000101 0.014390 0.000000 0.000000 0.000000
# 4 0.000000 0.000000 0.000000 0.100363 0.000000 0.000000
# 5 0.000000 0.000000 0.000000 0.000000 0.034862 0.000000
# 6 0.000000 0.000000 0.000000 0.000000 0.000000 0.081753
#
#
# Mechanical properties :
#
#
# Convention : Reuss Voigt Hill
#
# Bulk Modulus (GPa) = 41.01869 67.58380 54.30125
# Shear Modulus (GPa) = 17.69491 28.02367 22.85929
#
# Velocity S-wave (km/s) = 3.04384 3.83054 3.45962
# Velocity P-wave (km/s) = 5.81639 7.41286 6.66262
#
# Compressibility (1/GPa) = 0.02437913
#
# Stress axis : x y z
#
# Youngs Moduli (GPa) = 105.20166 58.73382 69.49375
#
# Poissons Ratio (x) = 0.02715 0.54965
# Poissons Ratio (y) = 0.04862 -0.00699
# Poissons Ratio (z) = 0.83208 -0.00590
#
# Static dielectric constant tensor:
#      x y z
#    x 1.672980 0.000000 0.000000 
#    y 0.000000 1.764190 0.000000 
#    z 0.000000 0.000000 1.657630 
# 
# From -- ./inp_files/25821.got.cif
#   From: 2010.05.17/outbox.cif.g08.bks.cpg/sg47_13_cif.got.tgz:25821.got - 2010.06.03 20:15:42.
