data_PCOD9381217
_publ_section_title
;
Structure prediction by ZEFSAII (Michael W. Deem and Ramdas Pophale) SiO2 
 PCOD9381217
Probable space group: P M M M
;
_chemical_formula_sum "Si O2"
_cell_formula_units_Z 64
_cell_length_a 15.229810
_cell_length_b 7.722727
_cell_length_c 29.786986
_cell_angle_alpha 90.000000
_cell_angle_beta 90.000000
_cell_angle_gamma 90.000000
_cell_volume 3503.416164
_symmetry_space_group_name_H-M "P M M M"
_symmetry_group_IT_number 47
_symmetry_cell_setting 'orthorhombic'
loop_
_space_group_symop_operation_xyz
x,y,z
-x,-y,z
x,-y,-z
-x,y,-z
-x,-y,-z
x,y,-z
-x,y,z
x,-y,z
loop_
_atom_site_type_symbol
_atom_site_label
_atom_site_fract_x
_atom_site_fract_y
_atom_site_fract_z
Si Si1 0.718287 0.702410 0.451660
Si Si2 0.901155 0.209543 0.586173
Si Si3 0.100472 0.708360 0.853899
Si Si4 0.402115 0.793841 0.631397
Si Si5 0.400452 0.211753 0.266922
Si Si6 0.099668 0.788953 0.310967
Si Si7 0.221230 0.208486 0.769761
Si Si8 0.893745 0.705110 0.048264
O O1 0.692415 0.780907 0.500000
O O2 0.700269 0.500000 0.453664
O O3 0.821824 0.729025 0.444180
O O4 0.666654 0.764757 0.407971
O O5 0.883572 0.265394 0.637775
O O6 0.000000 0.265281 0.573854
O O7 0.900596 0.000000 0.585623
O O8 0.095133 0.500000 0.857516
O O9 0.167115 0.748505 0.814176
O O10 0.132017 0.775212 0.902846
O O11 0.000000 0.770181 0.844873
O O12 0.500000 0.727186 0.619921
O O13 0.379186 0.732482 0.681695
O O14 0.408329 0.000000 0.635893
O O15 0.500000 0.267780 0.256459
O O16 0.321652 0.269459 0.234758
O O17 0.401410 0.000000 0.266239
O O18 0.167329 0.727325 0.273747
O O19 0.000000 0.738719 0.299052
O O20 0.102367 0.000000 0.311362
O O21 0.222924 0.000000 0.766784
O O22 0.872106 0.500000 0.047600
O O23 0.000000 0.716559 0.048577
O O24 0.863717 0.778671 0.000000
#
# Coordination Sequence:
#
# PCOD9381217 Si02
#       8
#     8   8   8   8   8   8   8   8
#     4  11  24  37  48  67  97 127 146 166 209 269
#     4   9  18  34  55  73  87 110 151 197 226 244
#     4   9  17  27  38  57  88 120 148 182 219 251
#     4   9  18  35  59  79  90 106 140 185 223 254
#     4   8  15  29  49  71  90 109 140 181 218 252
#     4   8  14  25  42  64  86 108 138 174 209 247
#     4  10  17  25  42  64  87 117 145 169 206 258
#     4   7  10  19  36  54  72 103 149 190 218 248
#
# _framework density 18.267883999999999
#
# number of rings (size 3 to 8) (size 9 to 14) (size 15 to 20)
#    0.000    3.125    0.000    4.125    0.000    4.750 
#    0.000    5.000    0.000    2.250    0.000    1.750 
#    0.000    0.500    0.000    6.250    0.000    0.250 
#
# Total GULP energy -356538.781424 kJ/mol
# GULP energy per Si atom -5570.918460 kJ/mol
# Density = 1.822631 g / cm^3
# Si number density = 18.267884 Si / 1000 Ang^3
#
#
#
# Elastic Constant Matrix: (Units=GPa)
#
#
# Indices 1 2 3 4 5 6 
#
# 1 97.0754 2.2144 72.8698 0.0000 0.0000 0.0000
# 2 2.2144 24.7695 2.0167 0.0000 0.0000 0.0000
# 3 72.8698 2.0167 96.0118 0.0000 0.0000 0.0000
# 4 0.0000 0.0000 0.0000 12.5657 0.0000 0.0000
# 5 0.0000 0.0000 0.0000 0.0000 17.8721 0.0000
# 6 0.0000 0.0000 0.0000 0.0000 0.0000 111.1439
#
#
#
# Elastic Compliance Matrix: (Units=1/GPa)
#
#
# Indices 1 2 3 4 5 6 
#
# 1 0.023952 -0.000662 -0.018165 0.000000 0.000000 0.000000
# 2 -0.000662 0.040460 -0.000347 0.000000 0.000000 0.000000
# 3 -0.018165 -0.000347 0.024209 0.000000 0.000000 0.000000
# 4 0.000000 0.000000 0.000000 0.079582 0.000000 0.000000
# 5 0.000000 0.000000 0.000000 0.000000 0.055953 0.000000
# 6 0.000000 0.000000 0.000000 0.000000 0.000000 0.008997
#
#
# Mechanical properties :
#
#
# Convention : Reuss Voigt Hill
#
# Bulk Modulus (GPa) = 19.89169 41.33984 30.61576
# Shear Modulus (GPa) = 17.34557 37.70007 27.52282
#
# Velocity S-wave (km/s) = 3.08476 4.54776 3.88574
# Velocity P-wave (km/s) = 4.85800 7.08908 6.07681
#
# Compressibility (1/GPa) = 0.05027224
#
# Stress axis : x y z
#
# Youngs Moduli (GPa) = 41.75072 24.71591 41.30691
#
# Poissons Ratio (x) = 0.01637 0.75032
# Poissons Ratio (y) = 0.02765 0.01434
# Poissons Ratio (z) = 0.75839 0.00858
#
# Static dielectric constant tensor:
#      x y z
#    x 1.627440 0.000000 0.000000 
#    y 0.000000 1.692650 0.000000 
#    z 0.000000 0.000000 1.673680 
# 
# From -- ./inp_files/14292.got.cif
#   From: 2010.05.17/outbox.cif.g08.bks.cpg/sg47_8_cif.got.tgz:14292.got - 2010.06.03 20:15:42.
