data_PCOD9381608
_publ_section_title
;
Structure prediction by ZEFSAII (Michael W. Deem and Ramdas Pophale) SiO2 
 PCOD9381608
Probable space group: P M M M
;
_chemical_formula_sum "Si O2"
_cell_formula_units_Z 52
_cell_length_a 18.651249
_cell_length_b 14.219568
_cell_length_c 14.401620
_cell_angle_alpha 90.000000
_cell_angle_beta 90.000000
_cell_angle_gamma 90.000000
_cell_volume 3819.492574
_symmetry_space_group_name_H-M "P M M M"
_symmetry_group_IT_number 47
_symmetry_cell_setting 'orthorhombic'
loop_
_space_group_symop_operation_xyz
x,y,z
-x,-y,z
x,-y,-z
-x,y,-z
-x,-y,-z
x,y,-z
-x,y,z
x,-y,z
loop_
_atom_site_type_symbol
_atom_site_label
_atom_site_fract_x
_atom_site_fract_y
_atom_site_fract_z
Si Si1 0.000000 0.107697 0.386892
Si Si2 0.419938 0.114072 0.607750
Si Si3 0.143432 0.781438 0.611145
Si Si4 0.201295 0.108556 0.893475
Si Si5 0.917469 0.733579 0.892954
Si Si6 0.914939 0.609500 0.715114
Si Si7 0.275174 0.111969 0.294133
O O1 0.927884 0.161180 0.358030
O O2 0.000000 0.107270 0.500000
O O3 0.000000 0.000000 0.355157
O O4 0.407730 0.140804 0.500000
O O5 0.500000 0.146102 0.635249
O O6 0.353260 0.143176 0.670858
O O7 0.421253 0.000000 0.609914
O O8 0.147243 0.783714 0.500000
O O9 0.130557 0.676369 0.648028
O O10 0.212902 0.831173 0.653662
O O11 0.136830 0.180917 0.876168
O O12 0.261341 0.123890 0.815486
O O13 0.176832 0.000000 0.884131
O O14 0.225738 0.121277 0.000000
O O15 0.905279 0.651650 0.818469
O O16 0.000000 0.765173 0.882297
O O17 0.908341 0.702409 0.000000
O O18 0.896297 0.500000 0.710161
O O19 0.000000 0.618578 0.692107
O O20 0.267380 0.000000 0.315132
#
# Coordination Sequence:
#
# PCOD9381608 Si02
#       7
#     4   8   8   8   8   8   8
#     4   9  18  30  41  55  80 111 141 177 213 247
#     4   8  14  25  41  62  88 116 145 176 208 244
#     4  11  20  30  42  60  84 111 148 182 213 255
#     4   9  17  28  42  62  88 116 143 172 212 262
#     4   9  17  30  46  62  81 106 142 186 226 260
#     4  10  20  33  46  59  78 108 148 188 226 262
#     4  10  18  28  44  65  88 116 145 175 215 257
#
# _framework density 13.614374
#
# number of rings (size 3 to 8) (size 9 to 14) (size 15 to 20)
#    0.000    2.538    2.308    1.385    0.000    2.462 
#    0.000    3.846    0.000    0.462    0.000    3.231 
#    0.000    0.615    0.000    3.231    0.000    5.077 
#
# Total GULP energy -289647.579483 kJ/mol
# GULP energy per Si atom -5570.145759 kJ/mol
# Density = 1.358339 g / cm^3
# Si number density = 13.614374 Si / 1000 Ang^3
#
#
#
# Elastic Constant Matrix: (Units=GPa)
#
#
# Indices 1 2 3 4 5 6 
#
# 1 98.7766 43.7644 51.0793 0.0000 0.0000 0.0000
# 2 43.7644 67.0564 36.3690 0.0000 0.0000 0.0000
# 3 51.0793 36.3690 72.0376 0.0000 0.0000 0.0000
# 4 0.0000 0.0000 0.0000 14.6019 0.0000 0.0000
# 5 0.0000 0.0000 0.0000 0.0000 19.5578 0.0000
# 6 0.0000 0.0000 0.0000 0.0000 0.0000 5.8354
#
#
#
# Elastic Compliance Matrix: (Units=1/GPa)
#
#
# Indices 1 2 3 4 5 6 
#
# 1 0.017882 -0.006601 -0.009347 0.000000 0.000000 0.000000
# 2 -0.006601 0.022973 -0.006917 0.000000 0.000000 0.000000
# 3 -0.009347 -0.006917 0.024001 0.000000 0.000000 0.000000
# 4 0.000000 0.000000 0.000000 0.068484 0.000000 0.000000
# 5 0.000000 0.000000 0.000000 0.000000 0.051131 0.000000
# 6 0.000000 0.000000 0.000000 0.000000 0.000000 0.171369
#
#
# Mechanical properties :
#
#
# Convention : Reuss Voigt Hill
#
# Bulk Modulus (GPa) = 52.28641 55.58844 53.93742
# Shear Modulus (GPa) = 12.25653 15.10955 13.68304
#
# Velocity S-wave (km/s) = 3.00369 3.33502 3.17368
# Velocity P-wave (km/s) = 7.10762 7.46653 7.28929
#
# Compressibility (1/GPa) = 0.01912543
#
# Stress axis : x y z
#
# Youngs Moduli (GPa) = 55.92194 43.52951 41.66425
#
# Poissons Ratio (x) = 0.28736 0.38943
# Poissons Ratio (y) = 0.36916 0.28821
# Poissons Ratio (z) = 0.52269 0.30111
#
# Static dielectric constant tensor:
#      x y z
#    x 1.430000 0.000000 0.000000 
#    y 0.000000 1.428420 0.000000 
#    z 0.000000 0.000000 1.472620 
# 
# From -- ./inp_files/24618.got.cif
#   From: 2010.05.17/outbox.cif.g08.bks.cpg/sg47_13_cif.got.tgz:24618.got - 2010.06.03 20:15:42.
