data_PCOD9381830
_publ_section_title
;
Structure prediction by ZEFSAII (Michael W. Deem and Ramdas Pophale) SiO2 
 PCOD9381830
Probable space group: P M M M
;
_chemical_formula_sum "Si O2"
_cell_formula_units_Z 52
_cell_length_a 20.756010
_cell_length_b 15.813682
_cell_length_c 7.277713
_cell_angle_alpha 90.000000
_cell_angle_beta 90.000000
_cell_angle_gamma 90.000000
_cell_volume 2388.756036
_symmetry_space_group_name_H-M "P M M M"
_symmetry_group_IT_number 47
_symmetry_cell_setting 'orthorhombic'
loop_
_space_group_symop_operation_xyz
x,y,z
-x,-y,z
x,-y,-z
-x,y,-z
-x,-y,-z
x,y,-z
-x,y,z
x,-y,z
loop_
_atom_site_type_symbol
_atom_site_label
_atom_site_fract_x
_atom_site_fract_y
_atom_site_fract_z
Si Si1 0.685613 0.774143 0.786346
Si Si2 0.925737 0.838010 0.223494
Si Si3 0.071958 0.500000 0.223887
Si Si4 0.791131 0.907594 0.776170
Si Si5 0.284915 0.402212 0.222588
Si Si6 0.144061 0.665466 0.777111
Si Si7 0.573553 0.905209 0.721204
O O1 0.745849 0.830215 0.710996
O O2 0.671220 0.678285 0.719318
O O3 0.624002 0.834364 0.776101
O O4 0.702581 0.762650 0.000000
O O5 0.866446 0.899031 0.276082
O O6 0.895010 0.748051 0.281049
O O7 0.000000 0.851343 0.284989
O O8 0.928800 0.839570 0.000000
O O9 0.105138 0.415497 0.283550
O O10 0.000000 0.500000 0.283438
O O11 0.074588 0.500000 0.000000
O O12 0.766299 0.000000 0.719640
O O13 0.789589 0.904902 0.000000
O O14 0.292397 0.500000 0.288508
O O15 0.216400 0.359822 0.274928
O O16 0.287198 0.410274 0.000000
O O17 0.145387 0.671112 0.000000
O O18 0.573180 0.906629 0.500000
O O19 0.500000 0.889090 0.781014
O O20 0.592096 0.000000 0.783321
#
# Coordination Sequence:
#
# PCOD9381830 Si02
#       7
#     8   8   4   8   8   8   8
#     4  10  18  29  48  73 100 128 160 199 238 276
#     4   9  15  21  28  40  67 111 157 195 233 281
#     4   9  14  16  22  38  60  94 144 195 236 276
#     4   9  16  24  34  52  80 114 153 195 237 280
#     4   9  15  24  39  59  87 123 160 197 239 284
#     4   9  13  19  28  41  66 104 150 195 236 278
#     4   9  19  36  56  78 104 130 153 181 224 279
#
# _framework density 21.768653
#
# number of rings (size 3 to 8) (size 9 to 14) (size 15 to 20)
#    0.000    2.846    2.308    1.385    0.000    3.385 
#    0.000    2.308    0.000    0.923    0.000    3.231 
#    0.000    0.615    0.000    3.231    0.000    5.692 
#
# Total GULP energy -289723.677124 kJ/mol
# GULP energy per Si atom -5571.609175 kJ/mol
# Density = 2.171911 g / cm^3
# Si number density = 21.768653 Si / 1000 Ang^3
#
#
#
# Elastic Constant Matrix: (Units=GPa)
#
#
# Indices 1 2 3 4 5 6 
#
# 1 100.5418 73.2303 -4.2713 0.0000 0.0000 0.0000
# 2 73.2303 197.1342 4.4035 0.0000 0.0000 0.0000
# 3 -4.2713 4.4035 90.5770 0.0000 0.0000 0.0000
# 4 0.0000 0.0000 0.0000 -46.0641 0.0000 0.0000
# 5 0.0000 0.0000 0.0000 0.0000 36.4798 0.0000
# 6 0.0000 0.0000 0.0000 0.0000 0.0000 35.2606
#
#
#
# Elastic Compliance Matrix: (Units=1/GPa)
#
#
# Indices 1 2 3 4 5 6 
#
# 1 0.013707 -0.005112 0.000895 0.000000 0.000000 0.000000
# 2 -0.005112 0.006985 -0.000581 0.000000 0.000000 0.000000
# 3 0.000895 -0.000581 0.011111 0.000000 0.000000 0.000000
# 4 0.000000 0.000000 0.000000 -0.021709 0.000000 0.000000
# 5 0.000000 0.000000 0.000000 0.000000 0.027412 0.000000
# 6 0.000000 0.000000 0.000000 0.000000 0.000000 0.028360
#
#
# Mechanical properties :
#
#
# Convention : Reuss Voigt Hill
#
# Bulk Modulus (GPa) = 45.02979 59.44201 52.23590
# Shear Modulus (GPa) = 60.33948 26.12797 43.23372
#
# Velocity S-wave (km/s) = 5.27055 3.46823 4.46135
# Velocity P-wave (km/s) = 7.60058 6.58815 7.11240
#
# Compressibility (1/GPa) = 0.02220752
#
# Stress axis : x y z
#
# Youngs Moduli (GPa) = 72.95291 143.17171 90.00281
#
# Poissons Ratio (x) = 0.73189 -0.08055
# Poissons Ratio (y) = 0.37293 0.05226
# Poissons Ratio (z) = -0.06529 0.08313
#
# Static dielectric constant tensor:
#      x y z
#    x 1.785230 0.000000 0.000000 
#    y 0.000000 1.823390 0.000000 
#    z 0.000000 0.000000 1.923450 
# 
# From -- ./inp_files/17951.got.cif
#   From: 2010.05.17/outbox.cif.g08.bks.cpg/sg47_9_cif.got.tgz:17951.got - 2010.06.03 20:15:42.
