data_PCOD9381664
_publ_section_title
;
Structure prediction by ZEFSAII (Michael W. Deem and Ramdas Pophale) SiO2 
 PCOD9381664
Probable space group: P M M M
;
_chemical_formula_sum "Si O2"
_cell_formula_units_Z 64
_cell_length_a 32.330295
_cell_length_b 14.850257
_cell_length_c 8.264786
_cell_angle_alpha 90.000000
_cell_angle_beta 90.000000
_cell_angle_gamma 90.000000
_cell_volume 3968.032768
_symmetry_space_group_name_H-M "P M M M"
_symmetry_group_IT_number 47
_symmetry_cell_setting 'orthorhombic'
loop_
_space_group_symop_operation_xyz
x,y,z
-x,-y,z
x,-y,-z
-x,y,-z
-x,-y,-z
x,y,-z
-x,y,z
x,-y,z
loop_
_atom_site_type_symbol
_atom_site_label
_atom_site_fract_x
_atom_site_fract_y
_atom_site_fract_z
Si Si1 0.341529 0.399309 0.804967
Si Si2 0.213118 0.210944 0.193331
Si Si3 0.374444 0.214059 0.694820
Si Si4 0.706002 0.103548 0.304434
Si Si5 0.453438 0.895951 0.697418
Si Si6 0.044783 0.893226 0.805686
Si Si7 0.133504 0.103633 0.692438
Si Si8 0.245345 0.399617 0.197218
O O1 0.353944 0.500000 0.752453
O O2 0.368572 0.317562 0.741442
O O3 0.293445 0.385761 0.755699
O O4 0.342237 0.397523 0.000000
O O5 0.252100 0.152813 0.253066
O O6 0.170688 0.164315 0.244686
O O7 0.219222 0.313768 0.252948
O O8 0.214703 0.212797 0.000000
O O9 0.374537 0.207756 0.500000
O O10 0.334215 0.158519 0.753517
O O11 0.416704 0.168308 0.754311
O O12 0.704815 0.102505 0.500000
O O13 0.705171 0.000000 0.248546
O O14 0.453415 0.894043 0.500000
O O15 0.500000 0.871425 0.749700
O O16 0.445531 0.000000 0.743340
O O17 0.088113 0.859113 0.737551
O O18 0.000000 0.856368 0.750129
O O19 0.044404 0.000000 0.765941
O O20 0.046029 0.885588 0.000000
O O21 0.136476 0.099220 0.500000
O O22 0.137119 0.000000 0.755853
O O23 0.232591 0.500000 0.251054
O O24 0.244530 0.400560 0.000000
#
# Coordination Sequence:
#
# PCOD9381664 Si02
#       8
#     8   8   8   8   8   8   8   8
#     4   9  17  31  49  66  87 115 145 178 221 271
#     4  11  20  30  46  64  84 114 152 187 217 256
#     4  10  18  28  46  70  91 111 143 186 223 257
#     4  10  20  31  41  58  89 122 145 171 213 261
#     4   8  14  26  45  68  92 118 148 180 217 264
#     4   8  14  26  44  64  85 111 149 196 234 261
#     4  10  20  31  42  59  89 127 158 184 220 265
#     4   8  15  29  47  64  82 107 142 183 224 264
#
# _framework density 16.128899000000001
#
# number of rings (size 3 to 8) (size 9 to 14) (size 15 to 20)
#    0.000    2.750    1.250    3.000    0.000    4.500 
#    0.000    1.250    0.000    3.375    0.000    3.500 
#    0.000    0.500    0.000    5.750    0.000    1.875 
#
# Total GULP energy -356579.847966 kJ/mol
# GULP energy per Si atom -5571.560124 kJ/mol
# Density = 1.609219 g / cm^3
# Si number density = 16.128899 Si / 1000 Ang^3
#
#
#
# Elastic Constant Matrix: (Units=GPa)
#
#
# Indices 1 2 3 4 5 6 
#
# 1 137.2041 87.5061 14.4564 0.0000 0.0000 0.0000
# 2 87.5061 124.8843 12.2779 0.0000 0.0000 0.0000
# 3 14.4564 12.2779 6.4317 0.0000 0.0000 0.0000
# 4 0.0000 0.0000 0.0000 17.8544 0.0000 0.0000
# 5 0.0000 0.0000 0.0000 0.0000 9.7906 0.0000
# 6 0.0000 0.0000 0.0000 0.0000 0.0000 8.4329
#
#
#
# Elastic Compliance Matrix: (Units=1/GPa)
#
#
# Indices 1 2 3 4 5 6 
#
# 1 0.014424 -0.008518 -0.016159 0.000000 0.000000 0.000000
# 2 -0.008518 0.014888 -0.009275 0.000000 0.000000 0.000000
# 3 -0.016159 -0.009275 0.209508 0.000000 0.000000 0.000000
# 4 0.000000 0.000000 0.000000 0.056008 0.000000 0.000000
# 5 0.000000 0.000000 0.000000 0.000000 0.102139 0.000000
# 6 0.000000 0.000000 0.000000 0.000000 0.000000 0.118583
#
#
# Mechanical properties :
#
#
# Convention : Reuss Voigt Hill
#
# Bulk Modulus (GPa) = 5.85086 55.22230 30.53658
# Shear Modulus (GPa) = 7.80732 17.50090 12.65411
#
# Velocity S-wave (km/s) = 2.20252 3.29761 2.80404
# Velocity P-wave (km/s) = 3.17861 6.98651 5.42747
#
# Compressibility (1/GPa) = 0.17091508
#
# Stress axis : x y z
#
# Youngs Moduli (GPa) = 69.33102 67.16972 4.77309
#
# Poissons Ratio (x) = 0.57214 0.07713
# Poissons Ratio (y) = 0.59055 0.04427
# Poissons Ratio (z) = 1.12035 0.62297
#
# Static dielectric constant tensor:
#      x y z
#    x 1.541460 0.000000 0.000000 
#    y 0.000000 1.542160 0.000000 
#    z 0.000000 0.000000 1.570480 
# 
# From -- ./inp_files/8325.got.cif
#   From: 2010.05.17/outbox.cif.g08.bks.cpg/sg47_5_cif.got.tgz:8325.got - 2010.06.03 20:15:42.
