data_PCOD9381571
_publ_section_title
;
Structure prediction by ZEFSAII (Michael W. Deem and Ramdas Pophale) SiO2 
 PCOD9381571
Probable space group: P M M M
;
_chemical_formula_sum "Si O2"
_cell_formula_units_Z 64
_cell_length_a 22.406961
_cell_length_b 7.361421
_cell_length_c 17.041982
_cell_angle_alpha 90.000000
_cell_angle_beta 90.000000
_cell_angle_gamma 90.000000
_cell_volume 2811.025053
_symmetry_space_group_name_H-M "P M M M"
_symmetry_group_IT_number 47
_symmetry_cell_setting 'orthorhombic'
loop_
_space_group_symop_operation_xyz
x,y,z
-x,-y,z
x,-y,-z
-x,y,-z
-x,-y,-z
x,y,-z
-x,y,z
x,-y,z
loop_
_atom_site_type_symbol
_atom_site_label
_atom_site_fract_x
_atom_site_fract_y
_atom_site_fract_z
Si Si1 0.749496 0.285018 0.784965
Si Si2 0.433751 0.208673 0.389178
Si Si3 0.880203 0.798178 0.747300
Si Si4 0.832543 0.221878 0.412736
Si Si5 0.434069 0.282550 0.792668
Si Si6 0.070950 0.781393 0.086839
Si Si7 0.696558 0.783972 0.376880
Si Si8 0.335164 0.278249 0.087557
O O1 0.760876 0.500000 0.785040
O O2 0.809823 0.188042 0.763802
O O3 0.701234 0.249275 0.716729
O O4 0.725557 0.228506 0.869038
O O5 0.500000 0.286724 0.409897
O O6 0.432057 0.206726 0.294662
O O7 0.367475 0.286387 0.408703
O O8 0.434382 0.000000 0.415661
O O9 0.874975 0.715530 0.659275
O O10 0.905108 0.713557 0.828431
O O11 0.907820 0.000000 0.740256
O O12 0.852787 0.272058 0.500000
O O13 0.762383 0.280899 0.404746
O O14 0.831640 0.000000 0.407758
O O15 0.500000 0.249890 0.824595
O O16 0.426068 0.500000 0.783268
O O17 0.386825 0.215285 0.854806
O O18 0.000000 0.750013 0.086937
O O19 0.081154 0.000000 0.087633
O O20 0.093372 0.717502 0.000000
O O21 0.695679 0.000000 0.391677
O O22 0.337461 0.500000 0.086521
O O23 0.340472 0.213242 0.000000
#
# Coordination Sequence:
#
# PCOD9381571 Si02
#       8
#     8   8   8   8   8   8   8   8
#     4  10  18  28  42  60  83 111 142 178 219 261
#     4   9  16  25  39  58  78  99 126 169 224 272
#     4   9  17  29  47  69  91 118 150 182 216 256
#     4   8  14  25  42  64  88 116 149 182 217 260
#     4   9  16  26  40  55  70  94 133 175 212 257
#     4   8  14  26  46  72  99 125 155 190 221 249
#     4   9  16  27  44  61  79 106 140 176 216 266
#     4   9  17  27  37  52  76 104 133 169 214 260
#
# _framework density 22.767496999999999
#
# number of rings (size 3 to 8) (size 9 to 14) (size 15 to 20)
#    0.000    3.125    1.250    1.500    0.000    0.750 
#    0.000    1.250    0.000   10.125    0.000    7.875 
#    0.000    0.000    0.000   12.125    0.000   13.250 
#
# Total GULP energy -356451.254562 kJ/mol
# GULP energy per Si atom -5569.550853 kJ/mol
# Density = 2.271568 g / cm^3
# Si number density = 22.767497 Si / 1000 Ang^3
#
#
#
# Elastic Constant Matrix: (Units=GPa)
#
#
# Indices 1 2 3 4 5 6 
#
# 1 35.8675 2.4495 37.2039 0.0000 0.0000 0.0000
# 2 2.4495 76.8542 3.0970 0.0000 0.0000 0.0000
# 3 37.2039 3.0970 215.3119 0.0000 0.0000 0.0000
# 4 0.0000 0.0000 0.0000 112.0871 0.0000 0.0000
# 5 0.0000 0.0000 0.0000 0.0000 268.7323 0.0000
# 6 0.0000 0.0000 0.0000 0.0000 0.0000 35.9767
#
#
#
# Elastic Compliance Matrix: (Units=1/GPa)
#
#
# Indices 1 2 3 4 5 6 
#
# 1 0.034024 -0.000848 -0.005867 0.000000 0.000000 0.000000
# 2 -0.000848 0.013040 -0.000041 0.000000 0.000000 0.000000
# 3 -0.005867 -0.000041 0.005659 0.000000 0.000000 0.000000
# 4 0.000000 0.000000 0.000000 0.008922 0.000000 0.000000
# 5 0.000000 0.000000 0.000000 0.000000 0.003721 0.000000
# 6 0.000000 0.000000 0.000000 0.000000 0.000000 0.027796
#
#
# Mechanical properties :
#
#
# Convention : Reuss Voigt Hill
#
# Bulk Modulus (GPa) = 25.50297 45.94828 35.72563
# Shear Modulus (GPa) = 41.75600 102.37811 72.06705
#
# Velocity S-wave (km/s) = 4.28719 6.71300 5.63225
# Velocity P-wave (km/s) = 5.97766 8.96165 7.61721
#
# Compressibility (1/GPa) = 0.03921111
#
# Stress axis : x y z
#
# Youngs Moduli (GPa) = 29.39133 76.68516 176.71775
#
# Poissons Ratio (x) = 0.06503 1.03676
# Poissons Ratio (y) = 0.02492 0.00725
# Poissons Ratio (z) = 0.17243 0.00315
#
# Static dielectric constant tensor:
#      x y z
#    x 1.833940 0.000000 0.000000 
#    y 0.000000 1.866020 0.000000 
#    z 0.000000 0.000000 1.886150 
# 
# From -- ./inp_files/28933.got.cif
#   From: 2010.05.17/outbox.cif.g08.bks.cpg/sg47_15_cif.got.tgz:28933.got - 2010.06.03 20:15:42.
