data_PCOD9381111
_publ_section_title
;
Structure prediction by ZEFSAII (Michael W. Deem and Ramdas Pophale) SiO2 
 PCOD9381111
Probable space group: I M A 2
;
_chemical_formula_sum "Si O2"
_cell_formula_units_Z 32
_cell_length_a 9.000000
_cell_length_b 21.000000
_cell_length_c 21.000000
_cell_angle_alpha 90.000000
_cell_angle_beta 90.000000
_cell_angle_gamma 90.000000
_cell_volume 3969.000000
_symmetry_space_group_name_H-M "I M A 2"
_symmetry_group_IT_number 46
_symmetry_cell_setting 'orthorhombic'
loop_
_space_group_symop_operation_xyz
x,y,z
-x,-y,z
1/2-x,y,z
1/2+x,-y,z
1/2+x,1/2+y,1/2+z
1/2-x,1/2-y,1/2+z
-x,1/2+y,1/2+z
x,1/2-y,1/2+z
loop_
_atom_site_type_symbol
_atom_site_label
_atom_site_fract_x
_atom_site_fract_y
_atom_site_fract_z
Si Si1 0.574714 0.066797 0.751010
Si Si2 0.930108 0.276610 0.635675
Si Si3 0.428543 0.931398 0.510741
Si Si4 0.922813 0.178785 0.847366
Si Si5 0.929205 0.862550 0.631566
Si Si6 0.928238 0.705702 0.772221
Si Si7 0.571818 0.653356 0.911357
Si Si8 0.927654 0.273985 0.484670
O O1 0.750000 0.061303 0.735164
O O2 0.561567 0.111690 0.812625
O O3 0.488596 0.096664 0.690943
O O4 0.500000 0.000000 0.764716
O O5 0.750000 0.275734 0.640495
O O6 0.963880 0.293735 0.559035
O O7 0.005091 0.207630 0.640716
O O8 0.993309 0.307887 0.702954
O O9 0.250000 0.931712 0.514396
O O10 0.498177 0.888668 0.566846
O O11 0.485523 0.904938 0.443153
O O12 0.500000 0.000000 0.520782
O O13 0.750000 0.199594 0.841150
O O14 0.953701 0.178540 0.923736
O O15 0.018307 0.227333 0.803850
O O16 0.750000 0.862810 0.628331
O O17 0.750000 0.706627 0.761878
O O18 0.958942 0.661683 0.835398
O O19 0.750000 0.648253 0.918752
O O20 0.514563 0.712868 0.955306
O O21 0.750000 0.259620 0.486196
#
# Coordination Sequence:
#
# PCOD9381111 Si02
#       8
#     8   8   8   8   8   8   8   8
#     4  11  22  35  51  71  99 135 174 211 249 297
#     4  11  20  31  50  76 104 135 169 204 251 305
#     4  12  24  38  54  73 100 136 175 212 252 300
#     4   9  18  33  51  70  95 129 168 209 252 297
#     4  12  23  35  50  71 103 137 173 212 247 292
#     4  10  20  32  50  74 102 132 166 207 253 300
#     4  10  20  34  51  74 100 131 169 211 253 299
#     4   9  18  32  51  73  98 129 165 208 254 304
#
# _framework density 8.0624839999999995
#
# number of rings (size 3 to 8) (size 9 to 14) (size 15 to 20)
#    0.000    1.500    2.500    4.125    0.000    2.500 
#    0.000    0.000    0.000    0.000    0.000    0.875 
#    0.000    4.000    0.000    0.000    0.000    0.000 
#
# Total GULP energy -178165.036088 kJ/mol
# GULP energy per Si atom -5567.657378 kJ/mol
# Density = 0.804413 g / cm^3
# Si number density = 8.062484 Si / 1000 Ang^3
#
#
#
# Elastic Constant Matrix: (Units=GPa)
#
#
# Indices 1 2 3 4 5 6 
#
# 1 98.3652 16.4786 43.4352 0.0000 0.0000 0.0000
# 2 16.4786 21.8431 8.6754 0.0000 0.0000 0.0000
# 3 43.4352 8.6754 136.6252 0.0000 0.0000 0.0000
# 4 0.0000 0.0000 0.0000 10.6621 0.0000 0.0000
# 5 0.0000 0.0000 0.0000 0.0000 32.3161 0.0000
# 6 0.0000 0.0000 0.0000 0.0000 0.0000 19.4760
#
#
#
# Elastic Compliance Matrix: (Units=1/GPa)
#
#
# Indices 1 2 3 4 5 6 
#
# 1 0.013207 -0.008511 -0.003658 0.000000 0.000000 0.000000
# 2 -0.008511 0.052450 -0.000625 0.000000 0.000000 0.000000
# 3 -0.003658 -0.000625 0.008522 0.000000 0.000000 0.000000
# 4 0.000000 0.000000 0.000000 0.093791 0.000000 0.000000
# 5 0.000000 0.000000 0.000000 0.000000 0.030944 0.000000
# 6 0.000000 0.000000 0.000000 0.000000 0.000000 0.051345
#
#
# Mechanical properties :
#
#
# Convention : Reuss Voigt Hill
#
# Bulk Modulus (GPa) = 20.57978 43.77909 32.17943
# Shear Modulus (GPa) = 17.12069 25.04046 21.08057
#
# Velocity S-wave (km/s) = 3.26199 3.94496 3.61962
# Velocity P-wave (km/s) = 5.19401 6.92525 6.12115
#
# Compressibility (1/GPa) = 0.04859139
#
# Stress axis : x y z
#
# Youngs Moduli (GPa) = 75.71507 19.06585 117.34301
#
# Poissons Ratio (x) = 0.16227 0.42929
# Poissons Ratio (y) = 0.64439 0.07331
# Poissons Ratio (z) = 0.27700 0.01191
#
# Static dielectric constant tensor:
#      x y z
#    x 1.541150 0.000000 0.000000 
#    y 0.000000 1.592350 0.000000 
#    z 0.000000 0.000000 1.585120 
# 
# From -- ./inp_files/18556.got.cif
#   From: 2010.05.17/outbox.ucp.g08.bks.cvg/sg46_10_cif.got.tgz:18556.got - 2010.06.11 16:34:52.
