data_PCOD9381617
_publ_section_title
;
Structure prediction by ZEFSAII (Michael W. Deem and Ramdas Pophale) SiO2 
 PCOD9381617
Probable space group: P M M M
;
_chemical_formula_sum "Si O2"
_cell_formula_units_Z 64
_cell_length_a 7.761233
_cell_length_b 21.132323
_cell_length_c 20.581919
_cell_angle_alpha 90.000000
_cell_angle_beta 90.000000
_cell_angle_gamma 90.000000
_cell_volume 3375.699865
_symmetry_space_group_name_H-M "P M M M"
_symmetry_group_IT_number 47
_symmetry_cell_setting 'orthorhombic'
loop_
_space_group_symop_operation_xyz
x,y,z
-x,-y,z
x,-y,-z
-x,y,-z
-x,-y,-z
x,y,-z
-x,y,z
x,-y,z
loop_
_atom_site_type_symbol
_atom_site_label
_atom_site_fract_x
_atom_site_fract_y
_atom_site_fract_z
Si Si1 0.206800 0.311532 0.339932
Si Si2 0.797911 0.247110 0.789745
Si Si3 0.699896 0.101231 0.788586
Si Si4 0.211211 0.193152 0.425196
Si Si5 0.290945 0.099662 0.929839
Si Si6 0.706753 0.428193 0.427363
Si Si7 0.706866 0.250299 0.069872
Si Si8 0.201464 0.068120 0.646226
O O1 0.265959 0.293013 0.267399
O O2 0.269443 0.255462 0.387168
O O3 0.250416 0.378355 0.371745
O O4 0.000000 0.308808 0.338458
O O5 0.709943 0.178066 0.787594
O O6 0.776399 0.274979 0.861950
O O7 0.000000 0.234062 0.778773
O O8 0.500000 0.082711 0.784977
O O9 0.770310 0.078364 0.858731
O O10 0.787862 0.076919 0.723725
O O11 0.263061 0.193870 0.500000
O O12 0.273754 0.130073 0.388732
O O13 0.000000 0.193442 0.423177
O O14 0.500000 0.092324 0.929205
O O15 0.254400 0.174985 0.930686
O O16 0.230351 0.074322 0.000000
O O17 0.768495 0.408396 0.500000
O O18 0.500000 0.430800 0.430534
O O19 0.768981 0.500000 0.415398
O O20 0.500000 0.255873 0.071619
O O21 0.767864 0.276040 0.000000
O O22 0.000000 0.066328 0.628314
O O23 0.278835 0.000000 0.628664
#
# Coordination Sequence:
#
# PCOD9381617 Si02
#       8
#     8   8   8   8   8   8   8   8
#     4  10  19  31  49  73 102 132 162 201 241 284
#     4  10  18  28  44  68  99 128 159 199 243 287
#     4  10  18  29  47  67  89 119 154 193 239 292
#     4   9  17  31  50  71  94 119 152 196 243 289
#     4   7  11  21  38  60  83 108 141 181 223 267
#     4   9  19  35  52  72 101 134 166 202 243 288
#     4   8  14  25  40  61  92 128 164 198 234 280
#     4  10  20  34  50  67  90 120 154 198 250 297
#
# _framework density 18.959031
#
# number of rings (size 3 to 8) (size 9 to 14) (size 15 to 20)
#    0.000    2.875    1.250    3.000    0.000    2.750 
#    0.000    1.875    0.000    1.875    0.000    3.500 
#    0.000    0.500    0.000    5.500    0.000    4.125 
#
# Total GULP energy -356676.304506 kJ/mol
# GULP energy per Si atom -5573.067258 kJ/mol
# Density = 1.891588 g / cm^3
# Si number density = 18.959031 Si / 1000 Ang^3
#
#
#
# Elastic Constant Matrix: (Units=GPa)
#
#
# Indices 1 2 3 4 5 6 
#
# 1 26.0080 2.4461 3.5519 0.0000 0.0000 0.0000
# 2 2.4461 86.0243 65.1297 0.0000 0.0000 0.0000
# 3 3.5519 65.1297 153.9659 0.0000 0.0000 0.0000
# 4 0.0000 0.0000 0.0000 16.1913 0.0000 0.0000
# 5 0.0000 0.0000 0.0000 0.0000 21.8186 0.0000
# 6 0.0000 0.0000 0.0000 0.0000 0.0000 19.9020
#
#
#
# Elastic Compliance Matrix: (Units=1/GPa)
#
#
# Indices 1 2 3 4 5 6 
#
# 1 0.038594 -0.000623 -0.000627 0.000000 0.000000 0.000000
# 2 -0.000623 0.017112 -0.007224 0.000000 0.000000 0.000000
# 3 -0.000627 -0.007224 0.009565 0.000000 0.000000 0.000000
# 4 0.000000 0.000000 0.000000 0.061762 0.000000 0.000000
# 5 0.000000 0.000000 0.000000 0.000000 0.045832 0.000000
# 6 0.000000 0.000000 0.000000 0.000000 0.000000 0.050246
#
#
# Mechanical properties :
#
#
# Convention : Reuss Voigt Hill
#
# Bulk Modulus (GPa) = 20.69393 45.36151 33.02772
# Shear Modulus (GPa) = 19.51853 24.57375 22.04614
#
# Velocity S-wave (km/s) = 3.21208 3.60411 3.41373
# Velocity P-wave (km/s) = 4.96945 6.42632 5.74425
#
# Compressibility (1/GPa) = 0.04832335
#
# Stress axis : x y z
#
# Youngs Moduli (GPa) = 25.91085 58.43919 104.54426
#
# Poissons Ratio (x) = 0.03639 0.06554
# Poissons Ratio (y) = 0.01614 0.75524
# Poissons Ratio (z) = 0.01624 0.42217
#
# Static dielectric constant tensor:
#      x y z
#    x 1.709350 0.000000 0.000000 
#    y 0.000000 1.649640 0.000000 
#    z 0.000000 0.000000 1.706820 
# 
# From -- ./inp_files/30026.got.cif
#   From: 2010.05.17/outbox.cif.g08.bks.cpg/sg47_16_cif.got.tgz:30026.got - 2010.06.03 20:15:42.
