data_PCOD9381957
_publ_section_title
;
Structure prediction by ZEFSAII (Michael W. Deem and Ramdas Pophale) SiO2 
 PCOD9381957
Probable space group: P M M M
;
_chemical_formula_sum "Si O2"
_cell_formula_units_Z 52
_cell_length_a 7.383259
_cell_length_b 28.889700
_cell_length_c 11.167208
_cell_angle_alpha 90.000000
_cell_angle_beta 90.000000
_cell_angle_gamma 90.000000
_cell_volume 2381.967002
_symmetry_space_group_name_H-M "P M M M"
_symmetry_group_IT_number 47
_symmetry_cell_setting 'orthorhombic'
loop_
_space_group_symop_operation_xyz
x,y,z
-x,-y,z
x,-y,-z
-x,y,-z
-x,-y,-z
x,y,-z
-x,y,z
x,-y,z
loop_
_atom_site_type_symbol
_atom_site_label
_atom_site_fract_x
_atom_site_fract_y
_atom_site_fract_z
Si Si1 0.721352 0.295525 0.363443
Si Si2 0.789811 0.903828 0.250434
Si Si3 0.221027 0.945780 0.000000
Si Si4 0.278403 0.554028 0.000000
Si Si5 0.699779 0.374194 0.199741
Si Si6 0.219600 0.054309 0.500000
Si Si7 0.785286 0.451067 0.359157
Si Si8 0.718241 0.811065 0.635130
O O1 0.776754 0.308742 0.500000
O O2 0.500000 0.297960 0.361878
O O3 0.786432 0.328110 0.254734
O O4 0.773306 0.242032 0.344686
O O5 0.715613 0.921778 0.123755
O O6 0.711715 0.924159 0.374919
O O7 0.780134 0.848687 0.269324
O O8 0.000000 0.918328 0.249767
O O9 0.000000 0.942861 0.000000
O O10 0.268912 0.000000 0.000000
O O11 0.220383 0.587327 0.890166
O O12 0.217275 0.500000 0.000000
O O13 0.500000 0.551685 0.000000
O O14 0.500000 0.362012 0.151840
O O15 0.686787 0.406156 0.315853
O O16 0.000000 0.060549 0.500000
O O17 0.257602 0.000000 0.500000
O O18 0.763047 0.454108 0.500000
O O19 0.721663 0.500000 0.304109
O O20 0.000000 0.446943 0.336076
O O21 0.779210 0.824260 0.500000
O O22 0.500000 0.811546 0.634571
#
# Coordination Sequence:
#
# PCOD9381957 Si02
#       8
#     8   8   4   4   8   4   8   8
#     4   8  15  28  47  71  95 120 154 198 245 289
#     4  10  18  30  50  75 100 128 168 211 245 289
#     4   9  18  32  50  73 103 137 167 201 254 305
#     4   9  18  30  44  67  97 123 149 191 242 279
#     4  10  18  30  49  69  90 119 158 198 232 274
#     4   9  16  26  45  73  99 123 159 209 250 279
#     4   9  18  31  45  64  93 122 145 179 233 290
#     4   9  17  31  50  71  99 131 159 195 249 302
#
# _framework density 21.830697000000001
#
# number of rings (size 3 to 8) (size 9 to 14) (size 15 to 20)
#    0.000    2.846    0.769    2.769    0.000    3.692 
#    0.000    3.077    0.000    6.923    0.000    0.000 
#    0.000    0.000    0.000    0.000    0.000    0.000 
#
# Total GULP energy -289748.486823 kJ/mol
# GULP energy per Si atom -5572.086285 kJ/mol
# Density = 2.178101 g / cm^3
# Si number density = 21.830697 Si / 1000 Ang^3
#
#
#
# Elastic Constant Matrix: (Units=GPa)
#
#
# Indices 1 2 3 4 5 6 
#
# 1 64.9545 -1.3174 11.9408 0.0000 0.0000 0.0000
# 2 -1.3174 145.8711 99.5417 0.0000 0.0000 0.0000
# 3 11.9408 99.5417 156.3425 0.0000 0.0000 0.0000
# 4 0.0000 0.0000 0.0000 36.8050 0.0000 0.0000
# 5 0.0000 0.0000 0.0000 0.0000 -1.4450 0.0000
# 6 0.0000 0.0000 0.0000 0.0000 0.0000 11.9244
#
#
#
# Elastic Compliance Matrix: (Units=1/GPa)
#
#
# Indices 1 2 3 4 5 6 
#
# 1 0.015853 0.001714 -0.002302 0.000000 0.000000 0.000000
# 2 0.001714 0.012307 -0.007967 0.000000 0.000000 0.000000
# 3 -0.002302 -0.007967 0.011645 0.000000 0.000000 0.000000
# 4 0.000000 0.000000 0.000000 0.027170 0.000000 0.000000
# 5 0.000000 0.000000 0.000000 0.000000 -0.692062 0.000000
# 6 0.000000 0.000000 0.000000 0.000000 0.000000 0.083862
#
#
# Mechanical properties :
#
#
# Convention : Reuss Voigt Hill
#
# Bulk Modulus (GPa) = 44.06175 65.27757 54.66966
# Shear Modulus (GPa) = -9.67961 26.59044 8.45541
#
# Velocity S-wave (km/s) = -2.10798 3.49381 1.97017
# Velocity P-wave (km/s) = 3.78186 6.80017 5.50203
#
# Compressibility (1/GPa) = 0.02269542
#
# Stress axis : x y z
#
# Youngs Moduli (GPa) = 63.07798 81.25152 85.87726
#
# Poissons Ratio (x) = -0.13928 0.19771
# Poissons Ratio (y) = -0.10813 0.68418
# Poissons Ratio (z) = 0.14522 0.64733
#
# Static dielectric constant tensor:
#      x y z
#    x 1.872280 0.000000 0.000000 
#    y 0.000000 1.816620 0.000000 
#    z 0.000000 0.000000 1.868380 
# 
# From -- ./inp_files/4645.got.cif
#   From: 2010.05.17/outbox.cif.g08.bks.cpg/sg47_3_cif.got.tgz:4645.got - 2010.06.03 20:15:42.
