data_PCOD9381740
_publ_section_title
;
Structure prediction by ZEFSAII (Michael W. Deem and Ramdas Pophale) SiO2 
 PCOD9381740
Probable space group: P M M M
;
_chemical_formula_sum "Si O2"
_cell_formula_units_Z 52
_cell_length_a 7.366113
_cell_length_b 17.146235
_cell_length_c 19.072947
_cell_angle_alpha 90.000000
_cell_angle_beta 90.000000
_cell_angle_gamma 90.000000
_cell_volume 2408.934273
_symmetry_space_group_name_H-M "P M M M"
_symmetry_group_IT_number 47
_symmetry_cell_setting 'orthorhombic'
loop_
_space_group_symop_operation_xyz
x,y,z
-x,-y,z
x,-y,-z
-x,y,-z
-x,-y,-z
x,y,-z
-x,y,z
x,-y,z
loop_
_atom_site_type_symbol
_atom_site_label
_atom_site_fract_x
_atom_site_fract_y
_atom_site_fract_z
Si Si1 0.720820 0.500000 0.419104
Si Si2 0.292716 0.829176 0.654239
Si Si3 0.721298 0.587860 0.799955
Si Si4 0.722099 0.659822 0.343486
Si Si5 0.283329 0.308552 0.078648
Si Si6 0.216521 0.165521 0.817971
Si Si7 0.722223 0.000000 0.333009
Si Si8 0.793140 0.000000 0.832465
O O1 0.500000 0.500000 0.413807
O O2 0.771613 0.500000 0.500000
O O3 0.779148 0.581535 0.384072
O O4 0.500000 0.830407 0.628855
O O5 0.213872 0.745238 0.631637
O O6 0.293970 0.824228 0.739691
O O7 0.218159 0.915720 0.636744
O O8 0.500000 0.587922 0.799454
O O9 0.779250 0.500000 0.785235
O O10 0.777111 0.644527 0.737042
O O11 0.783290 0.618980 0.874911
O O12 0.500000 0.662082 0.345724
O O13 0.500000 0.317233 0.073130
O O14 0.251238 0.234185 0.127932
O O15 0.210743 0.302001 0.000000
O O16 0.287068 0.083859 0.850025
O O17 0.000000 0.158348 0.807840
O O18 0.788325 0.000000 0.252602
O O19 0.500000 0.000000 0.331644
O O20 0.000000 0.000000 0.858606
#
# Coordination Sequence:
#
# PCOD9381740 Si02
#       8
#     4   8   8   8   8   8   4   4
#     4   9  16  24  36  64 102 128 147 176 215 256
#     4   9  15  25  42  63  87 114 145 181 223 264
#     4   9  15  25  43  64  83 105 139 179 218 259
#     4   9  14  22  39  61  86 118 146 174 213 254
#     4  10  20  32  45  62  84 110 143 185 227 267
#     4  10  18  29  45  63  85 112 144 182 226 269
#     4   8  14  22  36  61  86 108 140 182 220 260
#     4   8  16  28  41  59  82 110 141 176 220 272
#
# _framework density 21.586310000000001
#
# number of rings (size 3 to 8) (size 9 to 14) (size 15 to 20)
#    0.000    2.846    2.308    0.462    0.000    1.231 
#    0.000    1.923    0.000    2.769    0.000    1.615 
#    0.000    5.538    0.000    0.000    0.000   26.923 
#
# Total GULP energy -289761.321284 kJ/mol
# GULP energy per Si atom -5572.333102 kJ/mol
# Density = 2.153718 g / cm^3
# Si number density = 21.586310 Si / 1000 Ang^3
#
#
#
# Elastic Constant Matrix: (Units=GPa)
#
#
# Indices 1 2 3 4 5 6 
#
# 1 84.8774 -2.3562 -2.7789 0.0000 0.0000 0.0000
# 2 -2.3562 205.3622 24.4878 0.0000 0.0000 0.0000
# 3 -2.7789 24.4878 35.8564 0.0000 0.0000 0.0000
# 4 0.0000 0.0000 0.0000 8.8863 0.0000 0.0000
# 5 0.0000 0.0000 0.0000 0.0000 692.0718 0.0000
# 6 0.0000 0.0000 0.0000 0.0000 0.0000 23.9831
#
#
#
# Elastic Compliance Matrix: (Units=1/GPa)
#
#
# Indices 1 2 3 4 5 6 
#
# 1 0.011812 0.000029 0.000896 0.000000 0.000000 0.000000
# 2 0.000029 0.005301 -0.003618 0.000000 0.000000 0.000000
# 3 0.000896 -0.003618 0.030429 0.000000 0.000000 0.000000
# 4 0.000000 0.000000 0.000000 0.112532 0.000000 0.000000
# 5 0.000000 0.000000 0.000000 0.000000 0.001445 0.000000
# 6 0.000000 0.000000 0.000000 0.000000 0.000000 0.041696
#
#
# Mechanical properties :
#
#
# Convention : Reuss Voigt Hill
#
# Bulk Modulus (GPa) = 23.72189 40.53350 32.12769
# Shear Modulus (GPa) = 22.45626 165.43779 93.94703
#
# Velocity S-wave (km/s) = 3.22887 8.76393 6.60425
# Velocity P-wave (km/s) = 4.99139 11.01031 8.54812
#
# Compressibility (1/GPa) = 0.04215517
#
# Stress axis : x y z
#
# Youngs Moduli (GPa) = 84.66087 188.63598 32.86289
#
# Poissons Ratio (x) = -0.00541 -0.02944
# Poissons Ratio (y) = -0.00243 0.11890
# Poissons Ratio (z) = -0.07584 0.68252
#
# Static dielectric constant tensor:
#      x y z
#    x 1.988710 0.000000 0.000000 
#    y 0.000000 1.847670 0.000000 
#    z 0.000000 0.000000 1.725640 
# 
# From -- ./inp_files/26835.got.cif
#   From: 2010.05.17/outbox.cif.g08.bks.cpg/sg47_14_cif.got.tgz:26835.got - 2010.06.03 20:15:42.
