data_PCOD9381109
_publ_section_title
;
Structure prediction by ZEFSAII (Michael W. Deem and Ramdas Pophale) SiO2 
 PCOD9381109
Probable space group: I M A 2
;
_chemical_formula_sum "Si O2"
_cell_formula_units_Z 32
_cell_length_a 9.000000
_cell_length_b 30.000000
_cell_length_c 12.000000
_cell_angle_alpha 90.000000
_cell_angle_beta 90.000000
_cell_angle_gamma 90.000000
_cell_volume 3240.000000
_symmetry_space_group_name_H-M "I M A 2"
_symmetry_group_IT_number 46
_symmetry_cell_setting 'orthorhombic'
loop_
_space_group_symop_operation_xyz
x,y,z
-x,-y,z
1/2-x,y,z
1/2+x,-y,z
1/2+x,1/2+y,1/2+z
1/2-x,1/2-y,1/2+z
-x,1/2+y,1/2+z
x,1/2-y,1/2+z
loop_
_atom_site_type_symbol
_atom_site_label
_atom_site_fract_x
_atom_site_fract_y
_atom_site_fract_z
Si Si1 0.428428 0.869248 0.169190
Si Si2 0.923030 0.377736 0.414615
Si Si3 0.921384 0.065515 0.566133
Si Si4 0.423188 0.043225 0.788961
Si Si5 0.078525 0.300739 0.823862
Si Si6 0.079882 0.786679 0.778648
Si Si7 0.428639 0.545591 0.811307
Si Si8 0.419017 0.829177 0.541949
O O1 0.250000 0.868100 0.173148
O O2 0.488661 0.825541 0.227675
O O3 0.478574 0.911932 0.240487
O O4 0.472988 0.873056 0.041457
O O5 0.750000 0.392351 0.412828
O O6 0.929549 0.330861 0.352166
O O7 0.019346 0.413204 0.349893
O O8 0.750000 0.051175 0.585156
O O9 0.966526 0.052721 0.441276
O O10 0.923502 0.119041 0.574219
O O11 0.026276 0.047104 0.660928
O O12 0.250000 0.038696 0.796792
O O13 0.500000 0.000000 0.839904
O O14 0.250000 0.307840 0.805003
O O15 0.033832 0.249480 0.820975
O O16 0.029068 0.320234 0.942028
O O17 0.250000 0.769731 0.786681
O O18 0.051673 0.800072 0.650879
O O19 0.500000 0.500000 0.770830
O O20 0.250000 0.543152 0.804864
O O21 0.250000 0.819849 0.502896
#
# Coordination Sequence:
#
# PCOD9381109 Si02
#       8
#     8   8   8   8   8   8   8   8
#     4  10  22  43  66  88 119 164 212 252 299 365
#     4  10  22  43  68  91 117 156 211 261 306 362
#     4  10  19  38  64  91 123 156 204 258 304 357
#     4  12  25  40  62  91 127 164 204 251 306 369
#     4  12  26  40  60  93 132 163 199 253 307 363
#     4  10  22  41  66  92 119 160 209 255 305 368
#     4  10  21  37  60  89 121 156 197 251 303 358
#     4  10  20  40  68  91 119 159 207 253 301 366
#
# _framework density 9.8765429999999999
#
# number of rings (size 3 to 8) (size 9 to 14) (size 15 to 20)
#    0.000    1.500    2.500    2.625    1.750    4.500 
#    0.000    1.250    0.000    0.000    0.000    0.000 
#    0.000    0.000    0.000    0.000    0.000    0.000 
#
# Total GULP energy -178791.371428 kJ/mol
# GULP energy per Si atom -5587.230357 kJ/mol
# Density = 0.985406 g / cm^3
# Si number density = 9.876543 Si / 1000 Ang^3
#
#
#
# Elastic Constant Matrix: (Units=GPa)
#
#
# Indices 1 2 3 4 5 6 
#
# 1 26.4153 38.4037 43.7435 -0.0003 0.0000 0.0000
# 2 38.4037 55.5215 18.7388 -0.0001 0.0001 0.0000
# 3 43.7435 18.7388 82.6459 -0.0002 0.0001 0.0000
# 4 -0.0003 -0.0001 -0.0002 -28.9093 0.0002 0.0000
# 5 0.0000 0.0001 0.0001 0.0002 -2.9260 -0.0001
# 6 0.0000 0.0000 0.0000 0.0000 -0.0001 26.0750
#
#
#
# Elastic Compliance Matrix: (Units=1/GPa)
#
#
# Indices 1 2 3 4 5 6 
#
# 1 -0.079597 0.044222 0.032103 0.000000 0.000002 0.000000
# 2 0.044222 -0.005065 -0.022258 0.000000 -0.000001 0.000000
# 3 0.032103 -0.022258 0.000155 0.000000 -0.000001 0.000000
# 4 0.000000 0.000000 0.000000 -0.034591 -0.000003 0.000000
# 5 0.000002 -0.000001 -0.000001 -0.000003 -0.341769 -0.000001
# 6 0.000000 0.000000 0.000000 0.000000 -0.000001 0.038351
#
#
# Mechanical properties :
#
#
# Convention : Reuss Voigt Hill
#
# Bulk Modulus (GPa) = 42.32417 40.70610 41.51513
# Shear Modulus (GPa) = -9.56434 3.09439 -3.23497
#
# Velocity S-wave (km/s) = -2.20283 1.25297 -1.28112
# Velocity P-wave (km/s) = 3.87339 4.76922 4.34446
#
# Compressibility (1/GPa) = 0.02362716
#
# Stress axis : x y z
#
# Youngs Moduli (GPa) = -12.56323 -197.44802 6470.00151
#
# Poissons Ratio (x) = 8.73149 -207.70822
# Poissons Ratio (y) = 0.55557 144.00740
# Poissons Ratio (z) = 0.40332 -4.39474
#
# Static dielectric constant tensor:
#      x y z
#    x 1.670620 0.000000 0.000000 
#    y 0.000000 1.706420 0.000000 
#    z 0.000000 0.000000 1.673290 
# 
# From -- ./inp_files/9684.got.cif
#   From: 2010.05.17/outbox.ucp.g08.bks.cvg/sg46_5_cif.got.tgz:9684.got - 2010.06.11 16:34:52.
