data_PCOD9381024
_publ_section_title
;
Structure prediction by ZEFSAII (Michael W. Deem and Ramdas Pophale) SiO2 
 PCOD9381024
Probable space group: I M A 2
;
_chemical_formula_sum "Si O2"
_cell_formula_units_Z 32
_cell_length_a 14.648807
_cell_length_b 10.925056
_cell_length_c 7.630278
_cell_angle_alpha 90.000000
_cell_angle_beta 90.000000
_cell_angle_gamma 90.000000
_cell_volume 1221.142342
_symmetry_space_group_name_H-M "I M A 2"
_symmetry_group_IT_number 46
_symmetry_cell_setting 'orthorhombic'
loop_
_space_group_symop_operation_xyz
x,y,z
-x,-y,z
1/2-x,y,z
1/2+x,-y,z
1/2+x,1/2+y,1/2+z
1/2-x,1/2-y,1/2+z
-x,1/2+y,1/2+z
x,1/2-y,1/2+z
loop_
_atom_site_type_symbol
_atom_site_label
_atom_site_fract_x
_atom_site_fract_y
_atom_site_fract_z
Si Si1 0.854176 0.779916 0.329220
Si Si2 0.851664 0.327973 0.709909
Si Si3 0.969468 0.373749 0.033200
Si Si4 0.104670 0.046921 0.994138
O O1 0.750000 0.805562 0.389170
O O2 0.869493 0.860152 0.154334
O O3 0.864884 0.631095 0.330341
O O4 0.939879 0.818381 0.447793
O O5 0.750000 0.287386 0.754115
O O6 0.898213 0.395551 0.874250
O O7 0.919090 0.217797 0.662651
O O8 0.847443 0.420200 0.545785
O O9 0.000000 0.500000 0.114845
O O10 0.000000 0.000000 0.997883
#
# Coordination Sequence:
#
# PCOD9381024 Si02
#       4
#     8   8   8   8
#     4  12  23  43  73 106 144 192 240 295 362 429
#     4  12  25  48  75 106 147 195 242 299 366 434
#     4  12  25  47  72 108 144 191 242 306 361 432
#     4  12  24  47  73 106 148 194 240 302 361 429
#
# _framework density 26.204971
#
# number of rings (size 3 to 8) (size 9 to 14) (size 15 to 20)
#    0.000    0.000    7.500    3.000    0.000    1.000 
#    9.000    1.250    0.000    0.000    0.000    0.000 
#    0.000    0.000    0.000    0.000    0.000    0.000 
#
# Total GULP energy -89572.897981 kJ/mol
# GULP energy per Si atom -5598.306124 kJ/mol
# Density = 2.614533 g / cm^3
# Si number density = 26.204971 Si / 1000 Ang^3
#
#
#
# Elastic Constant Matrix: (Units=GPa)
#
#
# Indices 1 2 3 4 5 6 
#
# 1 246.5451 51.3930 44.0445 0.0000 0.0000 0.0000
# 2 51.3930 158.3967 41.0207 0.0000 0.0000 0.0000
# 3 44.0445 41.0207 75.2506 0.0000 0.0000 0.0000
# 4 0.0000 0.0000 0.0000 50.2246 0.0000 0.0000
# 5 0.0000 0.0000 0.0000 0.0000 21.6261 0.0000
# 6 0.0000 0.0000 0.0000 0.0000 0.0000 20.2061
#
#
#
# Elastic Compliance Matrix: (Units=1/GPa)
#
#
# Indices 1 2 3 4 5 6 
#
# 1 0.004646 -0.000935 -0.002209 0.000000 0.000000 0.000000
# 2 -0.000935 0.007539 -0.003562 0.000000 0.000000 0.000000
# 3 -0.002209 -0.003562 0.016524 0.000000 0.000000 0.000000
# 4 0.000000 0.000000 0.000000 0.019911 0.000000 0.000000
# 5 0.000000 0.000000 0.000000 0.000000 0.046240 0.000000
# 6 0.000000 0.000000 0.000000 0.000000 0.000000 0.049490
#
#
# Mechanical properties :
#
#
# Convention : Reuss Voigt Hill
#
# Bulk Modulus (GPa) = 65.38070 83.67875 74.52973
# Shear Modulus (GPa) = 30.70079 41.32698 36.01388
#
# Velocity S-wave (km/s) = 3.42652 3.97554 3.71120
# Velocity P-wave (km/s) = 6.37641 7.28525 6.84593
#
# Compressibility (1/GPa) = 0.01529503
#
# Stress axis : x y z
#
# Youngs Moduli (GPa) = 215.25356 132.63884 60.51788
#
# Poissons Ratio (x) = 0.12404 0.13371
# Poissons Ratio (y) = 0.20130 0.21559
# Poissons Ratio (z) = 0.47557 0.47252
#
# Static dielectric constant tensor:
#      x y z
#    x 2.036140 0.000000 0.000000 
#    y 0.000000 2.097870 0.000000 
#    z 0.000000 0.000000 2.167090 
# 
# From -- ./inp_files/5213.got.cif
#   From: 2010.05.17/outbox.cif.g08.bks.cpg/sg46_3_cif.got.tgz:5213.got - 2010.06.03 19:58:25.
