data_PCOD9381823
_publ_section_title
;
Structure prediction by ZEFSAII (Michael W. Deem and Ramdas Pophale) SiO2 
 PCOD9381823
Probable space group: P M M M
;
_chemical_formula_sum "Si O2"
_cell_formula_units_Z 64
_cell_length_a 20.867119
_cell_length_b 8.704067
_cell_length_c 20.505260
_cell_angle_alpha 90.000000
_cell_angle_beta 90.000000
_cell_angle_gamma 90.000000
_cell_volume 3724.345806
_symmetry_space_group_name_H-M "P M M M"
_symmetry_group_IT_number 47
_symmetry_cell_setting 'orthorhombic'
loop_
_space_group_symop_operation_xyz
x,y,z
-x,-y,z
x,-y,-z
-x,y,-z
-x,-y,-z
x,y,-z
-x,y,z
x,-y,z
loop_
_atom_site_type_symbol
_atom_site_label
_atom_site_fract_x
_atom_site_fract_y
_atom_site_fract_z
Si Si1 0.756717 0.685575 0.710610
Si Si2 0.612265 0.182957 0.291387
Si Si3 0.688324 0.814609 0.924942
Si Si4 0.603927 0.318993 0.428116
Si Si5 0.812336 0.183942 0.159345
Si Si6 0.074502 0.314923 0.925076
Si Si7 0.240647 0.318013 0.430603
Si Si8 0.429373 0.683208 0.156637
O O1 0.752212 0.500000 0.710681
O O2 0.684838 0.752548 0.716277
O O3 0.798961 0.742370 0.770427
O O4 0.782111 0.739497 0.639553
O O5 0.584774 0.235608 0.361578
O O6 0.575579 0.249921 0.229460
O O7 0.613757 0.000000 0.288615
O O8 0.752755 0.768625 0.886920
O O9 0.627080 0.751330 0.886933
O O10 0.685639 0.000000 0.924031
O O11 0.689703 0.763379 0.000000
O O12 0.581499 0.264655 0.500000
O O13 0.588429 0.500000 0.423042
O O14 0.681735 0.306255 0.429224
O O15 0.877141 0.238742 0.125152
O O16 0.811588 0.000000 0.165168
O O17 0.079819 0.500000 0.921026
O O18 0.000000 0.275140 0.913411
O O19 0.090237 0.270406 0.000000
O O20 0.218811 0.250028 0.500000
O O21 0.226262 0.500000 0.432171
O O22 0.500000 0.719284 0.129708
O O23 0.422119 0.500000 0.160183
#
# Coordination Sequence:
#
# PCOD9381823 Si02
#       8
#     8   8   8   8   8   8   8   8
#     4  10  18  29  48  72 100 136 175 213 254 301
#     4  11  20  31  49  73 101 131 164 207 261 314
#     4  10  22  39  57  78 104 133 164 204 259 316
#     4   8  14  26  45  68  95 129 166 203 246 299
#     4  11  21  33  52  80 111 142 174 211 256 305
#     4   9  19  36  56  78 106 142 182 219 255 299
#     4   7  11  21  38  62  92 126 164 204 245 289
#     4  11  24  40  57  75  95 126 171 217 261 314
#
# _framework density 17.184225000000001
#
# number of rings (size 3 to 8) (size 9 to 14) (size 15 to 20)
#    0.000    2.375    1.250    4.500    0.000    3.250 
#    0.000    1.875    0.000    1.500    0.000    2.625 
#    0.000    0.500    0.000    5.750    0.000    1.750 
#
# Total GULP energy -356894.368217 kJ/mol
# GULP energy per Si atom -5576.474503 kJ/mol
# Density = 1.714511 g / cm^3
# Si number density = 17.184225 Si / 1000 Ang^3
#
#
#
# Elastic Constant Matrix: (Units=GPa)
#
#
# Indices 1 2 3 4 5 6 
#
# 1 62.9859 17.7215 52.6057 0.0000 0.0000 0.0000
# 2 17.7215 22.5578 25.8217 0.0000 0.0000 0.0000
# 3 52.6057 25.8217 153.7760 0.0000 0.0000 0.0000
# 4 0.0000 0.0000 0.0000 21.2073 0.0000 0.0000
# 5 0.0000 0.0000 0.0000 0.0000 150.0172 0.0000
# 6 0.0000 0.0000 0.0000 0.0000 0.0000 28.2744
#
#
#
# Elastic Compliance Matrix: (Units=1/GPa)
#
#
# Indices 1 2 3 4 5 6 
#
# 1 0.024597 -0.011998 -0.006400 0.000000 0.000000 0.000000
# 2 -0.011998 0.060731 -0.006093 0.000000 0.000000 0.000000
# 3 -0.006400 -0.006093 0.009716 0.000000 0.000000 0.000000
# 4 0.000000 0.000000 0.000000 0.047154 0.000000 0.000000
# 5 0.000000 0.000000 0.000000 0.000000 0.006666 0.000000
# 6 0.000000 0.000000 0.000000 0.000000 0.000000 0.035368
#
#
# Mechanical properties :
#
#
# Convention : Reuss Voigt Hill
#
# Bulk Modulus (GPa) = 21.70999 47.95750 34.83374
# Shear Modulus (GPa) = 20.11521 49.44449 34.77985
#
# Velocity S-wave (km/s) = 3.42506 5.36988 4.50370
# Velocity P-wave (km/s) = 5.32001 8.14960 6.88180
#
# Compressibility (1/GPa) = 0.04606175
#
# Stress axis : x y z
#
# Youngs Moduli (GPa) = 40.65459 16.46595 102.92777
#
# Poissons Ratio (x) = 0.19756 0.65873
# Poissons Ratio (y) = 0.48777 0.62719
# Poissons Ratio (z) = 0.26019 0.10033
#
# Static dielectric constant tensor:
#      x y z
#    x 1.566900 0.000000 0.000000 
#    y 0.000000 1.577730 0.000000 
#    z 0.000000 0.000000 1.618550 
# 
# From -- ./inp_files/31351.got.cif
#   From: 2010.05.17/outbox.cif.g08.bks.cpg/sg47_16_cif.got.tgz:31351.got - 2010.06.03 20:15:42.
