data_PCOD9381046
_publ_section_title
;
Structure prediction by ZEFSAII (Michael W. Deem and Ramdas Pophale) SiO2 
 PCOD9381046
Probable space group: I M A 2
;
_chemical_formula_sum "Si O2"
_cell_formula_units_Z 56
_cell_length_a 8.001487
_cell_length_b 14.599777
_cell_length_c 23.711222
_cell_angle_alpha 90.000000
_cell_angle_beta 90.000000
_cell_angle_gamma 90.000000
_cell_volume 2769.943196
_symmetry_space_group_name_H-M "I M A 2"
_symmetry_group_IT_number 46
_symmetry_cell_setting 'orthorhombic'
loop_
_space_group_symop_operation_xyz
x,y,z
-x,-y,z
1/2-x,y,z
1/2+x,-y,z
1/2+x,1/2+y,1/2+z
1/2-x,1/2-y,1/2+z
-x,1/2+y,1/2+z
x,1/2-y,1/2+z
loop_
_atom_site_type_symbol
_atom_site_label
_atom_site_fract_x
_atom_site_fract_y
_atom_site_fract_z
Si Si1 0.548915 0.297507 0.917790
Si Si2 0.440290 0.856976 0.764701
Si Si3 0.951933 0.403204 0.681100
Si Si4 0.552415 0.605661 0.032779
Si Si5 0.951933 0.096796 0.884456
Si Si6 0.951084 0.202493 0.647767
Si Si7 0.440290 0.643024 0.800856
O O1 0.750000 0.295644 0.910763
O O2 0.491816 0.191416 0.913607
O O3 0.482482 0.353921 0.863194
O O4 0.510086 0.344245 0.976537
O O5 0.250000 0.893128 0.759738
O O6 0.520750 0.901317 0.819940
O O7 0.517519 0.853921 0.702362
O O8 0.428973 0.750000 0.782778
O O9 0.750000 0.399189 0.684108
O O10 0.008184 0.308584 0.651950
O O11 0.020750 0.401317 0.745617
O O12 0.000000 0.500000 0.654344
O O13 0.500000 0.500000 0.032778
O O14 0.750000 0.610153 0.032780
O O15 0.489909 0.655755 0.089020
O O16 0.750000 0.100811 0.881448
O O17 0.000000 0.000000 0.911212
O O18 0.750000 0.204356 0.654795
O O19 0.250000 0.606872 0.805819
#
# Coordination Sequence:
#
# PCOD9381046 Si02
#       7
#     8   8   8   8   8   8   8
#     4   9  18  36  58  78 106 143 181 220 263 310
#     4   7  12  26  49  75 103 137 173 209 253 303
#     4   9  17  30  52  82 114 145 175 212 260 315
#     4  12  26  42  59  78 101 132 175 224 270 316
#     4   9  17  30  52  82 114 145 175 212 260 315
#     4   9  18  36  58  78 106 143 181 220 263 310
#     4   7  12  26  49  75 103 137 173 209 253 303
#
# _framework density 20.217020999999999
#
# number of rings (size 3 to 8) (size 9 to 14) (size 15 to 20)
#    0.000    3.143    0.000    4.714    0.000    2.286 
#    0.000    5.000    0.000    5.143    0.000    0.000 
#    0.000    0.000    0.000    0.000    0.000    0.000 
#
# Total GULP energy -155920.057233 kJ/mol
# GULP energy per Si atom -5568.573473 kJ/mol
# Density = 2.017101 g / cm^3
# Si number density = 20.217021 Si / 1000 Ang^3
#
#
#
# Elastic Constant Matrix: (Units=GPa)
#
#
# Indices 1 2 3 4 5 6 
#
# 1 23.1798 5.2637 5.3299 0.0000 0.0000 0.0000
# 2 5.2637 131.5019 64.7255 0.0000 0.0000 0.0000
# 3 5.3299 64.7255 142.9354 0.0000 0.0000 0.0000
# 4 0.0000 0.0000 0.0000 21.4174 0.0000 0.0000
# 5 0.0000 0.0000 0.0000 0.0000 32.4457 0.0000
# 6 0.0000 0.0000 0.0000 0.0000 0.0000 21.3698
#
#
#
# Elastic Compliance Matrix: (Units=1/GPa)
#
#
# Indices 1 2 3 4 5 6 
#
# 1 0.043665 -0.001218 -0.001077 0.000000 0.000000 0.000000
# 2 -0.001218 0.009819 -0.004401 0.000000 0.000000 0.000000
# 3 -0.001077 -0.004401 0.009029 0.000000 0.000000 0.000000
# 4 0.000000 0.000000 0.000000 0.046691 0.000000 0.000000
# 5 0.000000 0.000000 0.000000 0.000000 0.030821 0.000000
# 6 0.000000 0.000000 0.000000 0.000000 0.000000 0.046795
#
#
# Mechanical properties :
#
#
# Convention : Reuss Voigt Hill
#
# Bulk Modulus (GPa) = 20.35731 49.80614 35.08172
# Shear Modulus (GPa) = 23.08551 29.86646 26.47599
#
# Velocity S-wave (km/s) = 3.38284 3.84773 3.62275
# Velocity P-wave (km/s) = 5.03482 6.66553 5.90672
#
# Compressibility (1/GPa) = 0.04912241
#
# Stress axis : x y z
#
# Youngs Moduli (GPa) = 22.90158 101.83873 110.75075
#
# Poissons Ratio (x) = 0.12402 0.11925
# Poissons Ratio (y) = 0.02789 0.48743
# Poissons Ratio (z) = 0.02466 0.44821
#
# Static dielectric constant tensor:
#      x y z
#    x 1.742480 0.000000 0.000000 
#    y 0.000000 1.724860 0.000000 
#    z 0.000000 0.000000 1.795520 
# 
# From -- ./inp_files/21072.got.cif
#   From: 2010.05.17/outbox.cif.g08.bks.cpg/sg46_11_cif.got.tgz:21072.got - 2010.06.03 19:58:25.
