data_PCOD9381965
_publ_section_title
;
Structure prediction by ZEFSAII (Michael W. Deem and Ramdas Pophale) SiO2 
 PCOD9381965
Probable space group: P M M M
;
_chemical_formula_sum "Si O2"
_cell_formula_units_Z 40
_cell_length_a 13.503416
_cell_length_b 7.854214
_cell_length_c 20.037183
_cell_angle_alpha 90.000000
_cell_angle_beta 90.000000
_cell_angle_gamma 90.000000
_cell_volume 2125.117961
_symmetry_space_group_name_H-M "P M M M"
_symmetry_group_IT_number 47
_symmetry_cell_setting 'orthorhombic'
loop_
_space_group_symop_operation_xyz
x,y,z
-x,-y,z
x,-y,-z
-x,y,-z
-x,-y,-z
x,y,-z
-x,y,z
x,-y,z
loop_
_atom_site_type_symbol
_atom_site_label
_atom_site_fract_x
_atom_site_fract_y
_atom_site_fract_z
Si Si1 0.215162 0.709290 0.825491
Si Si2 0.388031 0.707791 0.076507
Si Si3 0.000000 0.306160 0.834113
Si Si4 0.389160 0.794748 0.423592
Si Si5 0.209505 0.701836 0.672030
Si Si6 0.000000 0.806888 0.313944
O O1 0.213334 0.500000 0.825940
O O2 0.304767 0.765795 0.872085
O O3 0.107142 0.769099 0.851065
O O4 0.227072 0.762715 0.748308
O O5 0.500000 0.761056 0.094034
O O6 0.387327 0.500000 0.077405
O O7 0.367988 0.759102 0.000000
O O8 0.000000 0.500000 0.859254
O O9 0.000000 0.307400 0.752850
O O10 0.372133 0.737093 0.500000
O O11 0.500000 0.736817 0.403263
O O12 0.301637 0.742114 0.374839
O O13 0.390917 0.000000 0.424530
O O14 0.197952 0.500000 0.674639
O O15 0.103298 0.774867 0.649009
O O16 0.000000 0.000000 0.289577
#
# Coordination Sequence:
#
# PCOD9381965 Si02
#       6
#     8   8   4   8   8   4
#     4   8  14  24  38  57  84 116 147 183 228 272
#     4   8  13  21  33  51  80 118 153 182 218 269
#     4   8  14  26  41  59  87 118 145 182 233 279
#     4   9  19  36  54  71  96 129 160 192 233 280
#     4  10  19  31  49  73  99 124 155 198 241 282
#     4  10  18  30  49  70  95 127 159 191 233 286
#
# _framework density 18.822483999999999
#
# number of rings (size 3 to 8) (size 9 to 14) (size 15 to 20)
#    0.000    3.200    0.000    3.900    0.000    1.600 
#    0.000    4.000    0.000    6.000    0.000    0.000 
#    0.000   32.800    0.000   57.200    0.000   51.600 
#
# Total GULP energy -222781.624878 kJ/mol
# GULP energy per Si atom -5569.540622 kJ/mol
# Density = 1.877964 g / cm^3
# Si number density = 18.822484 Si / 1000 Ang^3
#
#
#
# Elastic Constant Matrix: (Units=GPa)
#
#
# Indices 1 2 3 4 5 6 
#
# 1 225.0341 13.3596 106.9815 0.0000 0.0000 0.0000
# 2 13.3596 32.9022 8.4124 0.0000 0.0000 0.0000
# 3 106.9815 8.4124 76.6884 0.0000 0.0000 0.0000
# 4 0.0000 0.0000 0.0000 78.1916 0.0000 0.0000
# 5 0.0000 0.0000 0.0000 0.0000 -27.3381 0.0000
# 6 0.0000 0.0000 0.0000 0.0000 0.0000 16.8841
#
#
#
# Elastic Compliance Matrix: (Units=1/GPa)
#
#
# Indices 1 2 3 4 5 6 
#
# 1 0.013208 -0.000671 -0.018352 0.000000 0.000000 0.000000
# 2 -0.000671 0.031304 -0.002498 0.000000 0.000000 0.000000
# 3 -0.018352 -0.002498 0.038915 0.000000 0.000000 0.000000
# 4 0.000000 0.000000 0.000000 0.012789 0.000000 0.000000
# 5 0.000000 0.000000 0.000000 0.000000 -0.036579 0.000000
# 6 0.000000 0.000000 0.000000 0.000000 0.000000 0.059227
#
#
# Mechanical properties :
#
#
# Convention : Reuss Voigt Hill
#
# Bulk Modulus (GPa) = 24.76126 65.79240 45.27683
# Shear Modulus (GPa) = 28.51138 27.27228 27.89183
#
# Velocity S-wave (km/s) = 3.89620 3.81060 3.85364
# Velocity P-wave (km/s) = 5.78137 7.37502 6.62628
#
# Compressibility (1/GPa) = 0.04038566
#
# Stress axis : x y z
#
# Youngs Moduli (GPa) = 75.71075 31.94455 25.69693
#
# Poissons Ratio (x) = 0.02143 0.47159
# Poissons Ratio (y) = 0.05079 0.06419
# Poissons Ratio (z) = 1.38944 0.07980
#
# Static dielectric constant tensor:
#      x y z
#    x 1.681230 0.000000 0.000000 
#    y 0.000000 1.695840 0.000000 
#    z 0.000000 0.000000 1.621550 
# 
# From -- ./inp_files/30348.got.cif
#   From: 2010.05.17/outbox.cif.g08.bks.cpg/sg47_16_cif.got.tgz:30348.got - 2010.06.03 20:15:42.
