data_PCOD9381925
_publ_section_title
;
Structure prediction by ZEFSAII (Michael W. Deem and Ramdas Pophale) SiO2 
 PCOD9381925
Probable space group: P M M M
;
_chemical_formula_sum "Si O2"
_cell_formula_units_Z 52
_cell_length_a 7.921901
_cell_length_b 29.206229
_cell_length_c 12.328262
_cell_angle_alpha 90.000000
_cell_angle_beta 90.000000
_cell_angle_gamma 90.000000
_cell_volume 2852.375860
_symmetry_space_group_name_H-M "P M M M"
_symmetry_group_IT_number 47
_symmetry_cell_setting 'orthorhombic'
loop_
_space_group_symop_operation_xyz
x,y,z
-x,-y,z
x,-y,-z
-x,y,-z
-x,-y,-z
x,y,-z
-x,y,z
x,-y,z
loop_
_atom_site_type_symbol
_atom_site_label
_atom_site_fract_x
_atom_site_fract_y
_atom_site_fract_z
Si Si1 0.705597 0.256561 0.000000
Si Si2 0.802515 0.152145 0.000000
Si Si3 0.794108 0.050874 0.374519
Si Si4 0.701025 0.500000 0.123560
Si Si5 0.297786 0.306910 0.219225
Si Si6 0.703819 0.228533 0.376412
Si Si7 0.204746 0.138332 0.760551
Si Si8 0.199629 0.400544 0.124849
O O1 0.784051 0.206718 0.000000
O O2 0.759563 0.283183 0.107433
O O3 0.500000 0.252791 0.000000
O O4 0.730359 0.136897 0.115811
O O5 0.000000 0.139108 0.000000
O O6 0.743742 0.056436 0.500000
O O7 0.735664 0.093729 0.304554
O O8 0.000000 0.051299 0.372550
O O9 0.741106 0.000000 0.337791
O O10 0.500000 0.500000 0.119724
O O11 0.755787 0.548993 0.168593
O O12 0.770614 0.500000 0.000000
O O13 0.500000 0.303819 0.221882
O O14 0.235165 0.275344 0.318139
O O15 0.255407 0.359995 0.204114
O O16 0.766611 0.223416 0.500000
O O17 0.500000 0.230428 0.381049
O O18 0.747692 0.184940 0.301751
O O19 0.000000 0.137598 0.763853
O O20 0.000000 0.397614 0.115273
O O21 0.271102 0.395420 0.000000
#
# Coordination Sequence:
#
# PCOD9381925 Si02
#       8
#     4   4   8   4   8   8   8   8
#     4  10  18  30  48  66  88 125 168 196 226 282
#     4  10  20  30  43  68  99 125 154 194 237 282
#     4   8  14  26  45  67  89 117 157 201 241 283
#     4   9  17  29  45  65  94 131 166 197 233 281
#     4  10  19  31  47  67  92 123 160 195 231 282
#     4  10  21  35  50  70  96 125 159 200 242 284
#     4  10  19  31  48  70  96 125 157 194 238 288
#     4  10  19  29  44  68  98 128 159 197 239 279
#
# _framework density 18.230416999999999
#
# number of rings (size 3 to 8) (size 9 to 14) (size 15 to 20)
#    0.000    2.385    2.308    1.615    0.000    3.692 
#    0.000    0.385    0.000    2.769    0.000    2.692 
#    0.000    6.154    0.000    0.000    0.000    0.000 
#
# Total GULP energy -289852.800475 kJ/mol
# GULP energy per Si atom -5574.092317 kJ/mol
# Density = 1.818892 g / cm^3
# Si number density = 18.230417 Si / 1000 Ang^3
#
#
#
# Elastic Constant Matrix: (Units=GPa)
#
#
# Indices 1 2 3 4 5 6 
#
# 1 15.0288 1.6725 10.9387 0.0000 0.0000 0.0000
# 2 1.6725 167.5203 80.0299 0.0000 0.0000 0.0000
# 3 10.9387 80.0299 122.0826 0.0000 0.0000 0.0000
# 4 0.0000 0.0000 0.0000 12.1718 0.0000 0.0000
# 5 0.0000 0.0000 0.0000 0.0000 6.9537 0.0000
# 6 0.0000 0.0000 0.0000 0.0000 0.0000 25.6399
#
#
#
# Elastic Compliance Matrix: (Units=1/GPa)
#
#
# Indices 1 2 3 4 5 6 
#
# 1 0.072538 0.003466 -0.008772 0.000000 0.000000 0.000000
# 2 0.003466 0.008857 -0.006117 0.000000 0.000000 0.000000
# 3 -0.008772 -0.006117 0.012987 0.000000 0.000000 0.000000
# 4 0.000000 0.000000 0.000000 0.082157 0.000000 0.000000
# 5 0.000000 0.000000 0.000000 0.000000 0.143809 0.000000
# 6 0.000000 0.000000 0.000000 0.000000 0.000000 0.039002
#
#
# Mechanical properties :
#
#
# Convention : Reuss Voigt Hill
#
# Bulk Modulus (GPa) = 13.97873 54.43488 34.20680
# Shear Modulus (GPa) = 12.31410 23.08579 17.69994
#
# Velocity S-wave (km/s) = 2.60180 3.56242 3.11931
# Velocity P-wave (km/s) = 4.08782 6.84436 5.63718
#
# Compressibility (1/GPa) = 0.07153725
#
# Stress axis : x y z
#
# Youngs Moduli (GPa) = 13.78595 112.90580 77.00107
#
# Poissons Ratio (x) = -0.39137 0.67543
# Poissons Ratio (y) = -0.04779 0.47099
# Poissons Ratio (z) = 0.12093 0.69061
#
# Static dielectric constant tensor:
#      x y z
#    x 1.661990 0.000000 0.000000 
#    y 0.000000 1.634850 0.000000 
#    z 0.000000 0.000000 1.641900 
# 
# From -- ./inp_files/15582.got.cif
#   From: 2010.05.17/outbox.cif.g08.bks.cpg/sg47_8_cif.got.tgz:15582.got - 2010.06.03 20:15:42.
