data_PCOD9381302
_publ_section_title
;
Structure prediction by ZEFSAII (Michael W. Deem and Ramdas Pophale) SiO2 
 PCOD9381302
Probable space group: P M M M
;
_chemical_formula_sum "Si O2"
_cell_formula_units_Z 64
_cell_length_a 21.281052
_cell_length_b 7.350339
_cell_length_c 20.563452
_cell_angle_alpha 90.000000
_cell_angle_beta 90.000000
_cell_angle_gamma 90.000000
_cell_volume 3216.595752
_symmetry_space_group_name_H-M "P M M M"
_symmetry_group_IT_number 47
_symmetry_cell_setting 'orthorhombic'
loop_
_space_group_symop_operation_xyz
x,y,z
-x,-y,z
x,-y,-z
-x,y,-z
-x,-y,-z
x,y,-z
-x,y,z
x,-y,z
loop_
_atom_site_type_symbol
_atom_site_label
_atom_site_fract_x
_atom_site_fract_y
_atom_site_fract_z
Si Si1 0.747105 0.218274 0.930585
Si Si2 0.815661 0.788764 0.338801
Si Si3 0.604269 0.219909 0.212348
Si Si4 0.432605 0.287489 0.357145
Si Si5 0.249211 0.777367 0.210323
Si Si6 0.071640 0.778029 0.425789
Si Si7 0.403985 0.781925 0.070669
Si Si8 0.694189 0.279668 0.575145
O O1 0.772162 0.283016 0.861381
O O2 0.671590 0.246183 0.929208
O O3 0.755589 0.000000 0.931295
O O4 0.770646 0.289173 0.000000
O O5 0.792349 0.711467 0.270137
O O6 0.876085 0.711593 0.375613
O O7 0.755943 0.781029 0.386642
O O8 0.830412 0.000000 0.326173
O O9 0.572276 0.276003 0.279078
O O10 0.677614 0.275543 0.218041
O O11 0.576794 0.283330 0.142604
O O12 0.602739 0.000000 0.210170
O O13 0.500000 0.208834 0.377508
O O14 0.433464 0.500000 0.375016
O O15 0.369115 0.213058 0.389120
O O16 0.249467 0.000000 0.211227
O O17 0.086240 0.722416 0.500000
O O18 0.000000 0.724552 0.410772
O O19 0.073112 0.000000 0.425773
O O20 0.415327 0.000000 0.069875
O O21 0.426781 0.713116 0.000000
O O22 0.695268 0.223837 0.500000
O O23 0.694625 0.500000 0.577226
#
# Coordination Sequence:
#
# PCOD9381302 Si02
#       8
#     8   8   8   8   8   8   8   8
#     4   7   9  14  25  45  77 110 131 153 193 239
#     4  10  17  27  46  69  91 112 137 173 213 248
#     4   9  15  26  44  64  85 106 132 170 212 250
#     4  10  21  35  48  61  79 106 139 173 211 257
#     4   8  13  20  34  59  85 105 130 167 206 242
#     4   8  14  24  38  59  87 117 146 171 198 239
#     4   7  10  17  33  58  83 105 129 159 198 242
#     4  10  21  35  49  65  84 106 135 172 212 255
#
# _framework density 19.896813000000002
#
# number of rings (size 3 to 8) (size 9 to 14) (size 15 to 20)
#    0.000    3.375    1.250    3.000    0.000    1.250 
#    0.000    1.250    0.000    1.125    0.000    6.125 
#    0.000    1.000    0.000    7.000    0.000    0.250 
#
# Total GULP energy -356750.091545 kJ/mol
# GULP energy per Si atom -5574.220180 kJ/mol
# Density = 1.985153 g / cm^3
# Si number density = 19.896813 Si / 1000 Ang^3
#
#
#
# Elastic Constant Matrix: (Units=GPa)
#
#
# Indices 1 2 3 4 5 6 
#
# 1 103.3969 1.2653 73.9284 0.0000 0.0000 0.0000
# 2 1.2653 71.0643 -3.5442 0.0000 0.0000 0.0000
# 3 73.9284 -3.5442 163.9466 0.0000 0.0000 0.0000
# 4 0.0000 0.0000 0.0000 7.8125 0.0000 0.0000
# 5 0.0000 0.0000 0.0000 0.0000 72.4516 0.0000
# 6 0.0000 0.0000 0.0000 0.0000 0.0000 1.1301
#
#
#
# Elastic Compliance Matrix: (Units=1/GPa)
#
#
# Indices 1 2 3 4 5 6 
#
# 1 0.014297 -0.000577 -0.006459 0.000000 0.000000 0.000000
# 2 -0.000577 0.014110 0.000565 0.000000 0.000000 0.000000
# 3 -0.006459 0.000565 0.009025 0.000000 0.000000 0.000000
# 4 0.000000 0.000000 0.000000 0.128000 0.000000 0.000000
# 5 0.000000 0.000000 0.000000 0.000000 0.013802 0.000000
# 6 0.000000 0.000000 0.000000 0.000000 0.000000 0.884846
#
#
# Mechanical properties :
#
#
# Convention : Reuss Voigt Hill
#
# Bulk Modulus (GPa) = 40.83356 53.52298 47.17827
# Shear Modulus (GPa) = 4.60751 34.06273 19.33512
#
# Velocity S-wave (km/s) = 1.52339 4.14208 3.12070
# Velocity P-wave (km/s) = 4.86431 7.05935 6.06201
#
# Compressibility (1/GPa) = 0.02448966
#
# Stress axis : x y z
#
# Youngs Moduli (GPa) = 69.94481 70.87061 110.80946
#
# Poissons Ratio (x) = 0.04087 0.71576
# Poissons Ratio (y) = 0.04034 -0.06262
# Poissons Ratio (z) = 0.45180 -0.04005
#
# Static dielectric constant tensor:
#      x y z
#    x 1.675640 0.000000 0.000000 
#    y 0.000000 1.800890 0.000000 
#    z 0.000000 0.000000 1.741920 
# 
# From -- ./inp_files/31511.got.cif
#   From: 2010.05.17/outbox.cif.g08.bks.cpg/sg47_16_cif.got.tgz:31511.got - 2010.06.03 20:15:42.
