data_PCOD9381621
_publ_section_title
;
Structure prediction by ZEFSAII (Michael W. Deem and Ramdas Pophale) SiO2 
 PCOD9381621
Probable space group: P M M M
;
_chemical_formula_sum "Si O2"
_cell_formula_units_Z 64
_cell_length_a 7.741133
_cell_length_b 15.237485
_cell_length_c 29.417878
_cell_angle_alpha 90.000000
_cell_angle_beta 90.000000
_cell_angle_gamma 90.000000
_cell_volume 3469.997507
_symmetry_space_group_name_H-M "P M M M"
_symmetry_group_IT_number 47
_symmetry_cell_setting 'orthorhombic'
loop_
_space_group_symop_operation_xyz
x,y,z
-x,-y,z
x,-y,-z
-x,y,-z
-x,-y,-z
x,y,-z
-x,y,z
x,-y,z
loop_
_atom_site_type_symbol
_atom_site_label
_atom_site_fract_x
_atom_site_fract_y
_atom_site_fract_z
Si Si1 0.289406 0.401180 0.188134
Si Si2 0.708020 0.397404 0.548915
Si Si3 0.705786 0.722164 0.732228
Si Si4 0.203369 0.399728 0.351283
Si Si5 0.709031 0.598493 0.083552
Si Si6 0.795362 0.215001 0.950757
Si Si7 0.791361 0.101666 0.133635
Si Si8 0.704032 0.902248 0.762817
O O1 0.500000 0.399061 0.188023
O O2 0.238808 0.500000 0.201555
O O3 0.224119 0.332142 0.224676
O O4 0.235860 0.386815 0.136071
O O5 0.766709 0.359767 0.500000
O O6 0.500000 0.395094 0.548907
O O7 0.761575 0.500000 0.548945
O O8 0.766148 0.363535 0.597765
O O9 0.500000 0.729209 0.739283
O O10 0.730096 0.665515 0.687085
O O11 0.775579 0.821338 0.733610
O O12 0.276755 0.500000 0.348044
O O13 0.000000 0.406776 0.344562
O O14 0.500000 0.598950 0.082352
O O15 0.764510 0.500000 0.069863
O O16 0.772110 0.680935 0.055272
O O17 0.725686 0.164585 0.906476
O O18 0.000000 0.196218 0.951407
O O19 0.723406 0.188052 0.000000
O O20 0.723060 0.122345 0.183916
O O21 0.000000 0.108049 0.136093
O O22 0.747382 0.000000 0.123751
O O23 0.500000 0.909427 0.753255
O O24 0.780107 0.000000 0.756760
#
# Coordination Sequence:
#
# PCOD9381621 Si02
#       8
#     8   8   8   8   8   8   8   8
#     4   8  14  25  42  63  83 106 141 179 210 247
#     4   8  14  26  44  63  84 117 162 203 233 266
#     4  10  18  28  45  65  88 121 153 181 219 268
#     4  10  20  30  40  61  95 129 159 194 233 267
#     4   9  18  33  51  68  86 111 146 184 218 257
#     4  10  21  34  47  66  91 116 142 175 216 260
#     4   9  18  33  52  71  90 114 143 174 213 265
#     4   9  18  32  50  72  94 115 144 184 227 268
#
# _framework density 18.443818
#
# number of rings (size 3 to 8) (size 9 to 14) (size 15 to 20)
#    0.000    2.875    0.000    2.625    0.000    4.500 
#    0.000    4.375    0.000    0.750    0.000    2.625 
#    0.000    0.500    0.000    5.750    0.000    1.875 
#
# Total GULP energy -356721.910112 kJ/mol
# GULP energy per Si atom -5573.779846 kJ/mol
# Density = 1.840184 g / cm^3
# Si number density = 18.443818 Si / 1000 Ang^3
#
#
#
# Elastic Constant Matrix: (Units=GPa)
#
#
# Indices 1 2 3 4 5 6 
#
# 1 24.4702 3.0267 -5.1260 0.0000 0.0000 0.0000
# 2 3.0267 88.7726 58.5548 0.0000 0.0000 0.0000
# 3 -5.1260 58.5548 65.4531 0.0000 0.0000 0.0000
# 4 0.0000 0.0000 0.0000 13.2532 0.0000 0.0000
# 5 0.0000 0.0000 0.0000 0.0000 12.7545 0.0000
# 6 0.0000 0.0000 0.0000 0.0000 0.0000 10.5072
#
#
#
# Elastic Compliance Matrix: (Units=1/GPa)
#
#
# Indices 1 2 3 4 5 6 
#
# 1 0.044491 -0.009307 0.011811 0.000000 0.000000 0.000000
# 2 -0.009307 0.029428 -0.027055 0.000000 0.000000 0.000000
# 3 0.011811 -0.027055 0.040407 0.000000 0.000000 0.000000
# 4 0.000000 0.000000 0.000000 0.075454 0.000000 0.000000
# 5 0.000000 0.000000 0.000000 0.000000 0.078404 0.000000
# 6 0.000000 0.000000 0.000000 0.000000 0.000000 0.095173
#
#
# Mechanical properties :
#
#
# Convention : Reuss Voigt Hill
#
# Bulk Modulus (GPa) = 15.33211 32.40074 23.86643
# Shear Modulus (GPa) = 11.51541 15.45234 13.48387
#
# Velocity S-wave (km/s) = 2.50141 2.89763 2.70678
# Velocity P-wave (km/s) = 4.08334 5.36660 4.76834
#
# Compressibility (1/GPa) = 0.06522259
#
# Stress axis : x y z
#
# Youngs Moduli (GPa) = 22.47624 33.98141 24.74821
#
# Poissons Ratio (x) = 0.31628 -0.29230
# Poissons Ratio (y) = 0.20920 0.66957
# Poissons Ratio (z) = -0.26546 0.91938
#
# Static dielectric constant tensor:
#      x y z
#    x 1.683240 0.000000 0.000000 
#    y 0.000000 1.657340 0.000000 
#    z 0.000000 0.000000 1.648400 
# 
# From -- ./inp_files/22198.got.cif
#   From: 2010.05.17/outbox.cif.g08.bks.cpg/sg47_12_cif.got.tgz:22198.got - 2010.06.03 20:15:42.
