data_PCOD9381811
_publ_section_title
;
Structure prediction by ZEFSAII (Michael W. Deem and Ramdas Pophale) SiO2 
 PCOD9381811
Probable space group: P M M M
;
_chemical_formula_sum "Si O2"
_cell_formula_units_Z 60
_cell_length_a 26.264289
_cell_length_b 15.267932
_cell_length_c 7.354187
_cell_angle_alpha 90.000000
_cell_angle_beta 90.000000
_cell_angle_gamma 90.000000
_cell_volume 2949.039125
_symmetry_space_group_name_H-M "P M M M"
_symmetry_group_IT_number 47
_symmetry_cell_setting 'orthorhombic'
loop_
_space_group_symop_operation_xyz
x,y,z
-x,-y,z
x,-y,-z
-x,y,-z
-x,-y,-z
x,y,-z
-x,y,z
x,-y,z
loop_
_atom_site_type_symbol
_atom_site_label
_atom_site_fract_x
_atom_site_fract_y
_atom_site_fract_z
Si Si1 0.752683 0.099189 0.217720
Si Si2 0.795159 0.405673 0.217488
Si Si3 0.157947 0.222760 0.778129
Si Si4 0.325688 0.405395 0.283679
Si Si5 0.443056 0.100977 0.278438
Si Si6 0.348245 0.214170 0.282481
Si Si7 0.941956 0.694446 0.777747
Si Si8 0.937939 0.500000 0.790834
O O1 0.804565 0.145848 0.284028
O O2 0.704102 0.161184 0.252122
O O3 0.745506 0.000000 0.286586
O O4 0.756872 0.093737 0.000000
O O5 0.814932 0.500000 0.285286
O O6 0.818419 0.315386 0.283318
O O7 0.735078 0.403139 0.255521
O O8 0.802221 0.405630 0.000000
O O9 0.098929 0.232177 0.724877
O O10 0.159062 0.220465 0.000000
O O11 0.335027 0.406061 0.500000
O O12 0.343850 0.500000 0.211823
O O13 0.345985 0.313343 0.210634
O O14 0.442393 0.101743 0.500000
O O15 0.500000 0.128673 0.223182
O O16 0.396722 0.160277 0.213901
O O17 0.435596 0.000000 0.223686
O O18 0.353502 0.220280 0.500000
O O19 0.925207 0.596324 0.716236
O O20 0.000000 0.710172 0.720291
O O21 0.942270 0.690181 0.000000
O O22 0.000000 0.500000 0.793610
O O23 0.919591 0.500000 0.000000
#
# Coordination Sequence:
#
# PCOD9381811 Si02
#       8
#     8   8   8   8   8   8   8   4
#     4  10  20  32  44  61  88 117 141 173 222 267
#     4   9  16  25  39  59  82 109 143 178 206 243
#     4   9  16  25  37  54  79 110 140 170 209 258
#     4   9  17  28  41  60  89 119 142 169 208 249
#     4   8  14  25  42  65  89 110 138 180 222 251
#     4  10  18  29  48  69  88 114 148 179 206 248
#     4   8  13  20  31  48  72 103 136 167 202 247
#     4   7  10  16  26  44  70  98 127 161 204 247
#
# _framework density 20.345610000000001
#
# number of rings (size 3 to 8) (size 9 to 14) (size 15 to 20)
#    0.000    3.133    1.333    1.600    0.933    0.800 
#    0.000    0.000    0.000    1.200    0.000    7.467 
#    0.000    2.133    0.000    9.067    0.000    9.733 
#
# Total GULP energy -334550.611380 kJ/mol
# GULP energy per Si atom -5575.843523 kJ/mol
# Density = 2.029930 g / cm^3
# Si number density = 20.345610 Si / 1000 Ang^3
#
#
#
# Elastic Constant Matrix: (Units=GPa)
#
#
# Indices 1 2 3 4 5 6 
#
# 1 133.1314 87.5870 -1.1379 0.0000 0.0000 0.0000
# 2 87.5870 157.7632 7.4306 0.0000 0.0000 0.0000
# 3 -1.1379 7.4306 76.5931 0.0000 0.0000 0.0000
# 4 0.0000 0.0000 0.0000 -1.2074 0.0000 0.0000
# 5 0.0000 0.0000 0.0000 0.0000 4.4269 0.0000
# 6 0.0000 0.0000 0.0000 0.0000 0.0000 38.3235
#
#
#
# Elastic Compliance Matrix: (Units=1/GPa)
#
#
# Indices 1 2 3 4 5 6 
#
# 1 0.011885 -0.006637 0.000820 0.000000 0.000000 0.000000
# 2 -0.006637 0.010074 -0.001076 0.000000 0.000000 0.000000
# 3 0.000820 -0.001076 0.013173 0.000000 0.000000 0.000000
# 4 0.000000 0.000000 0.000000 -0.828213 0.000000 0.000000
# 5 0.000000 0.000000 0.000000 0.000000 0.225892 0.000000
# 6 0.000000 0.000000 0.000000 0.000000 0.000000 0.026094
#
#
# Mechanical properties :
#
#
# Convention : Reuss Voigt Hill
#
# Bulk Modulus (GPa) = 46.84577 61.69411 54.26994
# Shear Modulus (GPa) = -9.61176 26.54913 8.46869
#
# Velocity S-wave (km/s) = -2.17589 3.61627 2.04241
# Velocity P-wave (km/s) = 4.09418 6.91559 5.68277
#
# Compressibility (1/GPa) = 0.02134664
#
# Stress axis : x y z
#
# Youngs Moduli (GPa) = 84.14159 99.26634 75.91529
#
# Poissons Ratio (x) = 0.65881 -0.06228
# Poissons Ratio (y) = 0.55843 0.08168
# Poissons Ratio (z) = -0.06903 0.10680
#
# Static dielectric constant tensor:
#      x y z
#    x 1.718760 0.000000 0.000000 
#    y 0.000000 1.736640 0.000000 
#    z 0.000000 0.000000 1.849890 
# 
# From -- ./inp_files/19734.got.cif
#   From: 2010.05.17/outbox.cif.g08.bks.cpg/sg47_10_cif.got.tgz:19734.got - 2010.06.03 20:15:42.
