data_PCOD9381596
_publ_section_title
;
Structure prediction by ZEFSAII (Michael W. Deem and Ramdas Pophale) SiO2 
 PCOD9381596
Probable space group: P M M M
;
_chemical_formula_sum "Si O2"
_cell_formula_units_Z 64
_cell_length_a 18.191899
_cell_length_b 7.431291
_cell_length_c 21.547684
_cell_angle_alpha 90.000000
_cell_angle_beta 90.000000
_cell_angle_gamma 90.000000
_cell_volume 2913.016216
_symmetry_space_group_name_H-M "P M M M"
_symmetry_group_IT_number 47
_symmetry_cell_setting 'orthorhombic'
loop_
_space_group_symop_operation_xyz
x,y,z
-x,-y,z
x,-y,-z
-x,y,-z
-x,-y,-z
x,y,-z
-x,y,z
x,-y,z
loop_
_atom_site_type_symbol
_atom_site_label
_atom_site_fract_x
_atom_site_fract_y
_atom_site_fract_z
Si Si1 0.256003 0.780139 0.567682
Si Si2 0.578528 0.279605 0.138847
Si Si3 0.918697 0.780351 0.793384
Si Si4 0.278176 0.706642 0.072066
Si Si5 0.212767 0.783170 0.296637
Si Si6 0.381545 0.289090 0.726148
Si Si7 0.420286 0.205624 0.409778
Si Si8 0.888488 0.794942 0.930745
O O1 0.225430 0.729418 0.500000
O O2 0.215063 0.722266 0.630915
O O3 0.341353 0.716717 0.570377
O O4 0.258016 0.000000 0.570101
O O5 0.500000 0.224394 0.111739
O O6 0.580885 0.500000 0.135912
O O7 0.652825 0.214397 0.107456
O O8 0.583337 0.225958 0.210358
O O9 0.852671 0.718992 0.748380
O O10 0.914209 0.715709 0.865110
O O11 0.000000 0.735635 0.769046
O O12 0.913313 0.000000 0.796332
O O13 0.266225 0.500000 0.092980
O O14 0.199725 0.798718 0.076636
O O15 0.298405 0.703003 0.000000
O O16 0.293433 0.735375 0.270864
O O17 0.207921 0.000000 0.297775
O O18 0.397280 0.500000 0.719804
O O19 0.412492 0.201291 0.664543
O O20 0.500000 0.286482 0.425883
O O21 0.421240 0.000000 0.431913
O O22 0.915577 0.000000 0.933103
O O23 0.903653 0.715403 0.000000
#
# Coordination Sequence:
#
# PCOD9381596 Si02
#       8
#     8   8   8   8   8   8   8   8
#     4   8  14  25  42  64  87 113 148 185 218 255
#     4   9  17  27  39  58  82 107 140 182 222 257
#     4   9  17  29  47  71  95 117 142 174 213 257
#     4   9  17  29  45  62  80 107 143 180 216 254
#     4   9  17  30  48  67  87 113 145 180 216 257
#     4  10  18  28  44  63  85 115 148 181 220 264
#     4   9  17  28  42  62  88 116 147 183 220 258
#     4   9  17  29  46  67  90 116 144 174 208 250
#
# _framework density 21.970355999999999
#
# number of rings (size 3 to 8) (size 9 to 14) (size 15 to 20)
#    0.000    3.000    0.000    2.250    0.000    1.500 
#    0.000    4.375    0.000    9.750    0.000    9.625 
#    0.000    0.000    0.000    4.500    0.000    5.000 
#
# Total GULP energy -356939.252052 kJ/mol
# GULP energy per Si atom -5577.175813 kJ/mol
# Density = 2.192035 g / cm^3
# Si number density = 21.970356 Si / 1000 Ang^3
#
#
#
# Elastic Constant Matrix: (Units=GPa)
#
#
# Indices 1 2 3 4 5 6 
#
# 1 124.6977 3.6138 76.3811 0.0000 0.0000 0.0000
# 2 3.6138 73.2784 9.6406 0.0000 0.0000 0.0000
# 3 76.3811 9.6406 98.2054 0.0000 0.0000 0.0000
# 4 0.0000 0.0000 0.0000 7.3329 0.0000 0.0000
# 5 0.0000 0.0000 0.0000 0.0000 -32.0234 0.0000
# 6 0.0000 0.0000 0.0000 0.0000 0.0000 -7.3545
#
#
#
# Elastic Compliance Matrix: (Units=1/GPa)
#
#
# Indices 1 2 3 4 5 6 
#
# 1 0.015365 0.000825 -0.012032 0.000000 0.000000 0.000000
# 2 0.000825 0.013869 -0.002003 0.000000 0.000000 0.000000
# 3 -0.012032 -0.002003 0.019737 0.000000 0.000000 0.000000
# 4 0.000000 0.000000 0.000000 0.136371 0.000000 0.000000
# 5 0.000000 0.000000 0.000000 0.000000 -0.031227 0.000000
# 6 0.000000 0.000000 0.000000 0.000000 0.000000 -0.135971
#
#
# Mechanical properties :
#
#
# Convention : Reuss Voigt Hill
#
# Bulk Modulus (GPa) = 44.34126 52.82805 48.58466
# Shear Modulus (GPa) = 96.00190 7.36072 51.68131
#
# Velocity S-wave (km/s) = 6.61747 1.83237 4.85533
# Velocity P-wave (km/s) = 8.86646 5.34548 7.32080
#
# Compressibility (1/GPa) = 0.02255236
#
# Stress axis : x y z
#
# Youngs Moduli (GPa) = 65.08224 72.10095 50.66585
#
# Poissons Ratio (x) = -0.05949 0.60959
# Poissons Ratio (y) = -0.05370 0.10150
# Poissons Ratio (z) = 0.78304 0.14444
#
# Static dielectric constant tensor:
#      x y z
#    x 1.788280 0.000000 0.000000 
#    y 0.000000 1.867890 0.000000 
#    z 0.000000 0.000000 1.814070 
# 
# From -- ./inp_files/32776.got.cif
#   From: 2010.05.17/outbox.cif.g08.bks.cpg/sg47_17_cif.got.tgz:32776.got - 2010.06.03 20:15:42.
