data_PCOD9381420
_publ_section_title
;
Structure prediction by ZEFSAII (Michael W. Deem and Ramdas Pophale) SiO2 
 PCOD9381420
Probable space group: P M M M
;
_chemical_formula_sum "Si O2"
_cell_formula_units_Z 52
_cell_length_a 12.214533
_cell_length_b 29.531296
_cell_length_c 8.585508
_cell_angle_alpha 90.000000
_cell_angle_beta 90.000000
_cell_angle_gamma 90.000000
_cell_volume 3096.887086
_symmetry_space_group_name_H-M "P M M M"
_symmetry_group_IT_number 47
_symmetry_cell_setting 'orthorhombic'
loop_
_space_group_symop_operation_xyz
x,y,z
-x,-y,z
x,-y,-z
-x,y,-z
-x,-y,-z
x,y,-z
-x,y,z
x,-y,z
loop_
_atom_site_type_symbol
_atom_site_label
_atom_site_fract_x
_atom_site_fract_y
_atom_site_fract_z
Si Si1 0.127326 0.500000 0.809585
Si Si2 0.126272 0.136847 0.311380
Si Si3 0.866935 0.598115 0.818641
Si Si4 0.500000 0.090867 0.688365
Si Si5 0.261650 0.222233 0.186375
Si Si6 0.500000 0.193229 0.811817
Si Si7 0.126801 0.305840 0.314921
Si Si8 0.266692 0.050835 0.310064
O O1 0.174236 0.451150 0.761397
O O2 0.000000 0.500000 0.760398
O O3 0.127660 0.500000 0.000000
O O4 0.128966 0.138070 0.500000
O O5 0.194665 0.179287 0.250165
O O6 0.183342 0.090047 0.260313
O O7 0.000000 0.139399 0.262012
O O8 0.836288 0.643309 0.727765
O O9 0.000000 0.595601 0.813076
O O10 0.836628 0.603468 0.000000
O O11 0.500000 0.092803 0.500000
O O12 0.500000 0.141799 0.751383
O O13 0.610633 0.065293 0.736812
O O14 0.387747 0.217239 0.239263
O O15 0.203242 0.267845 0.241752
O O16 0.259829 0.220764 0.000000
O O17 0.500000 0.192011 0.000000
O O18 0.126690 0.300344 0.500000
O O19 0.000000 0.300462 0.259991
O O20 0.265030 0.050377 0.500000
O O21 0.240563 0.000000 0.257249
#
# Coordination Sequence:
#
# PCOD9381420 Si02
#       8
#     4   8   8   4   8   4   8   8
#     4   7  10  18  35  59  87 122 165 206 235 267
#     4  10  20  33  50  73  99 126 157 191 226 270
#     4   8  13  23  40  62  90 127 168 203 236 274
#     4  10  17  30  54  76  94 120 155 191 231 280
#     4  11  22  36  53  70  91 120 155 194 240 289
#     4  10  22  37  53  73  94 115 147 196 243 284
#     4  10  20  32  46  68  99 130 161 198 236 277
#     4   9  17  29  48  75 101 123 152 191 230 271
#
# _framework density 16.791053999999999
#
# number of rings (size 3 to 8) (size 9 to 14) (size 15 to 20)
#    0.000    2.538    1.538    2.538    0.000    4.923 
#    0.000    1.923    0.000    4.615    0.000    1.077 
#    0.000    0.615    0.000    7.077    0.000    4.923 
#
# Total GULP energy -289806.794704 kJ/mol
# GULP energy per Si atom -5573.207590 kJ/mol
# Density = 1.675284 g / cm^3
# Si number density = 16.791054 Si / 1000 Ang^3
#
#
#
# Elastic Constant Matrix: (Units=GPa)
#
#
# Indices 1 2 3 4 5 6 
#
# 1 110.8418 75.1386 22.2327 0.0000 0.0000 0.0000
# 2 75.1386 160.9284 21.0845 0.0000 0.0000 0.0000
# 3 22.2327 21.0845 10.3262 0.0000 0.0000 0.0000
# 4 0.0000 0.0000 0.0000 25.1654 0.0000 0.0000
# 5 0.0000 0.0000 0.0000 0.0000 14.3986 0.0000
# 6 0.0000 0.0000 0.0000 0.0000 0.0000 2.4349
#
#
#
# Elastic Compliance Matrix: (Units=1/GPa)
#
#
# Indices 1 2 3 4 5 6 
#
# 1 0.018028 -0.004549 -0.029527 0.000000 0.000000 0.000000
# 2 -0.004549 0.009631 -0.009872 0.000000 0.000000 0.000000
# 3 -0.029527 -0.009872 0.180570 0.000000 0.000000 0.000000
# 4 0.000000 0.000000 0.000000 0.039737 0.000000 0.000000
# 5 0.000000 0.000000 0.000000 0.000000 0.069451 0.000000
# 6 0.000000 0.000000 0.000000 0.000000 0.000000 0.410693
#
#
# Mechanical properties :
#
#
# Convention : Reuss Voigt Hill
#
# Bulk Modulus (GPa) = 8.31016 57.66754 32.98885
# Shear Modulus (GPa) = 5.84032 19.30915 12.57474
#
# Velocity S-wave (km/s) = 1.86703 3.39479 2.73956
# Velocity P-wave (km/s) = 3.09962 7.05584 5.44943
#
# Compressibility (1/GPa) = 0.12033456
#
# Stress axis : x y z
#
# Youngs Moduli (GPa) = 55.46913 103.82945 5.53801
#
# Poissons Ratio (x) = 0.47230 0.16352
# Poissons Ratio (y) = 0.25232 0.05467
# Poissons Ratio (z) = 1.63784 1.02495
#
# Static dielectric constant tensor:
#      x y z
#    x 1.555900 0.000000 0.000000 
#    y 0.000000 1.574490 0.000000 
#    z 0.000000 0.000000 1.578650 
# 
# From -- ./inp_files/4615.got.cif
#   From: 2010.05.17/outbox.cif.g08.bks.cpg/sg47_3_cif.got.tgz:4615.got - 2010.06.03 20:15:42.
