data_PCOD9381049
_publ_section_title
;
Structure prediction by ZEFSAII (Michael W. Deem and Ramdas Pophale) SiO2 
 PCOD9381049
Probable space group: I M A 2
;
_chemical_formula_sum "Si O2"
_cell_formula_units_Z 28
_cell_length_a 15.135762
_cell_length_b 7.120037
_cell_length_c 10.384372
_cell_angle_alpha 90.000000
_cell_angle_beta 90.000000
_cell_angle_gamma 90.000000
_cell_volume 1119.094543
_symmetry_space_group_name_H-M "I M A 2"
_symmetry_group_IT_number 46
_symmetry_cell_setting 'orthorhombic'
loop_
_space_group_symop_operation_xyz
x,y,z
-x,-y,z
1/2-x,y,z
1/2+x,-y,z
1/2+x,1/2+y,1/2+z
1/2-x,1/2-y,1/2+z
-x,1/2+y,1/2+z
x,1/2-y,1/2+z
loop_
_atom_site_type_symbol
_atom_site_label
_atom_site_fract_x
_atom_site_fract_y
_atom_site_fract_z
Si Si1 0.351095 0.596790 0.011100
Si Si2 0.608179 0.529141 0.527536
Si Si3 0.000000 0.500000 0.208523
Si Si4 0.602852 0.689243 0.804204
O O1 0.250000 0.537287 0.024035
O O2 0.355228 0.820890 0.012242
O O3 0.412722 0.522396 0.124801
O O4 0.391875 0.500231 0.885179
O O5 0.500000 0.500000 0.531513
O O6 0.634743 0.628189 0.662132
O O7 0.639997 0.656923 0.407147
O O8 0.011767 0.301997 0.279083
#
# Coordination Sequence:
#
# PCOD9381049 Si02
#       4
#     8   8   4   8
#     4  12  30  53  83 126 173 226 294 362 440 528
#     4  12  27  46  82 118 166 223 285 351 435 516
#     4  12  26  52  88 118 172 228 286 356 452 514
#     4  12  27  50  82 121 171 219 283 362 428 522
#
# _framework density 25.020223999999999
#
# number of rings (size 3 to 8) (size 9 to 14) (size 15 to 20)
#    0.000    0.000    7.143    0.000   10.000    3.429 
#    0.000    0.000    0.000    0.000    0.000    0.000 
#    0.000    0.000    0.000    0.000    0.000    0.000 
#
# Total GULP energy -78215.110934 kJ/mol
# GULP energy per Si atom -5586.793638 kJ/mol
# Density = 2.496328 g / cm^3
# Si number density = 25.020224 Si / 1000 Ang^3
#
#
#
# Elastic Constant Matrix: (Units=GPa)
#
#
# Indices 1 2 3 4 5 6 
#
# 1 152.1784 57.5812 56.8978 0.0000 0.0000 0.0000
# 2 57.5812 220.2101 79.0328 0.0000 0.0000 0.0000
# 3 56.8978 79.0328 164.0037 0.0000 0.0000 0.0000
# 4 0.0000 0.0000 0.0000 98.3489 0.0000 0.0000
# 5 0.0000 0.0000 0.0000 0.0000 52.6623 0.0000
# 6 0.0000 0.0000 0.0000 0.0000 0.0000 23.4160
#
#
#
# Elastic Compliance Matrix: (Units=1/GPa)
#
#
# Indices 1 2 3 4 5 6 
#
# 1 0.007847 -0.001300 -0.002096 0.000000 0.000000 0.000000
# 2 -0.001300 0.005706 -0.002299 0.000000 0.000000 0.000000
# 3 -0.002096 -0.002299 0.007932 0.000000 0.000000 0.000000
# 4 0.000000 0.000000 0.000000 0.010168 0.000000 0.000000
# 5 0.000000 0.000000 0.000000 0.000000 0.018989 0.000000
# 6 0.000000 0.000000 0.000000 0.000000 0.000000 0.042706
#
#
# Mechanical properties :
#
#
# Convention : Reuss Voigt Hill
#
# Bulk Modulus (GPa) = 99.04649 102.60176 100.82413
# Shear Modulus (GPa) = 46.25276 57.74415 51.99845
#
# Velocity S-wave (km/s) = 4.30422 4.80927 4.56374
# Velocity P-wave (km/s) = 8.02335 8.48147 8.25559
#
# Compressibility (1/GPa) = 0.01009627
#
# Stress axis : x y z
#
# Youngs Moduli (GPa) = 127.44356 175.25519 126.06535
#
# Poissons Ratio (x) = 0.22775 0.26423
# Poissons Ratio (y) = 0.16561 0.28980
# Poissons Ratio (z) = 0.26712 0.40288
#
# Static dielectric constant tensor:
#      x y z
#    x 1.959200 0.000000 0.000000 
#    y 0.000000 1.956240 0.000000 
#    z 0.000000 0.000000 2.047910 
# 
# From -- ./inp_files/11523.got.cif
#   From: 2010.05.17/outbox.cif.g08.bks.cpg/sg46_6_cif.got.tgz:11523.got - 2010.06.03 19:58:25.
