data_PCOD9381448
_publ_section_title
;
Structure prediction by ZEFSAII (Michael W. Deem and Ramdas Pophale) SiO2 
 PCOD9381448
Probable space group: P M M M
;
_chemical_formula_sum "Si O2"
_cell_formula_units_Z 52
_cell_length_a 22.431154
_cell_length_b 16.519377
_cell_length_c 7.611807
_cell_angle_alpha 90.000000
_cell_angle_beta 90.000000
_cell_angle_gamma 90.000000
_cell_volume 2820.545108
_symmetry_space_group_name_H-M "P M M M"
_symmetry_group_IT_number 47
_symmetry_cell_setting 'orthorhombic'
loop_
_space_group_symop_operation_xyz
x,y,z
-x,-y,z
x,-y,-z
-x,y,-z
-x,-y,-z
x,y,-z
-x,y,z
x,-y,z
loop_
_atom_site_type_symbol
_atom_site_label
_atom_site_fract_x
_atom_site_fract_y
_atom_site_fract_z
Si Si1 0.115494 0.500000 0.291249
Si Si2 0.755646 0.741296 0.791181
Si Si3 0.430968 0.500000 0.215628
Si Si4 0.190402 0.089354 0.712659
Si Si5 0.935450 0.847907 0.294708
Si Si6 0.343391 0.362954 0.200773
Si Si7 0.252445 0.500000 0.713772
Si Si8 0.116531 0.679490 0.207484
O O1 0.113907 0.500000 0.500000
O O2 0.184311 0.500000 0.230797
O O3 0.092794 0.588529 0.235700
O O4 0.768869 0.835590 0.765697
O O5 0.691089 0.713791 0.718220
O O6 0.815333 0.694288 0.722366
O O7 0.753030 0.725494 0.000000
O O8 0.500000 0.500000 0.263219
O O9 0.396307 0.418777 0.277208
O O10 0.426366 0.500000 0.000000
O O11 0.188517 0.090004 0.500000
O O12 0.123463 0.109455 0.778844
O O13 0.208874 0.000000 0.770394
O O14 0.937641 0.870362 0.500000
O O15 0.923078 0.751564 0.284305
O O16 0.000000 0.866809 0.216256
O O17 0.287714 0.424658 0.208476
O O18 0.361360 0.344329 0.000000
O O19 0.256163 0.500000 0.500000
O O20 0.118982 0.693692 0.000000
#
# Coordination Sequence:
#
# PCOD9381448 Si02
#       8
#     4   8   4   8   8   8   4   8
#     4  11  20  28  41  62  86 109 137 175 217 259
#     4   9  17  28  43  63  86 115 145 175 216 261
#     4   8  14  24  41  65  92 125 161 193 217 240
#     4   9  18  31  47  68  91 112 135 170 217 266
#     4   9  18  33  50  65  84 110 139 172 211 260
#     4   9  16  27  42  60  88 122 155 185 213 253
#     4  10  18  24  37  62  87 110 142 180 212 247
#     4  10  19  30  45  63  85 111 141 179 219 259
#
# _framework density 18.436153000000001
#
# number of rings (size 3 to 8) (size 9 to 14) (size 15 to 20)
#    0.000    2.692    1.538    1.385    0.000    2.769 
#    0.000    1.923    0.000    6.000    0.000    4.308 
#    0.000    0.615    0.000    7.692    0.000    1.231 
#
# Total GULP energy -289565.926607 kJ/mol
# GULP energy per Si atom -5568.575512 kJ/mol
# Density = 1.839419 g / cm^3
# Si number density = 18.436153 Si / 1000 Ang^3
#
#
#
# Elastic Constant Matrix: (Units=GPa)
#
#
# Indices 1 2 3 4 5 6 
#
# 1 86.3619 32.3303 2.3532 0.0000 0.0000 0.0000
# 2 32.3303 108.2199 -6.1379 0.0000 0.0000 0.0000
# 3 2.3532 -6.1379 47.7567 0.0000 0.0000 0.0000
# 4 0.0000 0.0000 0.0000 18.0828 0.0000 0.0000
# 5 0.0000 0.0000 0.0000 0.0000 -3.5871 0.0000
# 6 0.0000 0.0000 0.0000 0.0000 0.0000 9.5967
#
#
#
# Elastic Compliance Matrix: (Units=1/GPa)
#
#
# Indices 1 2 3 4 5 6 
#
# 1 0.013100 -0.003979 -0.001157 0.000000 0.000000 0.000000
# 2 -0.003979 0.010517 0.001548 0.000000 0.000000 0.000000
# 3 -0.001157 0.001548 0.021195 0.000000 0.000000 0.000000
# 4 0.000000 0.000000 0.000000 0.055301 0.000000 0.000000
# 5 0.000000 0.000000 0.000000 0.000000 -0.278775 0.000000
# 6 0.000000 0.000000 0.000000 0.000000 0.000000 0.104202
#
#
# Mechanical properties :
#
#
# Convention : Reuss Voigt Hill
#
# Bulk Modulus (GPa) = 26.57043 33.26999 29.92021
# Shear Modulus (GPa) = -91.34686 19.07134 -36.13776
#
# Velocity S-wave (km/s) = -7.04665 3.21978 -4.43217
# Velocity P-wave (km/s) = 7.19469 5.64871 3.15085
#
# Compressibility (1/GPa) = 0.03763582
#
# Stress axis : x y z
#
# Youngs Moduli (GPa) = 76.33360 95.08388 47.18007
#
# Poissons Ratio (x) = 0.37837 0.05458
# Poissons Ratio (y) = 0.30376 -0.07302
# Poissons Ratio (z) = 0.08831 -0.14717
#
# Static dielectric constant tensor:
#      x y z
#    x 1.650180 0.000000 0.000000 
#    y 0.000000 1.704530 0.000000 
#    z 0.000000 0.000000 1.703730 
# 
# From -- ./inp_files/12615.got.cif
#   From: 2010.05.17/outbox.cif.g08.bks.cpg/sg47_7_cif.got.tgz:12615.got - 2010.06.03 20:15:42.
