data_PCOD9381657
_publ_section_title
;
Structure prediction by ZEFSAII (Michael W. Deem and Ramdas Pophale) SiO2 
 PCOD9381657
Probable space group: P M M M
;
_chemical_formula_sum "Si O2"
_cell_formula_units_Z 52
_cell_length_a 21.263279
_cell_length_b 7.335004
_cell_length_c 15.635956
_cell_angle_alpha 90.000000
_cell_angle_beta 90.000000
_cell_angle_gamma 90.000000
_cell_volume 2438.681212
_symmetry_space_group_name_H-M "P M M M"
_symmetry_group_IT_number 47
_symmetry_cell_setting 'orthorhombic'
loop_
_space_group_symop_operation_xyz
x,y,z
-x,-y,z
x,-y,-z
-x,y,-z
-x,-y,-z
x,y,-z
-x,y,z
x,-y,z
loop_
_atom_site_type_symbol
_atom_site_label
_atom_site_fract_x
_atom_site_fract_y
_atom_site_fract_z
Si Si1 0.075907 0.795835 0.500000
Si Si2 0.590344 0.718112 0.093713
Si Si3 0.690686 0.277433 0.400525
Si Si4 0.430863 0.278130 0.287590
Si Si5 0.070503 0.219205 0.683939
Si Si6 0.206568 0.715923 0.733830
Si Si7 0.739591 0.719191 0.908985
O O1 0.089337 0.706782 0.409959
O O2 0.000000 0.812279 0.500000
O O3 0.103580 0.000000 0.500000
O O4 0.577701 0.500000 0.093466
O O5 0.570659 0.783688 0.187946
O O6 0.665074 0.745844 0.092811
O O7 0.567984 0.785868 0.000000
O O8 0.689597 0.218632 0.500000
O O9 0.690048 0.500000 0.402494
O O10 0.629018 0.221287 0.344898
O O11 0.753440 0.217849 0.348300
O O12 0.500000 0.229390 0.322948
O O13 0.427320 0.500000 0.284827
O O14 0.131800 0.258341 0.737639
O O15 0.000000 0.282086 0.707845
O O16 0.066028 0.000000 0.675793
O O17 0.218334 0.500000 0.733614
O O18 0.233381 0.793449 0.821638
O O19 0.749568 0.500000 0.908781
O O20 0.764446 0.787988 0.000000
#
# Coordination Sequence:
#
# PCOD9381657 Si02
#       7
#     4   8   8   8   8   8   8
#     4   7  12  26  45  61  81 113 146 169 198 250
#     4   8  12  19  31  47  71 102 136 177 222 262
#     4   9  17  27  36  52  82 114 145 182 221 257
#     4   9  15  22  32  47  73 112 152 181 210 258
#     4   9  18  32  48  66  91 121 148 177 218 266
#     4  10  18  28  46  68  89 115 148 186 223 260
#     4   8  13  23  40  60  82 110 144 181 222 266
#
# _framework density 21.323
#
# number of rings (size 3 to 8) (size 9 to 14) (size 15 to 20)
#    0.000    3.308    1.538    1.846    1.077    0.923 
#    0.000    3.077    0.000    2.308    0.000    3.231 
#    0.000    0.615    0.000    1.385    0.000    6.462 
#
# Total GULP energy -289565.176629 kJ/mol
# GULP energy per Si atom -5568.561089 kJ/mol
# Density = 2.127447 g / cm^3
# Si number density = 21.323000 Si / 1000 Ang^3
#
#
#
# Elastic Constant Matrix: (Units=GPa)
#
#
# Indices 1 2 3 4 5 6 
#
# 1 127.5856 3.4705 89.9035 0.0000 0.0000 0.0000
# 2 3.4705 79.6342 8.3757 0.0000 0.0000 0.0000
# 3 89.9035 8.3757 159.5518 0.0000 0.0000 0.0000
# 4 0.0000 0.0000 0.0000 -20.7136 0.0000 0.0000
# 5 0.0000 0.0000 0.0000 0.0000 -4.2457 0.0000
# 6 0.0000 0.0000 0.0000 0.0000 0.0000 -43.7937
#
#
#
# Elastic Compliance Matrix: (Units=1/GPa)
#
#
# Indices 1 2 3 4 5 6 
#
# 1 0.013003 0.000205 -0.007337 0.000000 0.000000 0.000000
# 2 0.000205 0.012630 -0.000779 0.000000 0.000000 0.000000
# 3 -0.007337 -0.000779 0.010443 0.000000 0.000000 0.000000
# 4 0.000000 0.000000 0.000000 -0.048277 0.000000 0.000000
# 5 0.000000 0.000000 0.000000 0.000000 -0.235530 0.000000
# 6 0.000000 0.000000 0.000000 0.000000 0.000000 -0.022834
#
#
# Mechanical properties :
#
#
# Convention : Reuss Voigt Hill
#
# Bulk Modulus (GPa) = 49.37295 63.36347 56.36821
# Shear Modulus (GPa) = -20.16186 3.91751 -8.12218
#
# Velocity S-wave (km/s) = -3.07831 1.35691 -1.95381
# Velocity P-wave (km/s) = 3.25122 5.67763 4.62633
#
# Compressibility (1/GPa) = 0.02025400
#
# Stress axis : x y z
#
# Youngs Moduli (GPa) = 76.90753 79.17420 95.75898
#
# Poissons Ratio (x) = -0.01624 0.70262
# Poissons Ratio (y) = -0.01577 0.07456
# Poissons Ratio (z) = 0.56430 0.06164
#
# Static dielectric constant tensor:
#      x y z
#    x 1.753970 0.000000 0.000000 
#    y 0.000000 1.855210 0.000000 
#    z 0.000000 0.000000 1.825250 
# 
# From -- ./inp_files/24625.got.cif
#   From: 2010.05.17/outbox.cif.g08.bks.cpg/sg47_13_cif.got.tgz:24625.got - 2010.06.03 20:15:42.
