data_PCOD9381887
_publ_section_title
;
Structure prediction by ZEFSAII (Michael W. Deem and Ramdas Pophale) SiO2 
 PCOD9381887
Probable space group: P M M M
;
_chemical_formula_sum "Si O2"
_cell_formula_units_Z 56
_cell_length_a 12.831221
_cell_length_b 24.401391
_cell_length_c 12.804668
_cell_angle_alpha 90.000000
_cell_angle_beta 90.000000
_cell_angle_gamma 90.000000
_cell_volume 4009.136949
_symmetry_space_group_name_H-M "P M M M"
_symmetry_group_IT_number 47
_symmetry_cell_setting 'orthorhombic'
loop_
_space_group_symop_operation_xyz
x,y,z
-x,-y,z
x,-y,-z
-x,y,-z
-x,-y,-z
x,y,-z
-x,y,z
x,-y,z
loop_
_atom_site_type_symbol
_atom_site_label
_atom_site_fract_x
_atom_site_fract_y
_atom_site_fract_z
Si Si1 0.374341 0.941055 0.375472
Si Si2 0.876789 0.674042 0.500000
Si Si3 0.878730 0.671645 0.123247
Si Si4 0.258104 0.713392 0.304826
Si Si5 0.624035 0.179562 0.373684
Si Si6 0.757320 0.438015 0.121996
Si Si7 0.760588 0.438235 0.500000
Si Si8 0.377499 0.399280 0.692446
O O1 0.354219 0.941456 0.500000
O O2 0.500000 0.940933 0.364172
O O3 0.339551 0.881206 0.337632
O O4 0.335969 0.000000 0.333006
O O5 0.822187 0.700347 0.601415
O O6 0.846616 0.609576 0.500000
O O7 0.000000 0.681701 0.500000
O O8 0.804682 0.707250 0.197030
O O9 0.844045 0.608448 0.141792
O O10 0.000000 0.678860 0.148954
O O11 0.864139 0.682768 0.000000
O O12 0.312648 0.771302 0.322575
O O13 0.343531 0.664583 0.309190
O O14 0.635918 0.182712 0.500000
O O15 0.500000 0.184815 0.352973
O O16 0.794132 0.500000 0.141452
O O17 0.662305 0.424169 0.198451
O O18 0.727795 0.433957 0.000000
O O19 0.801553 0.500000 0.500000
O O20 0.687964 0.428160 0.399132
O O21 0.500000 0.405614 0.677439
#
# Coordination Sequence:
#
# PCOD9381887 Si02
#       8
#     8   4   8   8   8   8   4   8
#     4   7  10  17  30  52  84 118 146 169 192 221
#     4  10  20  32  45  60  79 102 124 164 219 254
#     4   9  18  32  48  62  78 103 132 168 216 258
#     4  10  18  30  43  62  85 106 136 172 198 241
#     4   9  15  23  39  62  89 120 147 168 193 230
#     4   9  18  31  46  64  81  96 123 163 204 252
#     4  10  21  33  44  59  75  97 133 167 195 240
#     4  10  20  31  43  58  80 108 132 159 195 233
#
# _framework density 13.968093
#
# number of rings (size 3 to 8) (size 9 to 14) (size 15 to 20)
#    0.000    2.857    0.714    2.786    0.000    2.143 
#    0.000    2.143    0.000    6.429    0.000    0.000 
#    0.000    3.429    0.000    5.143    0.000    0.286 
#
# Total GULP energy -311740.819955 kJ/mol
# GULP energy per Si atom -5566.800356 kJ/mol
# Density = 1.393630 g / cm^3
# Si number density = 13.968093 Si / 1000 Ang^3
#
#
#
# Elastic Constant Matrix: (Units=GPa)
#
#
# Indices 1 2 3 4 5 6 
#
# 1 44.3956 31.6489 18.4868 0.0000 0.0000 0.0000
# 2 31.6489 136.3352 31.7628 0.0000 0.0000 0.0000
# 3 18.4868 31.7628 36.0621 0.0000 0.0000 0.0000
# 4 0.0000 0.0000 0.0000 13.4862 0.0000 0.0000
# 5 0.0000 0.0000 0.0000 0.0000 14.0325 0.0000
# 6 0.0000 0.0000 0.0000 0.0000 0.0000 10.8898
#
#
#
# Elastic Compliance Matrix: (Units=1/GPa)
#
#
# Indices 1 2 3 4 5 6 
#
# 1 0.030544 -0.004331 -0.011843 0.000000 0.000000 0.000000
# 2 -0.004331 0.009843 -0.006449 0.000000 0.000000 0.000000
# 3 -0.011843 -0.006449 0.039481 0.000000 0.000000 0.000000
# 4 0.000000 0.000000 0.000000 0.074150 0.000000 0.000000
# 5 0.000000 0.000000 0.000000 0.000000 0.071263 0.000000
# 6 0.000000 0.000000 0.000000 0.000000 0.000000 0.091829
#
#
# Mechanical properties :
#
#
# Convention : Reuss Voigt Hill
#
# Bulk Modulus (GPa) = 28.88387 42.28776 35.58581
# Shear Modulus (GPa) = 13.37266 16.67466 15.02366
#
# Velocity S-wave (km/s) = 3.09750 3.45884 3.28315
# Velocity P-wave (km/s) = 5.78930 6.80380 6.31695
#
# Compressibility (1/GPa) = 0.03462140
#
# Stress axis : x y z
#
# Youngs Moduli (GPa) = 32.73954 101.59718 25.32851
#
# Poissons Ratio (x) = 0.44005 0.29997
# Poissons Ratio (y) = 0.14181 0.16334
# Poissons Ratio (z) = 0.38774 0.65519
#
# Static dielectric constant tensor:
#      x y z
#    x 1.431570 0.000000 0.000000 
#    y 0.000000 1.481440 0.000000 
#    z 0.000000 0.000000 1.459040 
# 
# From -- ./inp_files/16764.got.cif
#   From: 2010.05.17/outbox.cif.g08.bks.cpg/sg47_9_cif.got.tgz:16764.got - 2010.06.03 20:15:42.
