data_PCOD9381435
_publ_section_title
;
Structure prediction by ZEFSAII (Michael W. Deem and Ramdas Pophale) SiO2 
 PCOD9381435
Probable space group: P M M M
;
_chemical_formula_sum "Si O2"
_cell_formula_units_Z 40
_cell_length_a 7.464829
_cell_length_b 21.038371
_cell_length_c 12.327485
_cell_angle_alpha 90.000000
_cell_angle_beta 90.000000
_cell_angle_gamma 90.000000
_cell_volume 1936.004916
_symmetry_space_group_name_H-M "P M M M"
_symmetry_group_IT_number 47
_symmetry_cell_setting 'orthorhombic'
loop_
_space_group_symop_operation_xyz
x,y,z
-x,-y,z
x,-y,-z
-x,y,-z
-x,-y,-z
x,y,-z
-x,y,z
x,-y,z
loop_
_atom_site_type_symbol
_atom_site_label
_atom_site_fract_x
_atom_site_fract_y
_atom_site_fract_z
Si Si1 0.218987 0.809641 0.375808
Si Si2 0.295757 0.259476 0.000000
Si Si3 0.218477 0.427610 0.376002
Si Si4 0.784358 0.310588 0.766409
Si Si5 0.203399 0.884359 0.000000
Si Si6 0.780787 0.928196 0.233543
O O1 0.276675 0.804333 0.500000
O O2 0.277715 0.750050 0.303278
O O3 0.276171 0.874932 0.318988
O O4 0.000000 0.808899 0.375760
O O5 0.261143 0.299316 0.108477
O O6 0.194565 0.192216 0.000000
O O7 0.500000 0.239021 0.000000
O O8 0.270677 0.411407 0.500000
O O9 0.275211 0.500000 0.353111
O O10 0.279967 0.375227 0.290246
O O11 0.000000 0.427575 0.374808
O O12 0.000000 0.311240 0.759997
O O13 0.282241 0.908387 0.886852
O O14 0.000000 0.909490 0.000000
O O15 0.000000 0.926395 0.232868
O O16 0.726980 0.000000 0.259178
#
# Coordination Sequence:
#
# PCOD9381435 Si02
#       6
#     8   4   8   8   4   8
#     4   9  16  25  42  71 101 127 159 198 240 287
#     4  12  24  35  50  72  98 128 166 214 257 289
#     4   8  14  26  49  83 114 133 156 198 246 287
#     4  10  18  32  53  75 100 132 166 200 242 294
#     4  10  17  32  52  71  93 125 168 209 248 296
#     4   9  16  25  42  70 101 128 157 199 246 291
#
# _framework density 20.661106
#
# number of rings (size 3 to 8) (size 9 to 14) (size 15 to 20)
#    0.000    2.600    2.000    2.400    0.000    4.000 
#    0.000    2.500    0.000    7.200    0.000    1.400 
#    0.000    1.600    0.000    0.000    0.000    0.000 
#
# Total GULP energy -223357.634302 kJ/mol
# GULP energy per Si atom -5583.940858 kJ/mol
# Density = 2.061408 g / cm^3
# Si number density = 20.661106 Si / 1000 Ang^3
#
#
#
# Elastic Constant Matrix: (Units=GPa)
#
#
# Indices 1 2 3 4 5 6 
#
# 1 62.2675 3.1034 1.7190 0.0000 0.0000 0.0000
# 2 3.1034 166.2234 118.3718 0.0000 0.0000 0.0000
# 3 1.7190 118.3718 201.1358 0.0000 0.0000 0.0000
# 4 0.0000 0.0000 0.0000 33.0868 0.0000 0.0000
# 5 0.0000 0.0000 0.0000 0.0000 -305.4055 0.0000
# 6 0.0000 0.0000 0.0000 0.0000 0.0000 -18.8549
#
#
#
# Elastic Compliance Matrix: (Units=1/GPa)
#
#
# Indices 1 2 3 4 5 6 
#
# 1 0.016075 -0.000348 0.000068 0.000000 0.000000 0.000000
# 2 -0.000348 0.010364 -0.006096 0.000000 0.000000 0.000000
# 3 0.000068 -0.006096 0.008559 0.000000 0.000000 0.000000
# 4 0.000000 0.000000 0.000000 0.030224 0.000000 0.000000
# 5 0.000000 0.000000 0.000000 0.000000 -0.003274 0.000000
# 6 0.000000 0.000000 0.000000 0.000000 0.000000 -0.053037
#
#
# Mechanical properties :
#
#
# Convention : Reuss Voigt Hill
#
# Bulk Modulus (GPa) = 44.95581 75.11277 60.03429
# Shear Modulus (GPa) = 171.94319 -37.80590 67.06865
#
# Velocity S-wave (km/s) = 9.13244 -4.28227 5.70366
# Velocity P-wave (km/s) = 11.53290 3.46167 8.51443
#
# Compressibility (1/GPa) = 0.02224407
#
# Stress axis : x y z
#
# Youngs Moduli (GPa) = 62.20748 96.48927 116.83643
#
# Poissons Ratio (x) = 0.03360 -0.00789
# Poissons Ratio (y) = 0.02166 0.71227
# Poissons Ratio (z) = -0.00420 0.58823
#
# Static dielectric constant tensor:
#      x y z
#    x 1.786270 0.000000 0.000000 
#    y 0.000000 1.708850 0.000000 
#    z 0.000000 0.000000 1.700700 
# 
# From -- ./inp_files/15129.got.cif
#   From: 2010.05.17/outbox.cif.g08.bks.cpg/sg47_8_cif.got.tgz:15129.got - 2010.06.03 20:15:42.
