data_PCOD9381458
_publ_section_title
;
Structure prediction by ZEFSAII (Michael W. Deem and Ramdas Pophale) SiO2 
 PCOD9381458
Probable space group: P M M M
;
_chemical_formula_sum "Si O2"
_cell_formula_units_Z 52
_cell_length_a 7.467657
_cell_length_b 14.128268
_cell_length_c 27.775503
_cell_angle_alpha 90.000000
_cell_angle_beta 90.000000
_cell_angle_gamma 90.000000
_cell_volume 2930.456095
_symmetry_space_group_name_H-M "P M M M"
_symmetry_group_IT_number 47
_symmetry_cell_setting 'orthorhombic'
loop_
_space_group_symop_operation_xyz
x,y,z
-x,-y,z
x,-y,-z
-x,y,-z
-x,-y,-z
x,y,-z
-x,y,z
x,-y,z
loop_
_atom_site_type_symbol
_atom_site_label
_atom_site_fract_x
_atom_site_fract_y
_atom_site_fract_z
Si Si1 0.715937 0.386774 0.551812
Si Si2 0.709472 0.698708 0.755324
Si Si3 0.208204 0.605078 0.144232
Si Si4 0.783934 0.105476 0.801703
Si Si5 0.718639 0.389276 0.343384
Si Si6 0.780790 0.202889 0.900360
Si Si7 0.218821 0.890546 0.000000
O O1 0.783013 0.349946 0.500000
O O2 0.500000 0.375261 0.551335
O O3 0.748993 0.500000 0.552138
O O4 0.779974 0.352647 0.604097
O O5 0.500000 0.675516 0.755897
O O6 0.787267 0.641488 0.800624
O O7 0.730539 0.809711 0.766399
O O8 0.780828 0.667114 0.703498
O O9 0.287178 0.500000 0.140054
O O10 0.283265 0.691244 0.112452
O O11 0.000000 0.598111 0.130662
O O12 0.727045 0.136807 0.855446
O O13 0.000000 0.104007 0.801967
O O14 0.720413 0.000000 0.789947
O O15 0.500000 0.386161 0.344305
O O16 0.767520 0.500000 0.338444
O O17 0.000000 0.204022 0.900252
O O18 0.723334 0.162106 0.951421
O O19 0.000000 0.890197 0.000000
O O20 0.274452 0.000000 0.000000
#
# Coordination Sequence:
#
# PCOD9381458 Si02
#       7
#     8   8   8   8   8   8   4
#     4   7   9  14  25  41  64  97 131 155 178 216
#     4  10  18  26  39  60  83 104 129 163 198 231
#     4   9  17  29  42  55  77 109 139 164 190 224
#     4   9  17  30  45  58  77 105 131 156 191 235
#     4   8  13  20  30  48  76 105 129 155 188 223
#     4   8  14  24  38  58  80 100 124 154 191 235
#     4   9  14  20  35  59  82  99 119 155 202 245
#
# _framework density 17.744679000000001
#
# number of rings (size 3 to 8) (size 9 to 14) (size 15 to 20)
#    0.000    3.462    0.000    3.692    0.000    3.077 
#    0.000    0.385    0.000    2.308    0.000    8.615 
#    0.000   22.769    0.000   25.077    0.000   15.692 
#
# Total GULP energy -289593.016388 kJ/mol
# GULP energy per Si atom -5569.096469 kJ/mol
# Density = 1.770429 g / cm^3
# Si number density = 17.744679 Si / 1000 Ang^3
#
#
#
# Elastic Constant Matrix: (Units=GPa)
#
#
# Indices 1 2 3 4 5 6 
#
# 1 48.5310 -2.0453 -1.3869 0.0000 0.0000 0.0000
# 2 -2.0453 112.1209 75.3771 0.0000 0.0000 0.0000
# 3 -1.3869 75.3771 177.4264 0.0000 0.0000 0.0000
# 4 0.0000 0.0000 0.0000 17.4962 0.0000 0.0000
# 5 0.0000 0.0000 0.0000 0.0000 8.1978 0.0000
# 6 0.0000 0.0000 0.0000 0.0000 0.0000 4.3764
#
#
#
# Elastic Compliance Matrix: (Units=1/GPa)
#
#
# Indices 1 2 3 4 5 6 
#
# 1 0.020621 0.000375 0.000002 0.000000 0.000000 0.000000
# 2 0.000375 0.012492 -0.005304 0.000000 0.000000 0.000000
# 3 0.000002 -0.005304 0.007889 0.000000 0.000000 0.000000
# 4 0.000000 0.000000 0.000000 0.057155 0.000000 0.000000
# 5 0.000000 0.000000 0.000000 0.000000 0.121984 0.000000
# 6 0.000000 0.000000 0.000000 0.000000 0.000000 0.228498
#
#
# Mechanical properties :
#
#
# Convention : Reuss Voigt Hill
#
# Bulk Modulus (GPa) = 32.10478 53.55200 42.82839
# Shear Modulus (GPa) = 10.66379 23.75631 17.21005
#
# Velocity S-wave (km/s) = 2.45410 3.66291 3.11765
# Velocity P-wave (km/s) = 5.11489 6.93786 6.09491
#
# Compressibility (1/GPa) = 0.03114801
#
# Stress axis : x y z
#
# Youngs Moduli (GPa) = 48.49365 80.05435 126.75158
#
# Poissons Ratio (x) = -0.03001 -0.00024
# Poissons Ratio (y) = -0.01818 0.67228
# Poissons Ratio (z) = -0.00009 0.42460
#
# Static dielectric constant tensor:
#      x y z
#    x 1.723430 0.000000 0.000000 
#    y 0.000000 1.592310 0.000000 
#    z 0.000000 0.000000 1.626850 
# 
# From -- ./inp_files/22001.got.cif
#   From: 2010.05.17/outbox.cif.g08.bks.cpg/sg47_12_cif.got.tgz:22001.got - 2010.06.03 20:15:42.
