data_PCOD9381450
_publ_section_title
;
Structure prediction by ZEFSAII (Michael W. Deem and Ramdas Pophale) SiO2 
 PCOD9381450
Probable space group: P M M M
;
_chemical_formula_sum "Si O2"
_cell_formula_units_Z 44
_cell_length_a 14.858049
_cell_length_b 22.023961
_cell_length_c 7.398358
_cell_angle_alpha 90.000000
_cell_angle_beta 90.000000
_cell_angle_gamma 90.000000
_cell_volume 2420.987562
_symmetry_space_group_name_H-M "P M M M"
_symmetry_group_IT_number 47
_symmetry_cell_setting 'orthorhombic'
loop_
_space_group_symop_operation_xyz
x,y,z
-x,-y,z
x,-y,-z
-x,y,-z
-x,-y,-z
x,y,-z
-x,y,z
x,-y,z
loop_
_atom_site_type_symbol
_atom_site_label
_atom_site_fract_x
_atom_site_fract_y
_atom_site_fract_z
Si Si1 0.783611 0.316548 0.215852
Si Si2 0.895000 0.432779 0.779871
Si Si3 0.397912 0.366474 0.221497
Si Si4 0.108621 0.934617 0.284519
Si Si5 0.609473 0.500000 0.204438
Si Si6 0.102406 0.803021 0.283808
O O1 0.838928 0.375007 0.284602
O O2 0.680376 0.320958 0.278241
O O3 0.834590 0.254112 0.250577
O O4 0.780725 0.323342 0.000000
O O5 0.862540 0.500000 0.723567
O O6 0.000000 0.426917 0.728489
O O7 0.892726 0.432374 0.000000
O O8 0.500000 0.353680 0.280179
O O9 0.369210 0.434348 0.283159
O O10 0.400868 0.368965 0.000000
O O11 0.126519 0.935914 0.500000
O O12 0.137747 0.868494 0.214952
O O13 0.000000 0.933810 0.263318
O O14 0.140711 0.000000 0.211528
O O15 0.500000 0.500000 0.193886
O O16 0.647078 0.500000 0.000000
O O17 0.095754 0.809312 0.500000
O O18 0.000000 0.792177 0.216689
#
# Coordination Sequence:
#
# PCOD9381450 Si02
#       6
#     8   8   8   8   4   8
#     4  10  18  25  39  59  78 102 132 164 197 235
#     4   8  14  23  33  48  71  96 125 162 195 219
#     4   8  14  23  35  54  78  99 122 160 208 247
#     4   7  10  19  37  58  76  97 128 159 182 212
#     4   7  10  18  32  50  72  93 114 152 205 245
#     4   9  17  28  41  58  82 109 132 156 188 226
#
# _framework density 18.174401
#
# number of rings (size 3 to 8) (size 9 to 14) (size 15 to 20)
#    0.000    3.727    0.000    3.818    1.273    1.091 
#    0.000    0.000    0.000    1.636    0.000    5.091 
#    0.000    2.909    0.000    9.091    0.000    0.364 
#
# Total GULP energy -244995.294489 kJ/mol
# GULP energy per Si atom -5568.074875 kJ/mol
# Density = 1.813304 g / cm^3
# Si number density = 18.174401 Si / 1000 Ang^3
#
#
#
# Elastic Constant Matrix: (Units=GPa)
#
#
# Indices 1 2 3 4 5 6 
#
# 1 89.0740 90.5863 4.6867 0.0000 0.0000 0.0000
# 2 90.5863 185.4013 3.9949 0.0000 0.0000 0.0000
# 3 4.6867 3.9949 57.5989 0.0000 0.0000 0.0000
# 4 0.0000 0.0000 0.0000 9.9949 0.0000 0.0000
# 5 0.0000 0.0000 0.0000 0.0000 3.2270 0.0000
# 6 0.0000 0.0000 0.0000 0.0000 0.0000 10.1026
#
#
#
# Elastic Compliance Matrix: (Units=1/GPa)
#
#
# Indices 1 2 3 4 5 6 
#
# 1 0.022379 -0.010912 -0.001064 0.000000 0.000000 0.000000
# 2 -0.010912 0.010722 0.000144 0.000000 0.000000 0.000000
# 3 -0.001064 0.000144 0.017438 0.000000 0.000000 0.000000
# 4 0.000000 0.000000 0.000000 0.100051 0.000000 0.000000
# 5 0.000000 0.000000 0.000000 0.000000 0.309885 0.000000
# 6 0.000000 0.000000 0.000000 0.000000 0.000000 0.098984
#
#
# Mechanical properties :
#
#
# Convention : Reuss Voigt Hill
#
# Bulk Modulus (GPa) = 37.20744 58.95667 48.08206
# Shear Modulus (GPa) = 8.44479 20.18533 14.31506
#
# Velocity S-wave (km/s) = 2.15792 3.33625 2.80955
# Velocity P-wave (km/s) = 5.16969 6.88118 6.08590
#
# Compressibility (1/GPa) = 0.02687634
#
# Stress axis : x y z
#
# Youngs Moduli (GPa) = 44.68383 93.26661 57.34597
#
# Poissons Ratio (x) = 1.01769 0.06103
# Poissons Ratio (y) = 0.48757 -0.00827
# Poissons Ratio (z) = 0.04755 -0.01345
#
# Static dielectric constant tensor:
#      x y z
#    x 1.618990 0.000000 0.000000 
#    y 0.000000 1.667720 0.000000 
#    z 0.000000 0.000000 1.747350 
# 
# From -- ./inp_files/17706.got.cif
#   From: 2010.05.17/outbox.cif.g08.bks.cpg/sg47_9_cif.got.tgz:17706.got - 2010.06.03 20:15:42.
