data_PCOD9381314
_publ_section_title
;
Structure prediction by ZEFSAII (Michael W. Deem and Ramdas Pophale) SiO2 
 PCOD9381314
Probable space group: P M M M
;
_chemical_formula_sum "Si O2"
_cell_formula_units_Z 52
_cell_length_a 23.966929
_cell_length_b 14.718867
_cell_length_c 7.431022
_cell_angle_alpha 90.000000
_cell_angle_beta 90.000000
_cell_angle_gamma 90.000000
_cell_volume 2621.412207
_symmetry_space_group_name_H-M "P M M M"
_symmetry_group_IT_number 47
_symmetry_cell_setting 'orthorhombic'
loop_
_space_group_symop_operation_xyz
x,y,z
-x,-y,z
x,-y,-z
-x,y,-z
-x,-y,-z
x,y,-z
-x,y,z
x,-y,z
loop_
_atom_site_type_symbol
_atom_site_label
_atom_site_fract_x
_atom_site_fract_y
_atom_site_fract_z
Si Si1 0.166195 0.280321 0.210675
Si Si2 0.723794 0.605043 0.717865
Si Si3 0.388313 0.297487 0.711534
Si Si4 0.936832 0.395723 0.780271
Si Si5 0.775888 0.898389 0.780306
Si Si6 0.352930 0.899118 0.216593
Si Si7 0.500000 0.394530 0.720498
O O1 0.219288 0.346923 0.223559
O O2 0.111457 0.329111 0.285811
O O3 0.185974 0.183544 0.286075
O O4 0.154638 0.264854 0.000000
O O5 0.723946 0.606752 0.500000
O O6 0.721131 0.500000 0.774399
O O7 0.669519 0.660449 0.783879
O O8 0.387479 0.318873 0.500000
O O9 0.387629 0.188866 0.729853
O O10 0.444028 0.344176 0.783813
O O11 0.925785 0.500000 0.725660
O O12 0.000000 0.371640 0.726644
O O13 0.935721 0.395544 0.000000
O O14 0.711401 0.885023 0.724095
O O15 0.793120 0.000000 0.727292
O O16 0.775402 0.895912 0.000000
O O17 0.370866 0.000000 0.277767
O O18 0.352488 0.900955 0.000000
O O19 0.500000 0.500000 0.771729
O O20 0.500000 0.391562 0.500000
#
# Coordination Sequence:
#
# PCOD9381314 Si02
#       7
#     8   8   8   8   8   8   4
#     4  10  17  27  47  69  87 115 157 192 220 265
#     4  10  20  31  43  65  97 122 140 179 238 280
#     4  10  19  32  51  72  92 119 156 194 227 267
#     4   8  14  24  38  60  90 119 149 188 228 263
#     4   8  14  25  42  65  91 117 145 180 225 272
#     4   9  17  31  50  70  95 125 151 181 231 286
#     4   9  18  34  54  71  90 124 165 193 222 277
#
# _framework density 19.836635999999999
#
# number of rings (size 3 to 8) (size 9 to 14) (size 15 to 20)
#    0.000    2.846    1.538    2.308    0.000    3.077 
#    0.000    0.769    0.000    5.538    0.000    5.385 
#    0.000    0.000    0.000    1.385    0.000    1.692 
#
# Total GULP energy -290162.414739 kJ/mol
# GULP energy per Si atom -5580.046437 kJ/mol
# Density = 1.979149 g / cm^3
# Si number density = 19.836636 Si / 1000 Ang^3
#
#
#
# Elastic Constant Matrix: (Units=GPa)
#
#
# Indices 1 2 3 4 5 6 
#
# 1 133.9302 94.3555 -1.6349 0.0000 0.0000 0.0000
# 2 94.3555 168.7939 -7.3518 0.0000 0.0000 0.0000
# 3 -1.6349 -7.3518 59.4925 0.0000 0.0000 0.0000
# 4 0.0000 0.0000 0.0000 11.9891 0.0000 0.0000
# 5 0.0000 0.0000 0.0000 0.0000 5.8020 0.0000
# 6 0.0000 0.0000 0.0000 0.0000 0.0000 36.1893
#
#
#
# Elastic Compliance Matrix: (Units=1/GPa)
#
#
# Indices 1 2 3 4 5 6 
#
# 1 0.012333 -0.006917 -0.000516 0.000000 0.000000 0.000000
# 2 -0.006917 0.009835 0.001025 0.000000 0.000000 0.000000
# 3 -0.000516 0.001025 0.016921 0.000000 0.000000 0.000000
# 4 0.000000 0.000000 0.000000 0.083409 0.000000 0.000000
# 5 0.000000 0.000000 0.000000 0.000000 0.172354 0.000000
# 6 0.000000 0.000000 0.000000 0.000000 0.000000 0.027633
#
#
# Mechanical properties :
#
#
# Convention : Reuss Voigt Hill
#
# Bulk Modulus (GPa) = 38.05799 59.21715 48.63757
# Shear Modulus (GPa) = 14.53243 29.25260 21.89251
#
# Velocity S-wave (km/s) = 2.70961 3.84432 3.32571
# Velocity P-wave (km/s) = 5.38671 7.04431 6.27052
#
# Compressibility (1/GPa) = 0.02627569
#
# Stress axis : x y z
#
# Youngs Moduli (GPa) = 81.08209 101.67293 59.09687
#
# Poissons Ratio (x) = 0.70324 0.03048
# Poissons Ratio (y) = 0.56082 -0.06059
# Poissons Ratio (z) = 0.04182 -0.10425
#
# Static dielectric constant tensor:
#      x y z
#    x 1.670920 0.000000 0.000000 
#    y 0.000000 1.693840 0.000000 
#    z 0.000000 0.000000 1.789510 
# 
# From -- ./inp_files/10978.got.cif
#   From: 2010.05.17/outbox.cif.g08.bks.cpg/sg47_6_cif.got.tgz:10978.got - 2010.06.03 20:15:42.
