data_PCOD9381464
_publ_section_title
;
Structure prediction by ZEFSAII (Michael W. Deem and Ramdas Pophale) SiO2 
 PCOD9381464
Probable space group: P M M M
;
_chemical_formula_sum "Si O2"
_cell_formula_units_Z 64
_cell_length_a 15.143663
_cell_length_b 7.837062
_cell_length_c 29.738988
_cell_angle_alpha 90.000000
_cell_angle_beta 90.000000
_cell_angle_gamma 90.000000
_cell_volume 3529.477394
_symmetry_space_group_name_H-M "P M M M"
_symmetry_group_IT_number 47
_symmetry_cell_setting 'orthorhombic'
loop_
_space_group_symop_operation_xyz
x,y,z
-x,-y,z
x,-y,-z
-x,y,-z
-x,-y,-z
x,y,-z
-x,y,z
x,-y,z
loop_
_atom_site_type_symbol
_atom_site_label
_atom_site_fract_x
_atom_site_fract_y
_atom_site_fract_z
Si Si1 0.599231 0.701205 0.267481
Si Si2 0.100543 0.793842 0.690550
Si Si3 0.893495 0.703475 0.951711
Si Si4 0.599774 0.799572 0.367296
Si Si5 0.775609 0.702190 0.227968
Si Si6 0.717231 0.299619 0.451078
Si Si7 0.900327 0.793422 0.586936
Si Si8 0.102622 0.709582 0.147054
O O1 0.500000 0.773931 0.262728
O O2 0.593491 0.500000 0.257539
O O3 0.625583 0.716042 0.320025
O O4 0.678076 0.774993 0.237346
O O5 0.168358 0.724390 0.726557
O O6 0.116696 0.741653 0.638897
O O7 0.000000 0.743380 0.702191
O O8 0.104874 0.000000 0.691502
O O9 0.875381 0.500000 0.952206
O O10 0.866002 0.767691 0.902592
O O11 0.000000 0.721179 0.951548
O O12 0.861624 0.773916 0.000000
O O13 0.500000 0.740812 0.378710
O O14 0.664743 0.772757 0.408711
O O15 0.597117 0.000000 0.357887
O O16 0.765897 0.500000 0.219778
O O17 0.833475 0.770683 0.186624
O O18 0.692151 0.226939 0.500000
O O19 0.698704 0.500000 0.451522
O O20 0.821276 0.272900 0.443183
O O21 0.000000 0.739707 0.574758
O O22 0.898576 0.000000 0.585599
O O23 0.102227 0.500000 0.146865
O O24 0.000000 0.760230 0.154208
#
# Coordination Sequence:
#
# PCOD9381464 Si02
#       8
#     8   8   8   8   8   8   8   8
#     4   9  18  32  48  66  89 115 142 173 211 257
#     4   9  18  31  45  63  88 115 141 170 205 246
#     4   7   9  14  25  41  65 101 139 172 212 257
#     4  10  21  37  57  77  93 112 142 179 217 259
#     4  10  18  26  40  62  86 113 143 174 211 254
#     4  11  24  38  52  73  99 123 145 173 214 262
#     4   9  19  36  55  72  91 119 155 190 219 248
#     4   8  13  20  30  49  79 109 138 176 216 252
#
# _framework density 18.132995999999999
#
# number of rings (size 3 to 8) (size 9 to 14) (size 15 to 20)
#    0.000    2.875    0.000    3.750    0.000    6.250 
#    0.000    3.750    0.000    0.000    0.000    0.000 
#    0.000    1.000    0.000   11.625    0.000    4.000 
#
# Total GULP energy -356701.019907 kJ/mol
# GULP energy per Si atom -5573.453436 kJ/mol
# Density = 1.809172 g / cm^3
# Si number density = 18.132996 Si / 1000 Ang^3
#
#
#
# Elastic Constant Matrix: (Units=GPa)
#
#
# Indices 1 2 3 4 5 6 
#
# 1 85.5631 2.1407 65.9639 0.0000 0.0000 0.0000
# 2 2.1407 20.2320 1.4347 0.0000 0.0000 0.0000
# 3 65.9639 1.4347 81.8279 0.0000 0.0000 0.0000
# 4 0.0000 0.0000 0.0000 -96.2862 0.0000 0.0000
# 5 0.0000 0.0000 0.0000 0.0000 15.5032 0.0000
# 6 0.0000 0.0000 0.0000 0.0000 0.0000 12.7588
#
#
#
# Elastic Compliance Matrix: (Units=1/GPa)
#
#
# Indices 1 2 3 4 5 6 
#
# 1 0.030922 -0.001506 -0.024901 0.000000 0.000000 0.000000
# 2 -0.001506 0.049562 0.000345 0.000000 0.000000 0.000000
# 3 -0.024901 0.000345 0.032288 0.000000 0.000000 0.000000
# 4 0.000000 0.000000 0.000000 -0.010386 0.000000 0.000000
# 5 0.000000 0.000000 0.000000 0.000000 0.064503 0.000000
# 6 0.000000 0.000000 0.000000 0.000000 0.000000 0.078378
#
#
# Mechanical properties :
#
#
# Convention : Reuss Voigt Hill
#
# Bulk Modulus (GPa) = 16.48853 36.30017 26.39435
# Shear Modulus (GPa) = 15.74284 -5.73260 5.00512
#
# Velocity S-wave (km/s) = 2.94970 -1.77997 1.66320
# Velocity P-wave (km/s) = 4.55124 3.97969 4.27503
#
# Compressibility (1/GPa) = 0.06064820
#
# Stress axis : x y z
#
# Youngs Moduli (GPa) = 32.33968 20.17691 30.97145
#
# Poissons Ratio (x) = 0.03039 0.77121
# Poissons Ratio (y) = 0.04871 -0.01069
# Poissons Ratio (z) = 0.80528 -0.00696
#
# Static dielectric constant tensor:
#      x y z
#    x 1.633950 0.000000 0.000000 
#    y 0.000000 1.656180 0.000000 
#    z 0.000000 0.000000 1.651650 
# 
# From -- ./inp_files/22207.got.cif
#   From: 2010.05.17/outbox.cif.g08.bks.cpg/sg47_12_cif.got.tgz:22207.got - 2010.06.03 20:15:42.
