data_PCOD9381963
_publ_section_title
;
Structure prediction by ZEFSAII (Michael W. Deem and Ramdas Pophale) SiO2 
 PCOD9381963
Probable space group: P M M M
;
_chemical_formula_sum "Si O2"
_cell_formula_units_Z 52
_cell_length_a 26.111005
_cell_length_b 14.779521
_cell_length_c 7.486459
_cell_angle_alpha 90.000000
_cell_angle_beta 90.000000
_cell_angle_gamma 90.000000
_cell_volume 2889.085518
_symmetry_space_group_name_H-M "P M M M"
_symmetry_group_IT_number 47
_symmetry_cell_setting 'orthorhombic'
loop_
_space_group_symop_operation_xyz
x,y,z
-x,-y,z
x,-y,-z
-x,y,-z
-x,-y,-z
x,y,-z
-x,y,z
x,-y,z
loop_
_atom_site_type_symbol
_atom_site_label
_atom_site_fract_x
_atom_site_fract_y
_atom_site_fract_z
Si Si1 0.213077 0.600878 0.713351
Si Si2 0.257226 0.790061 0.211239
Si Si3 0.358512 0.107582 0.787424
Si Si4 0.157258 0.104055 0.218487
Si Si5 0.943633 0.209295 0.218725
Si Si6 0.442026 0.109393 0.500000
Si Si7 0.094074 0.400054 0.208689
O O1 0.209668 0.599559 0.500000
O O2 0.228565 0.500000 0.774368
O O3 0.249745 0.683152 0.763923
O O4 0.155241 0.617289 0.781771
O O5 0.309623 0.834728 0.276939
O O6 0.206131 0.838834 0.282103
O O7 0.257718 0.808269 0.000000
O O8 0.408366 0.133218 0.673464
O O9 0.348242 0.000000 0.760438
O O10 0.366270 0.120923 0.000000
O O11 0.103987 0.148573 0.276843
O O12 0.161475 0.000000 0.271861
O O13 0.157245 0.106627 0.000000
O O14 0.934097 0.312210 0.281615
O O15 0.000000 0.177572 0.271934
O O16 0.942343 0.210375 0.000000
O O17 0.500000 0.144768 0.500000
O O18 0.445225 0.000000 0.500000
O O19 0.084502 0.500000 0.286941
O O20 0.080088 0.404915 0.000000
#
# Coordination Sequence:
#
# PCOD9381963 Si02
#       7
#     8   8   8   8   8   4   8
#     4  10  20  31  45  67  93 120 150 189 240 297
#     4  10  18  30  49  70  94 126 160 197 243 290
#     4   9  18  31  48  74 106 139 177 217 252 289
#     4   9  16  26  41  62  88 117 149 189 240 291
#     4   9  16  25  38  60  86 110 144 189 236 288
#     4   9  18  32  50  74 107 147 184 214 248 289
#     4   9  16  28  45  62  82 109 143 186 237 293
#
# _framework density 17.998775999999999
#
# number of rings (size 3 to 8) (size 9 to 14) (size 15 to 20)
#    0.000    2.692    1.538    0.923    1.077    3.692 
#    0.000    4.615    0.000    0.462    0.000    2.154 
#    0.000    2.462    0.000    3.385    0.000    0.154 
#
# Total GULP energy -290043.812253 kJ/mol
# GULP energy per Si atom -5577.765620 kJ/mol
# Density = 1.795781 g / cm^3
# Si number density = 17.998776 Si / 1000 Ang^3
#
#
#
# Elastic Constant Matrix: (Units=GPa)
#
#
# Indices 1 2 3 4 5 6 
#
# 1 143.5964 66.6432 24.7928 0.0000 0.0000 0.0000
# 2 66.6432 91.5092 8.7729 0.0000 0.0000 0.0000
# 3 24.7928 8.7729 55.9852 0.0000 0.0000 0.0000
# 4 0.0000 0.0000 0.0000 1.7472 0.0000 0.0000
# 5 0.0000 0.0000 0.0000 0.0000 42.0215 0.0000
# 6 0.0000 0.0000 0.0000 0.0000 0.0000 63.4652
#
#
#
# Elastic Compliance Matrix: (Units=1/GPa)
#
#
# Indices 1 2 3 4 5 6 
#
# 1 0.011246 -0.007830 -0.003753 0.000000 0.000000 0.000000
# 2 -0.007830 0.016547 0.000875 0.000000 0.000000 0.000000
# 3 -0.003753 0.000875 0.019387 0.000000 0.000000 0.000000
# 4 0.000000 0.000000 0.000000 0.572337 0.000000 0.000000
# 5 0.000000 0.000000 0.000000 0.000000 0.023797 0.000000
# 6 0.000000 0.000000 0.000000 0.000000 0.000000 0.015757
#
#
# Mechanical properties :
#
#
# Convention : Reuss Voigt Hill
#
# Bulk Modulus (GPa) = 38.81700 54.61208 46.71454
# Shear Modulus (GPa) = 7.25610 34.17224 20.71417
#
# Velocity S-wave (km/s) = 2.01002 4.36200 3.39612
# Velocity P-wave (km/s) = 5.19617 7.46843 6.43341
#
# Compressibility (1/GPa) = 0.02576191
#
# Stress axis : x y z
#
# Youngs Moduli (GPa) = 88.92021 60.43553 51.58123
#
# Poissons Ratio (x) = 0.47323 0.19360
# Poissons Ratio (y) = 0.69627 -0.04512
# Poissons Ratio (z) = 0.33374 -0.05287
#
# Static dielectric constant tensor:
#      x y z
#    x 1.595010 0.000000 0.000000 
#    y 0.000000 1.658390 0.000000 
#    z 0.000000 0.000000 1.698730 
# 
# From -- ./inp_files/7102.got.cif
#   From: 2010.05.17/outbox.cif.g08.bks.cpg/sg47_4_cif.got.tgz:7102.got - 2010.06.03 20:15:42.
