data_PCOD9381928
_publ_section_title
;
Structure prediction by ZEFSAII (Michael W. Deem and Ramdas Pophale) SiO2 
 PCOD9381928
Probable space group: P M M M
;
_chemical_formula_sum "Si O2"
_cell_formula_units_Z 52
_cell_length_a 21.908844
_cell_length_b 7.324657
_cell_length_c 14.310083
_cell_angle_alpha 90.000000
_cell_angle_beta 90.000000
_cell_angle_gamma 90.000000
_cell_volume 2296.407243
_symmetry_space_group_name_H-M "P M M M"
_symmetry_group_IT_number 47
_symmetry_cell_setting 'orthorhombic'
loop_
_space_group_symop_operation_xyz
x,y,z
-x,-y,z
x,-y,-z
-x,y,-z
-x,-y,-z
x,y,-z
-x,y,z
x,-y,z
loop_
_atom_site_type_symbol
_atom_site_label
_atom_site_fract_x
_atom_site_fract_y
_atom_site_fract_z
Si Si1 0.877637 0.781376 0.292213
Si Si2 0.000000 0.777093 0.393145
Si Si3 0.432843 0.721863 0.197866
Si Si4 0.742454 0.284917 0.700002
Si Si5 0.070810 0.778071 0.896433
Si Si6 0.693277 0.277617 0.895525
Si Si7 0.620102 0.277440 0.395717
O O1 0.937478 0.714930 0.345668
O O2 0.811506 0.739043 0.332163
O O3 0.885438 0.715469 0.185756
O O4 0.881667 0.000000 0.290938
O O5 0.000000 0.724349 0.500000
O O6 0.000000 0.000000 0.387838
O O7 0.500000 0.782187 0.168213
O O8 0.432478 0.500000 0.197209
O O9 0.375942 0.775548 0.133216
O O10 0.419532 0.776949 0.305459
O O11 0.731127 0.500000 0.706351
O O12 0.733236 0.214847 0.806393
O O13 0.689048 0.218121 0.631838
O O14 0.000000 0.727755 0.877305
O O15 0.071437 0.000000 0.897387
O O16 0.087249 0.715699 0.000000
O O17 0.695591 0.500000 0.897760
O O18 0.709556 0.215111 0.000000
O O19 0.603041 0.216076 0.500000
O O20 0.618030 0.500000 0.398084
#
# Coordination Sequence:
#
# PCOD9381928 Si02
#       7
#     8   4   8   8   8   8   8
#     4  10  18  30  48  67  85 108 139 174 214 256
#     4   9  18  32  48  66  88 111 135 169 216 266
#     4   8  13  20  32  55  84 111 144 182 213 246
#     4   9  18  30  43  61  85 114 146 176 206 248
#     4   8  13  23  41  63  83 102 127 161 201 246
#     4   8  14  25  39  55  81 118 150 172 204 252
#     4   8  14  25  39  54  77 111 145 175 212 256
#
# _framework density 22.644065999999999
#
# number of rings (size 3 to 8) (size 9 to 14) (size 15 to 20)
#    0.000    3.462    0.769    2.308    0.000    1.846 
#    0.000    3.462    0.000    0.462    0.000    1.077 
#    0.000    9.846    0.000   11.077    0.000   12.308 
#
# Total GULP energy -290060.551204 kJ/mol
# GULP energy per Si atom -5578.087523 kJ/mol
# Density = 2.259253 g / cm^3
# Si number density = 22.644066 Si / 1000 Ang^3
#
#
#
# Elastic Constant Matrix: (Units=GPa)
#
#
# Indices 1 2 3 4 5 6 
#
# 1 75.7304 -9.0635 -17.3672 0.0000 0.0000 0.0000
# 2 -9.0635 85.9303 0.5265 0.0000 0.0000 0.0000
# 3 -17.3672 0.5265 48.7067 0.0000 0.0000 0.0000
# 4 0.0000 0.0000 0.0000 -17.8859 0.0000 0.0000
# 5 0.0000 0.0000 0.0000 0.0000 7.2415 0.0000
# 6 0.0000 0.0000 0.0000 0.0000 0.0000 2.5780
#
#
#
# Elastic Compliance Matrix: (Units=1/GPa)
#
#
# Indices 1 2 3 4 5 6 
#
# 1 0.014573 0.001505 0.005180 0.000000 0.000000 0.000000
# 2 0.001505 0.011794 0.000409 0.000000 0.000000 0.000000
# 3 0.005180 0.000409 0.022374 0.000000 0.000000 0.000000
# 4 0.000000 0.000000 0.000000 -0.055910 0.000000 0.000000
# 5 0.000000 0.000000 0.000000 0.000000 0.138093 0.000000
# 6 0.000000 0.000000 0.000000 0.000000 0.000000 0.387902
#
#
# Mechanical properties :
#
#
# Convention : Reuss Voigt Hill
#
# Bulk Modulus (GPa) = 15.89091 17.61766 16.75429
# Shear Modulus (GPa) = 9.51271 14.13815 11.82543
#
# Velocity S-wave (km/s) = 2.05185 2.50144 2.28772
# Velocity P-wave (km/s) = 3.55618 4.01747 3.79384
#
# Compressibility (1/GPa) = 0.06292906
#
# Stress axis : x y z
#
# Youngs Moduli (GPa) = 68.62102 84.79170 44.69545
#
# Poissons Ratio (x) = -0.12764 -0.23152
# Poissons Ratio (y) = -0.10330 -0.01829
# Poissons Ratio (z) = -0.35545 -0.03470
#
# Static dielectric constant tensor:
#      x y z
#    x 1.832360 0.000000 0.000000 
#    y 0.000000 1.910480 0.000000 
#    z 0.000000 0.000000 1.817880 
# 
# From -- ./inp_files/17942.got.cif
#   From: 2010.05.17/outbox.cif.g08.bks.cpg/sg47_9_cif.got.tgz:17942.got - 2010.06.03 20:15:42.
