data_PCOD9381883
_publ_section_title
;
Structure prediction by ZEFSAII (Michael W. Deem and Ramdas Pophale) SiO2 
 PCOD9381883
Probable space group: P M M M
;
_chemical_formula_sum "Si O2"
_cell_formula_units_Z 64
_cell_length_a 14.795114
_cell_length_b 25.290527
_cell_length_c 9.519929
_cell_angle_alpha 90.000000
_cell_angle_beta 90.000000
_cell_angle_gamma 90.000000
_cell_volume 3562.131144
_symmetry_space_group_name_H-M "P M M M"
_symmetry_group_IT_number 47
_symmetry_cell_setting 'orthorhombic'
loop_
_space_group_symop_operation_xyz
x,y,z
-x,-y,z
x,-y,-z
-x,y,-z
-x,-y,-z
x,y,-z
-x,y,z
x,-y,z
loop_
_atom_site_type_symbol
_atom_site_label
_atom_site_fract_x
_atom_site_fract_y
_atom_site_fract_z
Si Si1 0.105643 0.656952 0.844334
Si Si2 0.102713 0.939521 0.170527
Si Si3 0.863122 0.559738 0.344134
Si Si4 0.395828 0.220568 0.170846
Si Si5 0.218556 0.159456 0.169925
Si Si6 0.109567 0.246356 0.662040
Si Si7 0.392248 0.337461 0.841162
Si Si8 0.646037 0.558783 0.660346
O O1 0.111382 0.599210 0.778255
O O2 0.141737 0.698767 0.732230
O O3 0.000000 0.669593 0.857332
O O4 0.145987 0.660930 0.000000
O O5 0.180222 0.898131 0.211591
O O6 0.000000 0.923754 0.214145
O O7 0.118344 0.000000 0.216847
O O8 0.101760 0.940050 0.000000
O O9 0.892576 0.578240 0.500000
O O10 0.895825 0.500000 0.323834
O O11 0.754645 0.557450 0.345767
O O12 0.500000 0.210900 0.217259
O O13 0.320658 0.176983 0.209500
O O14 0.363185 0.279627 0.215326
O O15 0.398210 0.222622 0.000000
O O16 0.151588 0.200676 0.243318
O O17 0.212020 0.163831 0.000000
O O18 0.137858 0.242655 0.500000
O O19 0.000000 0.243767 0.664494
O O20 0.500000 0.331468 0.850423
O O21 0.376009 0.389885 0.751246
O O22 0.357198 0.345003 0.000000
O O23 0.612836 0.564739 0.500000
O O24 0.616469 0.500000 0.711812
#
# Coordination Sequence:
#
# PCOD9381883 Si02
#       8
#     8   8   8   8   8   8   8   8
#     4  10  21  35  50  69  93 121 157 201 243 288
#     4   8  14  25  43  72 110 144 173 212 259 301
#     4   9  19  35  51  67  90 121 155 192 241 300
#     4   8  16  31  48  70 101 132 164 209 264 310
#     4  10  18  29  52  79  99 132 180 219 249 293
#     4  10  21  35  49  70 104 137 162 198 254 313
#     4   9  18  32  48  66  90 119 152 193 245 307
#     4   9  19  34  49  67  91 117 148 190 241 299
#
# _framework density 17.966771999999999
#
# number of rings (size 3 to 8) (size 9 to 14) (size 15 to 20)
#    0.000    2.875    0.000    3.000    1.750    3.750 
#    0.000    3.750    0.000    1.875    0.000    4.375 
#    0.000    0.000    0.000    1.125    0.000    1.375 
#
# Total GULP energy -356425.589960 kJ/mol
# GULP energy per Si atom -5569.149843 kJ/mol
# Density = 1.792588 g / cm^3
# Si number density = 17.966772 Si / 1000 Ang^3
#
#
#
# Elastic Constant Matrix: (Units=GPa)
#
#
# Indices 1 2 3 4 5 6 
#
# 1 81.8648 48.8243 19.5311 0.0000 0.0000 0.0000
# 2 48.8243 121.1543 33.5353 0.0000 0.0000 0.0000
# 3 19.5311 33.5353 43.7673 0.0000 0.0000 0.0000
# 4 0.0000 0.0000 0.0000 0.2426 0.0000 0.0000
# 5 0.0000 0.0000 0.0000 0.0000 15.5687 0.0000
# 6 0.0000 0.0000 0.0000 0.0000 0.0000 29.5241
#
#
#
# Elastic Compliance Matrix: (Units=1/GPa)
#
#
# Indices 1 2 3 4 5 6 
#
# 1 0.016356 -0.005802 -0.002854 0.000000 0.000000 0.000000
# 2 -0.005802 0.012534 -0.007014 0.000000 0.000000 0.000000
# 3 -0.002854 -0.007014 0.029496 0.000000 0.000000 0.000000
# 4 0.000000 0.000000 0.000000 4.122521 0.000000 0.000000
# 5 0.000000 0.000000 0.000000 0.000000 0.064231 0.000000
# 6 0.000000 0.000000 0.000000 0.000000 0.000000 0.033871
#
#
# Mechanical properties :
#
#
# Convention : Reuss Voigt Hill
#
# Bulk Modulus (GPa) = 36.97336 50.06308 43.51822
# Shear Modulus (GPa) = 1.15758 18.72678 9.94218
#
# Velocity S-wave (km/s) = 0.80355 3.23197 2.35492
# Velocity P-wave (km/s) = 4.63512 6.46933 5.62746
#
# Compressibility (1/GPa) = 0.02704650
#
# Stress axis : x y z
#
# Youngs Moduli (GPa) = 61.13920 79.78616 33.90266
#
# Poissons Ratio (x) = 0.46288 0.09675
# Poissons Ratio (y) = 0.35470 0.23781
# Poissons Ratio (z) = 0.17447 0.55966
#
# Static dielectric constant tensor:
#      x y z
#    x 1.658900 0.000000 0.000000 
#    y 0.000000 1.629160 0.000000 
#    z 0.000000 0.000000 1.611510 
# 
# From -- ./inp_files/7830.got.cif
#   From: 2010.05.17/outbox.cif.g08.bks.cpg/sg47_4_cif.got.tgz:7830.got - 2010.06.03 20:15:42.
