data_PCOD9381335
_publ_section_title
;
Structure prediction by ZEFSAII (Michael W. Deem and Ramdas Pophale) SiO2 
 PCOD9381335
Probable space group: P M M M
;
_chemical_formula_sum "Si O2"
_cell_formula_units_Z 44
_cell_length_a 14.878110
_cell_length_b 17.463238
_cell_length_c 9.971833
_cell_angle_alpha 90.000000
_cell_angle_beta 90.000000
_cell_angle_gamma 90.000000
_cell_volume 2590.881410
_symmetry_space_group_name_H-M "P M M M"
_symmetry_group_IT_number 47
_symmetry_cell_setting 'orthorhombic'
loop_
_space_group_symop_operation_xyz
x,y,z
-x,-y,z
x,-y,-z
-x,y,-z
-x,-y,-z
x,y,-z
-x,y,z
x,-y,z
loop_
_atom_site_type_symbol
_atom_site_label
_atom_site_fract_x
_atom_site_fract_y
_atom_site_fract_z
Si Si1 0.397787 0.153726 0.837065
Si Si2 0.898339 0.000000 0.246508
Si Si3 0.500000 0.592532 0.653582
Si Si4 0.697603 0.000000 0.156242
Si Si5 0.332128 0.590137 0.842932
Si Si6 0.763486 0.738000 0.158318
Si Si7 0.895393 0.171414 0.650251
O O1 0.500000 0.159727 0.788355
O O2 0.332536 0.223892 0.806280
O O3 0.347663 0.076816 0.787233
O O4 0.401808 0.150445 0.000000
O O5 0.805629 0.000000 0.163536
O O6 0.892174 0.920384 0.327105
O O7 0.000000 0.000000 0.183772
O O8 0.500000 0.500000 0.644944
O O9 0.500000 0.621990 0.500000
O O10 0.412368 0.611251 0.741862
O O11 0.673777 0.000000 0.000000
O O12 0.311447 0.500000 0.826574
O O13 0.249382 0.647598 0.819064
O O14 0.359879 0.601282 0.000000
O O15 0.837392 0.782319 0.243117
O O16 0.779696 0.751308 0.000000
O O17 0.863762 0.188369 0.500000
O O18 0.000000 0.192835 0.662271
#
# Coordination Sequence:
#
# PCOD9381335 Si02
#       7
#     8   4   4   4   8   8   8
#     4   9  17  28  44  68  99 135 172 208 246 294
#     4  10  19  32  51  74  99 132 172 208 251 312
#     4   9  17  29  47  73 103 136 175 216 257 303
#     4  10  17  28  45  70 102 135 170 208 257 304
#     4   9  18  32  50  73 103 138 174 213 262 316
#     4  10  20  33  53  79 103 131 171 218 262 303
#     4  10  21  37  56  77 103 135 168 205 256 314
#
# _framework density 16.982638999999999
#
# number of rings (size 3 to 8) (size 9 to 14) (size 15 to 20)
#    0.000    2.455    1.818    0.818    1.273    4.545 
#    0.000    1.818    0.000    0.545    0.000    5.091 
#    0.000    0.000    0.000    0.000    0.000    0.000 
#
# Total GULP energy -244963.378840 kJ/mol
# GULP energy per Si atom -5567.349519 kJ/mol
# Density = 1.694399 g / cm^3
# Si number density = 16.982639 Si / 1000 Ang^3
#
#
#
# Elastic Constant Matrix: (Units=GPa)
#
#
# Indices 1 2 3 4 5 6 
#
# 1 77.6229 42.8923 38.9823 0.0000 0.0000 0.0000
# 2 42.8923 93.6423 48.7030 0.0000 0.0000 0.0000
# 3 38.9823 48.7030 69.0407 0.0000 0.0000 0.0000
# 4 0.0000 0.0000 0.0000 10.0069 0.0000 0.0000
# 5 0.0000 0.0000 0.0000 0.0000 6.9109 0.0000
# 6 0.0000 0.0000 0.0000 0.0000 0.0000 18.6844
#
#
#
# Elastic Compliance Matrix: (Units=1/GPa)
#
#
# Indices 1 2 3 4 5 6 
#
# 1 0.019374 -0.005030 -0.007391 0.000000 0.000000 0.000000
# 2 -0.005030 0.018173 -0.009980 0.000000 0.000000 0.000000
# 3 -0.007391 -0.009980 0.025697 0.000000 0.000000 0.000000
# 4 0.000000 0.000000 0.000000 0.099931 0.000000 0.000000
# 5 0.000000 0.000000 0.000000 0.000000 0.144698 0.000000
# 6 0.000000 0.000000 0.000000 0.000000 0.000000 0.053521
#
#
# Mechanical properties :
#
#
# Convention : Reuss Voigt Hill
#
# Bulk Modulus (GPa) = 54.22040 55.71791 54.96915
# Shear Modulus (GPa) = 12.12581 14.43567 13.28074
#
# Velocity S-wave (km/s) = 2.67500 2.91868 2.79949
# Velocity P-wave (km/s) = 6.44493 6.65118 6.54887
#
# Compressibility (1/GPa) = 0.01844324
#
# Stress axis : x y z
#
# Youngs Moduli (GPa) = 51.61569 55.02528 38.91498
#
# Poissons Ratio (x) = 0.27680 0.28760
# Poissons Ratio (y) = 0.25964 0.38836
# Poissons Ratio (z) = 0.38147 0.54914
#
# Static dielectric constant tensor:
#      x y z
#    x 1.563020 0.000000 0.000000 
#    y 0.000000 1.607990 0.000000 
#    z 0.000000 0.000000 1.577300 
# 
# From -- ./inp_files/6290.got.cif
#   From: 2010.05.17/outbox.cif.g08.bks.cpg/sg47_4_cif.got.tgz:6290.got - 2010.06.03 20:15:42.
