data_PCOD9381955
_publ_section_title
;
Structure prediction by ZEFSAII (Michael W. Deem and Ramdas Pophale) SiO2 
 PCOD9381955
Probable space group: P M M M
;
_chemical_formula_sum "Si O2"
_cell_formula_units_Z 64
_cell_length_a 8.454954
_cell_length_b 20.547143
_cell_length_c 20.752944
_cell_angle_alpha 90.000000
_cell_angle_beta 90.000000
_cell_angle_gamma 90.000000
_cell_volume 3605.308286
_symmetry_space_group_name_H-M "P M M M"
_symmetry_group_IT_number 47
_symmetry_cell_setting 'orthorhombic'
loop_
_space_group_symop_operation_xyz
x,y,z
-x,-y,z
x,-y,-z
-x,y,-z
-x,-y,-z
x,y,-z
-x,y,z
x,-y,z
loop_
_atom_site_type_symbol
_atom_site_label
_atom_site_fract_x
_atom_site_fract_y
_atom_site_fract_z
Si Si1 0.186224 0.666263 0.683032
Si Si2 0.688795 0.895593 0.929843
Si Si3 0.313563 0.252629 0.104706
Si Si4 0.807400 0.787959 0.755959
Si Si5 0.309841 0.426831 0.573560
Si Si6 0.186478 0.389433 0.929136
Si Si7 0.313413 0.426185 0.208284
Si Si8 0.810495 0.070286 0.209807
O O1 0.241217 0.739873 0.698419
O O2 0.260457 0.627839 0.623723
O O3 0.221278 0.624362 0.747307
O O4 0.000000 0.668603 0.672350
O O5 0.500000 0.907496 0.924815
O O6 0.712176 0.817539 0.927326
O O7 0.769206 0.922903 0.865938
O O8 0.742798 0.919594 0.000000
O O9 0.500000 0.268255 0.100377
O O10 0.262897 0.242196 0.178598
O O11 0.216695 0.311927 0.075390
O O12 0.754899 0.863433 0.755478
O O13 0.000000 0.786494 0.760591
O O14 0.256393 0.414582 0.500000
O O15 0.500000 0.428762 0.572887
O O16 0.255056 0.500000 0.592349
O O17 0.272678 0.418083 0.866888
O O18 0.000000 0.403001 0.923567
O O19 0.240656 0.411937 0.000000
O O20 0.500000 0.415161 0.217706
O O21 0.275954 0.500000 0.228097
O O22 0.000000 0.069810 0.215886
O O23 0.749052 0.000000 0.232677
#
# Coordination Sequence:
#
# PCOD9381955 Si02
#       8
#     8   8   8   8   8   8   8   8
#     4  11  21  33  54  81 108 136 168 209 252 296
#     4   9  18  30  43  62  88 117 151 194 247 307
#     4  10  18  30  49  69  89 117 156 201 249 304
#     4   9  18  32  49  71  99 127 160 203 251 297
#     4   9  19  36  56  79 111 149 182 209 240 285
#     4  11  23  36  50  68  91 120 156 205 265 319
#     4  11  24  39  54  72  95 126 166 210 253 302
#     4   9  18  32  48  65  89 123 161 201 246 300
#
# _framework density 17.751601999999998
#
# number of rings (size 3 to 8) (size 9 to 14) (size 15 to 20)
#    0.000    2.125    1.250    2.625    0.000    6.500 
#    0.000    3.125    0.000    0.000    0.000    0.000 
#    0.000    0.500    0.000    6.250    0.000    1.000 
#
# Total GULP energy -357106.455545 kJ/mol
# GULP energy per Si atom -5579.788368 kJ/mol
# Density = 1.771120 g / cm^3
# Si number density = 17.751602 Si / 1000 Ang^3
#
#
#
# Elastic Constant Matrix: (Units=GPa)
#
#
# Indices 1 2 3 4 5 6 
#
# 1 6.1869 11.5955 6.1185 0.0000 0.0000 0.0000
# 2 11.5955 104.7158 51.9201 0.0000 0.0000 0.0000
# 3 6.1185 51.9201 81.3236 0.0000 0.0000 0.0000
# 4 0.0000 0.0000 0.0000 -14.9762 0.0000 0.0000
# 5 0.0000 0.0000 0.0000 0.0000 23.6911 0.0000
# 6 0.0000 0.0000 0.0000 0.0000 0.0000 -0.8357
#
#
#
# Elastic Compliance Matrix: (Units=1/GPa)
#
#
# Indices 1 2 3 4 5 6 
#
# 1 0.204063 -0.021924 -0.001356 0.000000 0.000000 0.000000
# 2 -0.021924 0.016328 -0.008775 0.000000 0.000000 0.000000
# 3 -0.001356 -0.008775 0.018001 0.000000 0.000000 0.000000
# 4 0.000000 0.000000 0.000000 -0.066773 0.000000 0.000000
# 5 0.000000 0.000000 0.000000 0.000000 0.042210 0.000000
# 6 0.000000 0.000000 0.000000 0.000000 0.000000 -1.196608
#
#
# Mechanical properties :
#
#
# Convention : Reuss Voigt Hill
#
# Bulk Modulus (GPa) = 5.73782 36.83273 21.28528
# Shear Modulus (GPa) = -5.81008 9.74864 1.96928
#
# Velocity S-wave (km/s) = -1.81110 2.34598 1.05440
# Velocity P-wave (km/s) = 1.06497 5.30398 3.67410
#
# Compressibility (1/GPa) = 0.17428219
#
# Stress axis : x y z
#
# Youngs Moduli (GPa) = 4.90044 61.24342 55.55275
#
# Poissons Ratio (x) = 1.34273 0.07531
# Poissons Ratio (y) = 0.10744 0.48748
# Poissons Ratio (z) = 0.00664 0.53742
#
# Static dielectric constant tensor:
#      x y z
#    x 1.604520 0.000000 0.000000 
#    y 0.000000 1.659110 0.000000 
#    z 0.000000 0.000000 1.593550 
# 
# From -- ./inp_files/30161.got.cif
#   From: 2010.05.17/outbox.cif.g08.bks.cpg/sg47_16_cif.got.tgz:30161.got - 2010.06.03 20:15:42.
