data_PCOD9381297
_publ_section_title
;
Structure prediction by ZEFSAII (Michael W. Deem and Ramdas Pophale) SiO2 
 PCOD9381297
Probable space group: P M M M
;
_chemical_formula_sum "Si O2"
_cell_formula_units_Z 64
_cell_length_a 19.933406
_cell_length_b 24.415852
_cell_length_c 7.881470
_cell_angle_alpha 90.000000
_cell_angle_beta 90.000000
_cell_angle_gamma 90.000000
_cell_volume 3835.841231
_symmetry_space_group_name_H-M "P M M M"
_symmetry_group_IT_number 47
_symmetry_cell_setting 'orthorhombic'
loop_
_space_group_symop_operation_xyz
x,y,z
-x,-y,z
x,-y,-z
-x,y,-z
-x,-y,-z
x,y,-z
-x,y,z
x,-y,z
loop_
_atom_site_type_symbol
_atom_site_label
_atom_site_fract_x
_atom_site_fract_y
_atom_site_fract_z
Si Si1 0.574446 0.613281 0.704696
Si Si2 0.426249 0.741425 0.706561
Si Si3 0.282894 0.231743 0.299539
Si Si4 0.840329 0.166234 0.201085
Si Si5 0.799521 0.661740 0.200167
Si Si6 0.075953 0.062176 0.295481
Si Si7 0.076405 0.728077 0.208063
Si Si8 0.713863 0.439064 0.796954
O O1 0.575291 0.611479 0.500000
O O2 0.500000 0.595164 0.761042
O O3 0.582296 0.677295 0.753218
O O4 0.637147 0.578893 0.767591
O O5 0.428230 0.743399 0.500000
O O6 0.500000 0.759549 0.766856
O O7 0.359448 0.772954 0.762516
O O8 0.285206 0.242404 0.500000
O O9 0.233129 0.181166 0.269711
O O10 0.248330 0.285326 0.219352
O O11 0.871024 0.107529 0.241866
O O12 0.891352 0.213898 0.262702
O O13 0.836072 0.172125 0.000000
O O14 0.871813 0.681262 0.267359
O O15 0.762541 0.608537 0.273202
O O16 0.808578 0.652086 0.000000
O O17 0.074648 0.061483 0.500000
O O18 0.000000 0.076348 0.237214
O O19 0.090670 0.000000 0.238263
O O20 0.000000 0.722014 0.264374
O O21 0.076224 0.727819 0.000000
O O22 0.725988 0.500000 0.728648
O O23 0.723506 0.440789 0.000000
#
# Coordination Sequence:
#
# PCOD9381297 Si02
#       8
#     8   8   8   8   8   8   8   8
#     4   9  17  30  46  62  80 104 138 178 214 252
#     4   8  14  25  42  63  85 109 138 174 218 267
#     4  10  17  27  46  66  86 113 144 181 225 266
#     4  10  19  29  43  66  96 125 154 185 217 262
#     4   9  17  29  43  59  81 106 136 174 217 267
#     4   9  18  32  48  67  95 130 165 199 229 255
#     4   8  14  25  42  62  81 104 135 173 214 252
#     4  10  20  31  42  57  81 111 139 171 215 268
#
# _framework density 16.684736999999998
#
# number of rings (size 3 to 8) (size 9 to 14) (size 15 to 20)
#    0.000    2.875    1.250    3.000    0.000    1.750 
#    0.000    1.875    0.000    5.250    0.000    2.625 
#    0.000    0.500    0.000   11.375    0.000    7.875 
#
# Total GULP energy -356557.516167 kJ/mol
# GULP energy per Si atom -5571.211190 kJ/mol
# Density = 1.664676 g / cm^3
# Si number density = 16.684737 Si / 1000 Ang^3
#
#
#
# Elastic Constant Matrix: (Units=GPa)
#
#
# Indices 1 2 3 4 5 6 
#
# 1 151.6149 66.5344 3.0849 0.0000 0.0000 0.0000
# 2 66.5344 83.1581 -1.3131 0.0000 0.0000 0.0000
# 3 3.0849 -1.3131 14.4622 0.0000 0.0000 0.0000
# 4 0.0000 0.0000 0.0000 12.6198 0.0000 0.0000
# 5 0.0000 0.0000 0.0000 0.0000 11.7170 0.0000
# 6 0.0000 0.0000 0.0000 0.0000 0.0000 22.8848
#
#
#
# Elastic Compliance Matrix: (Units=1/GPa)
#
#
# Indices 1 2 3 4 5 6 
#
# 1 0.010288 -0.008278 -0.002946 0.000000 0.000000 0.000000
# 2 -0.008278 0.018703 0.003464 0.000000 0.000000 0.000000
# 3 -0.002946 0.003464 0.070089 0.000000 0.000000 0.000000
# 4 0.000000 0.000000 0.000000 0.079241 0.000000 0.000000
# 5 0.000000 0.000000 0.000000 0.000000 0.085346 0.000000
# 6 0.000000 0.000000 0.000000 0.000000 0.000000 0.043697
#
#
# Mechanical properties :
#
#
# Convention : Reuss Voigt Hill
#
# Bulk Modulus (GPa) = 11.96753 42.87195 27.41974
# Shear Modulus (GPa) = 14.25564 21.50624 17.88094
#
# Velocity S-wave (km/s) = 2.92620 3.59413 3.27723
# Velocity P-wave (km/s) = 4.31337 6.55551 5.54887
#
# Compressibility (1/GPa) = 0.08355943
#
# Stress axis : x y z
#
# Youngs Moduli (GPa) = 97.19679 53.46632 14.26766
#
# Poissons Ratio (x) = 0.44261 0.04204
# Poissons Ratio (y) = 0.80462 -0.04942
# Poissons Ratio (z) = 0.28636 -0.18521
#
# Static dielectric constant tensor:
#      x y z
#    x 1.590260 0.000000 0.000000 
#    y 0.000000 1.551900 0.000000 
#    z 0.000000 0.000000 1.615470 
# 
# From -- ./inp_files/11951.got.cif
#   From: 2010.05.17/outbox.cif.g08.bks.cpg/sg47_6_cif.got.tgz:11951.got - 2010.06.03 20:15:42.
