data_PCOD9381407
_publ_section_title
;
Structure prediction by ZEFSAII (Michael W. Deem and Ramdas Pophale) SiO2 
 PCOD9381407
Probable space group: P M M M
;
_chemical_formula_sum "Si O2"
_cell_formula_units_Z 64
_cell_length_a 20.373853
_cell_length_b 7.590997
_cell_length_c 21.317481
_cell_angle_alpha 90.000000
_cell_angle_beta 90.000000
_cell_angle_gamma 90.000000
_cell_volume 3296.915928
_symmetry_space_group_name_H-M "P M M M"
_symmetry_group_IT_number 47
_symmetry_cell_setting 'orthorhombic'
loop_
_space_group_symop_operation_xyz
x,y,z
-x,-y,z
x,-y,-z
-x,y,-z
-x,-y,-z
x,y,-z
-x,y,z
x,-y,z
loop_
_atom_site_type_symbol
_atom_site_label
_atom_site_fract_x
_atom_site_fract_y
_atom_site_fract_z
Si Si1 0.213703 0.787274 0.932014
Si Si2 0.927895 0.785382 0.890744
Si Si3 0.572167 0.785338 0.382392
Si Si4 0.204571 0.202146 0.685412
Si Si5 0.285699 0.699585 0.803402
Si Si6 0.927568 0.784916 0.744001
Si Si7 0.288700 0.215879 0.430715
Si Si8 0.572528 0.212430 0.235989
O O1 0.138292 0.725857 0.924161
O O2 0.255341 0.736628 0.871278
O O3 0.212303 0.000000 0.932055
O O4 0.239208 0.728331 0.000000
O O5 0.921522 0.736692 0.817345
O O6 0.000000 0.726799 0.913287
O O7 0.928355 0.000000 0.894069
O O8 0.500000 0.726990 0.404203
O O9 0.636163 0.726880 0.419369
O O10 0.579725 0.735239 0.309122
O O11 0.571651 0.000000 0.384081
O O12 0.250478 0.196587 0.747219
O O13 0.134841 0.281435 0.705623
O O14 0.244057 0.279542 0.626835
O O15 0.190591 0.000000 0.667527
O O16 0.270955 0.500000 0.786863
O O17 0.363739 0.727271 0.801281
O O18 0.000000 0.730698 0.721927
O O19 0.925860 0.000000 0.743456
O O20 0.266215 0.267546 0.500000
O O21 0.289641 0.000000 0.428407
O O22 0.500000 0.271454 0.214581
O O23 0.572780 0.000000 0.234806
#
# Coordination Sequence:
#
# PCOD9381407 Si02
#       8
#     8   8   8   8   8   8   8   8
#     4  10  20  34  53  75 100 133 170 204 243 294
#     4   8  13  23  43  73 102 124 157 205 248 288
#     4   8  13  22  39  65  95 124 154 191 234 282
#     4  10  17  30  51  69  94 129 169 214 250 295
#     4  12  23  33  50  75 104 134 165 203 246 294
#     4   8  13  22  42  70  93 119 160 210 256 291
#     4   9  16  24  39  67  98 128 163 206 253 292
#     4   9  17  32  55  78  98 124 163 207 248 291
#
# _framework density 19.412082999999999
#
# number of rings (size 3 to 8) (size 9 to 14) (size 15 to 20)
#    0.000    2.750    2.500    2.625    0.000    1.000 
#    0.000    2.500    0.000    2.625    0.000    6.125 
#    0.000    2.000    0.000    1.125    0.000    1.250 
#
# Total GULP energy -356881.552503 kJ/mol
# GULP energy per Si atom -5576.274258 kJ/mol
# Density = 1.936790 g / cm^3
# Si number density = 19.412083 Si / 1000 Ang^3
#
#
#
# Elastic Constant Matrix: (Units=GPa)
#
#
# Indices 1 2 3 4 5 6 
#
# 1 134.6657 -0.7500 68.7029 0.0000 0.0000 0.0000
# 2 -0.7500 43.5687 -0.5880 0.0000 0.0000 0.0000
# 3 68.7029 -0.5880 108.1919 0.0000 0.0000 0.0000
# 4 0.0000 0.0000 0.0000 -26.7203 0.0000 0.0000
# 5 0.0000 0.0000 0.0000 0.0000 21.8670 0.0000
# 6 0.0000 0.0000 0.0000 0.0000 0.0000 -43.6061
#
#
#
# Elastic Compliance Matrix: (Units=1/GPa)
#
#
# Indices 1 2 3 4 5 6 
#
# 1 0.010985 0.000095 -0.006975 0.000000 0.000000 0.000000
# 2 0.000095 0.022955 0.000064 0.000000 0.000000 0.000000
# 3 -0.006975 0.000064 0.013672 0.000000 0.000000 0.000000
# 4 0.000000 0.000000 0.000000 -0.037425 0.000000 0.000000
# 5 0.000000 0.000000 0.000000 0.000000 0.045731 0.000000
# 6 0.000000 0.000000 0.000000 0.000000 0.000000 -0.022933
#
#
# Mechanical properties :
#
#
# Convention : Reuss Voigt Hill
#
# Bulk Modulus (GPa) = 29.42835 46.79513 38.11174
# Shear Modulus (GPa) = 86.29121 4.91222 45.60171
#
# Velocity S-wave (km/s) = 6.67449 1.59248 4.85205
# Velocity P-wave (km/s) = 8.63662 5.24784 7.14601
#
# Compressibility (1/GPa) = 0.03398084
#
# Stress axis : x y z
#
# Youngs Moduli (GPa) = 91.03539 43.56394 73.14047
#
# Poissons Ratio (x) = -0.00414 0.51015
# Poissons Ratio (y) = -0.00865 -0.00471
# Poissons Ratio (z) = 0.63496 -0.00281
#
# Static dielectric constant tensor:
#      x y z
#    x 1.695440 0.000000 0.000000 
#    y 0.000000 1.740110 0.000000 
#    z 0.000000 0.000000 1.662240 
# 
# From -- ./inp_files/31533.got.cif
#   From: 2010.05.17/outbox.cif.g08.bks.cpg/sg47_16_cif.got.tgz:31533.got - 2010.06.03 20:15:42.
