data_PCOD9381694
_publ_section_title
;
Structure prediction by ZEFSAII (Michael W. Deem and Ramdas Pophale) SiO2 
 PCOD9381694
Probable space group: P M M M
;
_chemical_formula_sum "Si O2"
_cell_formula_units_Z 52
_cell_length_a 14.743626
_cell_length_b 7.510330
_cell_length_c 21.848811
_cell_angle_alpha 90.000000
_cell_angle_beta 90.000000
_cell_angle_gamma 90.000000
_cell_volume 2419.307845
_symmetry_space_group_name_H-M "P M M M"
_symmetry_group_IT_number 47
_symmetry_cell_setting 'orthorhombic'
loop_
_space_group_symop_operation_xyz
x,y,z
-x,-y,z
x,-y,-z
-x,y,-z
-x,-y,-z
x,y,-z
-x,y,z
x,-y,z
loop_
_atom_site_type_symbol
_atom_site_label
_atom_site_fract_x
_atom_site_fract_y
_atom_site_fract_z
Si Si1 0.097483 0.702837 0.093860
Si Si2 0.096799 0.786337 0.233835
Si Si3 0.606799 0.795617 0.000000
Si Si4 0.395963 0.288114 0.763269
Si Si5 0.103189 0.782946 0.428940
Si Si6 0.245270 0.785509 0.672198
Si Si7 0.289245 0.293798 0.882503
O O1 0.099065 0.500000 0.070308
O O2 0.093878 0.702282 0.167610
O O3 0.196924 0.786691 0.087662
O O4 0.000000 0.782342 0.074048
O O5 0.179086 0.722144 0.273681
O O6 0.000000 0.754633 0.265034
O O7 0.105245 0.000000 0.225581
O O8 0.640532 0.710089 0.062489
O O9 0.500000 0.791847 0.000000
O O10 0.637817 0.000000 0.000000
O O11 0.500000 0.220164 0.764006
O O12 0.401323 0.500000 0.773207
O O13 0.344549 0.261460 0.698268
O O14 0.334364 0.216776 0.820384
O O15 0.115474 0.734192 0.500000
O O16 0.189506 0.724376 0.388021
O O17 0.000000 0.726248 0.410936
O O18 0.101818 0.000000 0.425410
O O19 0.243993 0.000000 0.669661
O O20 0.266541 0.500000 0.868702
#
# Coordination Sequence:
#
# PCOD9381694 Si02
#       7
#     8   8   4   8   8   8   8
#     4   9  17  30  50  76 103 130 162 198 236 287
#     4   9  16  25  40  67 102 133 158 190 238 294
#     4  11  25  41  58  81 104 128 167 219 266 305
#     4  10  21  36  53  74 101 133 171 215 263 314
#     4   8  14  26  46  74 108 143 176 210 251 303
#     4  10  18  28  47  75 103 132 170 213 257 303
#     4  10  20  37  59  79 102 135 171 206 251 309
#
# _framework density 21.493751
#
# number of rings (size 3 to 8) (size 9 to 14) (size 15 to 20)
#    0.000    2.538    1.538    1.615    0.000    4.615 
#    0.000    0.385    0.000    4.615    0.000    4.308 
#    0.000    0.000    0.000    0.000    0.000    0.000 
#
# Total GULP energy -289599.554895 kJ/mol
# GULP energy per Si atom -5569.222210 kJ/mol
# Density = 2.144483 g / cm^3
# Si number density = 21.493751 Si / 1000 Ang^3
#
#
#
# Elastic Constant Matrix: (Units=GPa)
#
#
# Indices 1 2 3 4 5 6 
#
# 1 157.4107 17.8009 52.8562 0.0000 0.0000 0.0000
# 2 17.8009 55.3722 2.1291 0.0000 0.0000 0.0000
# 3 52.8562 2.1291 111.4626 0.0000 0.0000 0.0000
# 4 0.0000 0.0000 0.0000 2.1860 0.0000 0.0000
# 5 0.0000 0.0000 0.0000 0.0000 22.0552 0.0000
# 6 0.0000 0.0000 0.0000 0.0000 0.0000 17.1723
#
#
#
# Elastic Compliance Matrix: (Units=1/GPa)
#
#
# Indices 1 2 3 4 5 6 
#
# 1 0.007859 -0.002385 -0.003681 0.000000 0.000000 0.000000
# 2 -0.002385 0.018797 0.000772 0.000000 0.000000 0.000000
# 3 -0.003681 0.000772 0.010702 0.000000 0.000000 0.000000
# 4 0.000000 0.000000 0.000000 0.457460 0.000000 0.000000
# 5 0.000000 0.000000 0.000000 0.000000 0.045341 0.000000
# 6 0.000000 0.000000 0.000000 0.000000 0.000000 0.058233
#
#
# Mechanical properties :
#
#
# Convention : Reuss Voigt Hill
#
# Bulk Modulus (GPa) = 37.35577 52.20199 44.77888
# Shear Modulus (GPa) = 8.09189 25.04666 16.56927
#
# Velocity S-wave (km/s) = 1.94241 3.41735 2.77950
# Velocity P-wave (km/s) = 4.73795 6.31750 5.58386
#
# Compressibility (1/GPa) = 0.02676963
#
# Stress axis : x y z
#
# Youngs Moduli (GPa) = 127.25043 53.20111 93.43675
#
# Poissons Ratio (x) = 0.12687 0.34394
# Poissons Ratio (y) = 0.30347 -0.07212
# Poissons Ratio (z) = 0.46841 -0.04106
#
# Static dielectric constant tensor:
#      x y z
#    x 1.875610 0.000000 0.000000 
#    y 0.000000 1.850390 0.000000 
#    z 0.000000 0.000000 1.764410 
# 
# From -- ./inp_files/30834.got.cif
#   From: 2010.05.17/outbox.cif.g08.bks.cpg/sg47_16_cif.got.tgz:30834.got - 2010.06.03 20:15:42.
