data_PCOD9381327
_publ_section_title
;
Structure prediction by ZEFSAII (Michael W. Deem and Ramdas Pophale) SiO2 
 PCOD9381327
Probable space group: P M M M
;
_chemical_formula_sum "Si O2"
_cell_formula_units_Z 48
_cell_length_a 14.631762
_cell_length_b 7.453418
_cell_length_c 21.792539
_cell_angle_alpha 90.000000
_cell_angle_beta 90.000000
_cell_angle_gamma 90.000000
_cell_volume 2376.621043
_symmetry_space_group_name_H-M "P M M M"
_symmetry_group_IT_number 47
_symmetry_cell_setting 'orthorhombic'
loop_
_space_group_symop_operation_xyz
x,y,z
-x,-y,z
x,-y,-z
-x,y,-z
-x,-y,-z
x,y,-z
-x,y,z
x,-y,z
loop_
_atom_site_type_symbol
_atom_site_label
_atom_site_fract_x
_atom_site_fract_y
_atom_site_fract_z
Si Si1 0.893769 0.780530 0.189284
Si Si2 0.795944 0.790207 0.933350
Si Si3 0.893894 0.218714 0.431397
Si Si4 0.792875 0.789085 0.688554
Si Si5 0.398320 0.284010 0.740937
Si Si6 0.602410 0.283178 0.882398
O O1 0.845311 0.715452 0.127013
O O2 0.841709 0.715955 0.250230
O O3 0.000000 0.731991 0.190890
O O4 0.888577 0.000000 0.189171
O O5 0.687243 0.778645 0.922364
O O6 0.820891 0.000000 0.935345
O O7 0.819066 0.711940 0.000000
O O8 0.867472 0.278464 0.500000
O O9 0.832076 0.283689 0.375215
O O10 0.000000 0.267264 0.420854
O O11 0.890669 0.000000 0.432417
O O12 0.684874 0.771419 0.698337
O O13 0.815098 0.000000 0.687790
O O14 0.500000 0.223501 0.722689
O O15 0.399269 0.500000 0.742312
O O16 0.382398 0.224836 0.811548
O O17 0.500000 0.225972 0.900881
O O18 0.603007 0.500000 0.883210
#
# Coordination Sequence:
#
# PCOD9381327 Si02
#       6
#     8   8   8   8   8   8
#     4   9  17  29  45  67  93 119 151 190 227 267
#     4  10  20  32  46  67  94 122 152 189 234 276
#     4   8  14  25  43  71 105 133 155 185 229 277
#     4  10  17  27  49  76  96 119 155 195 230 266
#     4   9  18  32  49  69  94 123 153 189 236 284
#     4   9  18  33  51  68  88 118 154 190 233 285
#
# _framework density 20.196740999999999
#
# number of rings (size 3 to 8) (size 9 to 14) (size 15 to 20)
#    0.000    2.833    1.667    2.000    0.000    3.667 
#    0.000    5.000    0.000    4.500    0.000    5.833 
#    0.000    0.000    0.000    0.000    0.000    0.000 
#
# Total GULP energy -267846.107849 kJ/mol
# GULP energy per Si atom -5580.127247 kJ/mol
# Density = 2.015077 g / cm^3
# Si number density = 20.196741 Si / 1000 Ang^3
#
#
#
# Elastic Constant Matrix: (Units=GPa)
#
#
# Indices 1 2 3 4 5 6 
#
# 1 115.5497 -7.0288 97.7077 0.0000 0.0000 0.0000
# 2 -7.0288 58.5521 9.5139 0.0000 0.0000 0.0000
# 3 97.7077 9.5139 181.7699 0.0000 0.0000 0.0000
# 4 0.0000 0.0000 0.0000 -3.4904 0.0000 0.0000
# 5 0.0000 0.0000 0.0000 0.0000 14.4992 0.0000
# 6 0.0000 0.0000 0.0000 0.0000 0.0000 31.0932
#
#
#
# Elastic Compliance Matrix: (Units=1/GPa)
#
#
# Indices 1 2 3 4 5 6 
#
# 1 0.016532 0.003458 -0.009068 0.000000 0.000000 0.000000
# 2 0.003458 0.017949 -0.002798 0.000000 0.000000 0.000000
# 3 -0.009068 -0.002798 0.010522 0.000000 0.000000 0.000000
# 4 0.000000 0.000000 0.000000 -0.286498 0.000000 0.000000
# 5 0.000000 0.000000 0.000000 0.000000 0.068969 0.000000
# 6 0.000000 0.000000 0.000000 0.000000 0.000000 0.032161
#
#
# Mechanical properties :
#
#
# Convention : Reuss Voigt Hill
#
# Bulk Modulus (GPa) = 35.47729 61.80639 48.64184
# Shear Modulus (GPa) = -43.80087 25.46564 -9.16761
#
# Velocity S-wave (km/s) = -4.66199 3.55474 -2.13284
# Velocity P-wave (km/s) = 3.37267 6.89324 4.25099
#
# Compressibility (1/GPa) = 0.02818704
#
# Stress axis : x y z
#
# Youngs Moduli (GPa) = 60.48851 55.71470 95.03847
#
# Poissons Ratio (x) = -0.19266 0.86177
# Poissons Ratio (y) = -0.20916 0.26594
# Poissons Ratio (z) = 0.54848 0.15590
#
# Static dielectric constant tensor:
#      x y z
#    x 1.689450 0.000000 0.000000 
#    y 0.000000 1.774850 0.000000 
#    z 0.000000 0.000000 1.717720 
# 
# From -- ./inp_files/6737.got.cif
#   From: 2010.05.17/outbox.cif.g08.bks.cpg/sg47_4_cif.got.tgz:6737.got - 2010.06.03 20:15:42.
