data_PCOD9381762
_publ_section_title
;
Structure prediction by ZEFSAII (Michael W. Deem and Ramdas Pophale) SiO2 
 PCOD9381762
Probable space group: P M M M
;
_chemical_formula_sum "Si O2"
_cell_formula_units_Z 52
_cell_length_a 30.777304
_cell_length_b 9.482337
_cell_length_c 12.893679
_cell_angle_alpha 90.000000
_cell_angle_beta 90.000000
_cell_angle_gamma 90.000000
_cell_volume 3762.901188
_symmetry_space_group_name_H-M "P M M M"
_symmetry_group_IT_number 47
_symmetry_cell_setting 'orthorhombic'
loop_
_space_group_symop_operation_xyz
x,y,z
-x,-y,z
x,-y,-z
-x,y,-z
-x,-y,-z
x,y,-z
-x,y,z
x,-y,z
loop_
_atom_site_type_symbol
_atom_site_label
_atom_site_fract_x
_atom_site_fract_y
_atom_site_fract_z
Si Si1 0.550467 0.668371 0.878162
Si Si2 0.132520 0.162505 0.626565
Si Si3 0.697270 0.166612 0.376239
Si Si4 0.397477 0.830259 0.294378
Si Si5 0.951189 0.663500 0.626069
Si Si6 0.782861 0.337687 0.626222
Si Si7 0.549813 0.828603 0.500000
O O1 0.500000 0.703908 0.854258
O O2 0.555446 0.500000 0.863548
O O3 0.582362 0.753363 0.804171
O O4 0.557614 0.698237 0.000000
O O5 0.132421 0.163563 0.500000
O O6 0.087960 0.237286 0.660909
O O7 0.174584 0.251453 0.659750
O O8 0.135048 0.000000 0.659085
O O9 0.689682 0.187324 0.500000
O O10 0.652977 0.201494 0.316620
O O11 0.738535 0.258846 0.343890
O O12 0.706703 0.000000 0.362581
O O13 0.424764 0.786178 0.396393
O O14 0.401421 0.000000 0.283980
O O15 0.951117 0.666804 0.500000
O O16 0.943738 0.500000 0.655240
O O17 0.000000 0.704908 0.659084
O O18 0.783479 0.337768 0.500000
O O19 0.784062 0.500000 0.660215
O O20 0.500000 0.780007 0.500000
O O21 0.549564 0.000000 0.500000
#
# Coordination Sequence:
#
# PCOD9381762 Si02
#       7
#     8   8   8   8   8   8   4
#     4   9  19  35  50  63  83 110 136 164 199 233
#     4   9  15  21  29  41  56  76 104 139 180 222
#     4   9  16  27  40  55  78 102 123 148 186 231
#     4  10  18  29  46  67  86 107 133 162 194 233
#     4   8  13  20  28  37  51  72  98 132 176 223
#     4   9  16  24  34  47  63  86 117 148 178 216
#     4   9  16  26  41  63  89 111 129 153 190 233
#
# _framework density 13.819124
#
# number of rings (size 3 to 8) (size 9 to 14) (size 15 to 20)
#    0.000    3.000    0.769    2.308    0.000    5.846 
#    0.000    2.692    0.000    1.385    0.000    0.000 
#    0.000    0.000    0.000    0.000    0.000    0.000 
#
# Total GULP energy -289511.577646 kJ/mol
# GULP energy per Si atom -5567.530339 kJ/mol
# Density = 1.378767 g / cm^3
# Si number density = 13.819124 Si / 1000 Ang^3
#
#
#
# Elastic Constant Matrix: (Units=GPa)
#
#
# Indices 1 2 3 4 5 6 
#
# 1 152.8816 89.5630 37.3157 0.0000 0.0000 0.0000
# 2 89.5630 83.8704 27.7461 0.0000 0.0000 0.0000
# 3 37.3157 27.7461 28.9223 0.0000 0.0000 0.0000
# 4 0.0000 0.0000 0.0000 13.0419 0.0000 0.0000
# 5 0.0000 0.0000 0.0000 0.0000 6.7872 0.0000
# 6 0.0000 0.0000 0.0000 0.0000 0.0000 27.4287
#
#
#
# Elastic Compliance Matrix: (Units=1/GPa)
#
#
# Indices 1 2 3 4 5 6 
#
# 1 0.018434 -0.017311 -0.007177 0.000000 0.000000 0.000000
# 2 -0.017311 0.033723 -0.010017 0.000000 0.000000 0.000000
# 3 -0.007177 -0.010017 0.053444 0.000000 0.000000 0.000000
# 4 0.000000 0.000000 0.000000 0.076676 0.000000 0.000000
# 5 0.000000 0.000000 0.000000 0.000000 0.147337 0.000000
# 6 0.000000 0.000000 0.000000 0.000000 0.000000 0.036458
#
#
# Mechanical properties :
#
#
# Convention : Reuss Voigt Hill
#
# Bulk Modulus (GPa) = 27.32816 63.88044 45.60430
# Shear Modulus (GPa) = 11.17871 16.85483 14.01677
#
# Velocity S-wave (km/s) = 2.84726 3.49617 3.18827
# Velocity P-wave (km/s) = 5.53423 7.91354 6.82832
#
# Compressibility (1/GPa) = 0.03659229
#
# Stress axis : x y z
#
# Youngs Moduli (GPa) = 54.24728 29.65343 18.71111
#
# Poissons Ratio (x) = 0.51333 0.13428
# Poissons Ratio (y) = 0.93908 0.18742
# Poissons Ratio (z) = 0.38932 0.29703
#
# Static dielectric constant tensor:
#      x y z
#    x 1.460860 0.000000 0.000000 
#    y 0.000000 1.459990 0.000000 
#    z 0.000000 0.000000 1.414900 
# 
# From -- ./inp_files/15657.got.cif
#   From: 2010.05.17/outbox.cif.g08.bks.cpg/sg47_8_cif.got.tgz:15657.got - 2010.06.03 20:15:42.
