data_PCOD9381512
_publ_section_title
;
Structure prediction by ZEFSAII (Michael W. Deem and Ramdas Pophale) SiO2 
 PCOD9381512
Probable space group: P M M M
;
_chemical_formula_sum "Si O2"
_cell_formula_units_Z 60
_cell_length_a 26.309095
_cell_length_b 7.323787
_cell_length_c 15.542310
_cell_angle_alpha 90.000000
_cell_angle_beta 90.000000
_cell_angle_gamma 90.000000
_cell_volume 2994.726607
_symmetry_space_group_name_H-M "P M M M"
_symmetry_group_IT_number 47
_symmetry_cell_setting 'orthorhombic'
loop_
_space_group_symop_operation_xyz
x,y,z
-x,-y,z
x,-y,-z
-x,y,-z
-x,-y,-z
x,y,-z
-x,y,z
x,-y,z
loop_
_atom_site_type_symbol
_atom_site_label
_atom_site_fract_x
_atom_site_fract_y
_atom_site_fract_z
Si Si1 0.443191 0.722132 0.099135
Si Si2 0.938543 0.795007 0.000000
Si Si3 0.056900 0.781064 0.185157
Si Si4 0.336034 0.720968 0.406040
Si Si5 0.216680 0.721647 0.407980
Si Si6 0.751895 0.722646 0.100144
Si Si7 0.652284 0.277061 0.788129
Si Si8 0.833713 0.716618 0.764717
O O1 0.500000 0.778753 0.126082
O O2 0.442773 0.500000 0.099934
O O3 0.396913 0.781395 0.158223
O O4 0.435518 0.777225 0.000000
O O5 0.927486 0.706460 0.909097
O O6 0.000000 0.809919 0.000000
O O7 0.916560 0.000000 0.000000
O O8 0.106054 0.745256 0.240927
O O9 0.000000 0.717063 0.209007
O O10 0.052948 0.000000 0.176036
O O11 0.356783 0.782922 0.500000
O O12 0.341061 0.500000 0.406288
O O13 0.276188 0.764628 0.406318
O O14 0.353249 0.782813 0.311335
O O15 0.195225 0.782547 0.500000
O O16 0.213371 0.500000 0.406777
O O17 0.191147 0.791005 0.321919
O O18 0.751225 0.500000 0.097244
O O19 0.703672 0.776821 0.160219
O O20 0.803205 0.782323 0.150594
O O21 0.748937 0.782213 0.000000
O O22 0.653952 0.500000 0.786516
O O23 0.825313 0.500000 0.765487
#
# Coordination Sequence:
#
# PCOD9381512 Si02
#       8
#     8   4   8   8   8   8   8   8
#     4   8  13  19  26  37  53  80 124 167 191 216
#     4   7  12  26  45  59  71  97 139 169 178 205
#     4   9  18  32  47  60  78 108 141 166 190 229
#     4   8  12  18  29  44  62  85 115 149 184 227
#     4   8  13  23  38  56  78 100 123 155 194 235
#     4   9  16  23  31  50  80 104 117 141 194 251
#     4   9  13  19  30  42  62  92 121 149 190 238
#     4  10  18  27  42  64  85 102 126 164 205 241
#
# _framework density 20.035218
#
# number of rings (size 3 to 8) (size 9 to 14) (size 15 to 20)
#    0.000    3.400    1.333    2.400    0.933    1.867 
#    0.000    0.000    0.000    2.400    0.000    5.600 
#    0.000    0.000    0.000    0.000    0.000    0.667 
#
# Total GULP energy -334117.914494 kJ/mol
# GULP energy per Si atom -5568.631908 kJ/mol
# Density = 1.998962 g / cm^3
# Si number density = 20.035218 Si / 1000 Ang^3
#
#
#
# Elastic Constant Matrix: (Units=GPa)
#
#
# Indices 1 2 3 4 5 6 
#
# 1 111.5009 -0.4385 74.9844 0.0000 0.0000 0.0000
# 2 -0.4385 77.8159 6.3615 0.0000 0.0000 0.0000
# 3 74.9844 6.3615 153.3125 0.0000 0.0000 0.0000
# 4 0.0000 0.0000 0.0000 -15.7267 0.0000 0.0000
# 5 0.0000 0.0000 0.0000 0.0000 27.2059 0.0000
# 6 0.0000 0.0000 0.0000 0.0000 0.0000 5.5901
#
#
#
# Elastic Compliance Matrix: (Units=1/GPa)
#
#
# Indices 1 2 3 4 5 6 
#
# 1 0.013393 0.000613 -0.006576 0.000000 0.000000 0.000000
# 2 0.000613 0.012923 -0.000836 0.000000 0.000000 0.000000
# 3 -0.006576 -0.000836 0.009774 0.000000 0.000000 0.000000
# 4 0.000000 0.000000 0.000000 -0.063586 0.000000 0.000000
# 5 0.000000 0.000000 0.000000 0.000000 0.036757 0.000000
# 6 0.000000 0.000000 0.000000 0.000000 0.000000 0.178887
#
#
# Mechanical properties :
#
#
# Convention : Reuss Voigt Hill
#
# Bulk Modulus (GPa) = 44.46117 56.04934 50.25526
# Shear Modulus (GPa) = 23.89576 20.86199 22.37887
#
# Velocity S-wave (km/s) = 3.45728 3.23037 3.34575
# Velocity P-wave (km/s) = 6.17873 6.47687 6.32956
#
# Compressibility (1/GPa) = 0.02249153
#
# Stress axis : x y z
#
# Youngs Moduli (GPa) = 74.66386 77.38356 102.31601
#
# Poissons Ratio (x) = -0.04744 0.67284
# Poissons Ratio (y) = -0.04577 0.08554
# Poissons Ratio (z) = 0.49099 0.06470
#
# Static dielectric constant tensor:
#      x y z
#    x 1.683660 0.000000 0.000000 
#    y 0.000000 1.845040 0.000000 
#    z 0.000000 0.000000 1.745160 
# 
# From -- ./inp_files/25653.got.cif
#   From: 2010.05.17/outbox.cif.g08.bks.cpg/sg47_13_cif.got.tgz:25653.got - 2010.06.03 20:15:42.
