data_PCOD9381630
_publ_section_title
;
Structure prediction by ZEFSAII (Michael W. Deem and Ramdas Pophale) SiO2 
 PCOD9381630
Probable space group: P M M M
;
_chemical_formula_sum "Si O2"
_cell_formula_units_Z 52
_cell_length_a 7.878810
_cell_length_b 12.356814
_cell_length_c 29.024358
_cell_angle_alpha 90.000000
_cell_angle_beta 90.000000
_cell_angle_gamma 90.000000
_cell_volume 2825.724123
_symmetry_space_group_name_H-M "P M M M"
_symmetry_group_IT_number 47
_symmetry_cell_setting 'orthorhombic'
loop_
_space_group_symop_operation_xyz
x,y,z
-x,-y,z
x,-y,-z
-x,y,-z
-x,-y,-z
x,y,-z
-x,y,z
x,-y,z
loop_
_atom_site_type_symbol
_atom_site_label
_atom_site_fract_x
_atom_site_fract_y
_atom_site_fract_z
Si Si1 0.700893 0.624981 0.600455
Si Si2 0.797477 0.376313 0.500000
Si Si3 0.291095 0.260791 0.139526
Si Si4 0.207014 0.500000 0.743601
Si Si5 0.200194 0.719747 0.305550
Si Si6 0.706875 0.874922 0.051096
Si Si7 0.697985 0.500000 0.151126
Si Si8 0.701591 0.122595 0.772359
O O1 0.500000 0.617531 0.605520
O O2 0.770653 0.500000 0.604842
O O3 0.740521 0.668039 0.549245
O O4 0.766398 0.703021 0.640510
O O5 0.729755 0.500000 0.500000
O O6 0.000000 0.378737 0.500000
O O7 0.500000 0.263347 0.140891
O O8 0.237669 0.194864 0.094473
O O9 0.229542 0.384354 0.136267
O O10 0.233676 0.200220 0.186349
O O11 0.263284 0.392137 0.717356
O O12 0.285068 0.500000 0.793869
O O13 0.000000 0.500000 0.746275
O O14 0.272936 0.819668 0.276803
O O15 0.000000 0.724782 0.298457
O O16 0.500000 0.873451 0.051388
O O17 0.758032 0.000000 0.056617
O O18 0.760705 0.837842 0.000000
O O19 0.500000 0.500000 0.137505
O O20 0.500000 0.114823 0.779960
O O21 0.770791 0.000000 0.774105
#
# Coordination Sequence:
#
# PCOD9381630 Si02
#       8
#     8   4   8   4   8   8   4   8
#     4  10  19  30  47  71 100 133 169 206 245 291
#     4   9  17  29  45  67 100 137 170 205 247 292
#     4   9  16  26  41  63  90 121 157 194 236 289
#     4  10  20  32  46  66  94 127 162 198 236 286
#     4  11  21  33  49  70  98 129 163 201 245 294
#     4   8  13  22  37  57  84 120 158 194 236 288
#     4  10  18  28  45  66  91 123 156 192 239 292
#     4  10  20  33  49  69  94 125 161 201 244 290
#
# _framework density 18.402363000000001
#
# number of rings (size 3 to 8) (size 9 to 14) (size 15 to 20)
#    0.000    2.385    2.308    2.077    0.000    4.308 
#    0.000    0.385    0.000    2.308    0.000    0.538 
#    0.000    7.385    0.000    8.462    0.000    7.692 
#
# Total GULP energy -289890.407740 kJ/mol
# GULP energy per Si atom -5574.815533 kJ/mol
# Density = 1.836048 g / cm^3
# Si number density = 18.402363 Si / 1000 Ang^3
#
#
#
# Elastic Constant Matrix: (Units=GPa)
#
#
# Indices 1 2 3 4 5 6 
#
# 1 18.3164 5.9639 -8.9248 0.0000 0.0000 0.0000
# 2 5.9639 120.0346 67.8458 0.0000 0.0000 0.0000
# 3 -8.9248 67.8458 134.1989 0.0000 0.0000 0.0000
# 4 0.0000 0.0000 0.0000 11.5811 0.0000 0.0000
# 5 0.0000 0.0000 0.0000 0.0000 -97.6513 0.0000
# 6 0.0000 0.0000 0.0000 0.0000 0.0000 6.7719
#
#
#
# Elastic Compliance Matrix: (Units=1/GPa)
#
#
# Indices 1 2 3 4 5 6 
#
# 1 0.060817 -0.007431 0.007802 0.000000 0.000000 0.000000
# 2 -0.007431 0.012572 -0.006850 0.000000 0.000000 0.000000
# 3 0.007802 -0.006850 0.011434 0.000000 0.000000 0.000000
# 4 0.000000 0.000000 0.000000 0.086347 0.000000 0.000000
# 5 0.000000 0.000000 0.000000 0.000000 -0.010241 0.000000
# 6 0.000000 0.000000 0.000000 0.000000 0.000000 0.147668
#
#
# Mechanical properties :
#
#
# Convention : Reuss Voigt Hill
#
# Bulk Modulus (GPa) = 13.91537 44.70218 29.30877
# Shear Modulus (GPa) = 14.47130 -2.01530 6.22800
#
# Velocity S-wave (km/s) = 2.80729 -1.04762 1.84165
# Velocity P-wave (km/s) = 4.25276 4.78340 4.52587
#
# Compressibility (1/GPa) = 0.07186297
#
# Stress axis : x y z
#
# Youngs Moduli (GPa) = 16.44276 79.54210 87.46141
#
# Poissons Ratio (x) = 0.59110 -0.68234
# Poissons Ratio (y) = 0.12219 0.59912
# Poissons Ratio (z) = -0.12828 0.54487
#
# Static dielectric constant tensor:
#      x y z
#    x 1.667270 0.000000 0.000000 
#    y 0.000000 1.651410 0.000000 
#    z 0.000000 0.000000 1.638030 
# 
# From -- ./inp_files/15583.got.cif
#   From: 2010.05.17/outbox.cif.g08.bks.cpg/sg47_8_cif.got.tgz:15583.got - 2010.06.03 20:15:42.
