data_PCOD9381683
_publ_section_title
;
Structure prediction by ZEFSAII (Michael W. Deem and Ramdas Pophale) SiO2 
 PCOD9381683
Probable space group: P M M M
;
_chemical_formula_sum "Si O2"
_cell_formula_units_Z 64
_cell_length_a 28.742833
_cell_length_b 15.228296
_cell_length_c 7.978174
_cell_angle_alpha 90.000000
_cell_angle_beta 90.000000
_cell_angle_gamma 90.000000
_cell_volume 3492.081615
_symmetry_space_group_name_H-M "P M M M"
_symmetry_group_IT_number 47
_symmetry_cell_setting 'orthorhombic'
loop_
_space_group_symop_operation_xyz
x,y,z
-x,-y,z
x,-y,-z
-x,y,-z
-x,-y,-z
x,y,-z
-x,y,z
x,-y,z
loop_
_atom_site_type_symbol
_atom_site_label
_atom_site_fract_x
_atom_site_fract_y
_atom_site_fract_z
Si Si1 0.779775 0.600651 0.295701
Si Si2 0.053127 0.401237 0.797966
Si Si3 0.636804 0.221510 0.198709
Si Si4 0.674394 0.598752 0.701416
Si Si5 0.720686 0.899099 0.797193
Si Si6 0.552980 0.098693 0.298139
Si Si7 0.863453 0.277232 0.298112
Si Si8 0.826383 0.098080 0.299399
O O1 0.779640 0.603697 0.500000
O O2 0.790411 0.500000 0.248274
O O3 0.727098 0.620581 0.239482
O O4 0.819319 0.666316 0.234935
O O5 0.066624 0.500000 0.740385
O O6 0.089701 0.328531 0.743770
O O7 0.000000 0.384732 0.741823
O O8 0.052688 0.402869 0.000000
O O9 0.640644 0.322446 0.251530
O O10 0.681270 0.166939 0.267208
O O11 0.590072 0.170943 0.246767
O O12 0.640559 0.218802 0.000000
O O13 0.676194 0.595063 0.500000
O O14 0.662703 0.500000 0.761030
O O15 0.772400 0.878603 0.733691
O O16 0.709798 0.000000 0.748244
O O17 0.721818 0.896152 0.000000
O O18 0.552106 0.096487 0.500000
O O19 0.500000 0.116015 0.240883
O O20 0.566301 0.000000 0.239756
O O21 0.859908 0.274465 0.500000
O O22 0.858082 0.177576 0.235238
O O23 0.832362 0.093206 0.500000
O O24 0.834632 0.000000 0.230029
#
# Coordination Sequence:
#
# PCOD9381683 Si02
#       8
#     8   8   8   8   8   8   8   8
#     4   8  14  25  42  66  94 121 152 193 237 276
#     4   9  19  35  51  68  93 121 147 182 232 286
#     4  11  21  31  48  74 103 133 162 197 244 293
#     4   9  18  33  51  69  94 132 173 207 238 277
#     4   9  18  31  45  66  99 134 165 195 229 276
#     4   9  19  36  56  77 100 126 159 199 240 286
#     4  10  18  28  47  72  95 121 155 194 233 276
#     4   9  18  31  46  67  96 128 161 197 235 272
#
# _framework density 18.327176999999999
#
# number of rings (size 3 to 8) (size 9 to 14) (size 15 to 20)
#    0.000    2.750    0.000    3.375    0.000    4.750 
#    0.000    3.125    0.000    1.500    0.000    5.250 
#    0.000    0.000    0.000    0.000    0.000    0.000 
#
# Total GULP energy -356941.174319 kJ/mol
# GULP energy per Si atom -5577.205849 kJ/mol
# Density = 1.828546 g / cm^3
# Si number density = 18.327177 Si / 1000 Ang^3
#
#
#
# Elastic Constant Matrix: (Units=GPa)
#
#
# Indices 1 2 3 4 5 6 
#
# 1 97.9628 106.0814 5.6634 0.0000 0.0000 0.0000
# 2 106.0814 157.8410 13.1766 0.0000 0.0000 0.0000
# 3 5.6634 13.1766 13.1518 0.0000 0.0000 0.0000
# 4 0.0000 0.0000 0.0000 10.3471 0.0000 0.0000
# 5 0.0000 0.0000 0.0000 0.0000 29.6169 0.0000
# 6 0.0000 0.0000 0.0000 0.0000 0.0000 31.9268
#
#
#
# Elastic Compliance Matrix: (Units=1/GPa)
#
#
# Indices 1 2 3 4 5 6 
#
# 1 0.038726 -0.026883 0.010258 0.000000 0.000000 0.000000
# 2 -0.026883 0.025576 -0.014048 0.000000 0.000000 0.000000
# 3 0.010258 -0.014048 0.085692 0.000000 0.000000 0.000000
# 4 0.000000 0.000000 0.000000 0.096646 0.000000 0.000000
# 5 0.000000 0.000000 0.000000 0.000000 0.033765 0.000000
# 6 0.000000 0.000000 0.000000 0.000000 0.000000 0.031322
#
#
# Mechanical properties :
#
#
# Convention : Reuss Voigt Hill
#
# Bulk Modulus (GPa) = 11.28059 57.64425 34.46242
# Shear Modulus (GPa) = 12.41860 23.98042 18.19951
#
# Velocity S-wave (km/s) = 2.60591 3.62119 3.15466
# Velocity P-wave (km/s) = 3.90165 7.00037 5.66692
#
# Compressibility (1/GPa) = 0.08864782
#
# Stress axis : x y z
#
# Youngs Moduli (GPa) = 25.82229 39.09930 11.66971
#
# Poissons Ratio (x) = 1.05112 -0.11971
# Poissons Ratio (y) = 0.69419 0.16393
# Poissons Ratio (z) = -0.26488 0.54926
#
# Static dielectric constant tensor:
#      x y z
#    x 1.611310 0.000000 0.000000 
#    y 0.000000 1.664640 0.000000 
#    z 0.000000 0.000000 1.652540 
# 
# From -- ./inp_files/12711.got.cif
#   From: 2010.05.17/outbox.cif.g08.bks.cpg/sg47_7_cif.got.tgz:12711.got - 2010.06.03 20:15:42.
