data_PCOD9381633
_publ_section_title
;
Structure prediction by ZEFSAII (Michael W. Deem and Ramdas Pophale) SiO2 
 PCOD9381633
Probable space group: P M M M
;
_chemical_formula_sum "Si O2"
_cell_formula_units_Z 56
_cell_length_a 27.323554
_cell_length_b 7.495092
_cell_length_c 14.885001
_cell_angle_alpha 90.000000
_cell_angle_beta 90.000000
_cell_angle_gamma 90.000000
_cell_volume 3048.337326
_symmetry_space_group_name_H-M "P M M M"
_symmetry_group_IT_number 47
_symmetry_cell_setting 'orthorhombic'
loop_
_space_group_symop_operation_xyz
x,y,z
-x,-y,z
x,-y,-z
-x,y,-z
-x,-y,-z
x,y,-z
-x,y,z
x,-y,z
loop_
_atom_site_type_symbol
_atom_site_label
_atom_site_fract_x
_atom_site_fract_y
_atom_site_fract_z
Si Si1 0.254797 0.788616 0.291384
Si Si2 0.349306 0.213145 0.601682
Si Si3 0.159579 0.218346 0.395105
Si Si4 0.709080 0.714420 0.900958
Si Si5 0.553531 0.714575 0.713167
Si Si6 0.595763 0.282349 0.900186
Si Si7 0.947374 0.214711 0.392397
O O1 0.304127 0.716357 0.338623
O O2 0.205257 0.718384 0.336365
O O3 0.259439 0.765509 0.184858
O O4 0.254259 0.000000 0.308546
O O5 0.348212 0.283265 0.500000
O O6 0.401135 0.242980 0.649298
O O7 0.343302 0.000000 0.596556
O O8 0.165846 0.268323 0.500000
O O9 0.105915 0.278838 0.361322
O O10 0.158747 0.000000 0.393724
O O11 0.707935 0.500000 0.903104
O O12 0.652532 0.772573 0.888061
O O13 0.725221 0.776580 0.000000
O O14 0.500000 0.778723 0.683445
O O15 0.551679 0.500000 0.717222
O O16 0.565442 0.778525 0.814279
O O17 0.594887 0.500000 0.900053
O O18 0.579541 0.226219 0.000000
O O19 0.947135 0.245299 0.500000
O O20 0.000000 0.282762 0.357712
O O21 0.947885 0.000000 0.380070
#
# Coordination Sequence:
#
# PCOD9381633 Si02
#       7
#     8   8   8   8   8   8   8
#     4  10  18  28  45  67  88 111 141 176 209 243
#     4  10  21  35  48  62  83 114 146 171 202 247
#     4   8  13  21  34  55  85 118 148 177 208 243
#     4   9  17  30  48  66  85 111 138 165 205 257
#     4  10  20  33  50  70  87 104 134 176 213 246
#     4   8  14  27  47  68  87 105 126 156 200 253
#     4   7   9  14  26  46  75 112 148 176 204 241
#
# _framework density 18.370671999999999
#
# number of rings (size 3 to 8) (size 9 to 14) (size 15 to 20)
#    0.000    3.143    1.429    2.571    0.000    3.143 
#    0.000    2.857    0.000    1.714    0.000    1.000 
#    0.000    1.143    0.000   10.714    0.000    4.286 
#
# Total GULP energy -312056.048336 kJ/mol
# GULP energy per Si atom -5572.429435 kJ/mol
# Density = 1.832886 g / cm^3
# Si number density = 18.370672 Si / 1000 Ang^3
#
#
#
# Elastic Constant Matrix: (Units=GPa)
#
#
# Indices 1 2 3 4 5 6 
#
# 1 174.1019 7.3904 82.3895 0.0000 0.0000 0.0000
# 2 7.3904 47.6651 1.5295 0.0000 0.0000 0.0000
# 3 82.3895 1.5295 108.3425 0.0000 0.0000 0.0000
# 4 0.0000 0.0000 0.0000 13.5708 0.0000 0.0000
# 5 0.0000 0.0000 0.0000 0.0000 10.3424 0.0000
# 6 0.0000 0.0000 0.0000 0.0000 0.0000 -82.2862
#
#
#
# Elastic Compliance Matrix: (Units=1/GPa)
#
#
# Indices 1 2 3 4 5 6 
#
# 1 0.009039 -0.001181 -0.006857 0.000000 0.000000 0.000000
# 2 -0.001181 0.021144 0.000600 0.000000 0.000000 0.000000
# 3 -0.006857 0.000600 0.014436 0.000000 0.000000 0.000000
# 4 0.000000 0.000000 0.000000 0.073688 0.000000 0.000000
# 5 0.000000 0.000000 0.000000 0.000000 0.096689 0.000000
# 6 0.000000 0.000000 0.000000 0.000000 0.000000 -0.012153
#
#
# Mechanical properties :
#
#
# Convention : Reuss Voigt Hill
#
# Bulk Modulus (GPa) = 33.62305 56.96981 45.29643
# Shear Modulus (GPa) = 21.96515 4.24541 13.10528
#
# Velocity S-wave (km/s) = 3.46159 1.52184 2.67382
# Velocity P-wave (km/s) = 5.85825 5.84522 5.85174
#
# Compressibility (1/GPa) = 0.02974150
#
# Stress axis : x y z
#
# Youngs Moduli (GPa) = 110.63459 47.29556 69.27195
#
# Poissons Ratio (x) = 0.05588 0.47499
# Poissons Ratio (y) = 0.13071 -0.04156
# Poissons Ratio (z) = 0.75861 -0.02837
#
# Static dielectric constant tensor:
#      x y z
#    x 1.664310 0.000000 0.000000 
#    y 0.000000 1.722540 0.000000 
#    z 0.000000 0.000000 1.619190 
# 
# From -- ./inp_files/19598.got.cif
#   From: 2010.05.17/outbox.cif.g08.bks.cpg/sg47_10_cif.got.tgz:19598.got - 2010.06.03 20:15:42.
