data_PCOD9381298
_publ_section_title
;
Structure prediction by ZEFSAII (Michael W. Deem and Ramdas Pophale) SiO2 
 PCOD9381298
Probable space group: P M M M
;
_chemical_formula_sum "Si O2"
_cell_formula_units_Z 64
_cell_length_a 8.574193
_cell_length_b 20.539701
_cell_length_c 20.989754
_cell_angle_alpha 90.000000
_cell_angle_beta 90.000000
_cell_angle_gamma 90.000000
_cell_volume 3696.534134
_symmetry_space_group_name_H-M "P M M M"
_symmetry_group_IT_number 47
_symmetry_cell_setting 'orthorhombic'
loop_
_space_group_symop_operation_xyz
x,y,z
-x,-y,z
x,-y,-z
-x,y,-z
-x,-y,-z
x,y,-z
-x,y,z
x,-y,z
loop_
_atom_site_type_symbol
_atom_site_label
_atom_site_fract_x
_atom_site_fract_y
_atom_site_fract_z
Si Si1 0.311041 0.924701 0.195041
Si Si2 0.690025 0.848533 0.069394
Si Si3 0.813503 0.841375 0.313054
Si Si4 0.186088 0.429054 0.895475
Si Si5 0.311860 0.925925 0.426393
Si Si6 0.313277 0.706636 0.113072
Si Si7 0.313989 0.429016 0.248930
Si Si8 0.812899 0.295519 0.257874
O O1 0.500000 0.922176 0.196843
O O2 0.257807 0.890774 0.129491
O O3 0.247863 0.884979 0.254802
O O4 0.264080 0.000000 0.197650
O O5 0.500000 0.850151 0.070136
O O6 0.735160 0.773099 0.078673
O O7 0.741618 0.872245 0.000000
O O8 0.753206 0.873182 0.377945
O O9 0.763630 0.767085 0.298725
O O10 0.000000 0.842520 0.313005
O O11 0.238777 0.500000 0.921298
O O12 0.255488 0.360639 0.918349
O O13 0.233511 0.429728 0.820696
O O14 0.000000 0.426330 0.901737
O O15 0.265952 0.915055 0.500000
O O16 0.500000 0.924543 0.423662
O O17 0.263433 0.000000 0.408488
O O18 0.500000 0.704382 0.115521
O O19 0.250715 0.711720 0.185625
O O20 0.500000 0.423238 0.239532
O O21 0.282247 0.500000 0.278600
O O22 0.251311 0.364559 0.282592
O O23 0.000000 0.298008 0.254955
#
# Coordination Sequence:
#
# PCOD9381298 Si02
#       8
#     8   8   8   8   8   8   8   8
#     4  10  20  34  53  74  95 123 159 200 249 301
#     4   9  18  32  49  70  93 117 153 203 254 300
#     4  11  22  33  49  75 106 136 166 202 241 285
#     4   9  16  25  39  60  87 117 147 184 231 283
#     4   9  19  36  56  77 102 134 171 207 243 287
#     4  10  17  27  46  66  87 117 152 195 243 289
#     4   9  16  25  39  62  91 122 157 196 238 283
#     4  10  19  29  43  65  95 129 162 196 236 283
#
# _framework density 17.313514000000001
#
# number of rings (size 3 to 8) (size 9 to 14) (size 15 to 20)
#    0.000    2.375    1.250    4.125    0.000    5.500 
#    0.000    1.875    0.000    3.750    0.000    3.500 
#    0.000    0.500    0.000    5.500    0.000    4.000 
#
# Total GULP energy -356830.715503 kJ/mol
# GULP energy per Si atom -5575.479930 kJ/mol
# Density = 1.727411 g / cm^3
# Si number density = 17.313514 Si / 1000 Ang^3
#
#
#
# Elastic Constant Matrix: (Units=GPa)
#
#
# Indices 1 2 3 4 5 6 
#
# 1 26.2427 27.6160 13.3322 0.0000 0.0000 0.0000
# 2 27.6160 155.3517 57.7878 0.0000 0.0000 0.0000
# 3 13.3322 57.7878 70.8038 0.0000 0.0000 0.0000
# 4 0.0000 0.0000 0.0000 4.0830 0.0000 0.0000
# 5 0.0000 0.0000 0.0000 0.0000 42.0310 0.0000
# 6 0.0000 0.0000 0.0000 0.0000 0.0000 24.7014
#
#
#
# Elastic Compliance Matrix: (Units=1/GPa)
#
#
# Indices 1 2 3 4 5 6 
#
# 1 0.047295 -0.007316 -0.002935 0.000000 0.000000 0.000000
# 2 -0.007316 0.010375 -0.007090 0.000000 0.000000 0.000000
# 3 -0.002935 -0.007090 0.020463 0.000000 0.000000 0.000000
# 4 0.000000 0.000000 0.000000 0.244921 0.000000 0.000000
# 5 0.000000 0.000000 0.000000 0.000000 0.023792 0.000000
# 6 0.000000 0.000000 0.000000 0.000000 0.000000 0.040483
#
#
# Mechanical properties :
#
#
# Convention : Reuss Voigt Hill
#
# Bulk Modulus (GPa) = 23.01390 49.98558 36.49974
# Shear Modulus (GPa) = 11.45490 24.40722 17.93106
#
# Velocity S-wave (km/s) = 2.57498 3.75870 3.22167
# Velocity P-wave (km/s) = 4.70765 6.91163 5.91323
#
# Compressibility (1/GPa) = 0.04345200
#
# Stress axis : x y z
#
# Youngs Moduli (GPa) = 21.14368 96.38681 48.86909
#
# Poissons Ratio (x) = 0.70514 0.14342
# Poissons Ratio (y) = 0.15468 0.34649
# Poissons Ratio (z) = 0.06205 0.68339
#
# Static dielectric constant tensor:
#      x y z
#    x 1.589510 0.000000 0.000000 
#    y 0.000000 1.640470 0.000000 
#    z 0.000000 0.000000 1.565970 
# 
# From -- ./inp_files/30144.got.cif
#   From: 2010.05.17/outbox.cif.g08.bks.cpg/sg47_16_cif.got.tgz:30144.got - 2010.06.03 20:15:42.
