data_PCOD9381032
_publ_section_title
;
Structure prediction by ZEFSAII (Michael W. Deem and Ramdas Pophale) SiO2 
 PCOD9381032
Probable space group: I M A 2
;
_chemical_formula_sum "Si O2"
_cell_formula_units_Z 40
_cell_length_a 15.894496
_cell_length_b 4.862459
_cell_length_c 20.778523
_cell_angle_alpha 90.000000
_cell_angle_beta 90.000000
_cell_angle_gamma 90.000000
_cell_volume 1605.895892
_symmetry_space_group_name_H-M "I M A 2"
_symmetry_group_IT_number 46
_symmetry_cell_setting 'orthorhombic'
loop_
_space_group_symop_operation_xyz
x,y,z
-x,-y,z
1/2-x,y,z
1/2+x,-y,z
1/2+x,1/2+y,1/2+z
1/2-x,1/2-y,1/2+z
-x,1/2+y,1/2+z
x,1/2-y,1/2+z
loop_
_atom_site_type_symbol
_atom_site_label
_atom_site_fract_x
_atom_site_fract_y
_atom_site_fract_z
Si Si1 0.347694 0.682282 0.468630
Si Si2 0.121625 0.159132 0.385921
Si Si3 0.000000 0.000000 0.202380
Si Si4 0.589693 0.327769 0.109822
Si Si5 0.000000 0.500000 0.298062
Si Si6 0.750000 0.950182 0.685851
Si Si7 0.750000 0.451877 0.779144
O O1 0.250000 0.779395 0.464709
O O2 0.346476 0.372763 0.440855
O O3 0.382632 0.723622 0.539900
O O4 0.403749 0.887938 0.425122
O O5 0.065979 0.364456 0.345022
O O6 0.175131 0.022183 0.328029
O O7 0.983736 0.253270 0.249126
O O8 0.924829 0.054428 0.152654
O O9 0.500000 0.500000 0.108826
O O10 0.666861 0.487813 0.143689
O O11 0.750000 0.149841 0.749078
O O12 0.750000 0.652359 0.718082
#
# Coordination Sequence:
#
# PCOD9381032 Si02
#       7
#     8   8   4   8   4   4   4
#     4  12  26  50  73 108 154 203 261 321 384 468
#     4  12  26  46  76 111 148 200 257 319 391 468
#     4  12  26  51  72 111 154 202 260 326 382 478
#     4  12  30  51  79 115 157 211 266 324 394 467
#     4  12  26  47  76 109 154 196 252 326 396 456
#     4  12  28  48  80 114 154 204 258 323 397 470
#     4  12  24  48  78 110 152 200 252 319 401 462
#
# _framework density 24.908213
#
# number of rings (size 3 to 8) (size 9 to 14) (size 15 to 20)
#    0.000    0.000    4.000    4.800    8.400    0.000 
#    0.000    0.000    0.000    0.000    0.000    0.000 
#    0.000    0.000    0.000    0.000    0.000    0.000 
#
# Total GULP energy -111748.678674 kJ/mol
# GULP energy per Si atom -5587.433934 kJ/mol
# Density = 2.485152 g / cm^3
# Si number density = 24.908213 Si / 1000 Ang^3
#
#
#
# Elastic Constant Matrix: (Units=GPa)
#
#
# Indices 1 2 3 4 5 6 
#
# 1 70.3349 17.8221 38.0126 0.0000 0.0000 0.0000
# 2 17.8221 126.3160 36.4820 0.0000 0.0000 0.0000
# 3 38.0126 36.4820 168.9235 0.0000 0.0000 0.0000
# 4 0.0000 0.0000 0.0000 10.3835 0.0000 0.0000
# 5 0.0000 0.0000 0.0000 0.0000 44.6526 0.0000
# 6 0.0000 0.0000 0.0000 0.0000 0.0000 14.6082
#
#
#
# Elastic Compliance Matrix: (Units=1/GPa)
#
#
# Indices 1 2 3 4 5 6 
#
# 1 0.016393 -0.001331 -0.003402 0.000000 0.000000 0.000000
# 2 -0.001331 0.008551 -0.001547 0.000000 0.000000 0.000000
# 3 -0.003402 -0.001547 0.007019 0.000000 0.000000 0.000000
# 4 0.000000 0.000000 0.000000 0.096307 0.000000 0.000000
# 5 0.000000 0.000000 0.000000 0.000000 0.022395 0.000000
# 6 0.000000 0.000000 0.000000 0.000000 0.000000 0.068455
#
#
# Mechanical properties :
#
#
# Convention : Reuss Voigt Hill
#
# Bulk Modulus (GPa) = 51.53315 61.13420 56.33368
# Shear Modulus (GPa) = 20.99532 32.14603 26.57068
#
# Velocity S-wave (km/s) = 2.90644 3.59636 3.26965
# Velocity P-wave (km/s) = 5.65662 6.46855 6.07616
#
# Compressibility (1/GPa) = 0.01940498
#
# Stress axis : x y z
#
# Youngs Moduli (GPa) = 61.00082 116.94141 142.46071
#
# Poissons Ratio (x) = 0.15559 0.48459
# Poissons Ratio (y) = 0.08116 0.22044
# Poissons Ratio (z) = 0.20750 0.18095
#
# Static dielectric constant tensor:
#      x y z
#    x 2.114330 0.000000 0.000000 
#    y 0.000000 1.996720 0.000000 
#    z 0.000000 0.000000 1.917010 
# 
# From -- ./inp_files/19816.got.cif
#   From: 2010.05.17/outbox.cif.g08.bks.cpg/sg46_10_cif.got.tgz:19816.got - 2010.06.03 19:58:25.
