data_PCOD9381802
_publ_section_title
;
Structure prediction by ZEFSAII (Michael W. Deem and Ramdas Pophale) SiO2 
 PCOD9381802
Probable space group: P M M M
;
_chemical_formula_sum "Si O2"
_cell_formula_units_Z 56
_cell_length_a 17.476876
_cell_length_b 20.859332
_cell_length_c 9.211563
_cell_angle_alpha 90.000000
_cell_angle_beta 90.000000
_cell_angle_gamma 90.000000
_cell_volume 3358.130182
_symmetry_space_group_name_H-M "P M M M"
_symmetry_group_IT_number 47
_symmetry_cell_setting 'orthorhombic'
loop_
_space_group_symop_operation_xyz
x,y,z
-x,-y,z
x,-y,-z
-x,y,-z
-x,-y,-z
x,y,-z
-x,y,z
x,-y,z
loop_
_atom_site_type_symbol
_atom_site_label
_atom_site_fract_x
_atom_site_fract_y
_atom_site_fract_z
Si Si1 0.412814 0.073250 0.176628
Si Si2 0.000000 0.395148 0.833665
Si Si3 0.307092 0.190036 0.174968
Si Si4 0.411429 0.686557 0.173826
Si Si5 0.155311 0.763203 0.671651
Si Si6 0.323308 0.571678 0.674615
Si Si7 0.846321 0.391190 0.671146
Si Si8 0.000000 0.761109 0.167904
O O1 0.500000 0.089705 0.221570
O O2 0.350721 0.125433 0.222092
O O3 0.396670 0.000000 0.221457
O O4 0.413119 0.074149 0.000000
O O5 0.078395 0.414271 0.754632
O O6 0.000000 0.316949 0.829760
O O7 0.000000 0.415771 0.000000
O O8 0.363120 0.249741 0.206946
O O9 0.227476 0.203121 0.254318
O O10 0.295483 0.188075 0.000000
O O11 0.500000 0.694049 0.215721
O O12 0.373028 0.626237 0.251211
O O13 0.408273 0.677457 0.000000
O O14 0.152425 0.775734 0.500000
O O15 0.162378 0.685839 0.690162
O O16 0.076393 0.782197 0.749395
O O17 0.325620 0.579818 0.500000
O O18 0.350112 0.500000 0.709877
O O19 0.234192 0.578933 0.718176
O O20 0.857074 0.403662 0.500000
O O21 0.000000 0.780938 0.000000
#
# Coordination Sequence:
#
# PCOD9381802 Si02
#       8
#     8   4   8   8   8   8   8   4
#     4   8  14  26  46  73 104 136 170 207 244 285
#     4   9  17  27  46  72  95 121 153 190 235 288
#     4  10  18  29  49  76 103 131 165 204 245 288
#     4  10  21  35  51  72  98 126 158 201 252 300
#     4  10  18  29  47  71 100 131 164 201 244 293
#     4  10  21  37  54  70  90 122 165 208 249 295
#     4   9  17  31  48  67  92 123 157 195 240 289
#     4   9  17  29  45  70 101 130 162 200 244 290
#
# _framework density 16.675946
#
# number of rings (size 3 to 8) (size 9 to 14) (size 15 to 20)
#    0.000    2.571    1.429    1.714    0.000    5.429 
#    0.000    1.786    0.000    3.857    0.000    1.500 
#    0.000    4.000    0.000    0.000    0.000    0.000 
#
# Total GULP energy -312327.464050 kJ/mol
# GULP energy per Si atom -5577.276144 kJ/mol
# Density = 1.663799 g / cm^3
# Si number density = 16.675946 Si / 1000 Ang^3
#
#
#
# Elastic Constant Matrix: (Units=GPa)
#
#
# Indices 1 2 3 4 5 6 
#
# 1 151.6272 66.4532 57.2288 0.0000 0.0000 0.0000
# 2 66.4532 79.6084 39.5560 0.0000 0.0000 0.0000
# 3 57.2288 39.5560 44.0163 0.0000 0.0000 0.0000
# 4 0.0000 0.0000 0.0000 11.3862 0.0000 0.0000
# 5 0.0000 0.0000 0.0000 0.0000 24.5217 0.0000
# 6 0.0000 0.0000 0.0000 0.0000 0.0000 -445.2878
#
#
#
# Elastic Compliance Matrix: (Units=1/GPa)
#
#
# Indices 1 2 3 4 5 6 
#
# 1 0.013870 -0.004729 -0.013783 0.000000 0.000000 0.000000
# 2 -0.004729 0.024309 -0.015696 0.000000 0.000000 0.000000
# 3 -0.013783 -0.015696 0.054746 0.000000 0.000000 0.000000
# 4 0.000000 0.000000 0.000000 0.087826 0.000000 0.000000
# 5 0.000000 0.000000 0.000000 0.000000 0.040780 0.000000
# 6 0.000000 0.000000 0.000000 0.000000 0.000000 -0.002246
#
#
# Mechanical properties :
#
#
# Convention : Reuss Voigt Hill
#
# Bulk Modulus (GPa) = 40.80645 66.85865 53.83255
# Shear Modulus (GPa) = 16.89923 -74.40839 -28.75458
#
# Velocity S-wave (km/s) = 3.18683 -6.68708 -4.15699
# Velocity P-wave (km/s) = 6.16965 4.40940 3.05137
#
# Compressibility (1/GPa) = 0.02450593
#
# Stress axis : x y z
#
# Youngs Moduli (GPa) = 72.09722 41.13781 18.26633
#
# Poissons Ratio (x) = 0.19456 0.25177
# Poissons Ratio (y) = 0.34097 0.28671
# Poissons Ratio (z) = 0.99375 0.64571
#
# Static dielectric constant tensor:
#      x y z
#    x 1.547700 0.000000 0.000000 
#    y 0.000000 1.555700 0.000000 
#    z 0.000000 0.000000 1.554520 
# 
# From -- ./inp_files/7403.got.cif
#   From: 2010.05.17/outbox.cif.g08.bks.cpg/sg47_4_cif.got.tgz:7403.got - 2010.06.03 20:15:42.
