data_PCOD9381920
_publ_section_title
;
Structure prediction by ZEFSAII (Michael W. Deem and Ramdas Pophale) SiO2 
 PCOD9381920
Probable space group: P M M M
;
_chemical_formula_sum "Si O2"
_cell_formula_units_Z 52
_cell_length_a 9.955016
_cell_length_b 27.727884
_cell_length_c 12.030386
_cell_angle_alpha 90.000000
_cell_angle_beta 90.000000
_cell_angle_gamma 90.000000
_cell_volume 3320.765840
_symmetry_space_group_name_H-M "P M M M"
_symmetry_group_IT_number 47
_symmetry_cell_setting 'orthorhombic'
loop_
_space_group_symop_operation_xyz
x,y,z
-x,-y,z
x,-y,-z
-x,y,-z
-x,-y,-z
x,y,-z
-x,y,z
x,-y,z
loop_
_atom_site_type_symbol
_atom_site_label
_atom_site_fract_x
_atom_site_fract_y
_atom_site_fract_z
Si Si1 0.159083 0.197518 0.632791
Si Si2 0.757443 0.553368 0.500000
Si Si3 0.341757 0.631877 0.868754
Si Si4 0.152316 0.085945 0.365088
Si Si5 0.654736 0.000000 0.364243
Si Si6 0.661505 0.281847 0.285622
Si Si7 0.152770 0.444828 0.749476
Si Si8 0.343800 0.658933 0.500000
O O1 0.187454 0.202805 0.500000
O O2 0.181626 0.141497 0.663646
O O3 0.253789 0.233390 0.700661
O O4 0.000000 0.207682 0.648001
O O5 0.690829 0.500000 0.500000
O O6 0.838454 0.556365 0.615159
O O7 0.670403 0.601639 0.500000
O O8 0.500000 0.622823 0.846036
O O9 0.313434 0.685450 0.822360
O O10 0.253905 0.592944 0.803167
O O11 0.318577 0.628506 0.000000
O O12 0.150401 0.084457 0.500000
O O13 0.262037 0.047224 0.328261
O O14 0.000000 0.073746 0.328788
O O15 0.500000 0.000000 0.328086
O O16 0.653898 0.000000 0.500000
O O17 0.500000 0.272933 0.292692
O O18 0.708496 0.315880 0.388749
O O19 0.185832 0.500000 0.782389
O O20 0.000000 0.434373 0.783198
O O21 0.500000 0.670074 0.500000
#
# Coordination Sequence:
#
# PCOD9381920 Si02
#       8
#     8   4   8   8   4   8   8   4
#     4   9  17  28  42  64  90 117 152 189 227 276
#     4  10  19  33  52  75 102 126 149 180 226 284
#     4  10  22  39  55  70  91 122 159 194 229 275
#     4   8  14  24  36  50  76 114 152 187 222 262
#     4   9  15  21  31  51  77 109 154 197 226 257
#     4  10  19  32  48  67  92 117 145 188 237 278
#     4  10  21  36  54  76 100 123 148 183 228 277
#     4  10  18  30  47  72  96 117 151 189 232 283
#
# _framework density 15.659039
#
# number of rings (size 3 to 8) (size 9 to 14) (size 15 to 20)
#    0.000    2.538    2.308    1.385    0.000    4.154 
#    0.000    4.615    0.000    0.000    0.000    0.000 
#    0.000    0.000    0.000    0.692    0.000   14.077 
#
# Total GULP energy -289530.412801 kJ/mol
# GULP energy per Si atom -5567.892554 kJ/mol
# Density = 1.562340 g / cm^3
# Si number density = 15.659039 Si / 1000 Ang^3
#
#
#
# Elastic Constant Matrix: (Units=GPa)
#
#
# Indices 1 2 3 4 5 6 
#
# 1 88.5207 84.3136 39.1271 0.0000 0.0000 0.0000
# 2 84.3136 124.1568 36.7381 0.0000 0.0000 0.0000
# 3 39.1271 36.7381 42.6236 0.0000 0.0000 0.0000
# 4 0.0000 0.0000 0.0000 6.0757 0.0000 0.0000
# 5 0.0000 0.0000 0.0000 0.0000 5.7211 0.0000
# 6 0.0000 0.0000 0.0000 0.0000 0.0000 52.7047
#
#
#
# Elastic Compliance Matrix: (Units=1/GPa)
#
#
# Indices 1 2 3 4 5 6 
#
# 1 0.040107 -0.021937 -0.017909 0.000000 0.000000 0.000000
# 2 -0.021937 0.022811 0.000477 0.000000 0.000000 0.000000
# 3 -0.017909 0.000477 0.039490 0.000000 0.000000 0.000000
# 4 0.000000 0.000000 0.000000 0.164590 0.000000 0.000000
# 5 0.000000 0.000000 0.000000 0.000000 0.174793 0.000000
# 6 0.000000 0.000000 0.000000 0.000000 0.000000 0.018974
#
#
# Mechanical properties :
#
#
# Convention : Reuss Voigt Hill
#
# Bulk Modulus (GPa) = 42.24928 63.96207 53.10567
# Shear Modulus (GPa) = 9.13418 19.24178 14.18798
#
# Velocity S-wave (km/s) = 2.41782 3.50922 3.01334
# Velocity P-wave (km/s) = 5.90201 7.57330 6.78928
#
# Compressibility (1/GPa) = 0.02366904
#
# Stress axis : x y z
#
# Youngs Moduli (GPa) = 24.93300 43.83931 25.32258
#
# Poissons Ratio (x) = 0.96171 0.45351
# Poissons Ratio (y) = 0.54696 -0.01207
# Poissons Ratio (z) = 0.44653 -0.02090
#
# Static dielectric constant tensor:
#      x y z
#    x 1.525390 0.000000 0.000000 
#    y 0.000000 1.524600 0.000000 
#    z 0.000000 0.000000 1.515560 
# 
# From -- ./inp_files/15530.got.cif
#   From: 2010.05.17/outbox.cif.g08.bks.cpg/sg47_8_cif.got.tgz:15530.got - 2010.06.03 20:15:42.
