data_PCOD9381911
_publ_section_title
;
Structure prediction by ZEFSAII (Michael W. Deem and Ramdas Pophale) SiO2 
 PCOD9381911
Probable space group: P M M M
;
_chemical_formula_sum "Si O2"
_cell_formula_units_Z 64
_cell_length_a 24.364413
_cell_length_b 19.632175
_cell_length_c 8.724677
_cell_angle_alpha 90.000000
_cell_angle_beta 90.000000
_cell_angle_gamma 90.000000
_cell_volume 4173.243513
_symmetry_space_group_name_H-M "P M M M"
_symmetry_group_IT_number 47
_symmetry_cell_setting 'orthorhombic'
loop_
_space_group_symop_operation_xyz
x,y,z
-x,-y,z
x,-y,-z
-x,y,-z
-x,-y,-z
x,y,-z
-x,y,z
x,-y,z
loop_
_atom_site_type_symbol
_atom_site_label
_atom_site_fract_x
_atom_site_fract_y
_atom_site_fract_z
Si Si1 0.228264 0.577886 0.315206
Si Si2 0.061581 0.214326 0.813001
Si Si3 0.724123 0.214318 0.183192
Si Si4 0.241908 0.923262 0.683303
Si Si5 0.880713 0.923810 0.815251
Si Si6 0.663056 0.338939 0.316652
Si Si7 0.833349 0.701690 0.184711
Si Si8 0.563329 0.578462 0.815252
O O1 0.226061 0.578722 0.500000
O O2 0.223488 0.500000 0.262949
O O3 0.286926 0.610511 0.269558
O O4 0.182092 0.628347 0.251109
O O5 0.080386 0.138169 0.768199
O O6 0.109090 0.266381 0.763259
O O7 0.000000 0.229633 0.760450
O O8 0.061251 0.215671 0.000000
O O9 0.723180 0.138176 0.247355
O O10 0.678645 0.265475 0.248746
O O11 0.783146 0.247790 0.227903
O O12 0.721456 0.213263 0.000000
O O13 0.241867 0.918507 0.500000
O O14 0.179535 0.915456 0.743711
O O15 0.259774 0.000000 0.727024
O O16 0.900937 0.000000 0.777013
O O17 0.874628 0.920113 0.000000
O O18 0.662676 0.335130 0.500000
O O19 0.606699 0.370454 0.257006
O O20 0.833798 0.697991 0.000000
O O21 0.500000 0.592511 0.772729
O O22 0.575720 0.500000 0.770091
O O23 0.566900 0.581829 0.000000
#
# Coordination Sequence:
#
# PCOD9381911 Si02
#       8
#     8   8   8   8   8   8   8   8
#     4   9  18  31  46  65  88 113 140 177 225 271
#     4   9  16  27  43  63  86 109 139 183 226 265
#     4  10  18  30  47  66  90 119 152 189 229 274
#     4  10  19  29  43  64  90 120 151 184 225 271
#     4   9  16  27  43  62  84 112 146 180 216 263
#     4  10  19  30  46  70  97 123 154 193 234 275
#     4   9  17  29  44  64  85 108 140 177 221 271
#     4   9  18  32  48  67  96 135 173 203 230 263
#
# _framework density 15.335794
#
# number of rings (size 3 to 8) (size 9 to 14) (size 15 to 20)
#    0.000    2.625    1.250    1.875    0.000    3.250 
#    0.000    1.875    0.000    1.875    0.000    4.375 
#    0.000    0.500    0.000    5.250    0.000    2.250 
#
# Total GULP energy -356733.759283 kJ/mol
# GULP energy per Si atom -5573.964989 kJ/mol
# Density = 1.530089 g / cm^3
# Si number density = 15.335794 Si / 1000 Ang^3
#
#
#
# Elastic Constant Matrix: (Units=GPa)
#
#
# Indices 1 2 3 4 5 6 
#
# 1 93.3147 65.9345 23.0673 0.0000 0.0000 0.0000
# 2 65.9345 130.2432 28.7482 0.0000 0.0000 0.0000
# 3 23.0673 28.7482 14.9929 0.0000 0.0000 0.0000
# 4 0.0000 0.0000 0.0000 23.8846 0.0000 0.0000
# 5 0.0000 0.0000 0.0000 0.0000 10.9747 0.0000
# 6 0.0000 0.0000 0.0000 0.0000 0.0000 25.9112
#
#
#
# Elastic Compliance Matrix: (Units=1/GPa)
#
#
# Indices 1 2 3 4 5 6 
#
# 1 0.019397 -0.005604 -0.019097 0.000000 0.000000 0.000000
# 2 -0.005604 0.014931 -0.020008 0.000000 0.000000 0.000000
# 3 -0.019097 -0.020008 0.134444 0.000000 0.000000 0.000000
# 4 0.000000 0.000000 0.000000 0.041868 0.000000 0.000000
# 5 0.000000 0.000000 0.000000 0.000000 0.091118 0.000000
# 6 0.000000 0.000000 0.000000 0.000000 0.000000 0.038593
#
#
# Mechanical properties :
#
#
# Convention : Reuss Voigt Hill
#
# Bulk Modulus (GPa) = 12.60180 52.67230 32.63705
# Shear Modulus (GPa) = 10.95959 20.20750 15.58354
#
# Velocity S-wave (km/s) = 2.67618 3.63391 3.19118
# Velocity P-wave (km/s) = 4.21715 7.21302 5.90813
#
# Compressibility (1/GPa) = 0.07935372
#
# Stress axis : x y z
#
# Youngs Moduli (GPa) = 51.55378 66.97335 7.43806
#
# Poissons Ratio (x) = 0.37534 0.14205
# Poissons Ratio (y) = 0.28893 0.14882
# Poissons Ratio (z) = 0.98454 1.33997
#
# Static dielectric constant tensor:
#      x y z
#    x 1.489800 0.000000 0.000000 
#    y 0.000000 1.516430 0.000000 
#    z 0.000000 0.000000 1.515210 
# 
# From -- ./inp_files/10200.got.cif
#   From: 2010.05.17/outbox.cif.g08.bks.cpg/sg47_6_cif.got.tgz:10200.got - 2010.06.03 20:15:42.
