data_PCOD9381399
_publ_section_title
;
Structure prediction by ZEFSAII (Michael W. Deem and Ramdas Pophale) SiO2 
 PCOD9381399
Probable space group: P M M M
;
_chemical_formula_sum "Si O2"
_cell_formula_units_Z 52
_cell_length_a 21.575017
_cell_length_b 16.967933
_cell_length_c 8.306733
_cell_angle_alpha 90.000000
_cell_angle_beta 90.000000
_cell_angle_gamma 90.000000
_cell_volume 3040.957416
_symmetry_space_group_name_H-M "P M M M"
_symmetry_group_IT_number 47
_symmetry_cell_setting 'orthorhombic'
loop_
_space_group_symop_operation_xyz
x,y,z
-x,-y,z
x,-y,-z
-x,y,-z
-x,-y,-z
x,y,-z
-x,y,z
x,-y,z
loop_
_atom_site_type_symbol
_atom_site_label
_atom_site_fract_x
_atom_site_fract_y
_atom_site_fract_z
Si Si1 0.816129 0.762626 0.694014
Si Si2 0.748940 0.910982 0.194200
Si Si3 0.719121 0.500000 0.190475
Si Si4 0.861439 0.500000 0.305328
Si Si5 0.307593 0.329417 0.692307
Si Si6 0.500000 0.908141 0.197009
Si Si7 0.624987 0.820540 0.805656
Si Si8 0.929413 0.339653 0.696845
O O1 0.815387 0.760530 0.500000
O O2 0.801071 0.850257 0.750204
O O3 0.758655 0.707252 0.749662
O O4 0.881472 0.727691 0.748998
O O5 0.683256 0.874038 0.248277
O O6 0.756679 0.000000 0.252288
O O7 0.747945 0.912117 0.000000
O O8 0.790653 0.500000 0.248705
O O9 0.688062 0.419096 0.250525
O O10 0.718493 0.500000 0.000000
O O11 0.859374 0.500000 0.500000
O O12 0.898634 0.577601 0.254042
O O13 0.306571 0.329196 0.500000
O O14 0.359878 0.268049 0.749690
O O15 0.438659 0.860885 0.248882
O O16 0.500000 0.000000 0.247635
O O17 0.500000 0.909179 0.000000
O O18 0.624531 0.820327 0.000000
O O19 0.930649 0.339575 0.500000
O O20 0.000000 0.331397 0.752255
#
# Coordination Sequence:
#
# PCOD9381399 Si02
#       8
#     8   8   4   4   8   4   8   8
#     4   9  17  29  46  68  92 119 155 198 242 287
#     4   9  17  29  46  68  94 123 157 197 239 283
#     4  12  22  31  49  74  99 128 163 204 244 284
#     4  10  17  30  48  70  97 127 159 194 237 289
#     4  10  19  33  50  70  97 130 164 202 246 288
#     4   9  16  28  51  80 109 140 169 197 234 285
#     4   9  17  30  49  75 103 131 164 199 236 282
#     4   9  16  27  46  70  94 123 160 198 237 285
#
# _framework density 17.099876999999999
#
# number of rings (size 3 to 8) (size 9 to 14) (size 15 to 20)
#    0.000    2.538    1.538    1.846    0.000    3.692 
#    0.000    0.385    0.000    5.077    0.000    6.462 
#    0.000    0.000    0.000    0.000    0.000    0.000 
#
# Total GULP energy -289938.824254 kJ/mol
# GULP energy per Si atom -5575.746620 kJ/mol
# Density = 1.706096 g / cm^3
# Si number density = 17.099877 Si / 1000 Ang^3
#
#
#
# Elastic Constant Matrix: (Units=GPa)
#
#
# Indices 1 2 3 4 5 6 
#
# 1 125.9094 92.8661 15.8325 0.0000 0.0000 0.0000
# 2 92.8661 186.4845 19.1658 0.0000 0.0000 0.0000
# 3 15.8325 19.1658 10.7692 0.0000 0.0000 0.0000
# 4 0.0000 0.0000 0.0000 22.6543 0.0000 0.0000
# 5 0.0000 0.0000 0.0000 0.0000 15.6174 0.0000
# 6 0.0000 0.0000 0.0000 0.0000 0.0000 21.4626
#
#
#
# Elastic Compliance Matrix: (Units=1/GPa)
#
#
# Indices 1 2 3 4 5 6 
#
# 1 0.013303 -0.005648 -0.009507 0.000000 0.000000 0.000000
# 2 -0.005648 0.008960 -0.007644 0.000000 0.000000 0.000000
# 3 -0.009507 -0.007644 0.120437 0.000000 0.000000 0.000000
# 4 0.000000 0.000000 0.000000 0.044142 0.000000 0.000000
# 5 0.000000 0.000000 0.000000 0.000000 0.064031 0.000000
# 6 0.000000 0.000000 0.000000 0.000000 0.000000 0.046593
#
#
# Mechanical properties :
#
#
# Convention : Reuss Voigt Hill
#
# Bulk Modulus (GPa) = 10.29820 64.32131 37.30976
# Shear Modulus (GPa) = 13.31806 24.96679 19.14243
#
# Velocity S-wave (km/s) = 2.79380 3.82521 3.34945
# Velocity P-wave (km/s) = 4.05494 7.56349 6.06832
#
# Compressibility (1/GPa) = 0.09710436
#
# Stress axis : x y z
#
# Youngs Moduli (GPa) = 75.16995 111.60202 8.30310
#
# Poissons Ratio (x) = 0.63030 0.07894
# Poissons Ratio (y) = 0.42454 0.06347
# Poissons Ratio (z) = 0.71462 0.85304
#
# Static dielectric constant tensor:
#      x y z
#    x 1.569720 0.000000 0.000000 
#    y 0.000000 1.578020 0.000000 
#    z 0.000000 0.000000 1.601390 
# 
# From -- ./inp_files/11112.got.cif
#   From: 2010.05.17/outbox.cif.g08.bks.cpg/sg47_6_cif.got.tgz:11112.got - 2010.06.03 20:15:42.
