data_PCOD9381586
_publ_section_title
;
Structure prediction by ZEFSAII (Michael W. Deem and Ramdas Pophale) SiO2 
 PCOD9381586
Probable space group: P M M M
;
_chemical_formula_sum "Si O2"
_cell_formula_units_Z 52
_cell_length_a 8.088542
_cell_length_b 14.068932
_cell_length_c 28.877538
_cell_angle_alpha 90.000000
_cell_angle_beta 90.000000
_cell_angle_gamma 90.000000
_cell_volume 3286.181448
_symmetry_space_group_name_H-M "P M M M"
_symmetry_group_IT_number 47
_symmetry_cell_setting 'orthorhombic'
loop_
_space_group_symop_operation_xyz
x,y,z
-x,-y,z
x,-y,-z
-x,y,-z
-x,-y,-z
x,y,-z
-x,y,z
x,-y,z
loop_
_atom_site_type_symbol
_atom_site_label
_atom_site_fract_x
_atom_site_fract_y
_atom_site_fract_z
Si Si1 0.698108 0.295677 0.448960
Si Si2 0.817055 0.884363 0.887574
Si Si3 0.305614 0.890491 0.788029
Si Si4 0.500000 0.115961 0.053532
Si Si5 0.700539 0.607633 0.645347
Si Si6 0.799809 0.892366 0.400270
Si Si7 0.196383 0.205627 0.695070
O O1 0.763627 0.319336 0.500000
O O2 0.500000 0.307028 0.450158
O O3 0.758621 0.358748 0.405807
O O4 0.736821 0.186740 0.435788
O O5 0.787366 0.856807 0.834131
O O6 0.665209 0.852693 0.919536
O O7 0.000000 0.854830 0.903159
O O8 0.812810 0.000000 0.887797
O O9 0.500000 0.891440 0.799345
O O10 0.274996 0.828856 0.742639
O O11 0.254844 0.000000 0.778187
O O12 0.500000 0.000000 0.054316
O O13 0.500000 0.145133 0.000000
O O14 0.500000 0.610550 0.645494
O O15 0.752773 0.500000 0.654892
O O16 0.762834 0.686477 0.681118
O O17 0.746734 0.857905 0.348932
O O18 0.000000 0.890272 0.401194
O O19 0.745506 0.000000 0.409443
O O20 0.000000 0.193839 0.699073
#
# Coordination Sequence:
#
# PCOD9381586 Si02
#       7
#     8   8   8   4   8   8   8
#     4   9  18  31  46  65  85 104 132 170 210 254
#     4   9  16  26  39  56  81 114 153 196 239 277
#     4  10  18  28  43  63  89 118 148 185 226 267
#     4   9  16  26  38  54  80 114 157 205 242 273
#     4   9  18  33  50  65  83 107 135 170 213 262
#     4   9  18  31  44  59  83 112 139 168 203 249
#     4  10  19  30  45  65  86 109 141 176 214 263
#
# _framework density 15.823836999999999
#
# number of rings (size 3 to 8) (size 9 to 14) (size 15 to 20)
#    0.000    2.692    0.769    1.385    0.000    4.000 
#    0.000    4.615    0.000    0.000    0.000    4.308 
#    0.000    0.000    0.000    0.000    0.000    1.538 
#
# Total GULP energy -289854.362233 kJ/mol
# GULP energy per Si atom -5574.122351 kJ/mol
# Density = 1.578782 g / cm^3
# Si number density = 15.823837 Si / 1000 Ang^3
#
#
#
# Elastic Constant Matrix: (Units=GPa)
#
#
# Indices 1 2 3 4 5 6 
#
# 1 51.5246 1.7594 30.5108 0.0000 0.0000 0.0000
# 2 1.7594 47.0692 12.5597 0.0000 0.0000 0.0000
# 3 30.5108 12.5597 92.6621 0.0000 0.0000 0.0000
# 4 0.0000 0.0000 0.0000 8.0979 0.0000 0.0000
# 5 0.0000 0.0000 0.0000 0.0000 11.3430 0.0000
# 6 0.0000 0.0000 0.0000 0.0000 0.0000 13.8823
#
#
#
# Elastic Compliance Matrix: (Units=1/GPa)
#
#
# Indices 1 2 3 4 5 6 
#
# 1 0.024182 0.001267 -0.008134 0.000000 0.000000 0.000000
# 2 0.001267 0.022109 -0.003414 0.000000 0.000000 0.000000
# 3 -0.008134 -0.003414 0.013933 0.000000 0.000000 0.000000
# 4 0.000000 0.000000 0.000000 0.123489 0.000000 0.000000
# 5 0.000000 0.000000 0.000000 0.000000 0.088160 0.000000
# 6 0.000000 0.000000 0.000000 0.000000 0.000000 0.072034
#
#
# Mechanical properties :
#
#
# Convention : Reuss Voigt Hill
#
# Bulk Modulus (GPa) = 25.21366 31.21286 28.21326
# Shear Modulus (GPa) = 13.23838 16.42636 14.83237
#
# Velocity S-wave (km/s) = 2.89556 3.22542 3.06493
# Velocity P-wave (km/s) = 5.21033 5.79992 5.51302
#
# Compressibility (1/GPa) = 0.03966104
#
# Stress axis : x y z
#
# Youngs Moduli (GPa) = 41.35390 45.23071 71.77284
#
# Poissons Ratio (x) = -0.05729 0.58379
# Poissons Ratio (y) = -0.05238 0.24501
# Poissons Ratio (z) = 0.33637 0.15441
#
# Static dielectric constant tensor:
#      x y z
#    x 1.566360 0.000000 0.000000 
#    y 0.000000 1.500760 0.000000 
#    z 0.000000 0.000000 1.524030 
# 
# From -- ./inp_files/13414.got.cif
#   From: 2010.05.17/outbox.cif.g08.bks.cpg/sg47_7_cif.got.tgz:13414.got - 2010.06.03 20:15:42.
