data_PCOD9381391
_publ_section_title
;
Structure prediction by ZEFSAII (Michael W. Deem and Ramdas Pophale) SiO2 
 PCOD9381391
Probable space group: P M M M
;
_chemical_formula_sum "Si O2"
_cell_formula_units_Z 37
_cell_length_a 7.275383
_cell_length_b 15.656847
_cell_length_c 14.996150
_cell_angle_alpha 90.000000
_cell_angle_beta 90.000000
_cell_angle_gamma 90.000000
_cell_volume 1708.204826
_symmetry_space_group_name_H-M "P M M M"
_symmetry_group_IT_number 47
_symmetry_cell_setting 'orthorhombic'
loop_
_space_group_symop_operation_xyz
x,y,z
-x,-y,z
x,-y,-z
-x,y,-z
-x,-y,-z
x,y,-z
-x,y,z
x,-y,z
loop_
_atom_site_type_symbol
_atom_site_label
_atom_site_fract_x
_atom_site_fract_y
_atom_site_fract_z
Si Si1 0.226421 0.663425 0.000000
Si Si2 0.788052 0.146888 0.500000
Si Si3 0.500000 0.500000 0.000000
Si Si4 0.775478 0.096420 0.695397
Si Si5 0.278245 0.347916 0.500000
Si Si6 0.722478 0.406086 0.693706
Si Si7 0.790791 0.752565 0.180669
O O1 0.281557 0.717364 0.087573
O O2 0.338349 0.575354 0.000000
O O3 0.000000 0.651023 0.000000
O O4 0.710869 0.115461 0.594326
O O5 0.780290 0.249483 0.500000
O O6 0.000000 0.118287 0.500000
O O7 0.709316 0.168228 0.764423
O O8 0.000000 0.102594 0.692804
O O9 0.727558 0.000000 0.720515
O O10 0.500000 0.349534 0.500000
O O11 0.219411 0.392167 0.408569
O O12 0.500000 0.403544 0.696306
O O13 0.779022 0.500000 0.725746
O O14 0.789217 0.328319 0.752945
O O15 0.000000 0.777820 0.161105
#
# Coordination Sequence:
#
# PCOD9381391 Si02
#       7
#     4   4   1   8   4   8   8
#     4  10  25  43  62  96 131 154 202 264 301 357
#     4  10  17  29  51  80 110 142 189 245 289 342
#     4  12  26  44  76  94 114 174 206 236 324 382
#     4   9  17  31  55  84 112 148 194 241 297 358
#     4  10  19  33  49  74 110 150 185 239 289 344
#     4  10  21  34  53  76 107 149 197 234 282 357
#     4  10  21  38  57  82 117 148 186 251 305 344
#
# _framework density 21.660167999999999
#
# number of rings (size 3 to 8) (size 9 to 14) (size 15 to 20)
#    0.000    2.162    2.162    0.811    3.027    3.027 
#    0.000    0.541    0.000    8.432    0.000    0.757 
#    0.000    0.000    0.000    0.000    0.000    0.432 
#
# Total GULP energy -206399.969096 kJ/mol
# GULP energy per Si atom -5578.377543 kJ/mol
# Density = 2.161087 g / cm^3
# Si number density = 21.660168 Si / 1000 Ang^3
#
#
#
# Elastic Constant Matrix: (Units=GPa)
#
#
# Indices 1 2 3 4 5 6 
#
# 1 108.5737 11.0225 15.7381 0.0000 0.0000 0.0000
# 2 11.0225 198.4684 94.5097 0.0000 0.0000 0.0000
# 3 15.7381 94.5097 166.8476 0.0000 0.0000 0.0000
# 4 0.0000 0.0000 0.0000 -1.3558 0.0000 0.0000
# 5 0.0000 0.0000 0.0000 0.0000 -0.2371 0.0000
# 6 0.0000 0.0000 0.0000 0.0000 0.0000 27.3007
#
#
#
# Elastic Compliance Matrix: (Units=1/GPa)
#
#
# Indices 1 2 3 4 5 6 
#
# 1 0.009341 -0.000136 -0.000804 0.000000 0.000000 0.000000
# 2 -0.000136 0.006902 -0.003897 0.000000 0.000000 0.000000
# 3 -0.000804 -0.003897 0.008277 0.000000 0.000000 0.000000
# 4 0.000000 0.000000 0.000000 -0.737583 0.000000 0.000000
# 5 0.000000 0.000000 0.000000 0.000000 -4.218302 0.000000
# 6 0.000000 0.000000 0.000000 0.000000 0.000000 0.036629
#
#
# Mechanical properties :
#
#
# Convention : Reuss Voigt Hill
#
# Bulk Modulus (GPa) = 67.35920 79.60338 73.48129
# Shear Modulus (GPa) = -1.02457 28.64952 13.81248
#
# Velocity S-wave (km/s) = -0.68851 3.64082 2.52799
# Velocity P-wave (km/s) = 5.52573 7.38274 6.52068
#
# Compressibility (1/GPa) = 0.01484578
#
# Stress axis : x y z
#
# Youngs Moduli (GPa) = 107.05850 144.89251 120.82340
#
# Poissons Ratio (x) = 0.01968 0.09716
# Poissons Ratio (y) = 0.01454 0.47080
# Poissons Ratio (z) = 0.08609 0.56459
#
# Static dielectric constant tensor:
#      x y z
#    x 3.182640 0.000000 0.000000 
#    y 0.000000 1.738270 0.000000 
#    z 0.000000 0.000000 1.776630 
# 
# From -- ./inp_files/20629.got.cif
#   From: 2010.05.17/outbox.cif.g08.bks.cpg/sg47_11_cif.got.tgz:20629.got - 2010.06.03 20:15:42.
