data_PCOD9381526
_publ_section_title
;
Structure prediction by ZEFSAII (Michael W. Deem and Ramdas Pophale) SiO2 
 PCOD9381526
Probable space group: P M M M
;
_chemical_formula_sum "Si O2"
_cell_formula_units_Z 52
_cell_length_a 27.686822
_cell_length_b 14.268198
_cell_length_c 7.491761
_cell_angle_alpha 90.000000
_cell_angle_beta 90.000000
_cell_angle_gamma 90.000000
_cell_volume 2959.553194
_symmetry_space_group_name_H-M "P M M M"
_symmetry_group_IT_number 47
_symmetry_cell_setting 'orthorhombic'
loop_
_space_group_symop_operation_xyz
x,y,z
-x,-y,z
x,-y,-z
-x,y,-z
-x,-y,-z
x,y,-z
-x,y,z
x,-y,z
loop_
_atom_site_type_symbol
_atom_site_label
_atom_site_fract_x
_atom_site_fract_y
_atom_site_fract_z
Si Si1 0.446087 0.108868 0.217523
Si Si2 0.299370 0.604819 0.714933
Si Si3 0.797576 0.709087 0.718683
Si Si4 0.894655 0.608876 0.281456
Si Si5 0.349590 0.204826 0.789765
Si Si6 0.749465 0.104252 0.708332
Si Si7 0.000000 0.386170 0.708502
O O1 0.500000 0.136650 0.276828
O O2 0.401409 0.171461 0.280259
O O3 0.438217 0.000000 0.266794
O O4 0.446670 0.111950 0.000000
O O5 0.298030 0.601692 0.500000
O O6 0.309634 0.500000 0.780264
O O7 0.246471 0.641088 0.773454
O O8 0.337057 0.686218 0.762518
O O9 0.797419 0.709623 0.500000
O O10 0.849247 0.670357 0.775928
O O11 0.783236 0.812995 0.782358
O O12 0.895777 0.609784 0.500000
O O13 0.887718 0.500000 0.230235
O O14 0.947659 0.641860 0.217984
O O15 0.305022 0.144316 0.715649
O O16 0.349208 0.186302 0.000000
O O17 0.762105 0.096979 0.500000
O O18 0.752486 0.000000 0.786565
O O19 0.000000 0.500000 0.714330
O O20 0.000000 0.358802 0.500000
#
# Coordination Sequence:
#
# PCOD9381526 Si02
#       7
#     8   8   8   8   8   8   4
#     4   8  14  25  41  61  83 104 126 154 190 232
#     4   9  17  29  43  58  79 108 138 163 189 226
#     4   8  13  21  34  51  68  93 131 164 187 218
#     4   8  11  15  25  42  65  91 120 155 191 227
#     4  10  18  27  43  65  84 102 127 160 197 234
#     4   9  17  28  40  55  78 106 133 160 191 231
#     4   7  10  14  20  36  63  91 116 147 191 233
#
# _framework density 17.570219999999999
#
# number of rings (size 3 to 8) (size 9 to 14) (size 15 to 20)
#    0.000    3.462    0.000    3.692    0.000    3.077 
#    0.000    0.000    0.000    2.308    0.000    9.154 
#    0.000    4.308    0.000   11.077    0.000  110.154 
#
# Total GULP energy -289626.831251 kJ/mol
# GULP energy per Si atom -5569.746755 kJ/mol
# Density = 1.753023 g / cm^3
# Si number density = 17.570220 Si / 1000 Ang^3
#
#
#
# Elastic Constant Matrix: (Units=GPa)
#
#
# Indices 1 2 3 4 5 6 
#
# 1 180.2143 91.0118 0.3777 0.0000 0.0000 0.0000
# 2 91.0118 120.8569 -1.5751 0.0000 0.0000 0.0000
# 3 0.3777 -1.5751 45.9738 0.0000 0.0000 0.0000
# 4 0.0000 0.0000 0.0000 2.8627 0.0000 0.0000
# 5 0.0000 0.0000 0.0000 0.0000 12.0574 0.0000
# 6 0.0000 0.0000 0.0000 0.0000 0.0000 23.0395
#
#
#
# Elastic Compliance Matrix: (Units=1/GPa)
#
#
# Indices 1 2 3 4 5 6 
#
# 1 0.008959 -0.006750 -0.000305 0.000000 0.000000 0.000000
# 2 -0.006750 0.013364 0.000513 0.000000 0.000000 0.000000
# 3 -0.000305 0.000513 0.021772 0.000000 0.000000 0.000000
# 4 0.000000 0.000000 0.000000 0.349315 0.000000 0.000000
# 5 0.000000 0.000000 0.000000 0.000000 0.082937 0.000000
# 6 0.000000 0.000000 0.000000 0.000000 0.000000 0.043404
#
#
# Mechanical properties :
#
#
# Convention : Reuss Voigt Hill
#
# Bulk Modulus (GPa) = 32.24679 58.51930 45.38305
# Shear Modulus (GPa) = 9.20521 24.74064 16.97293
#
# Velocity S-wave (km/s) = 2.29139 3.75654 3.11143
# Velocity P-wave (km/s) = 5.03920 7.22452 6.22845
#
# Compressibility (1/GPa) = 0.03101084
#
# Stress axis : x y z
#
# Youngs Moduli (GPa) = 111.62427 74.82629 45.93137
#
# Poissons Ratio (x) = 0.50510 0.01400
# Poissons Ratio (y) = 0.75350 -0.02358
# Poissons Ratio (z) = 0.03403 -0.03841
#
# Static dielectric constant tensor:
#      x y z
#    x 1.606580 0.000000 0.000000 
#    y 0.000000 1.592930 0.000000 
#    z 0.000000 0.000000 1.710040 
# 
# From -- ./inp_files/13381.got.cif
#   From: 2010.05.17/outbox.cif.g08.bks.cpg/sg47_7_cif.got.tgz:13381.got - 2010.06.03 20:15:42.
