data_PCOD9381441
_publ_section_title
;
Structure prediction by ZEFSAII (Michael W. Deem and Ramdas Pophale) SiO2 
 PCOD9381441
Probable space group: P M M M
;
_chemical_formula_sum "Si O2"
_cell_formula_units_Z 44
_cell_length_a 8.915864
_cell_length_b 19.293195
_cell_length_c 15.170492
_cell_angle_alpha 90.000000
_cell_angle_beta 90.000000
_cell_angle_gamma 90.000000
_cell_volume 2609.559808
_symmetry_space_group_name_H-M "P M M M"
_symmetry_group_IT_number 47
_symmetry_cell_setting 'orthorhombic'
loop_
_space_group_symop_operation_xyz
x,y,z
-x,-y,z
x,-y,-z
-x,y,-z
-x,-y,-z
x,y,-z
-x,y,z
x,-y,z
loop_
_atom_site_type_symbol
_atom_site_label
_atom_site_fract_x
_atom_site_fract_y
_atom_site_fract_z
Si Si1 0.679824 0.353571 0.103401
Si Si2 0.173366 0.244126 0.235870
Si Si3 0.829621 0.500000 0.893880
Si Si4 0.821520 0.000000 0.347429
Si Si5 0.834153 0.123332 0.095073
Si Si6 0.817293 0.155048 0.399847
Si Si7 0.668970 0.000000 0.837223
O O1 0.500000 0.353625 0.104149
O O2 0.740030 0.300669 0.177466
O O3 0.742979 0.429463 0.127817
O O4 0.725953 0.338495 0.000000
O O5 0.171636 0.177048 0.173208
O O6 0.233661 0.212181 0.328069
O O7 0.000000 0.267279 0.248406
O O8 0.000000 0.500000 0.859126
O O9 0.838465 0.500000 0.000000
O O10 0.766282 0.924951 0.382811
O O11 0.781696 0.000000 0.244820
O O12 0.000000 0.000000 0.362757
O O13 0.706764 0.067140 0.106525
O O14 0.000000 0.089683 0.097919
O O15 0.820982 0.158670 0.000000
O O16 0.778981 0.173752 0.500000
O O17 0.000000 0.153508 0.391773
O O18 0.500000 0.000000 0.804591
#
# Coordination Sequence:
#
# PCOD9381441 Si02
#       7
#     8   8   4   4   8   8   4
#     4  10  20  33  50  75 109 144 173 202 239 285
#     4  10  19  32  51  74 100 128 164 207 250 299
#     4   9  17  31  53  79 106 137 174 209 239 278
#     4  10  17  33  55  71  92 123 164 212 264 313
#     4  10  20  34  50  66  88 124 168 208 247 295
#     4   9  17  30  53  80  98 119 161 217 267 308
#     4  12  23  32  45  65  92 124 162 204 252 303
#
# _framework density 16.861082
#
# number of rings (size 3 to 8) (size 9 to 14) (size 15 to 20)
#    0.000    2.091    1.818    2.727    0.000    6.182 
#    0.000    0.000    0.000    2.727    0.000    0.636 
#    0.000    5.091    0.000    0.000    0.000    0.000 
#
# Total GULP energy -245024.198988 kJ/mol
# GULP energy per Si atom -5568.731795 kJ/mol
# Density = 1.682270 g / cm^3
# Si number density = 16.861082 Si / 1000 Ang^3
#
#
#
# Elastic Constant Matrix: (Units=GPa)
#
#
# Indices 1 2 3 4 5 6 
#
# 1 32.6504 37.1598 14.9562 0.0000 0.0000 0.0000
# 2 37.1598 102.4129 51.8758 0.0000 0.0000 0.0000
# 3 14.9562 51.8758 123.1358 0.0000 0.0000 0.0000
# 4 0.0000 0.0000 0.0000 31.6604 0.0000 0.0000
# 5 0.0000 0.0000 0.0000 0.0000 10.8856 0.0000
# 6 0.0000 0.0000 0.0000 0.0000 0.0000 123.5297
#
#
#
# Elastic Compliance Matrix: (Units=1/GPa)
#
#
# Indices 1 2 3 4 5 6 
#
# 1 0.052596 -0.020148 0.002100 0.000000 0.000000 0.000000
# 2 -0.020148 0.020131 -0.006034 0.000000 0.000000 0.000000
# 3 0.002100 -0.006034 0.010408 0.000000 0.000000 0.000000
# 4 0.000000 0.000000 0.000000 0.031585 0.000000 0.000000
# 5 0.000000 0.000000 0.000000 0.000000 0.091864 0.000000
# 6 0.000000 0.000000 0.000000 0.000000 0.000000 0.008095
#
#
# Mechanical properties :
#
#
# Convention : Reuss Voigt Hill
#
# Bulk Modulus (GPa) = 28.59469 51.79805 40.19637
# Shear Modulus (GPa) = 18.21486 43.49564 30.85525
#
# Velocity S-wave (km/s) = 3.29034 5.08453 4.28245
# Velocity P-wave (km/s) = 5.60633 8.07819 6.95299
#
# Compressibility (1/GPa) = 0.03497152
#
# Stress axis : x y z
#
# Youngs Moduli (GPa) = 19.01283 49.67405 96.07885
#
# Poissons Ratio (x) = 1.00082 -0.20173
# Poissons Ratio (y) = 0.38306 0.57973
# Poissons Ratio (z) = -0.03992 0.29973
#
# Static dielectric constant tensor:
#      x y z
#    x 1.592350 0.000000 0.000000 
#    y 0.000000 1.571770 0.000000 
#    z 0.000000 0.000000 1.575130 
# 
# From -- ./inp_files/20984.got.cif
#   From: 2010.05.17/outbox.cif.g08.bks.cpg/sg47_11_cif.got.tgz:20984.got - 2010.06.03 20:15:42.
