data_PCOD9381284
_publ_section_title
;
Structure prediction by ZEFSAII (Michael W. Deem and Ramdas Pophale) SiO2 
 PCOD9381284
Probable space group: P M M M
;
_chemical_formula_sum "Si O2"
_cell_formula_units_Z 48
_cell_length_a 17.758607
_cell_length_b 21.205737
_cell_length_c 7.992532
_cell_angle_alpha 90.000000
_cell_angle_beta 90.000000
_cell_angle_gamma 90.000000
_cell_volume 3009.862464
_symmetry_space_group_name_H-M "P M M M"
_symmetry_group_IT_number 47
_symmetry_cell_setting 'orthorhombic'
loop_
_space_group_symop_operation_xyz
x,y,z
-x,-y,z
x,-y,-z
-x,y,-z
-x,-y,-z
x,y,-z
-x,y,z
x,-y,z
loop_
_atom_site_type_symbol
_atom_site_label
_atom_site_fract_x
_atom_site_fract_y
_atom_site_fract_z
Si Si1 0.913779 0.427907 0.797718
Si Si2 0.683305 0.931400 0.500000
Si Si3 0.410651 0.801604 0.500000
Si Si4 0.677280 0.242990 0.184185
Si Si5 0.913453 0.186483 0.297190
Si Si6 0.181023 0.690774 0.697369
Si Si7 0.226740 0.112749 0.814034
O O1 0.896957 0.500000 0.747033
O O2 0.856831 0.376147 0.730199
O O3 0.000000 0.413558 0.745236
O O4 0.912122 0.425804 0.000000
O O5 0.627270 0.871515 0.500000
O O6 0.736130 0.925502 0.663491
O O7 0.645465 0.000000 0.500000
O O8 0.500000 0.806599 0.500000
O O9 0.380215 0.765321 0.335992
O O10 0.739257 0.297142 0.214736
O O11 0.726907 0.178737 0.186640
O O12 0.642735 0.249106 0.000000
O O13 0.910763 0.182859 0.500000
O O14 0.877246 0.254045 0.248495
O O15 0.858744 0.132939 0.225256
O O16 0.000000 0.181889 0.244246
O O17 0.193835 0.699944 0.500000
O O18 0.233309 0.085084 0.000000
#
# Coordination Sequence:
#
# PCOD9381284 Si02
#       7
#     8   4   4   8   8   8   8
#     4   9  18  30  40  55  89 137 181 217 252 287
#     4  10  20  35  53  72  96 126 155 184 219 264
#     4  10  20  35  54  79 106 125 147 180 221 282
#     4   9  17  31  50  72  98 127 156 191 236 281
#     4   9  16  26  42  65  92 119 151 200 255 292
#     4  10  17  27  44  67  93 123 165 209 244 286
#     4   9  17  30  48  68  91 122 159 196 234 275
#
# _framework density 15.947571999999999
#
# number of rings (size 3 to 8) (size 9 to 14) (size 15 to 20)
#    0.000    2.667    1.667    1.500    0.000    3.167 
#    0.000    0.833    0.000    1.000    0.000    5.833 
#    0.000    1.333    0.000    3.500    0.000    0.000 
#
# Total GULP energy -267488.692847 kJ/mol
# GULP energy per Si atom -5572.681101 kJ/mol
# Density = 1.591127 g / cm^3
# Si number density = 15.947572 Si / 1000 Ang^3
#
#
#
# Elastic Constant Matrix: (Units=GPa)
#
#
# Indices 1 2 3 4 5 6 
#
# 1 98.6124 28.3472 48.3910 0.0000 0.0000 0.0000
# 2 28.3472 56.2167 21.3537 0.0000 0.0000 0.0000
# 3 48.3910 21.3537 93.8944 0.0000 0.0000 0.0000
# 4 0.0000 0.0000 0.0000 -11.2197 0.0000 0.0000
# 5 0.0000 0.0000 0.0000 0.0000 8.4914 0.0000
# 6 0.0000 0.0000 0.0000 0.0000 0.0000 11.6080
#
#
#
# Elastic Compliance Matrix: (Units=1/GPa)
#
#
# Indices 1 2 3 4 5 6 
#
# 1 0.014746 -0.004979 -0.006467 0.000000 0.000000 0.000000
# 2 -0.004979 0.021151 -0.002244 0.000000 0.000000 0.000000
# 3 -0.006467 -0.002244 0.014494 0.000000 0.000000 0.000000
# 4 0.000000 0.000000 0.000000 -0.089129 0.000000 0.000000
# 5 0.000000 0.000000 0.000000 0.000000 0.117766 0.000000
# 6 0.000000 0.000000 0.000000 0.000000 0.000000 0.086148
#
#
# Mechanical properties :
#
#
# Convention : Reuss Voigt Hill
#
# Bulk Modulus (GPa) = 43.45958 49.43413 46.44685
# Shear Modulus (GPa) = 24.97179 11.81805 18.39492
#
# Velocity S-wave (km/s) = 3.96140 2.72519 3.39995
# Velocity P-wave (km/s) = 6.94509 6.40058 6.67839
#
# Compressibility (1/GPa) = 0.02300989
#
# Stress axis : x y z
#
# Youngs Moduli (GPa) = 67.81728 47.27819 68.99550
#
# Poissons Ratio (x) = 0.23539 0.44621
# Poissons Ratio (y) = 0.33765 0.15485
# Poissons Ratio (z) = 0.43859 0.10611
#
# Static dielectric constant tensor:
#      x y z
#    x 1.502970 0.000000 0.000000 
#    y 0.000000 1.521940 0.000000 
#    z 0.000000 0.000000 1.573020 
# 
# From -- ./inp_files/9728.got.cif
#   From: 2010.05.17/outbox.cif.g08.bks.cpg/sg47_5_cif.got.tgz:9728.got - 2010.06.03 20:15:42.
