data_PCOD9381269
_publ_section_title
;
Structure prediction by ZEFSAII (Michael W. Deem and Ramdas Pophale) SiO2 
 PCOD9381269
Probable space group: P M M M
;
_chemical_formula_sum "Si O2"
_cell_formula_units_Z 64
_cell_length_a 20.776822
_cell_length_b 7.380432
_cell_length_c 20.758204
_cell_angle_alpha 90.000000
_cell_angle_beta 90.000000
_cell_angle_gamma 90.000000
_cell_volume 3183.102898
_symmetry_space_group_name_H-M "P M M M"
_symmetry_group_IT_number 47
_symmetry_cell_setting 'orthorhombic'
loop_
_space_group_symop_operation_xyz
x,y,z
-x,-y,z
x,-y,-z
-x,y,-z
-x,-y,-z
x,y,-z
-x,y,z
x,-y,z
loop_
_atom_site_type_symbol
_atom_site_label
_atom_site_fract_x
_atom_site_fract_y
_atom_site_fract_z
Si Si1 0.569868 0.221194 0.116289
Si Si2 0.400451 0.789504 0.740347
Si Si3 0.288264 0.721315 0.570117
Si Si4 0.709455 0.219356 0.071215
Si Si5 0.820694 0.290767 0.828987
Si Si6 0.568863 0.707215 0.402371
Si Si7 0.253209 0.719578 0.290242
Si Si8 0.074388 0.278964 0.927582
O O1 0.500000 0.277212 0.090346
O O2 0.575686 0.278819 0.190992
O O3 0.635606 0.277959 0.082011
O O4 0.570752 0.000000 0.115320
O O5 0.426671 0.703256 0.675301
O O6 0.323256 0.772970 0.736895
O O7 0.418294 0.000000 0.736635
O O8 0.262676 0.774633 0.500000
O O9 0.289750 0.500000 0.572045
O O10 0.362714 0.784880 0.575787
O O11 0.252014 0.778936 0.635173
O O12 0.757111 0.285841 0.126303
O O13 0.710409 0.000000 0.074155
O O14 0.731325 0.275253 0.000000
O O15 0.838209 0.500000 0.817357
O O16 0.800302 0.213265 0.759779
O O17 0.877678 0.211731 0.872473
O O18 0.500000 0.789797 0.420555
O O19 0.568328 0.500000 0.425230
O O20 0.251590 0.500000 0.289805
O O21 0.076902 0.500000 0.927716
O O22 0.000000 0.228431 0.917140
O O23 0.093393 0.221389 0.000000
#
# Coordination Sequence:
#
# PCOD9381269 Si02
#       8
#     8   8   8   8   8   8   8   8
#     4   9  17  28  41  57  76 100 135 177 216 253
#     4  10  17  27  43  59  78 104 135 172 214 261
#     4   8  14  25  40  57  79 106 135 169 209 255
#     4  10  20  32  45  62  84 110 143 181 217 256
#     4  10  18  29  48  69  90 113 140 177 215 251
#     4   9  17  27  39  57  79 100 128 170 218 264
#     4   9  17  28  43  64  85 104 134 174 214 251
#     4   8  14  25  42  66  94 121 147 171 199 242
#
# _framework density 20.106168
#
# number of rings (size 3 to 8) (size 9 to 14) (size 15 to 20)
#    0.000    2.875    1.250    2.250    0.000    2.000 
#    0.000    2.500    0.000    7.500    0.000    6.125 
#    0.000    0.500    0.000    7.000    0.000    0.000 
#
# Total GULP energy -357115.043670 kJ/mol
# GULP energy per Si atom -5579.922557 kJ/mol
# Density = 2.006041 g / cm^3
# Si number density = 20.106168 Si / 1000 Ang^3
#
#
#
# Elastic Constant Matrix: (Units=GPa)
#
#
# Indices 1 2 3 4 5 6 
#
# 1 90.7389 -0.9358 60.8869 0.0000 0.0000 0.0000
# 2 -0.9358 74.2921 3.6304 0.0000 0.0000 0.0000
# 3 60.8869 3.6304 147.3320 0.0000 0.0000 0.0000
# 4 0.0000 0.0000 0.0000 6.5787 0.0000 0.0000
# 5 0.0000 0.0000 0.0000 0.0000 95.9789 0.0000
# 6 0.0000 0.0000 0.0000 0.0000 0.0000 4.3598
#
#
#
# Elastic Compliance Matrix: (Units=1/GPa)
#
#
# Indices 1 2 3 4 5 6 
#
# 1 0.015268 0.000501 -0.006322 0.000000 0.000000 0.000000
# 2 0.000501 0.013493 -0.000540 0.000000 0.000000 0.000000
# 3 -0.006322 -0.000540 0.009413 0.000000 0.000000 0.000000
# 4 0.000000 0.000000 0.000000 0.152007 0.000000 0.000000
# 5 0.000000 0.000000 0.000000 0.000000 0.010419 0.000000
# 6 0.000000 0.000000 0.000000 0.000000 0.000000 0.229367
#
#
# Mechanical properties :
#
#
# Convention : Reuss Voigt Hill
#
# Bulk Modulus (GPa) = 39.28724 48.83622 44.06173
# Shear Modulus (GPa) = 11.08224 37.96892 24.52558
#
# Velocity S-wave (km/s) = 2.35028 4.35031 3.49636
# Velocity P-wave (km/s) = 5.19109 7.04099 6.18559
#
# Compressibility (1/GPa) = 0.02545355
#
# Stress axis : x y z
#
# Youngs Moduli (GPa) = 65.49657 74.11219 106.23206
#
# Poissons Ratio (x) = -0.03715 0.67160
# Poissons Ratio (y) = -0.03283 0.05733
# Poissons Ratio (z) = 0.41407 0.03999
#
# Static dielectric constant tensor:
#      x y z
#    x 1.689150 0.000000 0.000000 
#    y 0.000000 1.777320 0.000000 
#    z 0.000000 0.000000 1.733770 
# 
# From -- ./inp_files/12950.got.cif
#   From: 2010.05.17/outbox.cif.g08.bks.cpg/sg47_7_cif.got.tgz:12950.got - 2010.06.03 20:15:42.
