data_PCOD9381164
_publ_section_title
;
Structure prediction by ZEFSAII (Michael W. Deem and Ramdas Pophale) SiO2 
 PCOD9381164
Probable space group: P M M M
;
_chemical_formula_sum "Si O2"
_cell_formula_units_Z 46
_cell_length_a 8.565892
_cell_length_b 25.581582
_cell_length_c 12.150218
_cell_angle_alpha 90.000000
_cell_angle_beta 90.000000
_cell_angle_gamma 90.000000
_cell_volume 2662.465954
_symmetry_space_group_name_H-M "P M M M"
_symmetry_group_IT_number 47
_symmetry_cell_setting 'orthorhombic'
loop_
_space_group_symop_operation_xyz
x,y,z
-x,-y,z
x,-y,-z
-x,y,-z
-x,-y,-z
x,y,-z
-x,y,z
x,-y,z
loop_
_atom_site_type_symbol
_atom_site_label
_atom_site_fract_x
_atom_site_fract_y
_atom_site_fract_z
Si Si1 0.690200 0.439056 0.000000
Si Si2 0.768959 0.000000 0.500000
Si Si3 0.314357 0.192154 0.630292
Si Si4 0.312993 0.401294 0.238182
Si Si5 0.688583 0.921882 0.697533
Si Si6 0.187289 0.500000 0.627280
Si Si7 0.185776 0.695337 0.372544
Si Si8 0.187201 0.000000 0.871381
O O1 0.740572 0.410961 0.112427
O O2 0.739642 0.500000 0.000000
O O3 0.500000 0.439431 0.000000
O O4 0.760733 0.954655 0.596720
O O5 0.287534 0.183376 0.500000
O O6 0.500000 0.199569 0.645701
O O7 0.267453 0.138897 0.690776
O O8 0.229582 0.245673 0.661013
O O9 0.500000 0.403454 0.239000
O O10 0.249087 0.448884 0.311147
O O11 0.258844 0.347439 0.292610
O O12 0.500000 0.926017 0.684274
O O13 0.741810 0.950071 0.808520
O O14 0.237533 0.500000 0.500000
O O15 0.000000 0.500000 0.630212
O O16 0.240600 0.688085 0.500000
O O17 0.000000 0.689066 0.372230
O O18 0.000000 0.000000 0.857885
O O19 0.224445 0.000000 0.000000
#
# Coordination Sequence:
#
# PCOD9381164 Si02
#       8
#     4   2   8   8   8   4   8   4
#     4   9  18  36  58  82 108 134 168 221 276 309
#     4  10  15  26  49  84 117 138 159 206 273 316
#     4   9  17  31  53  81 109 139 175 214 260 317
#     4  11  21  36  59  81 105 138 180 222 262 313
#     4  10  18  30  54  81 108 137 172 217 263 313
#     4  11  23  36  51  78 116 147 170 209 264 317
#     4  10  21  36  53  77 112 148 176 213 263 313
#     4  10  22  37  50  69 102 143 181 218 264 312
#
# _framework density 17.277215999999999
#
# number of rings (size 3 to 8) (size 9 to 14) (size 15 to 20)
#    0.000    2.000    1.739    3.391    0.000    5.217 
#    0.000    5.652    1.913    0.000    0.000    0.000 
#    0.000    0.000    0.000    0.000    0.000    0.000 
#
# Total GULP energy -256207.905493 kJ/mol
# GULP energy per Si atom -5569.737076 kJ/mol
# Density = 1.723789 g / cm^3
# Si number density = 17.277216 Si / 1000 Ang^3
#
#
#
# Elastic Constant Matrix: (Units=GPa)
#
#
# Indices 1 2 3 4 5 6 
#
# 1 24.0486 31.2253 28.1783 0.0000 0.0000 0.0000
# 2 31.2253 142.4924 81.0322 0.0000 0.0000 0.0000
# 3 28.1783 81.0322 137.5691 0.0000 0.0000 0.0000
# 4 0.0000 0.0000 0.0000 14.4974 0.0000 0.0000
# 5 0.0000 0.0000 0.0000 0.0000 4.2864 0.0000
# 6 0.0000 0.0000 0.0000 0.0000 0.0000 58.2420
#
#
#
# Elastic Compliance Matrix: (Units=1/GPa)
#
#
# Indices 1 2 3 4 5 6 
#
# 1 0.062426 -0.009636 -0.007111 0.000000 0.000000 0.000000
# 2 -0.009636 0.012040 -0.005118 0.000000 0.000000 0.000000
# 3 -0.007111 -0.005118 0.011740 0.000000 0.000000 0.000000
# 4 0.000000 0.000000 0.000000 0.068978 0.000000 0.000000
# 5 0.000000 0.000000 0.000000 0.000000 0.233297 0.000000
# 6 0.000000 0.000000 0.000000 0.000000 0.000000 0.017170
#
#
# Mechanical properties :
#
#
# Convention : Reuss Voigt Hill
#
# Bulk Modulus (GPa) = 23.54246 64.99796 44.27021
# Shear Modulus (GPa) = 10.78655 26.31678 18.55167
#
# Velocity S-wave (km/s) = 2.50135 3.90706 3.28039
# Velocity P-wave (km/s) = 4.69023 7.61944 6.32669
#
# Compressibility (1/GPa) = 0.04247644
#
# Stress axis : x y z
#
# Youngs Moduli (GPa) = 16.01890 83.05522 85.17617
#
# Poissons Ratio (x) = 0.80033 0.60567
# Poissons Ratio (y) = 0.15436 0.43595
# Poissons Ratio (z) = 0.11391 0.42510
#
# Static dielectric constant tensor:
#      x y z
#    x 1.607170 0.000000 0.000000 
#    y 0.000000 1.570820 0.000000 
#    z 0.000000 0.000000 1.570180 
# 
# From -- ./inp_files/15359.got.cif
#   From: 2010.05.17/outbox.cif.g08.bks.cpg/sg47_8_cif.got.tgz:15359.got - 2010.06.03 20:15:42.
