data_PCOD9381543
_publ_section_title
;
Structure prediction by ZEFSAII (Michael W. Deem and Ramdas Pophale) SiO2 
 PCOD9381543
Probable space group: P M M M
;
_chemical_formula_sum "Si O2"
_cell_formula_units_Z 64
_cell_length_a 14.237350
_cell_length_b 26.296259
_cell_length_c 7.214165
_cell_angle_alpha 90.000000
_cell_angle_beta 90.000000
_cell_angle_gamma 90.000000
_cell_volume 2700.904331
_symmetry_space_group_name_H-M "P M M M"
_symmetry_group_IT_number 47
_symmetry_cell_setting 'orthorhombic'
loop_
_space_group_symop_operation_xyz
x,y,z
-x,-y,z
x,-y,-z
-x,y,-z
-x,-y,-z
x,y,-z
-x,y,z
x,-y,z
loop_
_atom_site_type_symbol
_atom_site_label
_atom_site_fract_x
_atom_site_fract_y
_atom_site_fract_z
Si Si1 0.613075 0.338475 0.778650
Si Si2 0.609374 0.771017 0.224296
Si Si3 0.604886 0.940735 0.725484
Si Si4 0.748041 0.140412 0.292857
Si Si5 0.887535 0.444716 0.276807
Si Si6 0.612504 0.553861 0.776650
Si Si7 0.886669 0.665776 0.720745
Si Si8 0.109473 0.222523 0.273996
O O1 0.500000 0.338237 0.752190
O O2 0.645783 0.284057 0.709737
O O3 0.648736 0.392280 0.704804
O O4 0.627993 0.338717 0.000000
O O5 0.500000 0.775267 0.271673
O O6 0.667300 0.816980 0.302641
O O7 0.615946 0.772440 0.000000
O O8 0.605611 0.937773 0.500000
O O9 0.500000 0.922927 0.783446
O O10 0.692478 0.907179 0.791714
O O11 0.613377 0.000000 0.774940
O O12 0.778682 0.125012 0.500000
O O13 0.832229 0.173666 0.208416
O O14 0.875842 0.444625 0.500000
O O15 0.852460 0.500000 0.208360
O O16 0.853153 0.389415 0.207045
O O17 0.000000 0.444824 0.242879
O O18 0.500000 0.553796 0.743239
O O19 0.649210 0.500000 0.705823
O O20 0.623333 0.553933 0.000000
O O21 0.869489 0.665367 0.500000
O O22 0.855808 0.721444 0.790278
O O23 0.000000 0.666022 0.745154
O O24 0.116150 0.223094 0.500000
O O25 0.000000 0.218028 0.226939
#
# Coordination Sequence:
#
# PCOD9381543 Si02
#       8
#     8   8   8   8   8   8   8   8
#     4   7  10  17  28  43  67  99 128 153 192 245
#     4   9  17  28  41  59  87 118 139 162 207 261
#     4   8  14  25  41  62  88 114 138 168 207 246
#     4  10  18  27  44  67  85 107 144 181 204 234
#     4   7   8   9  15  30  52  78 111 151 190 228
#     4   7   8  10  19  37  60  85 116 156 195 227
#     4   7   9  14  24  38  60  90 120 153 197 243
#     4   8  14  24  37  55  80 107 134 169 214 253
#
# _framework density 23.695765999999999
#
# number of rings (size 3 to 8) (size 9 to 14) (size 15 to 20)
#    0.000    4.125    0.000    4.500    0.000    0.750 
#    0.000    0.000    0.000    1.125    0.000    5.250 
#    0.000    1.500    0.000    6.000    0.000    5.500 
#
# Total GULP energy -356858.614247 kJ/mol
# GULP energy per Si atom -5575.915848 kJ/mol
# Density = 2.364183 g / cm^3
# Si number density = 23.695766 Si / 1000 Ang^3
#
#
#
# Elastic Constant Matrix: (Units=GPa)
#
#
# Indices 1 2 3 4 5 6 
#
# 1 114.7166 49.8938 1.9446 0.0000 0.0000 0.0000
# 2 49.8938 153.3718 4.6711 0.0000 0.0000 0.0000
# 3 1.9446 4.6711 114.3705 0.0000 0.0000 0.0000
# 4 0.0000 0.0000 0.0000 -15.7108 0.0000 0.0000
# 5 0.0000 0.0000 0.0000 0.0000 -4.5883 0.0000
# 6 0.0000 0.0000 0.0000 0.0000 0.0000 149.5208
#
#
#
# Elastic Compliance Matrix: (Units=1/GPa)
#
#
# Indices 1 2 3 4 5 6 
#
# 1 0.010154 -0.003302 -0.000038 0.000000 0.000000 0.000000
# 2 -0.003302 0.007602 -0.000254 0.000000 0.000000 0.000000
# 3 -0.000038 -0.000254 0.008755 0.000000 0.000000 0.000000
# 4 0.000000 0.000000 0.000000 -0.063651 0.000000 0.000000
# 5 0.000000 0.000000 0.000000 0.000000 -0.217945 0.000000
# 6 0.000000 0.000000 0.000000 0.000000 0.000000 0.006688
#
#
# Mechanical properties :
#
#
# Convention : Reuss Voigt Hill
#
# Bulk Modulus (GPa) = 51.75397 55.05309 53.40353
# Shear Modulus (GPa) = -21.29759 47.57430 13.13836
#
# Velocity S-wave (km/s) = -3.00124 4.48561 2.35725
# Velocity P-wave (km/s) = 3.14301 7.07894 5.47676
#
# Compressibility (1/GPa) = 0.01932219
#
# Stress axis : x y z
#
# Youngs Moduli (GPa) = 98.48393 131.54348 114.22639
#
# Poissons Ratio (x) = 0.43436 0.00432
# Poissons Ratio (y) = 0.32520 0.02905
# Poissons Ratio (z) = 0.00372 0.03346
#
# Static dielectric constant tensor:
#      x y z
#    x 2.011230 0.000000 0.000000 
#    y 0.000000 1.939440 0.000000 
#    z 0.000000 0.000000 6.290220 
# 
# From -- ./inp_files/16835.got.cif
#   From: 2010.05.17/outbox.cif.g08.bks.cpg/sg47_9_cif.got.tgz:16835.got - 2010.06.03 20:15:42.
