data_PCOD9381913
_publ_section_title
;
Structure prediction by ZEFSAII (Michael W. Deem and Ramdas Pophale) SiO2 
 PCOD9381913
Probable space group: P M M M
;
_chemical_formula_sum "Si O2"
_cell_formula_units_Z 52
_cell_length_a 14.516138
_cell_length_b 13.313787
_cell_length_c 16.414687
_cell_angle_alpha 90.000000
_cell_angle_beta 90.000000
_cell_angle_gamma 90.000000
_cell_volume 3172.380698
_symmetry_space_group_name_H-M "P M M M"
_symmetry_group_IT_number 47
_symmetry_cell_setting 'orthorhombic'
loop_
_space_group_symop_operation_xyz
x,y,z
-x,-y,z
x,-y,-z
-x,y,-z
-x,-y,-z
x,y,-z
-x,y,z
x,-y,z
loop_
_atom_site_type_symbol
_atom_site_label
_atom_site_fract_x
_atom_site_fract_y
_atom_site_fract_z
Si Si1 0.108259 0.241099 0.592544
Si Si2 0.388519 0.500000 0.404511
Si Si3 0.607548 0.706103 0.675527
Si Si4 0.397956 0.381461 0.852813
Si Si5 0.717579 0.114694 0.595682
Si Si6 0.198839 0.620702 0.912237
Si Si7 0.110676 0.384063 0.256438
O O1 0.122307 0.281281 0.500000
O O2 0.175363 0.146403 0.601307
O O3 0.132544 0.319591 0.663615
O O4 0.000000 0.216691 0.600281
O O5 0.500000 0.500000 0.391561
O O6 0.370192 0.500000 0.500000
O O7 0.354916 0.603878 0.365722
O O8 0.500000 0.717052 0.652059
O O9 0.610700 0.684319 0.771554
O O10 0.661516 0.803444 0.646487
O O11 0.500000 0.365248 0.888966
O O12 0.394401 0.500000 0.828807
O O13 0.308586 0.363059 0.906719
O O14 0.691698 0.123688 0.500000
O O15 0.702628 0.000000 0.621183
O O16 0.183235 0.500000 0.912136
O O17 0.154279 0.656671 0.827642
O O18 0.164176 0.659113 0.000000
O O19 0.140756 0.500000 0.267262
O O20 0.000000 0.383916 0.247287
#
# Coordination Sequence:
#
# PCOD9381913 Si02
#       7
#     8   4   8   8   8   8   8
#     4   9  18  33  51  69  90 119 157 198 238 280
#     4   9  16  26  42  64  88 116 154 195 230 272
#     4  10  18  30  47  66  91 123 157 195 238 281
#     4   9  16  27  43  63  88 119 153 190 233 276
#     4  10  21  34  46  64  91 123 161 201 240 284
#     4   9  17  27  40  61  90 127 164 191 221 270
#     4   9  17  29  46  68  95 125 153 188 234 281
#
# _framework density 16.391475
#
# number of rings (size 3 to 8) (size 9 to 14) (size 15 to 20)
#    0.000    2.692    0.769    1.385    0.000    2.462 
#    1.385    6.923    0.000    0.000    0.000    0.000 
#    0.000    9.846    0.000   27.077    0.000    1.538 
#
# Total GULP energy -289695.189829 kJ/mol
# GULP energy per Si atom -5571.061343 kJ/mol
# Density = 1.635417 g / cm^3
# Si number density = 16.391475 Si / 1000 Ang^3
#
#
#
# Elastic Constant Matrix: (Units=GPa)
#
#
# Indices 1 2 3 4 5 6 
#
# 1 44.8815 26.4583 31.3413 0.0000 0.0000 0.0000
# 2 26.4583 73.3371 42.4632 0.0000 0.0000 0.0000
# 3 31.3413 42.4632 81.0796 0.0000 0.0000 0.0000
# 4 0.0000 0.0000 0.0000 4.7127 0.0000 0.0000
# 5 0.0000 0.0000 0.0000 0.0000 -4.2720 0.0000
# 6 0.0000 0.0000 0.0000 0.0000 0.0000 15.9059
#
#
#
# Elastic Compliance Matrix: (Units=1/GPa)
#
#
# Indices 1 2 3 4 5 6 
#
# 1 0.032476 -0.006384 -0.009210 0.000000 0.000000 0.000000
# 2 -0.006384 0.020825 -0.008439 0.000000 0.000000 0.000000
# 3 -0.009210 -0.008439 0.020313 0.000000 0.000000 0.000000
# 4 0.000000 0.000000 0.000000 0.212192 0.000000 0.000000
# 5 0.000000 0.000000 0.000000 0.000000 -0.234081 0.000000
# 6 0.000000 0.000000 0.000000 0.000000 0.000000 0.062870
#
#
# Mechanical properties :
#
#
# Convention : Reuss Voigt Hill
#
# Bulk Modulus (GPa) = 39.14111 44.42484 41.78298
# Shear Modulus (GPa) = 29.20961 9.87169 19.54065
#
# Velocity S-wave (km/s) = 4.22595 2.45673 3.45646
# Velocity P-wave (km/s) = 6.90958 5.93368 6.44015
#
# Compressibility (1/GPa) = 0.02554859
#
# Stress axis : x y z
#
# Youngs Moduli (GPa) = 30.79219 48.01927 49.22855
#
# Poissons Ratio (x) = 0.30654 0.45341
# Poissons Ratio (y) = 0.19657 0.41543
# Poissons Ratio (z) = 0.28360 0.40523
#
# Static dielectric constant tensor:
#      x y z
#    x 1.598730 0.000000 0.000000 
#    y 0.000000 1.511230 0.000000 
#    z 0.000000 0.000000 1.570070 
# 
# From -- ./inp_files/22807.got.cif
#   From: 2010.05.17/outbox.cif.g08.bks.cpg/sg47_12_cif.got.tgz:22807.got - 2010.06.03 20:15:42.
