data_PCOD9381352
_publ_section_title
;
Structure prediction by ZEFSAII (Michael W. Deem and Ramdas Pophale) SiO2 
 PCOD9381352
Probable space group: P M M M
;
_chemical_formula_sum "Si O2"
_cell_formula_units_Z 56
_cell_length_a 14.845842
_cell_length_b 26.434485
_cell_length_c 8.502627
_cell_angle_alpha 90.000000
_cell_angle_beta 90.000000
_cell_angle_gamma 90.000000
_cell_volume 3336.789541
_symmetry_space_group_name_H-M "P M M M"
_symmetry_group_IT_number 47
_symmetry_cell_setting 'orthorhombic'
loop_
_space_group_symop_operation_xyz
x,y,z
-x,-y,z
x,-y,-z
-x,y,-z
-x,-y,-z
x,y,-z
-x,y,z
x,-y,z
loop_
_atom_site_type_symbol
_atom_site_label
_atom_site_fract_x
_atom_site_fract_y
_atom_site_fract_z
Si Si1 0.896352 0.193438 0.688184
Si Si2 0.787866 0.399693 0.690437
Si Si3 0.895919 0.000000 0.808145
Si Si4 0.601625 0.058937 0.689724
Si Si5 0.785336 0.099135 0.811938
Si Si6 0.896331 0.695665 0.811856
Si Si7 0.600023 0.441069 0.691505
Si Si8 0.896458 0.500000 0.308299
O O1 0.895479 0.193593 0.500000
O O2 0.831645 0.149687 0.749371
O O3 0.870442 0.249075 0.748500
O O4 0.000000 0.183904 0.741392
O O5 0.788968 0.398678 0.500000
O O6 0.833254 0.348965 0.751578
O O7 0.684926 0.408305 0.743493
O O8 0.844788 0.449166 0.740767
O O9 0.842995 0.050238 0.756350
O O10 0.000000 0.000000 0.756943
O O11 0.895918 0.000000 0.000000
O O12 0.604991 0.060679 0.500000
O O13 0.500000 0.073818 0.737865
O O14 0.682908 0.091387 0.757339
O O15 0.614711 0.000000 0.736662
O O16 0.788134 0.099595 0.000000
O O17 0.000000 0.686083 0.759792
O O18 0.894937 0.696783 0.000000
O O19 0.599835 0.440205 0.500000
O O20 0.500000 0.425401 0.744073
O O21 0.613755 0.500000 0.735413
O O22 0.896073 0.500000 0.500000
O O23 0.000000 0.500000 0.256015
#
# Coordination Sequence:
#
# PCOD9381352 Si02
#       8
#     8   8   4   8   8   8   8   4
#     4  10  21  37  56  77 100 131 173 216 255 301
#     4  10  17  28  48  73  99 130 166 205 248 296
#     4   9  18  30  44  69 106 142 169 195 240 303
#     4   9  18  33  52  74 104 141 178 217 258 301
#     4  11  20  32  52  78 108 140 171 210 257 308
#     4  10  21  36  52  71  97 131 169 209 254 302
#     4   8  13  23  42  70 101 129 162 204 245 288
#     4   9  16  24  38  66 100 129 159 197 242 291
#
# _framework density 16.782599000000001
#
# number of rings (size 3 to 8) (size 9 to 14) (size 15 to 20)
#    0.000    2.429    1.429    3.000    0.000    3.143 
#    0.000    1.071    0.000    4.286    0.000    3.000 
#    0.000    0.000    0.000    0.000    0.000    0.000 
#
# Total GULP energy -312365.636539 kJ/mol
# GULP energy per Si atom -5577.957795 kJ/mol
# Density = 1.674440 g / cm^3
# Si number density = 16.782599 Si / 1000 Ang^3
#
#
#
# Elastic Constant Matrix: (Units=GPa)
#
#
# Indices 1 2 3 4 5 6 
#
# 1 162.3627 109.3010 30.1619 0.0000 0.0000 0.0000
# 2 109.3010 144.6164 30.0806 0.0000 0.0000 0.0000
# 3 30.1619 30.0806 21.5488 0.0000 0.0000 0.0000
# 4 0.0000 0.0000 0.0000 9.7494 0.0000 0.0000
# 5 0.0000 0.0000 0.0000 0.0000 17.3774 0.0000
# 6 0.0000 0.0000 0.0000 0.0000 0.0000 22.7119
#
#
#
# Elastic Compliance Matrix: (Units=1/GPa)
#
#
# Indices 1 2 3 4 5 6 
#
# 1 0.013133 -0.008599 -0.006378 0.000000 0.000000 0.000000
# 2 -0.008599 0.015375 -0.009426 0.000000 0.000000 0.000000
# 3 -0.006378 -0.009426 0.068492 0.000000 0.000000 0.000000
# 4 0.000000 0.000000 0.000000 0.102570 0.000000 0.000000
# 5 0.000000 0.000000 0.000000 0.000000 0.057546 0.000000
# 6 0.000000 0.000000 0.000000 0.000000 0.000000 0.044030
#
#
# Mechanical properties :
#
#
# Convention : Reuss Voigt Hill
#
# Bulk Modulus (GPa) = 20.74998 74.17944 47.46471
# Shear Modulus (GPa) = 13.66064 20.56670 17.11367
#
# Velocity S-wave (km/s) = 2.85612 3.50448 3.19678
# Velocity P-wave (km/s) = 4.82363 7.78918 6.47838
#
# Compressibility (1/GPa) = 0.04819281
#
# Stress axis : x y z
#
# Youngs Moduli (GPa) = 76.14585 65.04260 14.60034
#
# Poissons Ratio (x) = 0.55930 0.09312
# Poissons Ratio (y) = 0.65478 0.13762
# Poissons Ratio (z) = 0.48568 0.61307
#
# Static dielectric constant tensor:
#      x y z
#    x 1.574440 0.000000 0.000000 
#    y 0.000000 1.531510 0.000000 
#    z 0.000000 0.000000 1.572750 
# 
# From -- ./inp_files/7427.got.cif
#   From: 2010.05.17/outbox.cif.g08.bks.cpg/sg47_4_cif.got.tgz:7427.got - 2010.06.03 20:15:42.
