data_PCOD9381155
_publ_section_title
;
Structure prediction by ZEFSAII (Michael W. Deem and Ramdas Pophale) SiO2 
 PCOD9381155
Probable space group: I M A 2
;
_chemical_formula_sum "Si O2"
_cell_formula_units_Z 32
_cell_length_a 18.000000
_cell_length_b 15.000000
_cell_length_c 12.000000
_cell_angle_alpha 90.000000
_cell_angle_beta 90.000000
_cell_angle_gamma 90.000000
_cell_volume 3240.000000
_symmetry_space_group_name_H-M "I M A 2"
_symmetry_group_IT_number 46
_symmetry_cell_setting 'orthorhombic'
loop_
_space_group_symop_operation_xyz
x,y,z
-x,-y,z
1/2-x,y,z
1/2+x,-y,z
1/2+x,1/2+y,1/2+z
1/2-x,1/2-y,1/2+z
-x,1/2+y,1/2+z
x,1/2-y,1/2+z
loop_
_atom_site_type_symbol
_atom_site_label
_atom_site_fract_x
_atom_site_fract_y
_atom_site_fract_z
Si Si1 0.167248 0.859406 0.872690
Si Si2 0.977794 0.897020 0.621100
Si Si3 0.584802 0.533792 0.327169
Si Si4 0.335387 0.087321 0.215328
Si Si5 0.837063 0.663320 0.489731
Si Si6 0.943865 0.253688 0.751209
Si Si7 0.080669 0.175677 0.392074
Si Si8 0.166719 0.613592 0.636032
O O1 0.250000 0.839473 0.834629
O O2 0.112032 0.780763 0.844714
O O3 0.137285 0.949110 0.816066
O O4 0.166493 0.875645 0.003890
O O5 0.915482 0.905261 0.717383
O O6 0.953749 0.857043 0.505863
O O7 0.038702 0.830140 0.671585
O O8 0.000000 0.000000 0.605197
O O9 0.500000 0.500000 0.343303
O O10 0.612422 0.589939 0.430798
O O11 0.250000 0.102461 0.244967
O O12 0.384532 0.095824 0.323160
O O13 0.342066 0.990117 0.163136
O O14 0.355798 0.159843 0.120732
O O15 0.750000 0.640446 0.479813
O O16 0.856591 0.753891 0.427491
O O17 0.900708 0.330886 0.686864
O O18 0.018777 0.281942 0.812390
O O19 0.250000 0.641028 0.675981
#
# Coordination Sequence:
#
# PCOD9381155 Si02
#       8
#     8   8   8   8   8   8   8   8
#     4  11  21  40  66  93 124 164 215 263 320 384
#     4  11  24  43  62  89 136 163 206 265 315 377
#     4  11  20  40  64  92 126 161 205 267 315 375
#     4  10  23  44  65  91 128 165 212 267 321 385
#     4  11  22  41  67  95 124 161 211 270 325 378
#     4  12  23  41  65  95 124 169 216 267 322 373
#     4  12  25  40  64  95 127 173 213 258 320 391
#     4  10  23  42  63  92 129 165 215 272 316 376
#
# _framework density 9.8765429999999999
#
# number of rings (size 3 to 8) (size 9 to 14) (size 15 to 20)
#    0.000    1.000    5.000    2.625    1.750    1.000 
#    0.000    1.875    0.000    0.000    0.000    0.000 
#    0.000    0.000    0.000    0.000    0.000    0.000 
#
# Total GULP energy -178506.130410 kJ/mol
# GULP energy per Si atom -5578.316575 kJ/mol
# Density = 0.985406 g / cm^3
# Si number density = 9.876543 Si / 1000 Ang^3
#
#
#
# Elastic Constant Matrix: (Units=GPa)
#
#
# Indices 1 2 3 4 5 6 
#
# 1 40.9777 38.8238 39.6753 0.0000 0.0000 0.0000
# 2 38.8238 42.2835 33.3046 0.0000 0.0000 0.0000
# 3 39.6753 33.3046 72.9459 0.0000 0.0000 0.0000
# 4 0.0000 0.0000 0.0000 27.4015 0.0000 0.0000
# 5 0.0000 0.0000 0.0000 0.0000 25.8605 0.0000
# 6 0.0000 0.0000 0.0000 0.0000 0.0000 -11.5138
#
#
#
# Elastic Compliance Matrix: (Units=1/GPa)
#
#
# Indices 1 2 3 4 5 6 
#
# 1 0.280945 -0.214871 -0.054703 0.000000 0.000000 0.000000
# 2 -0.214871 0.201267 0.024977 0.000000 0.000000 0.000000
# 3 -0.054703 0.024977 0.032058 0.000000 0.000000 0.000000
# 4 0.000000 0.000000 0.000000 0.036494 0.000000 0.000000
# 5 0.000000 0.000000 0.000000 0.000000 0.038669 0.000000
# 6 0.000000 0.000000 0.000000 0.000000 0.000000 -0.086852
#
#
# Mechanical properties :
#
#
# Convention : Reuss Voigt Hill
#
# Bulk Modulus (GPa) = 39.87972 42.20161 41.04067
# Shear Modulus (GPa) = 4.99932 11.30986 8.15459
#
# Velocity S-wave (km/s) = 1.59261 2.39542 2.03402
# Velocity P-wave (km/s) = 4.85951 5.39089 5.13208
#
# Compressibility (1/GPa) = 0.02507540
#
# Stress axis : x y z
#
# Youngs Moduli (GPa) = 3.55941 4.96851 31.19304
#
# Poissons Ratio (x) = 1.06759 1.70636
# Poissons Ratio (y) = 0.76482 -0.77910
# Poissons Ratio (z) = 0.19471 -0.12410
#
# Static dielectric constant tensor:
#      x y z
#    x 1.688010 0.000000 0.000000 
#    y 0.000000 1.687830 0.000000 
#    z 0.000000 0.000000 1.684540 
# 
# From -- ./inp_files/11957.got.cif
#   From: 2010.05.17/outbox.ucp.g08.bks.cvg/sg46_6_cif.got.tgz:11957.got - 2010.06.11 16:34:52.
