data_PCOD9381396
_publ_section_title
;
Structure prediction by ZEFSAII (Michael W. Deem and Ramdas Pophale) SiO2 
 PCOD9381396
Probable space group: P M M M
;
_chemical_formula_sum "Si O2"
_cell_formula_units_Z 36
_cell_length_a 12.135632
_cell_length_b 19.789381
_cell_length_c 8.650622
_cell_angle_alpha 90.000000
_cell_angle_beta 90.000000
_cell_angle_gamma 90.000000
_cell_volume 2077.504359
_symmetry_space_group_name_H-M "P M M M"
_symmetry_group_IT_number 47
_symmetry_cell_setting 'orthorhombic'
loop_
_space_group_symop_operation_xyz
x,y,z
-x,-y,z
x,-y,-z
-x,y,-z
-x,-y,-z
x,y,-z
-x,y,z
x,-y,z
loop_
_atom_site_type_symbol
_atom_site_label
_atom_site_fract_x
_atom_site_fract_y
_atom_site_fract_z
Si Si1 0.726103 0.576886 0.811582
Si Si2 0.870975 0.919586 0.000000
Si Si3 0.275575 0.177012 0.824453
Si Si4 0.125502 0.299877 0.810872
Si Si5 0.500000 0.198927 0.681664
Si Si6 0.500000 0.350583 0.186644
O O1 0.738656 0.500000 0.757670
O O2 0.822370 0.628461 0.765762
O O3 0.609694 0.609556 0.764119
O O4 0.725763 0.575345 0.000000
O O5 0.807408 0.885143 0.855629
O O6 0.000000 0.900375 0.000000
O O7 0.861937 0.000000 0.000000
O O8 0.205884 0.239598 0.758501
O O9 0.387456 0.163342 0.735439
O O10 0.310246 0.197408 0.000000
O O11 0.000000 0.291470 0.759175
O O12 0.124607 0.296509 0.000000
O O13 0.500000 0.205209 0.500000
O O14 0.500000 0.274318 0.753160
O O15 0.500000 0.348536 0.000000
#
# Coordination Sequence:
#
# PCOD9381396 Si02
#       6
#     8   4   8   8   4   4
#     4   9  16  24  39  66  97 126 164 214 268 324
#     4   9  18  33  61  95 116 132 166 214 254 298
#     4   9  18  32  54  79 107 137 171 211 258 308
#     4   9  15  24  42  69  98 129 164 207 260 312
#     4  12  22  33  51  78 108 140 182 223 259 305
#     4  10  17  30  48  68  95 129 173 223 273 317
#
# _framework density 17.328482999999999
#
# number of rings (size 3 to 8) (size 9 to 14) (size 15 to 20)
#    0.667    1.889    2.222    2.000    0.000    1.778 
#    0.000    3.333    0.000    5.333    0.000    1.556 
#    0.000    1.778    0.000    0.000    0.000    0.000 
#
# Total GULP energy -200452.017415 kJ/mol
# GULP energy per Si atom -5568.111595 kJ/mol
# Density = 1.728904 g / cm^3
# Si number density = 17.328483 Si / 1000 Ang^3
#
#
#
# Elastic Constant Matrix: (Units=GPa)
#
#
# Indices 1 2 3 4 5 6 
#
# 1 149.8106 52.7694 22.6031 0.0000 0.0000 0.0000
# 2 52.7694 87.5990 9.7140 0.0000 0.0000 0.0000
# 3 22.6031 9.7140 13.3278 0.0000 0.0000 0.0000
# 4 0.0000 0.0000 0.0000 1.1523 0.0000 0.0000
# 5 0.0000 0.0000 0.0000 0.0000 -2.8876 0.0000
# 6 0.0000 0.0000 0.0000 0.0000 0.0000 28.3395
#
#
#
# Elastic Compliance Matrix: (Units=1/GPa)
#
#
# Indices 1 2 3 4 5 6 
#
# 1 0.010513 -0.004739 -0.014376 0.000000 0.000000 0.000000
# 2 -0.004739 0.014556 -0.002572 0.000000 0.000000 0.000000
# 3 -0.014376 -0.002572 0.101286 0.000000 0.000000 0.000000
# 4 0.000000 0.000000 0.000000 0.867838 0.000000 0.000000
# 5 0.000000 0.000000 0.000000 0.000000 -0.346307 0.000000
# 6 0.000000 0.000000 0.000000 0.000000 0.000000 0.035286
#
#
# Mechanical properties :
#
#
# Convention : Reuss Voigt Hill
#
# Bulk Modulus (GPa) = 12.05090 46.76784 29.40937
# Shear Modulus (GPa) = 6.62949 16.36424 11.49686
#
# Velocity S-wave (km/s) = 1.95808 3.07637 2.57858
# Velocity P-wave (km/s) = 3.47586 6.29812 5.08664
#
# Compressibility (1/GPa) = 0.08298137
#
# Stress axis : x y z
#
# Youngs Moduli (GPa) = 95.11682 68.70193 9.87305
#
# Poissons Ratio (x) = 0.32558 0.14193
# Poissons Ratio (y) = 0.45076 0.02539
# Poissons Ratio (z) = 1.36739 0.17669
#
# Static dielectric constant tensor:
#      x y z
#    x 1.600380 0.000000 0.000000 
#    y 0.000000 1.576750 0.000000 
#    z 0.000000 0.000000 1.587940 
# 
# From -- ./inp_files/3950.got.cif
#   From: 2010.05.17/outbox.cif.g08.bks.cpg/sg47_2_cif.got.tgz:3950.got - 2010.06.03 20:15:42.
