data_PCOD9381640
_publ_section_title
;
Structure prediction by ZEFSAII (Michael W. Deem and Ramdas Pophale) SiO2 
 PCOD9381640
Probable space group: P M M M
;
_chemical_formula_sum "Si O2"
_cell_formula_units_Z 56
_cell_length_a 7.310426
_cell_length_b 20.196831
_cell_length_c 16.652125
_cell_angle_alpha 90.000000
_cell_angle_beta 90.000000
_cell_angle_gamma 90.000000
_cell_volume 2458.643601
_symmetry_space_group_name_H-M "P M M M"
_symmetry_group_IT_number 47
_symmetry_cell_setting 'orthorhombic'
loop_
_space_group_symop_operation_xyz
x,y,z
-x,-y,z
x,-y,-z
-x,y,-z
-x,-y,-z
x,y,-z
-x,y,z
x,-y,z
loop_
_atom_site_type_symbol
_atom_site_label
_atom_site_fract_x
_atom_site_fract_y
_atom_site_fract_z
Si Si1 0.276394 0.788137 0.341801
Si Si2 0.285110 0.784837 0.837135
Si Si3 0.278051 0.071463 0.405933
Si Si4 0.780550 0.927895 0.907385
Si Si5 0.723095 0.652704 0.911961
Si Si6 0.722736 0.348958 0.411676
Si Si7 0.277121 0.576583 0.249479
O O1 0.500000 0.789673 0.342404
O O2 0.212394 0.773260 0.251903
O O3 0.213966 0.861278 0.365633
O O4 0.224443 0.727820 0.399024
O O5 0.500000 0.771857 0.831257
O O6 0.267020 0.861096 0.861624
O O7 0.218459 0.729255 0.898591
O O8 0.230683 0.073735 0.500000
O O9 0.500000 0.071712 0.401574
O O10 0.217086 0.000000 0.372841
O O11 0.000000 0.929987 0.908615
O O12 0.717387 0.000000 0.875858
O O13 0.718441 0.922244 0.000000
O O14 0.500000 0.649440 0.913196
O O15 0.781332 0.612950 0.832546
O O16 0.783650 0.629171 0.000000
O O17 0.781649 0.372592 0.500000
O O18 0.500000 0.351424 0.411290
O O19 0.782420 0.388683 0.332469
O O20 0.500000 0.579584 0.249735
O O21 0.223796 0.500000 0.248471
#
# Coordination Sequence:
#
# PCOD9381640 Si02
#       7
#     8   8   8   8   8   8   8
#     4   9  15  23  35  53  80 110 140 178 225 271
#     4  10  18  28  45  68  92 117 151 195 234 270
#     4   8  13  20  29  43  67 101 137 168 203 255
#     4   9  19  35  50  64  88 122 156 191 232 277
#     4   9  16  26  39  56  81 112 145 184 232 279
#     4   9  15  23  35  50  74 113 154 186 223 274
#     4   9  16  25  35  50  76 111 153 193 226 271
#
# _framework density 22.776786999999999
#
# number of rings (size 3 to 8) (size 9 to 14) (size 15 to 20)
#    0.000    3.000    1.429    1.714    0.000    4.000 
#    0.000    5.000    0.000    0.000    0.000    0.000 
#    0.000    2.857    0.000   10.857    0.000   10.571 
#
# Total GULP energy -312524.579139 kJ/mol
# GULP energy per Si atom -5580.796056 kJ/mol
# Density = 2.272495 g / cm^3
# Si number density = 22.776787 Si / 1000 Ang^3
#
#
#
# Elastic Constant Matrix: (Units=GPa)
#
#
# Indices 1 2 3 4 5 6 
#
# 1 88.8895 -1.9428 4.2673 0.0000 0.0000 0.0000
# 2 -1.9428 151.6105 90.2014 0.0000 0.0000 0.0000
# 3 4.2673 90.2014 177.7929 0.0000 0.0000 0.0000
# 4 0.0000 0.0000 0.0000 22.2311 0.0000 0.0000
# 5 0.0000 0.0000 0.0000 0.0000 -22.5437 0.0000
# 6 0.0000 0.0000 0.0000 0.0000 0.0000 70.7346
#
#
#
# Elastic Compliance Matrix: (Units=1/GPa)
#
#
# Indices 1 2 3 4 5 6 
#
# 1 0.011283 0.000438 -0.000493 0.000000 0.000000 0.000000
# 2 0.000438 0.009465 -0.004812 0.000000 0.000000 0.000000
# 3 -0.000493 -0.004812 0.008078 0.000000 0.000000 0.000000
# 4 0.000000 0.000000 0.000000 0.044982 0.000000 0.000000
# 5 0.000000 0.000000 0.000000 0.000000 -0.044358 0.000000
# 6 0.000000 0.000000 0.000000 0.000000 0.000000 0.014137
#
#
# Mechanical properties :
#
#
# Convention : Reuss Voigt Hill
#
# Bulk Modulus (GPa) = 52.38120 67.03832 59.70976
# Shear Modulus (GPa) = 83.77359 35.80221 59.78790
#
# Velocity S-wave (km/s) = 6.07125 3.96899 5.12898
# Velocity P-wave (km/s) = 8.49673 7.10637 7.83246
#
# Compressibility (1/GPa) = 0.01909082
#
# Stress axis : x y z
#
# Youngs Moduli (GPa) = 88.62767 105.65765 123.79615
#
# Poissons Ratio (x) = -0.04627 0.06103
# Poissons Ratio (y) = -0.03881 0.59574
# Poissons Ratio (z) = 0.04369 0.50845
#
# Static dielectric constant tensor:
#      x y z
#    x 1.884630 0.000000 0.000000 
#    y 0.000000 1.830750 0.000000 
#    z 0.000000 0.000000 1.819370 
# 
# From -- ./inp_files/21572.got.cif
#   From: 2010.05.17/outbox.cif.g08.bks.cpg/sg47_11_cif.got.tgz:21572.got - 2010.06.03 20:15:42.
