data_PCOD9381930
_publ_section_title
;
Structure prediction by ZEFSAII (Michael W. Deem and Ramdas Pophale) SiO2 
 PCOD9381930
Probable space group: P M M M
;
_chemical_formula_sum "Si O2"
_cell_formula_units_Z 64
_cell_length_a 7.651273
_cell_length_b 20.670070
_cell_length_c 20.661501
_cell_angle_alpha 90.000000
_cell_angle_beta 90.000000
_cell_angle_gamma 90.000000
_cell_volume 3267.664907
_symmetry_space_group_name_H-M "P M M M"
_symmetry_group_IT_number 47
_symmetry_cell_setting 'orthorhombic'
loop_
_space_group_symop_operation_xyz
x,y,z
-x,-y,z
x,-y,-z
-x,y,-z
-x,-y,-z
x,y,-z
-x,y,z
x,-y,z
loop_
_atom_site_type_symbol
_atom_site_label
_atom_site_fract_x
_atom_site_fract_y
_atom_site_fract_z
Si Si1 0.201646 0.671223 0.680386
Si Si2 0.711996 0.893108 0.930251
Si Si3 0.295545 0.251412 0.098941
Si Si4 0.786503 0.788543 0.756833
Si Si5 0.213678 0.427268 0.574773
Si Si6 0.200529 0.394034 0.929655
Si Si7 0.296812 0.428580 0.213644
Si Si8 0.794494 0.069603 0.213546
O O1 0.275595 0.740992 0.700128
O O2 0.279487 0.627557 0.623413
O O3 0.205575 0.626820 0.744879
O O4 0.000000 0.682825 0.662580
O O5 0.500000 0.895195 0.926994
O O6 0.765563 0.817564 0.927970
O O7 0.778291 0.924370 0.864378
O O8 0.765091 0.920458 0.000000
O O9 0.500000 0.258471 0.083076
O O10 0.273740 0.243314 0.175867
O O11 0.204886 0.315961 0.074868
O O12 0.724234 0.862964 0.757674
O O13 0.000000 0.788773 0.757814
O O14 0.262306 0.416435 0.500000
O O15 0.269469 0.500000 0.593661
O O16 0.000000 0.427399 0.577383
O O17 0.286077 0.418006 0.863487
O O18 0.000000 0.415831 0.927669
O O19 0.275212 0.412864 0.000000
O O20 0.500000 0.426066 0.231834
O O21 0.226155 0.500000 0.228911
O O22 0.000000 0.068651 0.229219
O O23 0.718270 0.000000 0.233155
#
# Coordination Sequence:
#
# PCOD9381930 Si02
#       8
#     8   8   8   8   8   8   8   8
#     4  10  18  30  52  76  97 123 158 199 235 272
#     4   9  18  30  43  61  84 110 142 181 228 285
#     4  10  18  30  48  67  88 114 145 185 236 289
#     4   9  17  29  46  68  91 115 151 194 233 274
#     4   8  14  25  43  71 105 135 160 187 226 277
#     4  11  23  36  50  67  87 114 151 197 246 292
#     4  11  24  38  51  69  93 121 154 194 240 290
#     4   9  18  31  44  59  84 116 147 185 234 284
#
# _framework density 19.585850000000001
#
# number of rings (size 3 to 8) (size 9 to 14) (size 15 to 20)
#    0.000    2.375    1.250    2.250    0.000    4.500 
#    0.000    2.500    0.000    0.375    0.000    1.750 
#    0.000    0.500    0.000    7.000    0.000    0.000 
#
# Total GULP energy -357139.145060 kJ/mol
# GULP energy per Si atom -5580.299142 kJ/mol
# Density = 1.954127 g / cm^3
# Si number density = 19.585850 Si / 1000 Ang^3
#
#
#
# Elastic Constant Matrix: (Units=GPa)
#
#
# Indices 1 2 3 4 5 6 
#
# 1 41.5355 0.8133 -3.5810 0.0000 0.0000 0.0000
# 2 0.8133 142.7508 54.8223 0.0000 0.0000 0.0000
# 3 -3.5810 54.8223 84.6036 0.0000 0.0000 0.0000
# 4 0.0000 0.0000 0.0000 54.3284 0.0000 0.0000
# 5 0.0000 0.0000 0.0000 0.0000 29.8383 0.0000
# 6 0.0000 0.0000 0.0000 0.0000 0.0000 14.6105
#
#
#
# Elastic Compliance Matrix: (Units=1/GPa)
#
#
# Indices 1 2 3 4 5 6 
#
# 1 0.024218 -0.000708 0.001484 0.000000 0.000000 0.000000
# 2 -0.000708 0.009347 -0.006087 0.000000 0.000000 0.000000
# 3 0.001484 -0.006087 0.015827 0.000000 0.000000 0.000000
# 4 0.000000 0.000000 0.000000 0.018407 0.000000 0.000000
# 5 0.000000 0.000000 0.000000 0.000000 0.033514 0.000000
# 6 0.000000 0.000000 0.000000 0.000000 0.000000 0.068444
#
#
# Mechanical properties :
#
#
# Convention : Reuss Voigt Hill
#
# Bulk Modulus (GPa) = 25.79333 41.44433 33.61883
# Shear Modulus (GPa) = 25.86652 34.21112 30.03882
#
# Velocity S-wave (km/s) = 3.63805 4.18392 3.92050
# Velocity P-wave (km/s) = 5.55384 6.67432 6.13969
#
# Compressibility (1/GPa) = 0.03876971
#
# Stress axis : x y z
#
# Youngs Moduli (GPa) = 41.29233 106.98914 63.18449
#
# Poissons Ratio (x) = 0.07572 -0.09375
# Poissons Ratio (y) = 0.02923 0.38458
# Poissons Ratio (z) = -0.06127 0.65120
#
# Static dielectric constant tensor:
#      x y z
#    x 1.717390 0.000000 0.000000 
#    y 0.000000 1.735570 0.000000 
#    z 0.000000 0.000000 1.676040 
# 
# From -- ./inp_files/30160.got.cif
#   From: 2010.05.17/outbox.cif.g08.bks.cpg/sg47_16_cif.got.tgz:30160.got - 2010.06.03 20:15:42.
