data_PCOD9381085
_publ_section_title
;
Structure prediction by ZEFSAII (Michael W. Deem and Ramdas Pophale) SiO2 
 PCOD9381085
Probable space group: I M A 2
;
_chemical_formula_sum "Si O2"
_cell_formula_units_Z 32
_cell_length_a 9.000000
_cell_length_b 18.000000
_cell_length_c 24.000000
_cell_angle_alpha 90.000000
_cell_angle_beta 90.000000
_cell_angle_gamma 90.000000
_cell_volume 3888.000000
_symmetry_space_group_name_H-M "I M A 2"
_symmetry_group_IT_number 46
_symmetry_cell_setting 'orthorhombic'
loop_
_space_group_symop_operation_xyz
x,y,z
-x,-y,z
1/2-x,y,z
1/2+x,-y,z
1/2+x,1/2+y,1/2+z
1/2-x,1/2-y,1/2+z
-x,1/2+y,1/2+z
x,1/2-y,1/2+z
loop_
_atom_site_type_symbol
_atom_site_label
_atom_site_fract_x
_atom_site_fract_y
_atom_site_fract_z
Si Si1 0.416864 0.573508 0.250000
Si Si2 0.918731 0.200875 0.992258
Si Si3 0.427850 0.579488 0.410893
Si Si4 0.079089 0.423472 0.953495
Si Si5 0.926342 0.815264 0.817699
Si Si6 0.578924 0.307065 0.882187
Si Si7 0.416465 0.312555 0.059485
Si Si8 0.411060 0.570983 0.117898
O O1 0.500000 0.500000 0.272074
O O2 0.250000 0.578787 0.273154
O O3 0.509793 0.647119 0.262409
O O4 0.403217 0.563491 0.184095
O O5 0.750000 0.204518 0.012846
O O6 0.955506 0.120086 0.969617
O O7 0.924494 0.252780 0.936694
O O8 0.027993 0.234576 0.037010
O O9 0.500000 0.500000 0.409944
O O10 0.250000 0.578921 0.402855
O O11 0.506629 0.628832 0.363925
O O12 0.250000 0.436090 0.939568
O O13 0.000000 0.500000 0.966127
O O14 0.997268 0.381601 0.903227
O O15 0.074434 0.368831 0.006749
O O16 0.750000 0.815239 0.819049
O O17 0.990964 0.735521 0.834013
O O18 0.750000 0.317340 0.867054
O O19 0.250000 0.309937 0.079758
O O20 0.518130 0.350721 0.104628
O O21 0.500000 0.500000 0.097020
O O22 0.250000 0.567813 0.091507
#
# Coordination Sequence:
#
# PCOD9381085 Si02
#       8
#     8   8   8   8   8   8   8   8
#     4  10  20  33  46  62  84 112 145 181 217 252
#     4   8  16  29  43  59  82 111 142 174 210 249
#     4  10  19  30  44  63  87 115 145 178 212 252
#     4  10  19  29  42  63  88 116 147 178 213 254
#     4  11  20  30  45  63  85 114 145 178 214 256
#     4   9  17  30  45  61  83 111 142 178 214 252
#     4  10  19  29  44  63  85 113 145 178 213 253
#     4  10  20  32  46  62  84 112 144 181 217 252
#
# _framework density 8.2304530000000007
#
# number of rings (size 3 to 8) (size 9 to 14) (size 15 to 20)
#    0.000    2.250    0.000    4.875    0.000    7.500 
#    0.000    0.000    0.000    0.000    0.000    0.000 
#    0.000    1.000    0.000    5.250    0.000    5.000 
#
# Total GULP energy -178228.125415 kJ/mol
# GULP energy per Si atom -5569.628919 kJ/mol
# Density = 0.821172 g / cm^3
# Si number density = 8.230453 Si / 1000 Ang^3
#
#
#
# Elastic Constant Matrix: (Units=GPa)
#
#
# Indices 1 2 3 4 5 6 
#
# 1 103.2316 28.0486 24.9430 0.0000 0.0000 0.0000
# 2 28.0486 40.0012 19.0352 0.0000 0.0000 0.0000
# 3 24.9430 19.0352 20.4437 0.0000 0.0000 0.0000
# 4 0.0000 0.0000 0.0000 -293.2096 0.0000 0.0000
# 5 0.0000 0.0000 0.0000 0.0000 -22.3778 0.0000
# 6 0.0000 0.0000 0.0000 0.0000 0.0000 23.1611
#
#
#
# Elastic Compliance Matrix: (Units=1/GPa)
#
#
# Indices 1 2 3 4 5 6 
#
# 1 0.013936 -0.003018 -0.014194 0.000000 0.000000 0.000000
# 2 -0.003018 0.045542 -0.038722 0.000000 0.000000 0.000000
# 3 -0.014194 -0.038722 0.102287 0.000000 0.000000 0.000000
# 4 0.000000 0.000000 0.000000 -0.003411 0.000000 0.000000
# 5 0.000000 0.000000 0.000000 0.000000 -0.044687 0.000000
# 6 0.000000 0.000000 0.000000 0.000000 0.000000 0.043176
#
#
# Mechanical properties :
#
#
# Convention : Reuss Voigt Hill
#
# Bulk Modulus (GPa) = 20.04110 34.19223 27.11667
# Shear Modulus (GPa) = 17.52276 -52.37529 -17.42626
#
# Velocity S-wave (km/s) = 3.26622 -5.64686 -3.25721
# Velocity P-wave (km/s) = 5.14059 4.65824 1.53728
#
# Compressibility (1/GPa) = 0.04989746
#
# Stress axis : x y z
#
# Youngs Moduli (GPa) = 71.75458 21.95777 9.77646
#
# Poissons Ratio (x) = 0.06627 0.13876
# Poissons Ratio (y) = 0.21655 0.37857
# Poissons Ratio (z) = 1.01845 0.85026
#
# Static dielectric constant tensor:
#      x y z
#    x 1.573020 0.000000 0.000000 
#    y 0.000000 1.584160 0.000000 
#    z 0.000000 0.000000 1.584930 
# 
# From -- ./inp_files/23274.got.cif
#   From: 2010.05.17/outbox.ucp.g08.bks.cvg/sg46_12_cif.got.tgz:23274.got - 2010.06.11 16:34:52.
