data_PCOD9381885
_publ_section_title
;
Structure prediction by ZEFSAII (Michael W. Deem and Ramdas Pophale) SiO2 
 PCOD9381885
Probable space group: P M M M
;
_chemical_formula_sum "Si O2"
_cell_formula_units_Z 44
_cell_length_a 12.069001
_cell_length_b 16.670296
_cell_length_c 15.902500
_cell_angle_alpha 90.000000
_cell_angle_beta 90.000000
_cell_angle_gamma 90.000000
_cell_volume 3199.484708
_symmetry_space_group_name_H-M "P M M M"
_symmetry_group_IT_number 47
_symmetry_cell_setting 'orthorhombic'
loop_
_space_group_symop_operation_xyz
x,y,z
-x,-y,z
x,-y,-z
-x,y,-z
-x,-y,-z
x,y,-z
-x,y,z
x,-y,z
loop_
_atom_site_type_symbol
_atom_site_label
_atom_site_fract_x
_atom_site_fract_y
_atom_site_fract_z
Si Si1 0.500000 0.402880 0.601420
Si Si2 0.500000 0.909193 0.398399
Si Si3 0.869988 0.597418 0.185317
Si Si4 0.873161 0.000000 0.602072
Si Si5 0.262992 0.158962 0.602034
Si Si6 0.124807 0.404592 0.500000
Si Si7 0.739104 0.661919 0.656671
Si Si8 0.134211 0.591833 0.000000
O O1 0.500000 0.500000 0.613620
O O2 0.500000 0.388372 0.500000
O O3 0.388689 0.363787 0.640391
O O4 0.500000 0.914236 0.500000
O O5 0.388504 0.864329 0.375974
O O6 0.500000 0.000000 0.366078
O O7 0.865264 0.500000 0.185727
O O8 0.789315 0.631139 0.256050
O O9 0.000000 0.618205 0.201132
O O10 0.836952 0.626451 0.091286
O O11 0.811639 0.082359 0.626392
O O12 0.871043 0.000000 0.500000
O O13 0.000000 0.000000 0.630039
O O14 0.254332 0.169263 0.500000
O O15 0.240583 0.243320 0.645410
O O16 0.118307 0.500000 0.500000
O O17 0.190980 0.378429 0.581944
O O18 0.000000 0.371035 0.500000
O O19 0.175263 0.500000 0.000000
O O20 0.000000 0.588330 0.000000
#
# Coordination Sequence:
#
# PCOD9381885 Si02
#       8
#     4   4   8   4   8   4   8   4
#     4  11  21  33  45  57  85 130 168 191 217 258
#     4   9  15  27  49  61  73  99 150 197 228 253
#     4   9  17  30  48  69  91 117 151 192 235 274
#     4   9  18  29  41  55  79 113 142 173 224 283
#     4  10  18  30  42  61  81 111 150 189 226 263
#     4  11  22  33  43  58  85 123 160 191 223 259
#     4  12  21  31  45  65  90 120 158 193 225 265
#     4   7  12  26  48  69  87 110 145 189 236 281
#
# _framework density 13.752215
#
# number of rings (size 3 to 8) (size 9 to 14) (size 15 to 20)
#    0.000    2.091    2.727    3.818    0.000    3.636 
#    0.000    0.000    0.000    0.545    0.000    2.545 
#    0.000    0.727    0.000    4.909    0.000    0.000 
#
# Total GULP energy -245083.504649 kJ/mol
# GULP energy per Si atom -5570.079651 kJ/mol
# Density = 1.372091 g / cm^3
# Si number density = 13.752215 Si / 1000 Ang^3
#
#
#
# Elastic Constant Matrix: (Units=GPa)
#
#
# Indices 1 2 3 4 5 6 
#
# 1 106.7254 39.1759 48.5310 0.0000 0.0000 0.0000
# 2 39.1759 82.1522 30.7487 0.0000 0.0000 0.0000
# 3 48.5310 30.7487 98.2705 0.0000 0.0000 0.0000
# 4 0.0000 0.0000 0.0000 24.1672 0.0000 0.0000
# 5 0.0000 0.0000 0.0000 0.0000 2.0934 0.0000
# 6 0.0000 0.0000 0.0000 0.0000 0.0000 -37.8968
#
#
#
# Elastic Compliance Matrix: (Units=1/GPa)
#
#
# Indices 1 2 3 4 5 6 
#
# 1 0.013365 -0.004421 -0.005217 0.000000 0.000000 0.000000
# 2 -0.004421 0.015249 -0.002588 0.000000 0.000000 0.000000
# 3 -0.005217 -0.002588 0.013562 0.000000 0.000000 0.000000
# 4 0.000000 0.000000 0.000000 0.041378 0.000000 0.000000
# 5 0.000000 0.000000 0.000000 0.000000 0.477697 0.000000
# 6 0.000000 0.000000 0.000000 0.000000 0.000000 -0.026387
#
#
# Mechanical properties :
#
#
# Convention : Reuss Voigt Hill
#
# Bulk Modulus (GPa) = 56.41909 58.22882 57.32396
# Shear Modulus (GPa) = 8.84604 8.91892 8.88248
#
# Velocity S-wave (km/s) = 2.53898 2.54942 2.54420
# Velocity P-wave (km/s) = 7.05051 7.14838 7.09962
#
# Compressibility (1/GPa) = 0.01772450
#
# Stress axis : x y z
#
# Youngs Moduli (GPa) = 74.82309 65.57637 73.73359
#
# Poissons Ratio (x) = 0.28989 0.38467
# Poissons Ratio (y) = 0.33076 0.19085
# Poissons Ratio (z) = 0.39036 0.16974
#
# Static dielectric constant tensor:
#      x y z
#    x 1.455530 0.000000 0.000000 
#    y 0.000000 1.487220 0.000000 
#    z 0.000000 0.000000 1.446510 
# 
# From -- ./inp_files/22674.got.cif
#   From: 2010.05.17/outbox.cif.g08.bks.cpg/sg47_12_cif.got.tgz:22674.got - 2010.06.03 20:15:42.
