data_PCOD9381712
_publ_section_title
;
Structure prediction by ZEFSAII (Michael W. Deem and Ramdas Pophale) SiO2 
 PCOD9381712
Probable space group: P M M M
;
_chemical_formula_sum "Si O2"
_cell_formula_units_Z 48
_cell_length_a 16.505850
_cell_length_b 12.868968
_cell_length_c 14.504673
_cell_angle_alpha 90.000000
_cell_angle_beta 90.000000
_cell_angle_gamma 90.000000
_cell_volume 3080.984811
_symmetry_space_group_name_H-M "P M M M"
_symmetry_group_IT_number 47
_symmetry_cell_setting 'orthorhombic'
loop_
_space_group_symop_operation_xyz
x,y,z
-x,-y,z
x,-y,-z
-x,y,-z
-x,-y,-z
x,y,-z
-x,y,z
x,-y,z
loop_
_atom_site_type_symbol
_atom_site_label
_atom_site_fract_x
_atom_site_fract_y
_atom_site_fract_z
Si Si1 0.402830 0.621769 0.104628
Si Si2 0.128601 0.622033 0.258081
Si Si3 0.685223 0.683337 0.279650
Si Si4 0.263883 0.883152 0.610317
Si Si5 0.087771 0.805860 0.390561
Si Si6 0.000000 0.625325 0.895412
Si Si7 0.403587 0.500000 0.389397
O O1 0.500000 0.628684 0.109493
O O2 0.381658 0.500000 0.121358
O O3 0.362530 0.688922 0.183802
O O4 0.378052 0.647489 0.000000
O O5 0.113608 0.500000 0.275358
O O6 0.224668 0.641983 0.255809
O O7 0.096314 0.696663 0.338323
O O8 0.079324 0.651943 0.165416
O O9 0.693490 0.791892 0.333098
O O10 0.639056 0.600083 0.344001
O O11 0.274021 0.867006 0.500000
O O12 0.167631 0.872042 0.631000
O O13 0.290838 0.000000 0.632394
O O14 0.089556 0.788422 0.500000
O O15 0.000000 0.852823 0.367080
O O16 0.000000 0.500000 0.901754
O O17 0.000000 0.666415 0.000000
O O18 0.500000 0.500000 0.368632
O O19 0.393389 0.500000 0.500000
#
# Coordination Sequence:
#
# PCOD9381712 Si02
#       7
#     8   8   8   8   8   4   4
#     4   9  17  30  50  77 106 131 158 199 253 309
#     4  10  18  29  42  65 100 133 166 200 241 299
#     4  11  19  32  52  76 103 135 171 210 250 303
#     4   9  19  34  50  70  99 136 176 215 251 289
#     4   9  17  28  44  67  93 124 164 208 249 288
#     4   9  18  30  43  59  92 137 173 205 241 287
#     4  11  22  34  51  78 109 138 163 196 252 315
#
# _framework density 15.579433999999999
#
# number of rings (size 3 to 8) (size 9 to 14) (size 15 to 20)
#    0.000    2.333    2.500    1.500    0.000    2.000 
#    0.000    4.167    0.000    2.500    0.000    7.000 
#    0.000    3.333    0.000    0.000    0.000    0.000 
#
# Total GULP energy -267395.898447 kJ/mol
# GULP energy per Si atom -5570.747884 kJ/mol
# Density = 1.554397 g / cm^3
# Si number density = 15.579434 Si / 1000 Ang^3
#
#
#
# Elastic Constant Matrix: (Units=GPa)
#
#
# Indices 1 2 3 4 5 6 
#
# 1 81.7787 34.9886 49.6020 0.0000 0.0000 0.0000
# 2 34.9886 97.8267 53.6314 0.0000 0.0000 0.0000
# 3 49.6020 53.6314 77.1700 0.0000 0.0000 0.0000
# 4 0.0000 0.0000 0.0000 12.1565 0.0000 0.0000
# 5 0.0000 0.0000 0.0000 0.0000 26.3467 0.0000
# 6 0.0000 0.0000 0.0000 0.0000 0.0000 5.5145
#
#
#
# Elastic Compliance Matrix: (Units=1/GPa)
#
#
# Indices 1 2 3 4 5 6 
#
# 1 0.020043 -0.000171 -0.012764 0.000000 0.000000 0.000000
# 2 -0.000171 0.016516 -0.011368 0.000000 0.000000 0.000000
# 3 -0.012764 -0.011368 0.029063 0.000000 0.000000 0.000000
# 4 0.000000 0.000000 0.000000 0.082260 0.000000 0.000000
# 5 0.000000 0.000000 0.000000 0.000000 0.037955 0.000000
# 6 0.000000 0.000000 0.000000 0.000000 0.000000 0.181341
#
#
# Mechanical properties :
#
#
# Convention : Reuss Voigt Hill
#
# Bulk Modulus (GPa) = 58.76944 59.24660 59.00802
# Shear Modulus (GPa) = 11.86359 16.70710 14.28535
#
# Velocity S-wave (km/s) = 2.76251 3.27828 3.03138
# Velocity P-wave (km/s) = 6.92673 7.24160 7.08591
#
# Compressibility (1/GPa) = 0.01701565
#
# Stress axis : x y z
#
# Youngs Moduli (GPa) = 49.89206 60.54865 34.40749
#
# Poissons Ratio (x) = 0.01035 0.43919
# Poissons Ratio (y) = 0.00853 0.39115
# Poissons Ratio (z) = 0.63684 0.68833
#
# Static dielectric constant tensor:
#      x y z
#    x 1.549500 0.000000 0.000000 
#    y 0.000000 1.497520 0.000000 
#    z 0.000000 0.000000 1.515190 
# 
# From -- ./inp_files/23588.got.cif
#   From: 2010.05.17/outbox.cif.g08.bks.cpg/sg47_12_cif.got.tgz:23588.got - 2010.06.03 20:15:42.
