data_PCOD9381514
_publ_section_title
;
Structure prediction by ZEFSAII (Michael W. Deem and Ramdas Pophale) SiO2 
 PCOD9381514
Probable space group: P M M M
;
_chemical_formula_sum "Si O2"
_cell_formula_units_Z 44
_cell_length_a 7.487038
_cell_length_b 14.028455
_cell_length_c 22.234814
_cell_angle_alpha 90.000000
_cell_angle_beta 90.000000
_cell_angle_gamma 90.000000
_cell_volume 2335.357549
_symmetry_space_group_name_H-M "P M M M"
_symmetry_group_IT_number 47
_symmetry_cell_setting 'orthorhombic'
loop_
_space_group_symop_operation_xyz
x,y,z
-x,-y,z
x,-y,-z
-x,y,-z
-x,-y,-z
x,y,-z
-x,y,z
x,-y,z
loop_
_atom_site_type_symbol
_atom_site_label
_atom_site_fract_x
_atom_site_fract_y
_atom_site_fract_z
Si Si1 0.788485 0.115484 0.000000
Si Si2 0.292999 0.894562 0.618352
Si Si3 0.281473 0.696699 0.433402
Si Si4 0.218222 0.111365 0.130622
Si Si5 0.208330 0.194103 0.744595
Si Si6 0.284022 0.394708 0.690250
O O1 0.717695 0.147014 0.065099
O O2 0.000000 0.137183 0.000000
O O3 0.772850 0.000000 0.000000
O O4 0.500000 0.900635 0.600117
O O5 0.218304 0.804131 0.582191
O O6 0.289465 0.863056 0.688345
O O7 0.213917 0.000000 0.610611
O O8 0.225493 0.667690 0.500000
O O9 0.500000 0.697673 0.432616
O O10 0.226689 0.630396 0.377957
O O11 0.279556 0.166060 0.190001
O O12 0.000000 0.115519 0.128951
O O13 0.265737 0.000000 0.136811
O O14 0.226645 0.306019 0.730864
O O15 0.000000 0.168436 0.743579
O O16 0.500000 0.394478 0.690679
O O17 0.222769 0.500000 0.707954
#
# Coordination Sequence:
#
# PCOD9381514 Si02
#       6
#     4   8   8   8   8   8
#     4   7  10  18  32  52  82 115 140 162 191 229
#     4   9  17  28  41  59  85 115 143 168 197 237
#     4   8  14  25  42  64  84 100 127 170 213 248
#     4   8  13  21  35  58  87 115 139 163 194 232
#     4  10  18  27  42  64  87 109 137 172 206 243
#     4   9  18  32  47  62  81 104 132 169 213 258
#
# _framework density 18.840796999999998
#
# number of rings (size 3 to 8) (size 9 to 14) (size 15 to 20)
#    0.000    3.364    0.000    3.273    0.000    2.182 
#    0.000    3.636    0.000    8.727    0.000   13.364 
#    0.000   15.273    0.000    0.000    0.000    0.000 
#
# Total GULP energy -245137.855876 kJ/mol
# GULP energy per Si atom -5571.314906 kJ/mol
# Density = 1.879791 g / cm^3
# Si number density = 18.840797 Si / 1000 Ang^3
#
#
#
# Elastic Constant Matrix: (Units=GPa)
#
#
# Indices 1 2 3 4 5 6 
#
# 1 49.8617 -10.1995 -9.5925 0.0000 0.0000 0.0000
# 2 -10.1995 46.7051 6.3346 0.0000 0.0000 0.0000
# 3 -9.5925 6.3346 115.8947 0.0000 0.0000 0.0000
# 4 0.0000 0.0000 0.0000 10.5722 0.0000 0.0000
# 5 0.0000 0.0000 0.0000 0.0000 11.4111 0.0000
# 6 0.0000 0.0000 0.0000 0.0000 0.0000 7.0434
#
#
#
# Elastic Compliance Matrix: (Units=1/GPa)
#
#
# Indices 1 2 3 4 5 6 
#
# 1 0.021255 0.004436 0.001517 0.000000 0.000000 0.000000
# 2 0.004436 0.022497 -0.000862 0.000000 0.000000 0.000000
# 3 0.001517 -0.000862 0.008801 0.000000 0.000000 0.000000
# 4 0.000000 0.000000 0.000000 0.094588 0.000000 0.000000
# 5 0.000000 0.000000 0.000000 0.000000 0.087634 0.000000
# 6 0.000000 0.000000 0.000000 0.000000 0.000000 0.141977
#
#
# Mechanical properties :
#
#
# Convention : Reuss Voigt Hill
#
# Bulk Modulus (GPa) = 15.94062 20.61631 18.27847
# Shear Modulus (GPa) = 12.90385 20.86660 16.88522
#
# Velocity S-wave (km/s) = 2.61988 3.33156 2.99692
# Velocity P-wave (km/s) = 4.19890 5.07594 4.65811
#
# Compressibility (1/GPa) = 0.06273282
#
# Stress axis : x y z
#
# Youngs Moduli (GPa) = 47.04853 44.45111 113.62081
#
# Poissons Ratio (x) = -0.19718 -0.17234
# Poissons Ratio (y) = -0.20870 0.09800
# Poissons Ratio (z) = -0.07136 0.03834
#
# Static dielectric constant tensor:
#      x y z
#    x 1.746480 0.000000 0.000000 
#    y 0.000000 1.638490 0.000000 
#    z 0.000000 0.000000 1.672590 
# 
# From -- ./inp_files/21295.got.cif
#   From: 2010.05.17/outbox.cif.g08.bks.cpg/sg47_11_cif.got.tgz:21295.got - 2010.06.03 20:15:42.
