data_PCOD9381605
_publ_section_title
;
Structure prediction by ZEFSAII (Michael W. Deem and Ramdas Pophale) SiO2 
 PCOD9381605
Probable space group: P M M M
;
_chemical_formula_sum "Si O2"
_cell_formula_units_Z 64
_cell_length_a 24.658881
_cell_length_b 19.574675
_cell_length_c 7.998360
_cell_angle_alpha 90.000000
_cell_angle_beta 90.000000
_cell_angle_gamma 90.000000
_cell_volume 3860.725041
_symmetry_space_group_name_H-M "P M M M"
_symmetry_group_IT_number 47
_symmetry_cell_setting 'orthorhombic'
loop_
_space_group_symop_operation_xyz
x,y,z
-x,-y,z
x,-y,-z
-x,y,-z
-x,-y,-z
x,y,-z
-x,y,z
x,-y,z
loop_
_atom_site_type_symbol
_atom_site_label
_atom_site_fract_x
_atom_site_fract_y
_atom_site_fract_z
Si Si1 0.774723 0.789628 0.195052
Si Si2 0.724967 0.421971 0.202464
Si Si3 0.938930 0.421098 0.795938
Si Si4 0.667775 0.289907 0.301059
Si Si5 0.725120 0.923808 0.304724
Si Si6 0.603569 0.923182 0.805141
Si Si7 0.166417 0.341675 0.795424
Si Si8 0.440553 0.780847 0.697603
O O1 0.716874 0.751657 0.217308
O O2 0.767453 0.863652 0.274299
O O3 0.818058 0.734632 0.262243
O O4 0.785312 0.799556 0.000000
O O5 0.718709 0.500000 0.257726
O O6 0.680189 0.369189 0.268237
O O7 0.783672 0.391238 0.252493
O O8 0.723280 0.420665 0.000000
O O9 0.928687 0.500000 0.747472
O O10 0.890628 0.372252 0.738525
O O11 0.000000 0.402485 0.742706
O O12 0.938540 0.420006 0.000000
O O13 0.671045 0.276288 0.500000
O O14 0.610214 0.262674 0.235898
O O15 0.710657 0.923257 0.500000
O O16 0.668392 0.911549 0.210388
O O17 0.744607 0.000000 0.260054
O O18 0.573583 0.860704 0.718683
O O19 0.592859 0.000000 0.739247
O O20 0.588779 0.922043 0.000000
O O21 0.166085 0.340317 0.000000
O O22 0.442829 0.766235 0.500000
O O23 0.500000 0.766544 0.770351
#
# Coordination Sequence:
#
# PCOD9381605 Si02
#       8
#     8   8   8   8   8   8   8   8
#     4  10  18  28  44  64  88 116 145 178 218 262
#     4   9  17  29  46  66  88 114 141 175 221 268
#     4   8  12  18  31  53  84 123 160 186 208 242
#     4  10  19  31  47  65  86 110 139 177 217 261
#     4  10  19  30  45  64  87 115 144 175 215 262
#     4  10  20  32  47  67  89 113 142 176 212 254
#     4   8  14  23  36  58  88 119 148 179 215 254
#     4  10  21  35  49  64  84 113 146 179 217 261
#
# _framework density 16.577197000000002
#
# number of rings (size 3 to 8) (size 9 to 14) (size 15 to 20)
#    0.000    2.625    1.250    3.000    0.000    4.250 
#    0.000    1.250    0.000    0.375    0.000    2.625 
#    0.000   13.000    0.000   46.375    0.000   37.250 
#
# Total GULP energy -356708.235536 kJ/mol
# GULP energy per Si atom -5573.566180 kJ/mol
# Density = 1.653947 g / cm^3
# Si number density = 16.577197 Si / 1000 Ang^3
#
#
#
# Elastic Constant Matrix: (Units=GPa)
#
#
# Indices 1 2 3 4 5 6 
#
# 1 106.6631 53.4332 -3.1564 0.0000 0.0000 0.0000
# 2 53.4332 96.1318 -6.2381 0.0000 0.0000 0.0000
# 3 -3.1564 -6.2381 12.0864 0.0000 0.0000 0.0000
# 4 0.0000 0.0000 0.0000 13.7812 0.0000 0.0000
# 5 0.0000 0.0000 0.0000 0.0000 12.0802 0.0000
# 6 0.0000 0.0000 0.0000 0.0000 0.0000 22.6581
#
#
#
# Elastic Compliance Matrix: (Units=1/GPa)
#
#
# Indices 1 2 3 4 5 6 
#
# 1 0.012995 -0.007245 -0.000346 0.000000 0.000000 0.000000
# 2 -0.007245 0.014803 0.005748 0.000000 0.000000 0.000000
# 3 -0.000346 0.005748 0.085614 0.000000 0.000000 0.000000
# 4 0.000000 0.000000 0.000000 0.072563 0.000000 0.000000
# 5 0.000000 0.000000 0.000000 0.000000 0.082780 0.000000
# 6 0.000000 0.000000 0.000000 0.000000 0.000000 0.044134
#
#
# Mechanical properties :
#
#
# Convention : Reuss Voigt Hill
#
# Bulk Modulus (GPa) = 9.11372 33.66206 21.38789
# Shear Modulus (GPa) = 14.15830 21.09341 17.62586
#
# Velocity S-wave (km/s) = 2.92564 3.57099 3.26430
# Velocity P-wave (km/s) = 4.11366 6.11171 5.20937
#
# Compressibility (1/GPa) = 0.10972468
#
# Stress axis : x y z
#
# Youngs Moduli (GPa) = 76.95490 67.55593 11.68032
#
# Poissons Ratio (x) = 0.48946 0.00404
# Poissons Ratio (y) = 0.55756 -0.06714
# Poissons Ratio (z) = 0.02662 -0.38831
#
# Static dielectric constant tensor:
#      x y z
#    x 1.554790 0.000000 0.000000 
#    y 0.000000 1.574000 0.000000 
#    z 0.000000 0.000000 1.598680 
# 
# From -- ./inp_files/12921.got.cif
#   From: 2010.05.17/outbox.cif.g08.bks.cpg/sg47_7_cif.got.tgz:12921.got - 2010.06.03 20:15:42.
