data_PCOD9381390
_publ_section_title
;
Structure prediction by ZEFSAII (Michael W. Deem and Ramdas Pophale) SiO2 
 PCOD9381390
Probable space group: P M M M
;
_chemical_formula_sum "Si O2"
_cell_formula_units_Z 56
_cell_length_a 15.098486
_cell_length_b 7.495319
_cell_length_c 21.539925
_cell_angle_alpha 90.000000
_cell_angle_beta 90.000000
_cell_angle_gamma 90.000000
_cell_volume 2437.629564
_symmetry_space_group_name_H-M "P M M M"
_symmetry_group_IT_number 47
_symmetry_cell_setting 'orthorhombic'
loop_
_space_group_symop_operation_xyz
x,y,z
-x,-y,z
x,-y,-z
-x,y,-z
-x,-y,-z
x,y,-z
-x,y,z
x,-y,z
loop_
_atom_site_type_symbol
_atom_site_label
_atom_site_fract_x
_atom_site_fract_y
_atom_site_fract_z
Si Si1 0.647790 0.703100 0.500000
Si Si2 0.754497 0.299330 0.724303
Si Si3 0.595611 0.714571 0.072561
Si Si4 0.900578 0.706775 0.815318
Si Si5 0.208803 0.209358 0.070597
Si Si6 0.149078 0.214795 0.500000
Si Si7 0.398827 0.717516 0.361931
Si Si8 0.095147 0.784449 0.365273
O O1 0.612626 0.500000 0.500000
O O2 0.753649 0.704123 0.500000
O O3 0.620404 0.781023 0.567233
O O4 0.730679 0.500000 0.746407
O O5 0.818834 0.211875 0.775817
O O6 0.667868 0.217618 0.691865
O O7 0.822860 0.305432 0.667206
O O8 0.500000 0.774785 0.099077
O O9 0.594708 0.500000 0.073676
O O10 0.691401 0.768470 0.097783
O O11 0.596195 0.771779 0.000000
O O12 0.905496 0.500000 0.795237
O O13 0.865618 0.710391 0.885527
O O14 0.000000 0.782750 0.809443
O O15 0.191360 0.000000 0.067561
O O16 0.209026 0.281424 0.000000
O O17 0.099175 0.260979 0.562549
O O18 0.160364 0.000000 0.500000
O O19 0.500000 0.758119 0.346930
O O20 0.387787 0.500000 0.363433
O O21 0.000000 0.732620 0.338340
O O22 0.103543 0.000000 0.359414
#
# Coordination Sequence:
#
# PCOD9381390 Si02
#       8
#     4   8   8   8   8   4   8   8
#     4  10  17  29  51  78 106 140 181 223 269 318
#     4  10  20  36  57  79 104 134 176 227 271 316
#     4   8  14  27  50  80 113 148 182 213 250 303
#     4  10  22  39  57  78 106 141 179 223 279 341
#     4  10  21  36  56  84 115 145 180 227 278 327
#     4  10  19  31  47  70 104 140 175 217 265 318
#     4   9  17  30  52  81 110 140 176 220 269 319
#     4  10  20  33  50  72 101 139 178 217 267 323
#
# _framework density 22.973137999999999
#
# number of rings (size 3 to 8) (size 9 to 14) (size 15 to 20)
#    0.000    2.429    1.429    1.714    0.000    4.857 
#    0.000    3.571    0.000    6.000    0.000    0.000 
#    0.000    0.000    0.000    0.000    0.000    0.000 
#
# Total GULP energy -312320.330138 kJ/mol
# GULP energy per Si atom -5577.148752 kJ/mol
# Density = 2.292085 g / cm^3
# Si number density = 22.973138 Si / 1000 Ang^3
#
#
#
# Elastic Constant Matrix: (Units=GPa)
#
#
# Indices 1 2 3 4 5 6 
#
# 1 183.5901 4.8724 61.7284 0.0000 0.0000 0.0000
# 2 4.8724 61.9269 2.2091 0.0000 0.0000 0.0000
# 3 61.7284 2.2091 87.5332 0.0000 0.0000 0.0000
# 4 0.0000 0.0000 0.0000 46.8344 0.0000 0.0000
# 5 0.0000 0.0000 0.0000 0.0000 -21.1008 0.0000
# 6 0.0000 0.0000 0.0000 0.0000 0.0000 -41.0080
#
#
#
# Elastic Compliance Matrix: (Units=1/GPa)
#
#
# Indices 1 2 3 4 5 6 
#
# 1 0.007149 -0.000383 -0.005032 0.000000 0.000000 0.000000
# 2 -0.000383 0.016183 -0.000138 0.000000 0.000000 0.000000
# 3 -0.005032 -0.000138 0.014976 0.000000 0.000000 0.000000
# 4 0.000000 0.000000 0.000000 0.021352 0.000000 0.000000
# 5 0.000000 0.000000 0.000000 0.000000 -0.047392 0.000000
# 6 0.000000 0.000000 0.000000 0.000000 0.000000 -0.024385
#
#
# Mechanical properties :
#
#
# Convention : Reuss Voigt Hill
#
# Bulk Modulus (GPa) = 36.76198 52.29667 44.52933
# Shear Modulus (GPa) = 620.62692 14.56113 317.59403
#
# Velocity S-wave (km/s) = 16.45417 2.52033 11.77055
# Velocity P-wave (km/s) = 19.41709 5.59313 14.28822
#
# Compressibility (1/GPa) = 0.02720202
#
# Stress axis : x y z
#
# Youngs Moduli (GPa) = 139.88165 61.79273 66.77302
#
# Poissons Ratio (x) = 0.02367 0.33598
# Poissons Ratio (y) = 0.05357 0.00924
# Poissons Ratio (z) = 0.70385 0.00855
#
# Static dielectric constant tensor:
#      x y z
#    x 1.844160 0.000000 0.000000 
#    y 0.000000 1.887060 0.000000 
#    z 0.000000 0.000000 1.886240 
# 
# From -- ./inp_files/31007.got.cif
#   From: 2010.05.17/outbox.cif.g08.bks.cpg/sg47_16_cif.got.tgz:31007.got - 2010.06.03 20:15:42.
