data_PCOD9381358
_publ_section_title
;
Structure prediction by ZEFSAII (Michael W. Deem and Ramdas Pophale) SiO2 
 PCOD9381358
Probable space group: P M M M
;
_chemical_formula_sum "Si O2"
_cell_formula_units_Z 52
_cell_length_a 12.770109
_cell_length_b 25.977997
_cell_length_c 7.417350
_cell_angle_alpha 90.000000
_cell_angle_beta 90.000000
_cell_angle_gamma 90.000000
_cell_volume 2460.645436
_symmetry_space_group_name_H-M "P M M M"
_symmetry_group_IT_number 47
_symmetry_cell_setting 'orthorhombic'
loop_
_space_group_symop_operation_xyz
x,y,z
-x,-y,z
x,-y,-z
-x,y,-z
-x,-y,-z
x,y,-z
-x,y,z
x,-y,z
loop_
_atom_site_type_symbol
_atom_site_label
_atom_site_fract_x
_atom_site_fract_y
_atom_site_fract_z
Si Si1 0.500000 0.251969 0.780101
Si Si2 0.374338 0.055301 0.789196
Si Si3 0.271232 0.404809 0.219752
Si Si4 0.113386 0.199361 0.707120
Si Si5 0.337223 0.832888 0.204122
Si Si6 0.500000 0.627826 0.779492
Si Si7 0.114492 0.681244 0.217679
Si Si8 0.876868 0.500000 0.220114
O O1 0.401040 0.216419 0.722933
O O2 0.500000 0.311712 0.721270
O O3 0.500000 0.255888 0.000000
O O4 0.500000 0.053679 0.786819
O O5 0.348152 0.110962 0.708208
O O6 0.337350 0.000000 0.713415
O O7 0.340391 0.055948 0.000000
O O8 0.392390 0.400592 0.276979
O O9 0.210847 0.353184 0.276128
O O10 0.194331 0.451144 0.275371
O O11 0.273056 0.406555 0.000000
O O12 0.117868 0.182478 0.500000
O O13 0.215629 0.179393 0.801639
O O14 0.118623 0.261182 0.711762
O O15 0.000000 0.184637 0.783126
O O16 0.378427 0.838690 0.000000
O O17 0.500000 0.628085 0.000000
O O18 0.000000 0.658617 0.264977
O O19 0.118442 0.684282 0.000000
O O20 0.000000 0.500000 0.277864
O O21 0.880971 0.500000 0.000000
#
# Coordination Sequence:
#
# PCOD9381358 Si02
#       8
#     4   8   8   8   8   4   8   4
#     4   9  16  26  43  71  99 121 149 188 231 274
#     4   8  13  23  42  71 102 125 149 186 234 283
#     4   9  16  25  38  59  85 114 145 181 225 271
#     4  10  21  34  46  64  93 127 160 196 239 281
#     4  10  17  28  49  73  96 124 157 191 230 278
#     4   9  16  23  32  51  85 121 145 170 213 272
#     4   9  16  28  47  67  85 110 149 192 231 275
#     4   9  16  25  37  55  82 113 147 190 234 267
#
# _framework density 21.132667000000001
#
# number of rings (size 3 to 8) (size 9 to 14) (size 15 to 20)
#    0.000    2.846    0.769    2.308    0.000    5.538 
#    0.000    1.923    0.000    0.923    0.000    4.846 
#    0.000    3.077    0.000    3.385    0.000    4.462 
#
# Total GULP energy -289765.041581 kJ/mol
# GULP energy per Si atom -5572.404646 kJ/mol
# Density = 2.108457 g / cm^3
# Si number density = 21.132667 Si / 1000 Ang^3
#
#
#
# Elastic Constant Matrix: (Units=GPa)
#
#
# Indices 1 2 3 4 5 6 
#
# 1 177.7331 68.1856 11.7139 0.0000 0.0000 0.0000
# 2 68.1856 109.1437 2.2942 0.0000 0.0000 0.0000
# 3 11.7139 2.2942 65.0973 0.0000 0.0000 0.0000
# 4 0.0000 0.0000 0.0000 1.9311 0.0000 0.0000
# 5 0.0000 0.0000 0.0000 0.0000 43.3033 0.0000
# 6 0.0000 0.0000 0.0000 0.0000 0.0000 19.2657
#
#
#
# Elastic Compliance Matrix: (Units=1/GPa)
#
#
# Indices 1 2 3 4 5 6 
#
# 1 0.007490 -0.004654 -0.001184 0.000000 0.000000 0.000000
# 2 -0.004654 0.012061 0.000412 0.000000 0.000000 0.000000
# 3 -0.001184 0.000412 0.015560 0.000000 0.000000 0.000000
# 4 0.000000 0.000000 0.000000 0.517851 0.000000 0.000000
# 5 0.000000 0.000000 0.000000 0.000000 0.023093 0.000000
# 6 0.000000 0.000000 0.000000 0.000000 0.000000 0.051906
#
#
# Mechanical properties :
#
#
# Convention : Reuss Voigt Hill
#
# Bulk Modulus (GPa) = 41.21999 57.37350 49.29674
# Shear Modulus (GPa) = 7.72918 30.88538 19.30728
#
# Velocity S-wave (km/s) = 1.91452 3.82710 3.02590
# Velocity P-wave (km/s) = 4.94316 6.83645 5.96540
#
# Compressibility (1/GPa) = 0.02426008
#
# Stress axis : x y z
#
# Youngs Moduli (GPa) = 133.51053 82.90975 64.26692
#
# Poissons Ratio (x) = 0.38589 0.07608
# Poissons Ratio (y) = 0.62141 -0.02651
# Poissons Ratio (z) = 0.15804 -0.03420
#
# Static dielectric constant tensor:
#      x y z
#    x 1.748340 0.000000 0.000000 
#    y 0.000000 1.778540 0.000000 
#    z 0.000000 0.000000 1.834710 
# 
# From -- ./inp_files/4659.got.cif
#   From: 2010.05.17/outbox.cif.g08.bks.cpg/sg47_3_cif.got.tgz:4659.got - 2010.06.03 20:15:42.
