data_PCOD9381260
_publ_section_title
;
Structure prediction by ZEFSAII (Michael W. Deem and Ramdas Pophale) SiO2 
 PCOD9381260
Probable space group: P M M M
;
_chemical_formula_sum "Si O2"
_cell_formula_units_Z 64
_cell_length_a 29.026474
_cell_length_b 14.505383
_cell_length_c 7.554864
_cell_angle_alpha 90.000000
_cell_angle_beta 90.000000
_cell_angle_gamma 90.000000
_cell_volume 3180.900864
_symmetry_space_group_name_H-M "P M M M"
_symmetry_group_IT_number 47
_symmetry_cell_setting 'orthorhombic'
loop_
_space_group_symop_operation_xyz
x,y,z
-x,-y,z
x,-y,-z
-x,y,-z
-x,-y,-z
x,y,-z
-x,y,z
x,-y,z
loop_
_atom_site_type_symbol
_atom_site_label
_atom_site_fract_x
_atom_site_fract_y
_atom_site_fract_z
Si Si1 0.300358 0.604172 0.789339
Si Si2 0.198626 0.893576 0.289583
Si Si3 0.553952 0.897173 0.716080
Si Si4 0.375973 0.751861 0.694157
Si Si5 0.802148 0.391455 0.215163
Si Si6 0.875482 0.249211 0.198850
Si Si7 0.302445 0.106657 0.208986
Si Si8 0.946076 0.102800 0.215859
O O1 0.307608 0.500000 0.721843
O O2 0.344981 0.667579 0.762310
O O3 0.249624 0.637324 0.723560
O O4 0.294552 0.598737 0.000000
O O5 0.191134 0.886717 0.500000
O O6 0.162867 0.830448 0.191316
O O7 0.250395 0.864282 0.245983
O O8 0.194140 0.000000 0.236255
O O9 0.557551 0.896546 0.500000
O O10 0.500000 0.890899 0.760195
O O11 0.582120 0.808293 0.783357
O O12 0.570577 0.000000 0.773342
O O13 0.392291 0.723497 0.500000
O O14 0.338178 0.832526 0.688042
O O15 0.806566 0.500000 0.254383
O O16 0.845763 0.332488 0.282242
O O17 0.803165 0.380864 0.000000
O O18 0.917818 0.191737 0.281434
O O19 0.889711 0.278091 0.000000
O O20 0.306194 0.000000 0.258568
O O21 0.311584 0.116934 0.000000
O O22 0.000000 0.109066 0.260701
O O23 0.929391 0.000000 0.273117
O O24 0.942624 0.103513 0.000000
#
# Coordination Sequence:
#
# PCOD9381260 Si02
#       8
#     8   8   8   8   8   8   8   8
#     4   9  18  33  50  66  90 126 162 194 235 292
#     4  10  20  31  42  61  92 122 146 182 232 277
#     4   8  15  29  48  70  97 128 159 189 227 282
#     4  11  20  29  48  75  98 120 152 199 247 282
#     4   8  15  28  45  65  87 112 146 188 231 273
#     4  10  17  26  46  68  84 112 154 192 226 273
#     4  10  20  32  45  63  92 129 162 187 217 272
#     4   8  14  24  38  60  90 119 149 187 226 268
#
# _framework density 20.120086000000001
#
# number of rings (size 3 to 8) (size 9 to 14) (size 15 to 20)
#    0.000    2.750    0.000    4.125    0.000    3.750 
#    0.000    0.000    0.000    3.750    0.000   11.375 
#    0.000    0.000    0.000    1.125    0.000    1.375 
#
# Total GULP energy -356604.225198 kJ/mol
# GULP energy per Si atom -5571.941019 kJ/mol
# Density = 2.007429 g / cm^3
# Si number density = 20.120086 Si / 1000 Ang^3
#
#
#
# Elastic Constant Matrix: (Units=GPa)
#
#
# Indices 1 2 3 4 5 6 
#
# 1 93.3781 59.7164 -1.4625 0.0000 0.0000 0.0000
# 2 59.7164 111.3902 6.2131 0.0000 0.0000 0.0000
# 3 -1.4625 6.2131 43.8408 0.0000 0.0000 0.0000
# 4 0.0000 0.0000 0.0000 18.6349 0.0000 0.0000
# 5 0.0000 0.0000 0.0000 0.0000 7.3028 0.0000
# 6 0.0000 0.0000 0.0000 0.0000 0.0000 38.9325
#
#
#
# Elastic Compliance Matrix: (Units=1/GPa)
#
#
# Indices 1 2 3 4 5 6 
#
# 1 0.016438 -0.008913 0.001812 0.000000 0.000000 0.000000
# 2 -0.008913 0.013882 -0.002265 0.000000 0.000000 0.000000
# 3 0.001812 -0.002265 0.023191 0.000000 0.000000 0.000000
# 4 0.000000 0.000000 0.000000 0.053663 0.000000 0.000000
# 5 0.000000 0.000000 0.000000 0.000000 0.136935 0.000000
# 6 0.000000 0.000000 0.000000 0.000000 0.000000 0.025685
#
#
# Mechanical properties :
#
#
# Convention : Reuss Voigt Hill
#
# Bulk Modulus (GPa) = 28.75372 41.94924 35.35148
# Shear Modulus (GPa) = 16.66003 25.25017 20.95510
#
# Velocity S-wave (km/s) = 2.88067 3.54640 3.23073
# Velocity P-wave (km/s) = 5.03850 6.13710 5.61473
#
# Compressibility (1/GPa) = 0.03477811
#
# Stress axis : x y z
#
# Youngs Moduli (GPa) = 60.83583 72.03471 43.11980
#
# Poissons Ratio (x) = 0.64207 -0.07811
# Poissons Ratio (y) = 0.54225 0.09765
# Poissons Ratio (z) = -0.11021 0.16314
#
# Static dielectric constant tensor:
#      x y z
#    x 1.735700 0.000000 0.000000 
#    y 0.000000 1.731470 0.000000 
#    z 0.000000 0.000000 1.812420 
# 
# From -- ./inp_files/14335.got.cif
#   From: 2010.05.17/outbox.cif.g08.bks.cpg/sg47_8_cif.got.tgz:14335.got - 2010.06.03 20:15:42.
