data_PCOD9381035
_publ_section_title
;
Structure prediction by ZEFSAII (Michael W. Deem and Ramdas Pophale) SiO2 
 PCOD9381035
Probable space group: I M A 2
;
_chemical_formula_sum "Si O2"
_cell_formula_units_Z 36
_cell_length_a 19.004486
_cell_length_b 7.740249
_cell_length_c 9.755356
_cell_angle_alpha 90.000000
_cell_angle_beta 90.000000
_cell_angle_gamma 90.000000
_cell_volume 1435.007539
_symmetry_space_group_name_H-M "I M A 2"
_symmetry_group_IT_number 46
_symmetry_cell_setting 'orthorhombic'
loop_
_space_group_symop_operation_xyz
x,y,z
-x,-y,z
1/2-x,y,z
1/2+x,-y,z
1/2+x,1/2+y,1/2+z
1/2-x,1/2-y,1/2+z
-x,1/2+y,1/2+z
x,1/2-y,1/2+z
loop_
_atom_site_type_symbol
_atom_site_label
_atom_site_fract_x
_atom_site_fract_y
_atom_site_fract_z
Si Si1 0.750000 0.009113 0.521811
Si Si2 0.019012 0.813047 0.892300
Si Si3 0.111400 0.695238 0.131311
Si Si4 0.362391 0.226197 0.352360
Si Si5 0.669537 0.555128 0.595902
O O1 0.686417 0.105771 0.609381
O O2 0.688187 0.914031 0.424531
O O3 0.066500 0.698916 0.991982
O O4 0.062599 0.861862 0.756182
O O5 0.946337 0.714128 0.862676
O O6 0.000000 0.000000 0.958731
O O7 0.125616 0.899122 0.154856
O O8 0.344740 0.397631 0.439216
O O9 0.342838 0.221152 0.192220
O O10 0.750000 0.506351 0.605597
#
# Coordination Sequence:
#
# PCOD9381035 Si02
#       5
#     4   8   8   8   8
#     4  12  28  48  82 118 156 216 268 338 412 500
#     4  12  29  50  82 118 160 213 270 340 420 503
#     4  12  29  51  80 116 162 208 272 338 415 494
#     4  12  27  48  81 116 156 213 270 335 414 495
#     4  12  24  50  76 114 153 206 263 333 398 487
#
# _framework density 25.086974000000001
#
# number of rings (size 3 to 8) (size 9 to 14) (size 15 to 20)
#    0.000    0.000    5.556    2.667    6.222    2.667 
#    4.000    0.000    0.000    0.000    0.000    0.000 
#    0.000    0.000    0.000    0.000    0.000    0.000 
#
# Total GULP energy -100234.234850 kJ/mol
# GULP energy per Si atom -5568.568603 kJ/mol
# Density = 2.502987 g / cm^3
# Si number density = 25.086974 Si / 1000 Ang^3
#
#
#
# Elastic Constant Matrix: (Units=GPa)
#
#
# Indices 1 2 3 4 5 6 
#
# 1 229.4014 30.3342 62.7449 0.0000 0.0000 0.0000
# 2 30.3342 70.6858 24.1955 0.0000 0.0000 0.0000
# 3 62.7449 24.1955 94.2339 0.0000 0.0000 0.0000
# 4 0.0000 0.0000 0.0000 29.0492 0.0000 0.0000
# 5 0.0000 0.0000 0.0000 0.0000 33.9003 0.0000
# 6 0.0000 0.0000 0.0000 0.0000 0.0000 47.8070
#
#
#
# Elastic Compliance Matrix: (Units=1/GPa)
#
#
# Indices 1 2 3 4 5 6 
#
# 1 0.005420 -0.001196 -0.003302 0.000000 0.000000 0.000000
# 2 -0.001196 0.015774 -0.003254 0.000000 0.000000 0.000000
# 3 -0.003302 -0.003254 0.013646 0.000000 0.000000 0.000000
# 4 0.000000 0.000000 0.000000 0.034424 0.000000 0.000000
# 5 0.000000 0.000000 0.000000 0.000000 0.029498 0.000000
# 6 0.000000 0.000000 0.000000 0.000000 0.000000 0.020917
#
#
# Mechanical properties :
#
#
# Convention : Reuss Voigt Hill
#
# Bulk Modulus (GPa) = 51.71468 69.87445 60.79456
# Shear Modulus (GPa) = 35.30321 40.62106 37.96214
#
# Velocity S-wave (km/s) = 3.75538 4.02831 3.89423
# Velocity P-wave (km/s) = 6.28194 7.03915 6.67130
#
# Compressibility (1/GPa) = 0.01933687
#
# Stress axis : x y z
#
# Youngs Moduli (GPa) = 184.48522 63.39503 73.28114
#
# Poissons Ratio (x) = 0.07581 0.24198
# Poissons Ratio (y) = 0.22062 0.23845
# Poissons Ratio (z) = 0.60920 0.20628
#
# Static dielectric constant tensor:
#      x y z
#    x 1.935010 0.000000 0.000000 
#    y 0.000000 2.040550 0.000000 
#    z 0.000000 0.000000 1.959160 
# 
# From -- ./inp_files/7147.got.cif
#   From: 2010.05.17/outbox.cif.g08.bks.cpg/sg46_4_cif.got.tgz:7147.got - 2010.06.03 19:58:25.
