data_PCOD9381025
_publ_section_title
;
Structure prediction by ZEFSAII (Michael W. Deem and Ramdas Pophale) SiO2 
 PCOD9381025
Probable space group: I M A 2
;
_chemical_formula_sum "Si O2"
_cell_formula_units_Z 48
_cell_length_a 15.073851
_cell_length_b 4.924989
_cell_length_c 28.224940
_cell_angle_alpha 90.000000
_cell_angle_beta 90.000000
_cell_angle_gamma 90.000000
_cell_volume 2095.378630
_symmetry_space_group_name_H-M "I M A 2"
_symmetry_group_IT_number 46
_symmetry_cell_setting 'orthorhombic'
loop_
_space_group_symop_operation_xyz
x,y,z
-x,-y,z
1/2-x,y,z
1/2+x,-y,z
1/2+x,1/2+y,1/2+z
1/2-x,1/2-y,1/2+z
-x,1/2+y,1/2+z
x,1/2-y,1/2+z
loop_
_atom_site_type_symbol
_atom_site_label
_atom_site_fract_x
_atom_site_fract_y
_atom_site_fract_z
Si Si1 0.560007 0.726309 0.253170
Si Si2 0.594339 0.417153 0.933235
Si Si3 0.651512 0.937656 0.658799
Si Si4 0.750000 0.162720 0.363231
Si Si5 0.750000 0.825465 0.801718
Si Si6 0.351793 0.449256 0.491370
Si Si7 0.895736 0.446667 0.599450
O O1 0.500000 0.500000 0.279414
O O2 0.586630 0.587249 0.203102
O O3 0.657644 0.758604 0.276395
O O4 0.500000 0.000000 0.248847
O O5 0.500000 0.500000 0.912092
O O6 0.662063 0.304759 0.894399
O O7 0.632182 0.667847 0.964095
O O8 0.583448 0.175350 0.970432
O O9 0.750000 0.016520 0.675180
O O10 0.651691 0.639180 0.636974
O O11 0.622879 0.141790 0.616957
O O12 0.750000 0.360087 0.317779
O O13 0.750000 0.847727 0.349496
O O14 0.250000 0.532764 0.482201
O O15 0.364552 0.461756 0.547670
O O16 0.000000 0.500000 0.602493
#
# Coordination Sequence:
#
# PCOD9381025 Si02
#       7
#     8   8   8   4   4   8   8
#     4  12  26  48  77 107 146 192 240 298 368 441
#     4  12  25  45  72 103 138 187 235 288 360 431
#     4  12  24  44  67 101 141 191 240 292 354 420
#     4  12  26  48  76 103 144 179 228 308 364 438
#     4  12  28  50  76 109 144 181 238 304 372 446
#     4  12  23  44  67  99 143 190 237 290 351 418
#     4  12  25  40  64 101 142 189 244 292 344 416
#
# _framework density 22.907553
#
# number of rings (size 3 to 8) (size 9 to 14) (size 15 to 20)
#    0.000    0.000    2.500    9.000    0.000    2.000 
#    0.000    0.000    0.000    0.000    0.000    0.000 
#    0.000    0.000    0.000    0.000    0.000    0.000 
#
# Total GULP energy -134225.535430 kJ/mol
# GULP energy per Si atom -5592.730643 kJ/mol
# Density = 2.285541 g / cm^3
# Si number density = 22.907553 Si / 1000 Ang^3
#
#
#
# Elastic Constant Matrix: (Units=GPa)
#
#
# Indices 1 2 3 4 5 6 
#
# 1 191.9274 19.2368 31.1788 0.0000 0.0000 0.0000
# 2 19.2368 79.6113 -8.3866 0.0000 0.0000 0.0000
# 3 31.1788 -8.3866 51.9513 0.0000 0.0000 0.0000
# 4 0.0000 0.0000 0.0000 31.0832 0.0000 0.0000
# 5 0.0000 0.0000 0.0000 0.0000 -14.0995 0.0000
# 6 0.0000 0.0000 0.0000 0.0000 0.0000 36.0402
#
#
#
# Elastic Compliance Matrix: (Units=1/GPa)
#
#
# Indices 1 2 3 4 5 6 
#
# 1 0.006035 -0.001872 -0.003924 0.000000 0.000000 0.000000
# 2 -0.001872 0.013359 0.003280 0.000000 0.000000 0.000000
# 3 -0.003924 0.003280 0.022134 0.000000 0.000000 0.000000
# 4 0.000000 0.000000 0.000000 0.032172 0.000000 0.000000
# 5 0.000000 0.000000 0.000000 0.000000 -0.070925 0.000000
# 6 0.000000 0.000000 0.000000 0.000000 0.000000 0.027747
#
#
# Mechanical properties :
#
#
# Convention : Reuss Voigt Hill
#
# Bulk Modulus (GPa) = 27.40079 45.28311 36.34195
# Shear Modulus (GPa) = 104.77964 29.36885 67.07424
#
# Velocity S-wave (km/s) = 6.77049 3.58447 5.41701
# Velocity P-wave (km/s) = 8.55025 6.07799 7.41784
#
# Compressibility (1/GPa) = 0.03649529
#
# Stress axis : x y z
#
# Youngs Moduli (GPa) = 165.68831 74.85682 45.18038
#
# Poissons Ratio (x) = 0.14012 0.17730
# Poissons Ratio (y) = 0.31013 -0.14819
# Poissons Ratio (z) = 0.65022 -0.24552
#
# Static dielectric constant tensor:
#      x y z
#    x 2.032480 0.000000 0.000000 
#    y 0.000000 1.876500 0.000000 
#    z 0.000000 0.000000 1.841720 
# 
# From -- ./inp_files/24615.got.cif
#   From: 2010.05.17/outbox.cif.g08.bks.cpg/sg46_13_cif.got.tgz:24615.got - 2010.06.03 19:58:25.
