data_PCOD9381398
_publ_section_title
;
Structure prediction by ZEFSAII (Michael W. Deem and Ramdas Pophale) SiO2 
 PCOD9381398
Probable space group: P M M M
;
_chemical_formula_sum "Si O2"
_cell_formula_units_Z 52
_cell_length_a 30.864729
_cell_length_b 7.942987
_cell_length_c 12.293458
_cell_angle_alpha 90.000000
_cell_angle_beta 90.000000
_cell_angle_gamma 90.000000
_cell_volume 3013.841312
_symmetry_space_group_name_H-M "P M M M"
_symmetry_group_IT_number 47
_symmetry_cell_setting 'orthorhombic'
loop_
_space_group_symop_operation_xyz
x,y,z
-x,-y,z
x,-y,-z
-x,y,-z
-x,-y,-z
x,y,-z
-x,y,z
x,-y,z
loop_
_atom_site_type_symbol
_atom_site_label
_atom_site_fract_x
_atom_site_fract_y
_atom_site_fract_z
Si Si1 0.436532 0.191658 0.000000
Si Si2 0.632201 0.794379 0.375508
Si Si3 0.452438 0.794015 0.758870
Si Si4 0.049980 0.500000 0.867115
Si Si5 0.344104 0.312084 0.000000
Si Si6 0.108064 0.813148 0.867878
Si Si7 0.795624 0.701643 0.126176
Si Si8 0.705961 0.201152 0.788592
O O1 0.449715 0.266609 0.884017
O O2 0.384606 0.189394 0.000000
O O3 0.452713 0.000000 0.000000
O O4 0.631073 0.737366 0.500000
O O5 0.589524 0.738231 0.308835
O O6 0.676322 0.745523 0.313200
O O7 0.631154 0.000000 0.376187
O O8 0.500000 0.748884 0.714156
O O9 0.450303 0.000000 0.761575
O O10 0.076203 0.665417 0.831130
O O11 0.000000 0.500000 0.833085
O O12 0.050327 0.500000 0.000000
O O13 0.315469 0.283892 0.894304
O O14 0.362233 0.500000 0.000000
O O15 0.158034 0.775505 0.840134
O O16 0.095485 0.000000 0.831624
O O17 0.106861 0.810805 0.000000
O O18 0.799209 0.500000 0.124391
O O19 0.756373 0.753197 0.204221
O O20 0.786623 0.756302 0.000000
O O21 0.702002 0.000000 0.798658
#
# Coordination Sequence:
#
# PCOD9381398 Si02
#       8
#     4   8   8   4   4   8   8   8
#     4  10  17  30  48  70  96 120 142 178 229 281
#     4   9  18  31  46  67  94 120 151 192 230 271
#     4   9  16  26  45  72  96 117 144 182 230 280
#     4   9  16  26  38  54  82 122 167 215 252 281
#     4  12  22  31  45  69  94 118 144 185 231 280
#     4   9  16  26  39  57  83 118 159 203 250 296
#     4  10  18  28  43  65  92 119 147 192 245 292
#     4  11  20  31  48  69  91 119 152 186 235 292
#
# _framework density 17.253727999999999
#
# number of rings (size 3 to 8) (size 9 to 14) (size 15 to 20)
#    0.000    2.231    3.077    1.846    0.000    2.154 
#    0.000    3.077    0.000    2.769    0.000    0.000 
#    0.000    1.231    0.000    0.000    0.000    1.538 
#
# Total GULP energy -289938.504448 kJ/mol
# GULP energy per Si atom -5575.740470 kJ/mol
# Density = 1.721446 g / cm^3
# Si number density = 17.253728 Si / 1000 Ang^3
#
#
#
# Elastic Constant Matrix: (Units=GPa)
#
#
# Indices 1 2 3 4 5 6 
#
# 1 153.7641 44.8462 44.2657 0.0000 0.0000 0.0000
# 2 44.8462 68.7878 18.1086 0.0000 0.0000 0.0000
# 3 44.2657 18.1086 78.5751 0.0000 0.0000 0.0000
# 4 0.0000 0.0000 0.0000 -5.1466 0.0000 0.0000
# 5 0.0000 0.0000 0.0000 0.0000 5.7862 0.0000
# 6 0.0000 0.0000 0.0000 0.0000 0.0000 32.1155
#
#
#
# Elastic Compliance Matrix: (Units=1/GPa)
#
#
# Indices 1 2 3 4 5 6 
#
# 1 0.009070 -0.004863 -0.003989 0.000000 0.000000 0.000000
# 2 -0.004863 0.018084 -0.001428 0.000000 0.000000 0.000000
# 3 -0.003989 -0.001428 0.015303 0.000000 0.000000 0.000000
# 4 0.000000 0.000000 0.000000 -0.194303 0.000000 0.000000
# 5 0.000000 0.000000 0.000000 0.000000 0.172825 0.000000
# 6 0.000000 0.000000 0.000000 0.000000 0.000000 0.031138
#
#
# Mechanical properties :
#
#
# Convention : Reuss Voigt Hill
#
# Bulk Modulus (GPa) = 45.66862 57.28535 51.47698
# Shear Modulus (GPa) = 62.51914 19.47811 40.99863
#
# Velocity S-wave (km/s) = 6.02609 3.36359 4.87994
# Velocity P-wave (km/s) = 8.65706 6.95405 7.85186
#
# Compressibility (1/GPa) = 0.02189687
#
# Stress axis : x y z
#
# Youngs Moduli (GPa) = 110.25109 55.29765 65.34682
#
# Poissons Ratio (x) = 0.26892 0.26067
# Poissons Ratio (y) = 0.53618 0.09331
# Poissons Ratio (z) = 0.43979 0.07896
#
# Static dielectric constant tensor:
#      x y z
#    x 1.589310 0.000000 0.000000 
#    y 0.000000 1.630570 0.000000 
#    z 0.000000 0.000000 1.561110 
# 
# From -- ./inp_files/20065.got.cif
#   From: 2010.05.17/outbox.cif.g08.bks.cpg/sg47_11_cif.got.tgz:20065.got - 2010.06.03 20:15:42.
