data_PCOD9381178
_publ_section_title
;
Structure prediction by ZEFSAII (Michael W. Deem and Ramdas Pophale) SiO2 
 PCOD9381178
Probable space group: P M M M
;
_chemical_formula_sum "Si O2"
_cell_formula_units_Z 56
_cell_length_a 16.197335
_cell_length_b 13.731152
_cell_length_c 19.099385
_cell_angle_alpha 90.000000
_cell_angle_beta 90.000000
_cell_angle_gamma 90.000000
_cell_volume 4247.857335
_symmetry_space_group_name_H-M "P M M M"
_symmetry_group_IT_number 47
_symmetry_cell_setting 'orthorhombic'
loop_
_space_group_symop_operation_xyz
x,y,z
-x,-y,z
x,-y,-z
-x,y,-z
-x,-y,-z
x,y,-z
-x,y,z
x,-y,z
loop_
_atom_site_type_symbol
_atom_site_label
_atom_site_fract_x
_atom_site_fract_y
_atom_site_fract_z
Si Si1 0.100605 0.820853 0.179665
Si Si2 0.592105 0.611657 0.584929
Si Si3 0.899863 0.000000 0.079983
Si Si4 0.000000 0.118223 0.579293
Si Si5 0.905656 0.614842 0.376589
Si Si6 0.098249 0.391716 0.208370
Si Si7 0.839051 0.884774 0.668653
Si Si8 0.250705 0.262073 0.418782
O O1 0.126178 0.707481 0.170068
O O2 0.140059 0.855211 0.252546
O O3 0.000000 0.823087 0.186819
O O4 0.123390 0.901179 0.121459
O O5 0.591977 0.610198 0.500000
O O6 0.500000 0.643419 0.607067
O O7 0.604439 0.500000 0.608060
O O8 0.668747 0.678322 0.604600
O O9 0.000000 0.000000 0.078728
O O10 0.870450 0.000000 0.000000
O O11 0.081136 0.144146 0.622311
O O12 0.000000 0.155159 0.500000
O O13 0.000000 0.000000 0.575844
O O14 0.901615 0.500000 0.393135
O O15 0.893245 0.624109 0.292303
O O16 0.830612 0.669957 0.412869
O O17 0.000000 0.647128 0.392887
O O18 0.132606 0.500000 0.191296
O O19 0.000000 0.397200 0.195742
O O20 0.764901 0.827295 0.632991
O O21 0.828316 0.000000 0.664514
O O22 0.259684 0.231968 0.500000
#
# Coordination Sequence:
#
# PCOD9381178 Si02
#       8
#     8   8   4   4   8   8   8   8
#     4  10  16  26  44  57  74 108 142 177 214 255
#     4   8  15  30  49  63  74  93 129 180 232 271
#     4   9  18  28  42  64  80  94 133 192 233 241
#     4   9  18  28  36  46  69 107 149 184 207 238
#     4   9  17  27  36  50  78 108 135 167 203 248
#     4   8  14  24  37  53  72 101 137 165 192 241
#     4  11  20  29  39  53  76 108 146 174 212 253
#     4  11  21  28  39  57  78 104 139 181 219 254
#
# _framework density 13.183116999999999
#
# number of rings (size 3 to 8) (size 9 to 14) (size 15 to 20)
#    0.000    2.571    2.857    2.143    1.000    2.000 
#    0.000    0.714    0.000    0.857    0.000    5.000 
#    0.000    0.000    0.000    0.000    0.000    1.429 
#
# Total GULP energy -311811.054251 kJ/mol
# GULP energy per Si atom -5568.054540 kJ/mol
# Density = 1.315311 g / cm^3
# Si number density = 13.183117 Si / 1000 Ang^3
#
#
#
# Elastic Constant Matrix: (Units=GPa)
#
#
# Indices 1 2 3 4 5 6 
#
# 1 56.1696 38.6576 14.1676 0.0000 0.0000 0.0000
# 2 38.6576 103.2998 41.4946 0.0000 0.0000 0.0000
# 3 14.1676 41.4946 62.0639 0.0000 0.0000 0.0000
# 4 0.0000 0.0000 0.0000 12.4256 0.0000 0.0000
# 5 0.0000 0.0000 0.0000 0.0000 0.1132 0.0000
# 6 0.0000 0.0000 0.0000 0.0000 0.0000 13.6930
#
#
#
# Elastic Compliance Matrix: (Units=1/GPa)
#
#
# Indices 1 2 3 4 5 6 
#
# 1 0.024003 -0.009271 0.000720 0.000000 0.000000 0.000000
# 2 -0.009271 0.016816 -0.009127 0.000000 0.000000 0.000000
# 3 0.000720 -0.009127 0.022050 0.000000 0.000000 0.000000
# 4 0.000000 0.000000 0.000000 0.080479 0.000000 0.000000
# 5 0.000000 0.000000 0.000000 0.000000 8.834508 0.000000
# 6 0.000000 0.000000 0.000000 0.000000 0.000000 0.073030
#
#
# Mechanical properties :
#
#
# Convention : Reuss Voigt Hill
#
# Bulk Modulus (GPa) = 36.34793 45.57479 40.96136
# Shear Modulus (GPa) = 0.54973 13.72725 7.13849
#
# Velocity S-wave (km/s) = 0.64645 3.23038 2.32951
# Velocity P-wave (km/s) = 5.30930 6.96846 6.19468
#
# Compressibility (1/GPa) = 0.02751188
#
# Stress axis : x y z
#
# Youngs Moduli (GPa) = 41.66208 59.46628 45.35146
#
# Poissons Ratio (x) = 0.55134 -0.03263
# Poissons Ratio (y) = 0.38627 0.41390
# Poissons Ratio (z) = -0.02998 0.54272
#
# Static dielectric constant tensor:
#      x y z
#    x 1.409880 0.000000 0.000000 
#    y 0.000000 1.486020 0.000000 
#    z 0.000000 0.000000 1.422700 
# 
# From -- ./inp_files/28284.got.cif
#   From: 2010.05.17/outbox.cif.g08.bks.cpg/sg47_15_cif.got.tgz:28284.got - 2010.06.03 20:15:42.
