data_PCOD9381695
_publ_section_title
;
Structure prediction by ZEFSAII (Michael W. Deem and Ramdas Pophale) SiO2 
 PCOD9381695
Probable space group: P M M M
;
_chemical_formula_sum "Si O2"
_cell_formula_units_Z 52
_cell_length_a 24.726709
_cell_length_b 7.667728
_cell_length_c 14.165241
_cell_angle_alpha 90.000000
_cell_angle_beta 90.000000
_cell_angle_gamma 90.000000
_cell_volume 2685.696815
_symmetry_space_group_name_H-M "P M M M"
_symmetry_group_IT_number 47
_symmetry_cell_setting 'orthorhombic'
loop_
_space_group_symop_operation_xyz
x,y,z
-x,-y,z
x,-y,-z
-x,y,-z
-x,-y,-z
x,y,-z
-x,y,z
x,-y,z
loop_
_atom_site_type_symbol
_atom_site_label
_atom_site_fract_x
_atom_site_fract_y
_atom_site_fract_z
Si Si1 0.561170 0.290681 0.705988
Si Si2 0.939423 0.712636 0.609422
Si Si3 0.667503 0.209552 0.790255
Si Si4 0.277108 0.795417 0.602971
Si Si5 0.228221 0.789299 0.104227
Si Si6 0.434149 0.700740 0.500000
Si Si7 0.169216 0.293102 0.297068
O O1 0.500000 0.228473 0.724176
O O2 0.558536 0.500000 0.695930
O O3 0.604413 0.251581 0.786945
O O4 0.579963 0.220379 0.602241
O O5 0.929466 0.761598 0.500000
O O6 0.940134 0.500000 0.611826
O O7 0.890301 0.771936 0.675281
O O8 0.000000 0.771071 0.635692
O O9 0.690521 0.281929 0.690884
O O10 0.710704 0.269393 0.868085
O O11 0.671721 0.000000 0.789637
O O12 0.287080 0.718006 0.500000
O O13 0.214493 0.783104 0.633056
O O14 0.290772 0.000000 0.598565
O O15 0.188949 0.740683 0.190385
O O16 0.228624 0.000000 0.101929
O O17 0.213117 0.725878 0.000000
O O18 0.584984 0.500000 0.500000
O O19 0.500000 0.697391 0.500000
O O20 0.170048 0.500000 0.311981
#
# Coordination Sequence:
#
# PCOD9381695 Si02
#       7
#     8   8   8   8   8   4   8
#     4   9  17  29  44  62  88 122 154 182 219 270
#     4   8  14  25  42  67 102 140 168 189 220 265
#     4   9  18  30  46  68  88 110 148 194 233 271
#     4   9  18  31  44  61  93 133 162 188 229 279
#     4   9  19  37  56  69  87 120 156 191 241 299
#     4   7  12  24  39  55  79 115 153 177 196 239
#     4  10  18  28  47  75  99 119 155 203 242 276
#
# _framework density 19.361827999999999
#
# number of rings (size 3 to 8) (size 9 to 14) (size 15 to 20)
#    0.000    3.154    0.000    3.231    1.077    4.000 
#    0.000    0.000    0.000    4.154    0.000   11.846 
#    0.000    0.000    0.000    0.000    0.000    0.000 
#
# Total GULP energy -289716.783814 kJ/mol
# GULP energy per Si atom -5571.476612 kJ/mol
# Density = 1.931776 g / cm^3
# Si number density = 19.361828 Si / 1000 Ang^3
#
#
#
# Elastic Constant Matrix: (Units=GPa)
#
#
# Indices 1 2 3 4 5 6 
#
# 1 115.1532 -3.5315 26.3572 0.0000 0.0000 0.0000
# 2 -3.5315 36.7170 1.1484 0.0000 0.0000 0.0000
# 3 26.3572 1.1484 59.0863 0.0000 0.0000 0.0000
# 4 0.0000 0.0000 0.0000 12.4457 0.0000 0.0000
# 5 0.0000 0.0000 0.0000 0.0000 18.9328 0.0000
# 6 0.0000 0.0000 0.0000 0.0000 0.0000 21.7056
#
#
#
# Elastic Compliance Matrix: (Units=1/GPa)
#
#
# Indices 1 2 3 4 5 6 
#
# 1 0.009713 0.001070 -0.004354 0.000000 0.000000 0.000000
# 2 0.001070 0.027370 -0.001009 0.000000 0.000000 0.000000
# 3 -0.004354 -0.001009 0.018886 0.000000 0.000000 0.000000
# 4 0.000000 0.000000 0.000000 0.080349 0.000000 0.000000
# 5 0.000000 0.000000 0.000000 0.000000 0.052818 0.000000
# 6 0.000000 0.000000 0.000000 0.000000 0.000000 0.046071
#
#
# Mechanical properties :
#
#
# Convention : Reuss Voigt Hill
#
# Bulk Modulus (GPa) = 21.10424 28.76719 24.93572
# Shear Modulus (GPa) = 19.26127 23.08231 21.17179
#
# Velocity S-wave (km/s) = 3.15748 3.45651 3.31037
# Velocity P-wave (km/s) = 4.92102 5.55156 5.24578
#
# Compressibility (1/GPa) = 0.04738384
#
# Stress axis : x y z
#
# Youngs Moduli (GPa) = 102.95017 36.53652 52.94886
#
# Poissons Ratio (x) = -0.03911 0.23053
# Poissons Ratio (y) = -0.11020 0.05345
# Poissons Ratio (z) = 0.44822 0.03688
#
# Static dielectric constant tensor:
#      x y z
#    x 1.713720 0.000000 0.000000 
#    y 0.000000 1.721530 0.000000 
#    z 0.000000 0.000000 1.687210 
# 
# From -- ./inp_files/25467.got.cif
#   From: 2010.05.17/outbox.cif.g08.bks.cpg/sg47_13_cif.got.tgz:25467.got - 2010.06.03 20:15:42.
