data_PCOD9381866
_publ_section_title
;
Structure prediction by ZEFSAII (Michael W. Deem and Ramdas Pophale) SiO2 
 PCOD9381866
Probable space group: P M M M
;
_chemical_formula_sum "Si O2"
_cell_formula_units_Z 48
_cell_length_a 7.973370
_cell_length_b 29.789440
_cell_length_c 11.053753
_cell_angle_alpha 90.000000
_cell_angle_beta 90.000000
_cell_angle_gamma 90.000000
_cell_volume 2625.512032
_symmetry_space_group_name_H-M "P M M M"
_symmetry_group_IT_number 47
_symmetry_cell_setting 'orthorhombic'
loop_
_space_group_symop_operation_xyz
x,y,z
-x,-y,z
x,-y,-z
-x,y,-z
-x,-y,-z
x,y,-z
-x,y,z
x,-y,z
loop_
_atom_site_type_symbol
_atom_site_label
_atom_site_fract_x
_atom_site_fract_y
_atom_site_fract_z
Si Si1 0.702238 0.614436 0.139504
Si Si2 0.196258 0.810938 0.859579
Si Si3 0.000000 0.050430 0.359065
Si Si4 0.202345 0.448006 0.635744
Si Si5 0.306349 0.100306 0.245956
Si Si6 0.701914 0.050241 0.000000
Si Si7 0.307542 0.713238 0.853645
O O1 0.500000 0.617655 0.132575
O O2 0.743919 0.580097 0.246719
O O3 0.764855 0.664318 0.177159
O O4 0.759002 0.603916 0.000000
O O5 0.289181 0.846566 0.775603
O O6 0.217909 0.759350 0.819577
O O7 0.000000 0.822320 0.859022
O O8 0.257071 0.814375 0.000000
O O9 0.166686 0.078765 0.330106
O O10 0.000000 0.043997 0.500000
O O11 0.000000 0.000000 0.301315
O O12 0.257899 0.432529 0.500000
O O13 0.256291 0.500000 0.648526
O O14 0.000000 0.447461 0.634250
O O15 0.500000 0.088997 0.275212
O O16 0.256511 0.078142 0.117803
O O17 0.500000 0.046695 0.000000
O O18 0.771810 0.000000 0.000000
O O19 0.500000 0.716100 0.811120
O O20 0.309995 0.712630 0.000000
#
# Coordination Sequence:
#
# PCOD9381866 Si02
#       7
#     8   8   4   8   8   4   8
#     4   9  18  32  50  76 108 139 176 223 274 325
#     4  10  18  29  49  82 118 146 176 214 263 327
#     4  11  26  45  61  79 105 142 193 241 272 313
#     4   9  19  35  52  71  99 137 180 224 272 329
#     4  11  21  36  59  85 114 146 177 218 276 333
#     4   9  18  31  51  83 116 143 171 206 264 337
#     4   8  15  28  46  70 105 144 175 210 258 314
#
# _framework density 18.282147999999999
#
# number of rings (size 3 to 8) (size 9 to 14) (size 15 to 20)
#    0.000    2.500    1.667    2.500    0.000    4.333 
#    0.000    5.833    0.000    1.000    0.000    2.333 
#    0.000    0.000    0.000    0.000    0.000    0.000 
#
# Total GULP energy -267280.979583 kJ/mol
# GULP energy per Si atom -5568.353741 kJ/mol
# Density = 1.824054 g / cm^3
# Si number density = 18.282148 Si / 1000 Ang^3
#
#
#
# Elastic Constant Matrix: (Units=GPa)
#
#
# Indices 1 2 3 4 5 6 
#
# 1 62.9681 25.7561 27.4636 0.0000 0.0000 0.0000
# 2 25.7561 124.7514 56.6118 0.0000 0.0000 0.0000
# 3 27.4636 56.6118 83.7732 0.0000 0.0000 0.0000
# 4 0.0000 0.0000 0.0000 22.4062 0.0000 0.0000
# 5 0.0000 0.0000 0.0000 0.0000 34.5406 0.0000
# 6 0.0000 0.0000 0.0000 0.0000 0.0000 7.5105
#
#
#
# Elastic Compliance Matrix: (Units=1/GPa)
#
#
# Indices 1 2 3 4 5 6 
#
# 1 0.018739 -0.001559 -0.005089 0.000000 0.000000 0.000000
# 2 -0.001559 0.011691 -0.007389 0.000000 0.000000 0.000000
# 3 -0.005089 -0.007389 0.018599 0.000000 0.000000 0.000000
# 4 0.000000 0.000000 0.000000 0.044631 0.000000 0.000000
# 5 0.000000 0.000000 0.000000 0.000000 0.028951 0.000000
# 6 0.000000 0.000000 0.000000 0.000000 0.000000 0.133148
#
#
# Mechanical properties :
#
#
# Convention : Reuss Voigt Hill
#
# Bulk Modulus (GPa) = 47.72665 54.57285 51.14975
# Shear Modulus (GPa) = 17.19283 23.66887 20.43085
#
# Velocity S-wave (km/s) = 3.06995 3.60202 3.34657
# Velocity P-wave (km/s) = 6.22321 6.87128 6.55526
#
# Compressibility (1/GPa) = 0.02095266
#
# Stress axis : x y z
#
# Youngs Moduli (GPa) = 53.36582 85.53480 53.76615
#
# Poissons Ratio (x) = 0.13336 0.27364
# Poissons Ratio (y) = 0.08321 0.39730
# Poissons Ratio (z) = 0.27160 0.63205
#
# Static dielectric constant tensor:
#      x y z
#    x 1.651800 0.000000 0.000000 
#    y 0.000000 1.669510 0.000000 
#    z 0.000000 0.000000 1.613590 
# 
# From -- ./inp_files/2736.got.cif
#   From: 2010.05.17/outbox.cif.g08.bks.cpg/sg47_2_cif.got.tgz:2736.got - 2010.06.03 20:15:42.
