data_PCOD9381973
_publ_section_title
;
Structure prediction by ZEFSAII (Michael W. Deem and Ramdas Pophale) SiO2 
 PCOD9381973
Probable space group: P M M M
;
_chemical_formula_sum "Si O2"
_cell_formula_units_Z 52
_cell_length_a 24.259064
_cell_length_b 14.875677
_cell_length_c 7.660604
_cell_angle_alpha 90.000000
_cell_angle_beta 90.000000
_cell_angle_gamma 90.000000
_cell_volume 2764.482168
_symmetry_space_group_name_H-M "P M M M"
_symmetry_group_IT_number 47
_symmetry_cell_setting 'orthorhombic'
loop_
_space_group_symop_operation_xyz
x,y,z
-x,-y,z
x,-y,-z
-x,y,-z
-x,-y,-z
x,y,-z
-x,y,z
x,-y,z
loop_
_atom_site_type_symbol
_atom_site_label
_atom_site_fract_x
_atom_site_fract_y
_atom_site_fract_z
Si Si1 0.226366 0.599954 0.707386
Si Si2 0.275372 0.785685 0.209839
Si Si3 0.379662 0.103142 0.791734
Si Si4 0.168654 0.103316 0.213536
Si Si5 0.060721 0.210165 0.213880
Si Si6 0.500000 0.102221 0.292445
Si Si7 0.099813 0.400645 0.203830
O O1 0.218353 0.598491 0.500000
O O2 0.244639 0.500000 0.763727
O O3 0.267023 0.681145 0.749053
O O4 0.165685 0.616016 0.787019
O O5 0.330633 0.834043 0.276105
O O6 0.221163 0.838995 0.272668
O O7 0.275706 0.792992 0.000000
O O8 0.441000 0.141146 0.760395
O O9 0.376750 0.000000 0.722396
O O10 0.372759 0.096729 0.000000
O O11 0.111664 0.148968 0.270539
O O12 0.172957 0.000000 0.268005
O O13 0.168952 0.104420 0.000000
O O14 0.070513 0.312485 0.276151
O O15 0.000000 0.178443 0.265194
O O16 0.062404 0.211590 0.000000
O O17 0.500000 0.097535 0.500000
O O18 0.500000 0.000000 0.218736
O O19 0.089223 0.500000 0.280658
O O20 0.084305 0.405296 0.000000
#
# Coordination Sequence:
#
# PCOD9381973 Si02
#       7
#     8   8   8   8   8   4   8
#     4  10  20  32  47  68  93 120 150 188 236 287
#     4  10  18  30  49  72  95 122 157 195 235 278
#     4   9  17  29  47  72 101 132 165 199 233 271
#     4   9  16  26  41  63  92 121 150 190 236 277
#     4   9  16  25  39  63  91 117 149 189 235 285
#     4   9  17  29  45  67 100 139 172 199 229 268
#     4   9  16  28  46  65  86 113 146 188 238 289
#
# _framework density 18.810033000000001
#
# number of rings (size 3 to 8) (size 9 to 14) (size 15 to 20)
#    0.000    2.692    1.538    1.154    0.000    4.923 
#    0.000    3.077    0.000    1.846    0.000    2.692 
#    0.000    5.538    0.000    0.000    0.000    0.000 
#
# Total GULP energy -289980.124314 kJ/mol
# GULP energy per Si atom -5576.540852 kJ/mol
# Density = 1.876722 g / cm^3
# Si number density = 18.810033 Si / 1000 Ang^3
#
#
#
# Elastic Constant Matrix: (Units=GPa)
#
#
# Indices 1 2 3 4 5 6 
#
# 1 146.2518 73.8250 1.9590 0.0000 0.0000 0.0000
# 2 73.8250 112.0496 1.5723 0.0000 0.0000 0.0000
# 3 1.9590 1.5723 36.5141 0.0000 0.0000 0.0000
# 4 0.0000 0.0000 0.0000 0.1921 0.0000 0.0000
# 5 0.0000 0.0000 0.0000 0.0000 -34.6162 0.0000
# 6 0.0000 0.0000 0.0000 0.0000 0.0000 -10.5122
#
#
#
# Elastic Compliance Matrix: (Units=1/GPa)
#
#
# Indices 1 2 3 4 5 6 
#
# 1 0.010247 -0.006748 -0.000259 0.000000 0.000000 0.000000
# 2 -0.006748 0.013373 -0.000214 0.000000 0.000000 0.000000
# 3 -0.000259 -0.000214 0.027410 0.000000 0.000000 0.000000
# 4 0.000000 0.000000 0.000000 5.204462 0.000000 0.000000
# 5 0.000000 0.000000 0.000000 0.000000 -0.028888 0.000000
# 6 0.000000 0.000000 0.000000 0.000000 0.000000 -0.095127
#
#
# Mechanical properties :
#
#
# Convention : Reuss Voigt Hill
#
# Bulk Modulus (GPa) = 27.33082 49.94757 38.63919
# Shear Modulus (GPa) = 0.96935 5.51003 3.23969
#
# Velocity S-wave (km/s) = 0.71865 1.71338 1.31380
# Velocity P-wave (km/s) = 3.90513 5.52499 4.78412
#
# Compressibility (1/GPa) = 0.03658873
#
# Stress axis : x y z
#
# Youngs Moduli (GPa) = 97.58804 74.77482 36.48331
#
# Poissons Ratio (x) = 0.50457 0.00946
# Poissons Ratio (y) = 0.65851 0.00780
# Poissons Ratio (z) = 0.02529 0.01599
#
# Static dielectric constant tensor:
#      x y z
#    x 1.650110 0.000000 0.000000 
#    y 0.000000 1.660660 0.000000 
#    z 0.000000 0.000000 1.701850 
# 
# From -- ./inp_files/12567.got.cif
#   From: 2010.05.17/outbox.cif.g08.bks.cpg/sg47_7_cif.got.tgz:12567.got - 2010.06.03 20:15:42.
