data_PCOD9381954
_publ_section_title
;
Structure prediction by ZEFSAII (Michael W. Deem and Ramdas Pophale) SiO2 
 PCOD9381954
Probable space group: P M M M
;
_chemical_formula_sum "Si O2"
_cell_formula_units_Z 40
_cell_length_a 23.936342
_cell_length_b 9.116835
_cell_length_c 12.040919
_cell_angle_alpha 90.000000
_cell_angle_beta 90.000000
_cell_angle_gamma 90.000000
_cell_volume 2627.613661
_symmetry_space_group_name_H-M "P M M M"
_symmetry_group_IT_number 47
_symmetry_cell_setting 'orthorhombic'
loop_
_space_group_symop_operation_xyz
x,y,z
-x,-y,z
x,-y,-z
-x,y,-z
-x,-y,-z
x,y,-z
-x,y,z
x,-y,z
loop_
_atom_site_type_symbol
_atom_site_label
_atom_site_fract_x
_atom_site_fract_y
_atom_site_fract_z
Si Si1 0.889417 0.677658 0.238694
Si Si2 0.673458 0.332406 0.365078
Si Si3 0.788556 0.175348 0.631021
Si Si4 0.000000 0.678109 0.373960
Si Si5 0.438006 0.171413 0.634983
Si Si6 0.935003 0.678329 0.000000
O O1 0.883851 0.500000 0.243184
O O2 0.835772 0.751102 0.293696
O O3 0.944127 0.720637 0.309535
O O4 0.902927 0.721059 0.112018
O O5 0.671069 0.332993 0.500000
O O6 0.680044 0.500000 0.328180
O O7 0.727635 0.236898 0.336676
O O8 0.615019 0.263545 0.325616
O O9 0.797930 0.212651 0.500000
O O10 0.789664 0.000000 0.640677
O O11 0.000000 0.500000 0.376023
O O12 0.000000 0.731736 0.500000
O O13 0.437849 0.177677 0.500000
O O14 0.500000 0.221296 0.670876
O O15 0.431554 0.000000 0.664254
O O16 0.937407 0.500000 0.000000
O O17 0.000000 0.727712 0.000000
#
# Coordination Sequence:
#
# PCOD9381954 Si02
#       6
#     8   8   8   4   8   4
#     4  10  18  30  49  69  89 112 143 180 217 262
#     4   9  16  25  38  56  78 107 145 186 223 259
#     4  10  20  32  44  60  86 118 149 182 224 271
#     4   9  16  25  42  68  91 111 138 173 210 250
#     4   8  13  21  33  50  75 109 146 180 215 256
#     4   9  16  30  51  73  91 111 140 177 220 265
#
# _framework density 15.222937999999999
#
# number of rings (size 3 to 8) (size 9 to 14) (size 15 to 20)
#    0.000    2.800    1.000    2.400    0.000    4.800 
#    0.000    3.000    0.000    2.400    0.000    0.000 
#    0.000    0.000    0.000    0.900    0.000   17.800 
#
# Total GULP energy -222765.017488 kJ/mol
# GULP energy per Si atom -5569.125437 kJ/mol
# Density = 1.518829 g / cm^3
# Si number density = 15.222938 Si / 1000 Ang^3
#
#
#
# Elastic Constant Matrix: (Units=GPa)
#
#
# Indices 1 2 3 4 5 6 
#
# 1 155.5928 56.2224 57.2159 0.0000 0.0000 0.0000
# 2 56.2224 48.4403 29.6152 0.0000 0.0000 0.0000
# 3 57.2159 29.6152 76.8729 0.0000 0.0000 0.0000
# 4 0.0000 0.0000 0.0000 9.7702 0.0000 0.0000
# 5 0.0000 0.0000 0.0000 0.0000 0.0241 0.0000
# 6 0.0000 0.0000 0.0000 0.0000 0.0000 86.9250
#
#
#
# Elastic Compliance Matrix: (Units=1/GPa)
#
#
# Indices 1 2 3 4 5 6 
#
# 1 0.012276 -0.011331 -0.004772 0.000000 0.000000 0.000000
# 2 -0.011331 0.037463 -0.005999 0.000000 0.000000 0.000000
# 3 -0.004772 -0.005999 0.018871 0.000000 0.000000 0.000000
# 4 0.000000 0.000000 0.000000 0.102352 0.000000 0.000000
# 5 0.000000 0.000000 0.000000 0.000000 41.473126 0.000000
# 6 0.000000 0.000000 0.000000 0.000000 0.000000 0.011504
#
#
# Mechanical properties :
#
#
# Convention : Reuss Voigt Hill
#
# Bulk Modulus (GPa) = 40.97228 63.00145 51.98686
# Shear Modulus (GPa) = 0.11988 28.53405 14.32697
#
# Velocity S-wave (km/s) = 0.28093 4.33414 3.07113
# Velocity P-wave (km/s) = 5.20370 8.15611 6.84107
#
# Compressibility (1/GPa) = 0.02440675
#
# Stress axis : x y z
#
# Youngs Moduli (GPa) = 81.45903 26.69307 52.99084
#
# Poissons Ratio (x) = 0.30246 0.25286
# Poissons Ratio (y) = 0.92301 0.31789
# Poissons Ratio (z) = 0.38870 0.16013
#
# Static dielectric constant tensor:
#      x y z
#    x 1.505870 0.000000 0.000000 
#    y 0.000000 1.510420 0.000000 
#    z 0.000000 0.000000 1.485060 
# 
# From -- ./inp_files/18948.got.cif
#   From: 2010.05.17/outbox.cif.g08.bks.cpg/sg47_10_cif.got.tgz:18948.got - 2010.06.03 20:15:42.
