data_PCOD9381414
_publ_section_title
;
Structure prediction by ZEFSAII (Michael W. Deem and Ramdas Pophale) SiO2 
 PCOD9381414
Probable space group: P M M M
;
_chemical_formula_sum "Si O2"
_cell_formula_units_Z 40
_cell_length_a 21.488246
_cell_length_b 7.587616
_cell_length_c 12.106261
_cell_angle_alpha 90.000000
_cell_angle_beta 90.000000
_cell_angle_gamma 90.000000
_cell_volume 1973.859988
_symmetry_space_group_name_H-M "P M M M"
_symmetry_group_IT_number 47
_symmetry_cell_setting 'orthorhombic'
loop_
_space_group_symop_operation_xyz
x,y,z
-x,-y,z
x,-y,-z
-x,y,-z
-x,-y,-z
x,y,-z
-x,y,z
x,-y,z
loop_
_atom_site_type_symbol
_atom_site_label
_atom_site_fract_x
_atom_site_fract_y
_atom_site_fract_z
Si Si1 0.238739 0.784971 0.000000
Si Si2 0.810734 0.711009 0.375029
Si Si3 0.429779 0.214973 0.128127
Si Si4 0.903813 0.788729 0.000000
Si Si5 0.304196 0.788059 0.223830
Si Si6 0.933040 0.291919 0.248428
O O1 0.167690 0.730008 0.000000
O O2 0.271707 0.725259 0.888988
O O3 0.240471 0.000000 0.000000
O O4 0.814289 0.778943 0.500000
O O5 0.817067 0.500000 0.378703
O O6 0.743267 0.743666 0.321249
O O7 0.868977 0.779880 0.301571
O O8 0.500000 0.273712 0.153749
O O9 0.375594 0.273543 0.211622
O O10 0.430376 0.000000 0.128900
O O11 0.415602 0.264013 0.000000
O O12 0.930924 0.727683 0.116150
O O13 0.907138 0.000000 0.000000
O O14 0.306480 0.000000 0.221113
O O15 0.933760 0.500000 0.273184
O O16 0.000000 0.218285 0.287457
#
# Coordination Sequence:
#
# PCOD9381414 Si02
#       6
#     4   8   8   4   8   8
#     4   9  16  26  45  75 103 127 154 191 237 289
#     4  10  22  38  53  70  93 125 169 215 253 289
#     4   8  13  22  42  75 109 135 158 189 234 288
#     4  11  20  32  51  77 108 133 155 190 241 301
#     4  10  17  30  52  76 103 131 162 199 242 292
#     4  10  21  36  53  73  98 128 162 202 248 297
#
# _framework density 20.264863999999999
#
# number of rings (size 3 to 8) (size 9 to 14) (size 15 to 20)
#    0.000    2.400    3.000    1.200    0.000    2.400 
#    0.000    2.500    0.000    1.200    0.000    8.400 
#    0.000    0.000    0.000    0.000    0.000    0.000 
#
# Total GULP energy -223042.223627 kJ/mol
# GULP energy per Si atom -5576.055591 kJ/mol
# Density = 2.021874 g / cm^3
# Si number density = 20.264864 Si / 1000 Ang^3
#
#
#
# Elastic Constant Matrix: (Units=GPa)
#
#
# Indices 1 2 3 4 5 6 
#
# 1 203.5916 9.2515 78.2427 0.0000 0.0000 0.0000
# 2 9.2515 44.3813 -1.5471 0.0000 0.0000 0.0000
# 3 78.2427 -1.5471 109.3310 0.0000 0.0000 0.0000
# 4 0.0000 0.0000 0.0000 14.8603 0.0000 0.0000
# 5 0.0000 0.0000 0.0000 0.0000 -2.2360 0.0000
# 6 0.0000 0.0000 0.0000 0.0000 0.0000 12.5025
#
#
#
# Elastic Compliance Matrix: (Units=1/GPa)
#
#
# Indices 1 2 3 4 5 6 
#
# 1 0.006888 -0.001608 -0.004952 0.000000 0.000000 0.000000
# 2 -0.001608 0.022919 0.001475 0.000000 0.000000 0.000000
# 3 -0.004952 0.001475 0.012711 0.000000 0.000000 0.000000
# 4 0.000000 0.000000 0.000000 0.067293 0.000000 0.000000
# 5 0.000000 0.000000 0.000000 0.000000 -0.447219 0.000000
# 6 0.000000 0.000000 0.000000 0.000000 0.000000 0.079984
#
#
# Mechanical properties :
#
#
# Convention : Reuss Voigt Hill
#
# Bulk Modulus (GPa) = 30.91410 58.79982 44.85696
# Shear Modulus (GPa) = -21.14434 23.11581 0.98573
#
# Velocity S-wave (km/s) = -3.23367 3.38107 0.69820
# Velocity P-wave (km/s) = 1.16015 6.65739 4.77843
#
# Compressibility (1/GPa) = 0.03234770
#
# Stress axis : x y z
#
# Youngs Moduli (GPa) = 145.17829 43.63246 78.66914
#
# Poissons Ratio (x) = 0.07018 0.38959
# Poissons Ratio (y) = 0.23352 -0.11607
# Poissons Ratio (z) = 0.71895 -0.06438
#
# Static dielectric constant tensor:
#      x y z
#    x 1.768010 0.000000 0.000000 
#    y 0.000000 1.774310 0.000000 
#    z 0.000000 0.000000 1.686410 
# 
# From -- ./inp_files/18954.got.cif
#   From: 2010.05.17/outbox.cif.g08.bks.cpg/sg47_10_cif.got.tgz:18954.got - 2010.06.03 20:15:42.
