data_PCOD9381421
_publ_section_title
;
Structure prediction by ZEFSAII (Michael W. Deem and Ramdas Pophale) SiO2 
 PCOD9381421
Probable space group: P M M M
;
_chemical_formula_sum "Si O2"
_cell_formula_units_Z 52
_cell_length_a 7.755017
_cell_length_b 11.300298
_cell_length_c 28.916134
_cell_angle_alpha 90.000000
_cell_angle_beta 90.000000
_cell_angle_gamma 90.000000
_cell_volume 2534.036576
_symmetry_space_group_name_H-M "P M M M"
_symmetry_group_IT_number 47
_symmetry_cell_setting 'orthorhombic'
loop_
_space_group_symop_operation_xyz
x,y,z
-x,-y,z
x,-y,-z
-x,y,-z
-x,-y,-z
x,y,-z
-x,y,z
x,-y,z
loop_
_atom_site_type_symbol
_atom_site_label
_atom_site_fract_x
_atom_site_fract_y
_atom_site_fract_z
Si Si1 0.208613 0.631099 0.860460
Si Si2 0.199298 0.632210 0.679431
Si Si3 0.702072 0.253257 0.767549
Si Si4 0.294312 0.000000 0.782981
Si Si5 0.000000 0.141769 0.448179
Si Si6 0.301485 0.862067 0.376906
Si Si7 0.789587 0.767457 0.947524
Si Si8 0.208746 0.000000 0.108692
O O1 0.265439 0.500000 0.848441
O O2 0.277067 0.717737 0.821426
O O3 0.260992 0.664183 0.912371
O O4 0.000000 0.637302 0.858808
O O5 0.269956 0.500000 0.668241
O O6 0.209222 0.652316 0.734579
O O7 0.282039 0.752457 0.658779
O O8 0.000000 0.633218 0.664864
O O9 0.500000 0.255092 0.756188
O O10 0.774826 0.121043 0.761592
O O11 0.500000 0.000000 0.775031
O O12 0.268551 0.000000 0.838382
O O13 0.169205 0.168325 0.417995
O O14 0.000000 0.192757 0.500000
O O15 0.000000 0.000000 0.452523
O O16 0.500000 0.863444 0.392189
O O17 0.263833 0.000000 0.360985
O O18 0.000000 0.768926 0.949636
O O19 0.736619 0.886127 0.920681
O O20 0.727045 0.760020 0.000000
O O21 0.000000 0.000000 0.110674
#
# Coordination Sequence:
#
# PCOD9381421 Si02
#       8
#     8   8   8   4   4   8   8   4
#     4  10  20  34  52  74 101 133 174 222 268 327
#     4  11  24  41  62  89 123 164 209 258 314 377
#     4  11  23  38  56  79 109 145 187 234 290 353
#     4  10  22  37  53  77 108 138 174 229 285 342
#     4   9  18  36  63  97 139 181 225 277 330 379
#     4  10  21  38  63  96 134 175 222 273 326 381
#     4   9  17  29  48  75 101 124 158 209 268 329
#     4  10  17  30  54  76  96 124 164 208 265 331
#
# _framework density 20.520620000000001
#
# number of rings (size 3 to 8) (size 9 to 14) (size 15 to 20)
#    0.000    1.923    2.308    1.615    1.077    5.538 
#    0.000    3.077    0.000    3.231    0.000    2.154 
#    0.000    0.000    0.000    0.000    0.000    0.000 
#
# Total GULP energy -290060.223394 kJ/mol
# GULP energy per Si atom -5578.081219 kJ/mol
# Density = 2.047391 g / cm^3
# Si number density = 20.520620 Si / 1000 Ang^3
#
#
#
# Elastic Constant Matrix: (Units=GPa)
#
#
# Indices 1 2 3 4 5 6 
#
# 1 57.7197 22.0046 12.7038 0.0000 0.0000 0.0000
# 2 22.0046 125.3458 33.3187 0.0000 0.0000 0.0000
# 3 12.7038 33.3187 80.5174 0.0000 0.0000 0.0000
# 4 0.0000 0.0000 0.0000 14.2618 0.0000 0.0000
# 5 0.0000 0.0000 0.0000 0.0000 -77.3645 0.0000
# 6 0.0000 0.0000 0.0000 0.0000 0.0000 7.7248
#
#
#
# Elastic Compliance Matrix: (Units=1/GPa)
#
#
# Indices 1 2 3 4 5 6 
#
# 1 0.018797 -0.002822 -0.001798 0.000000 0.000000 0.000000
# 2 -0.002822 0.009388 -0.003439 0.000000 0.000000 0.000000
# 3 -0.001798 -0.003439 0.014127 0.000000 0.000000 0.000000
# 4 0.000000 0.000000 0.000000 0.070117 0.000000 0.000000
# 5 0.000000 0.000000 0.000000 0.000000 -0.012926 0.000000
# 6 0.000000 0.000000 0.000000 0.000000 0.000000 0.129453
#
#
# Mechanical properties :
#
#
# Convention : Reuss Voigt Hill
#
# Bulk Modulus (GPa) = 38.17914 44.40412 41.29163
# Shear Modulus (GPa) = 19.70022 1.96148 10.83085
#
# Velocity S-wave (km/s) = 3.10178 0.97874 2.29989
# Velocity P-wave (km/s) = 5.61014 4.79197 5.21712
#
# Compressibility (1/GPa) = 0.02619232
#
# Stress axis : x y z
#
# Youngs Moduli (GPa) = 53.20103 106.52407 70.78838
#
# Poissons Ratio (x) = 0.30059 0.12728
# Poissons Ratio (y) = 0.15013 0.24347
# Poissons Ratio (z) = 0.09565 0.36638
#
# Static dielectric constant tensor:
#      x y z
#    x 1.758450 0.000000 0.000000 
#    y 0.000000 1.770930 0.000000 
#    z 0.000000 0.000000 1.716100 
# 
# From -- ./inp_files/33287.got.cif
#   From: 2010.05.17/outbox.cif.g08.bks.cpg/sg47_17_cif.got.tgz:33287.got - 2010.06.03 20:15:42.
