data_PCOD9381154
_publ_section_title
;
Structure prediction by ZEFSAII (Michael W. Deem and Ramdas Pophale) SiO2 
 PCOD9381154
Probable space group: I M A 2
;
_chemical_formula_sum "Si O2"
_cell_formula_units_Z 24
_cell_length_a 9.000000
_cell_length_b 30.000000
_cell_length_c 9.000000
_cell_angle_alpha 90.000000
_cell_angle_beta 90.000000
_cell_angle_gamma 90.000000
_cell_volume 2430.000000
_symmetry_space_group_name_H-M "I M A 2"
_symmetry_group_IT_number 46
_symmetry_cell_setting 'orthorhombic'
loop_
_space_group_symop_operation_xyz
x,y,z
-x,-y,z
1/2-x,y,z
1/2+x,-y,z
1/2+x,1/2+y,1/2+z
1/2-x,1/2-y,1/2+z
-x,1/2+y,1/2+z
x,1/2-y,1/2+z
loop_
_atom_site_type_symbol
_atom_site_label
_atom_site_fract_x
_atom_site_fract_y
_atom_site_fract_z
Si Si1 0.928448 0.708146 0.155990
Si Si2 0.928323 0.390856 0.575332
Si Si3 0.082736 0.046478 0.841887
Si Si4 0.930297 0.291741 0.482967
Si Si5 0.585151 0.607541 0.055794
Si Si6 0.076221 0.951824 0.341010
O O1 0.750000 0.713874 0.172028
O O2 0.951242 0.659494 0.080653
O O3 0.007798 0.707201 0.315690
O O4 0.998063 0.749210 0.064710
O O5 0.750000 0.389346 0.579886
O O6 0.975480 0.339399 0.556374
O O7 0.984075 0.418006 0.716939
O O8 0.982477 0.423694 0.448160
O O9 0.250000 0.036585 0.900824
O O10 0.101766 0.080190 0.706635
O O11 0.000000 0.000000 0.807270
O O12 0.750000 0.288394 0.484468
O O13 0.750000 0.605108 0.981371
O O14 0.456629 0.578621 0.981768
O O15 0.250000 0.959585 0.318710
O O16 0.000000 0.000000 0.345966
#
# Coordination Sequence:
#
# PCOD9381154 Si02
#       6
#     8   8   8   8   8   8
#     4  11  24  44  67  97 130 167 213 263 321 384
#     4  10  23  42  63  91 125 163 208 257 312 374
#     4  11  22  38  62  91 123 160 206 255 310 372
#     4  11  24  43  67  97 130 168 213 263 321 384
#     4  10  23  42  63  91 125 163 209 257 312 375
#     4  11  24  41  62  91 127 167 213 259 312 373
#
# _framework density 9.8765429999999999
#
# number of rings (size 3 to 8) (size 9 to 14) (size 15 to 20)
#    0.000    1.333    1.667    3.000    2.333    7.333 
#    0.000    0.000    0.000    0.000    0.000    0.000 
#    0.000    0.000    0.000    0.000    0.000    0.000 
#
# Total GULP energy -133757.485041 kJ/mol
# GULP energy per Si atom -5573.228543 kJ/mol
# Density = 0.985406 g / cm^3
# Si number density = 9.876543 Si / 1000 Ang^3
#
#
#
# Elastic Constant Matrix: (Units=GPa)
#
#
# Indices 1 2 3 4 5 6 
#
# 1 23.1987 59.8344 4.7114 0.0004 0.0000 0.0000
# 2 59.8344 226.9724 42.8270 0.0004 0.0000 -0.0005
# 3 4.7114 42.8270 50.3149 0.0011 0.0005 0.0000
# 4 0.0004 0.0004 0.0011 29.4969 0.0000 0.0002
# 5 0.0000 0.0000 0.0005 0.0000 22.1956 0.0001
# 6 0.0000 -0.0005 0.0000 0.0002 0.0001 65.4287
#
#
#
# Elastic Compliance Matrix: (Units=1/GPa)
#
#
# Indices 1 2 3 4 5 6 
#
# 1 0.156241 -0.045780 0.024337 -0.000002 -0.000001 0.000000
# 2 -0.045780 0.018663 -0.011599 0.000001 0.000000 0.000000
# 3 0.024337 -0.011599 0.027469 -0.000001 -0.000001 0.000000
# 4 -0.000002 0.000001 -0.000001 0.033902 0.000000 0.000000
# 5 -0.000001 0.000000 -0.000001 0.000000 0.045054 0.000000
# 6 0.000000 0.000000 0.000000 0.000000 0.000000 0.015284
#
#
# Mechanical properties :
#
#
# Convention : Reuss Voigt Hill
#
# Bulk Modulus (GPa) = 7.33738 57.24795 32.29266
# Shear Modulus (GPa) = 12.25114 36.29843 24.27479
#
# Velocity S-wave (km/s) = 2.49311 4.29138 3.50939
# Velocity P-wave (km/s) = 3.46556 7.32116 5.72754
#
# Compressibility (1/GPa) = 0.13628850
#
# Stress axis : x y z
#
# Youngs Moduli (GPa) = 6.40038 53.58206 36.40523
#
# Poissons Ratio (x) = 2.45300 -0.88600
# Poissons Ratio (y) = 0.29301 0.42226
# Poissons Ratio (z) = -0.15577 0.62149
#
# Static dielectric constant tensor:
#      x y z
#    x 1.707030 0.000000 0.000000 
#    y 0.000000 1.640410 0.000000 
#    z 0.000000 0.000000 1.626130 
# 
# From -- ./inp_files/3886.got.cif
#   From: 2010.05.17/outbox.ucp.g08.bks.cvg/sg46_2_cif.got.tgz:3886.got - 2010.06.11 16:34:52.
