data_PCOD9381235
_publ_section_title
;
Structure prediction by ZEFSAII (Michael W. Deem and Ramdas Pophale) SiO2 
 PCOD9381235
Probable space group: P M M M
;
_chemical_formula_sum "Si O2"
_cell_formula_units_Z 36
_cell_length_a 20.464657
_cell_length_b 13.436968
_cell_length_c 7.828641
_cell_angle_alpha 90.000000
_cell_angle_beta 90.000000
_cell_angle_gamma 90.000000
_cell_volume 2152.742728
_symmetry_space_group_name_H-M "P M M M"
_symmetry_group_IT_number 47
_symmetry_cell_setting 'orthorhombic'
loop_
_space_group_symop_operation_xyz
x,y,z
-x,-y,z
x,-y,-z
-x,y,-z
-x,-y,-z
x,y,-z
-x,y,z
x,-y,z
loop_
_atom_site_type_symbol
_atom_site_label
_atom_site_fract_x
_atom_site_fract_y
_atom_site_fract_z
Si Si1 0.924224 0.000000 0.290582
Si Si2 0.570434 0.116319 0.705660
Si Si3 0.712633 0.114151 0.798085
Si Si4 0.848834 0.196213 0.702833
Si Si5 0.075681 0.611823 0.291440
O O1 0.886996 0.901014 0.230074
O O2 0.922199 0.000000 0.500000
O O3 0.000000 0.000000 0.241181
O O4 0.570403 0.118079 0.500000
O O5 0.500000 0.158579 0.763421
O O6 0.640278 0.156560 0.763263
O O7 0.570879 0.000000 0.759884
O O8 0.772221 0.178514 0.729136
O O9 0.716354 0.000000 0.727263
O O10 0.720828 0.107545 0.000000
O O11 0.860981 0.197604 0.500000
O O12 0.878170 0.299366 0.770779
O O13 0.077790 0.610469 0.500000
O O14 0.093118 0.500000 0.234414
O O15 0.000000 0.631316 0.245100
#
# Coordination Sequence:
#
# PCOD9381235 Si02
#       5
#     4   8   8   8   8
#     4   9  16  24  37  59  80 101 136 175 205 240
#     4   8  14  25  41  59  79 106 141 176 205 238
#     4  10  19  28  38  55  84 117 144 171 205 246
#     4  10  17  26  42  61  82 109 139 173 210 251
#     4   8  14  25  42  64  85 103 131 177 226 260
#
# _framework density 16.722852
#
# number of rings (size 3 to 8) (size 9 to 14) (size 15 to 20)
#    0.000    3.000    1.111    2.667    0.000    4.000 
#    0.000    2.222    0.000    4.000    0.000    1.556 
#    0.000    0.889    0.000   10.222    0.000    3.333 
#
# Total GULP energy -200468.840507 kJ/mol
# GULP energy per Si atom -5568.578903 kJ/mol
# Density = 1.668479 g / cm^3
# Si number density = 16.722852 Si / 1000 Ang^3
#
#
#
# Elastic Constant Matrix: (Units=GPa)
#
#
# Indices 1 2 3 4 5 6 
#
# 1 141.3328 81.4182 -4.9226 0.0000 0.0000 0.0000
# 2 81.4182 103.0567 8.7097 0.0000 0.0000 0.0000
# 3 -4.9226 8.7097 14.5591 0.0000 0.0000 0.0000
# 4 0.0000 0.0000 0.0000 1.1921 0.0000 0.0000
# 5 0.0000 0.0000 0.0000 0.0000 -57.8574 0.0000
# 6 0.0000 0.0000 0.0000 0.0000 0.0000 14.5310
#
#
#
# Elastic Compliance Matrix: (Units=1/GPa)
#
#
# Indices 1 2 3 4 5 6 
#
# 1 0.014941 -0.012882 0.012758 0.000000 0.000000 0.000000
# 2 -0.012882 0.021327 -0.017114 0.000000 0.000000 0.000000
# 3 0.012758 -0.017114 0.083237 0.000000 0.000000 0.000000
# 4 0.000000 0.000000 0.000000 0.838853 0.000000 0.000000
# 5 0.000000 0.000000 0.000000 0.000000 -0.017284 0.000000
# 6 0.000000 0.000000 0.000000 0.000000 0.000000 0.068818
#
#
# Mechanical properties :
#
#
# Convention : Reuss Voigt Hill
#
# Bulk Modulus (GPa) = 11.76065 47.70659 29.73362
# Shear Modulus (GPa) = 4.66108 3.15603 3.90856
#
# Velocity S-wave (km/s) = 1.67132 1.37527 1.53047
# Velocity P-wave (km/s) = 3.28213 5.57777 4.57624
#
# Compressibility (1/GPa) = 0.08502931
#
# Stress axis : x y z
#
# Youngs Moduli (GPa) = 66.93062 46.88901 12.01384
#
# Poissons Ratio (x) = 0.60402 -0.15327
# Poissons Ratio (y) = 0.86220 0.20560
# Poissons Ratio (z) = -0.85391 0.80246
#
# Static dielectric constant tensor:
#      x y z
#    x 1.587450 0.000000 0.000000 
#    y 0.000000 1.557830 0.000000 
#    z 0.000000 0.000000 1.600040 
# 
# From -- ./inp_files/3936.got.cif
#   From: 2010.05.17/outbox.cif.g08.bks.cpg/sg47_2_cif.got.tgz:3936.got - 2010.06.03 20:15:42.
