data_PCOD9381249
_publ_section_title
;
Structure prediction by ZEFSAII (Michael W. Deem and Ramdas Pophale) SiO2 
 PCOD9381249
Probable space group: P M M M
;
_chemical_formula_sum "Si O2"
_cell_formula_units_Z 64
_cell_length_a 15.035851
_cell_length_b 32.210979
_cell_length_c 7.453131
_cell_angle_alpha 90.000000
_cell_angle_beta 90.000000
_cell_angle_gamma 90.000000
_cell_volume 3609.696536
_symmetry_space_group_name_H-M "P M M M"
_symmetry_group_IT_number 47
_symmetry_cell_setting 'orthorhombic'
loop_
_space_group_symop_operation_xyz
x,y,z
-x,-y,z
x,-y,-z
-x,y,-z
-x,-y,-z
x,y,-z
-x,y,z
x,-y,z
loop_
_atom_site_type_symbol
_atom_site_label
_atom_site_fract_x
_atom_site_fract_y
_atom_site_fract_z
Si Si1 0.396645 0.455381 0.284385
Si Si2 0.601570 0.635999 0.787841
Si Si3 0.600294 0.953205 0.715539
Si Si4 0.284177 0.126320 0.787159
Si Si5 0.602257 0.204800 0.219209
Si Si6 0.098373 0.842800 0.218546
Si Si7 0.286089 0.713901 0.780503
Si Si8 0.901194 0.254196 0.781757
O O1 0.396958 0.456173 0.500000
O O2 0.500000 0.454711 0.223864
O O3 0.358436 0.500000 0.223361
O O4 0.360041 0.410475 0.233258
O O5 0.500000 0.637306 0.714204
O O6 0.664552 0.672350 0.717493
O O7 0.593721 0.643314 0.000000
O O8 0.596839 0.954685 0.500000
O O9 0.500000 0.942508 0.778731
O O10 0.670319 0.917953 0.761831
O O11 0.621433 0.000000 0.778373
O O12 0.347407 0.163312 0.718320
O O13 0.183760 0.131649 0.717937
O O14 0.278427 0.133330 0.000000
O O15 0.500000 0.206031 0.277888
O O16 0.656787 0.245703 0.271982
O O17 0.601291 0.204402 0.000000
O O18 0.111123 0.794310 0.266793
O O19 0.000000 0.855957 0.279750
O O20 0.096523 0.844211 0.000000
O O21 0.184307 0.720055 0.721273
O O22 0.284656 0.713377 0.000000
O O23 0.000000 0.267285 0.722225
O O24 0.901595 0.255276 0.000000
#
# Coordination Sequence:
#
# PCOD9381249 Si02
#       8
#     8   8   8   8   8   8   8   8
#     4   8  14  25  39  52  68  95 131 167 200 233
#     4   9  16  23  33  52  77 105 133 159 190 229
#     4   9  19  35  50  62  81 111 139 162 199 251
#     4  10  17  26  44  69  88 104 135 176 208 233
#     4   9  15  21  31  52  82 110 132 158 193 230
#     4   8  13  22  37  60  89 113 133 164 207 245
#     4   9  14  21  31  48  78 110 134 156 187 231
#     4   8  12  19  32  50  75 107 138 164 191 227
#
# _framework density 17.730022999999999
#
# number of rings (size 3 to 8) (size 9 to 14) (size 15 to 20)
#    0.000    3.250    1.250    2.250    0.000    2.750 
#    0.000    1.875    0.000    1.500    0.000    4.375 
#    0.000    1.000    0.000    6.250    0.000    1.250 
#
# Total GULP energy -356583.730047 kJ/mol
# GULP energy per Si atom -5571.620782 kJ/mol
# Density = 1.768967 g / cm^3
# Si number density = 17.730023 Si / 1000 Ang^3
#
#
#
# Elastic Constant Matrix: (Units=GPa)
#
#
# Indices 1 2 3 4 5 6 
#
# 1 160.3668 98.9152 6.3647 0.0000 0.0000 0.0000
# 2 98.9152 139.8083 -0.5645 0.0000 0.0000 0.0000
# 3 6.3647 -0.5645 49.3663 0.0000 0.0000 0.0000
# 4 0.0000 0.0000 0.0000 25.9355 0.0000 0.0000
# 5 0.0000 0.0000 0.0000 0.0000 -16.6967 0.0000
# 6 0.0000 0.0000 0.0000 0.0000 0.0000 9.5057
#
#
#
# Elastic Compliance Matrix: (Units=1/GPa)
#
#
# Indices 1 2 3 4 5 6 
#
# 1 0.011179 -0.007915 -0.001532 0.000000 0.000000 0.000000
# 2 -0.007915 0.012757 0.001166 0.000000 0.000000 0.000000
# 3 -0.001532 0.001166 0.020468 0.000000 0.000000 0.000000
# 4 0.000000 0.000000 0.000000 0.038557 0.000000 0.000000
# 5 0.000000 0.000000 0.000000 0.000000 -0.059892 0.000000
# 6 0.000000 0.000000 0.000000 0.000000 0.000000 0.105200
#
#
# Mechanical properties :
#
#
# Convention : Reuss Voigt Hill
#
# Bulk Modulus (GPa) = 35.91631 62.10805 49.01218
# Shear Modulus (GPa) = 32.44428 20.07062 26.25745
#
# Velocity S-wave (km/s) = 4.28238 3.36819 3.85250
# Velocity P-wave (km/s) = 6.68977 7.08747 6.89149
#
# Compressibility (1/GPa) = 0.02784251
#
# Stress axis : x y z
#
# Youngs Moduli (GPa) = 89.45685 78.38627 48.85781
#
# Poissons Ratio (x) = 0.62043 0.07484
# Poissons Ratio (y) = 0.70806 -0.05699
# Poissons Ratio (z) = 0.13703 -0.09143
#
# Static dielectric constant tensor:
#      x y z
#    x 1.608590 0.000000 0.000000 
#    y 0.000000 1.603790 0.000000 
#    z 0.000000 0.000000 1.684170 
# 
# From -- ./inp_files/8247.got.cif
#   From: 2010.05.17/outbox.cif.g08.bks.cpg/sg47_5_cif.got.tgz:8247.got - 2010.06.03 20:15:42.
