data_PCOD9381717
_publ_section_title
;
Structure prediction by ZEFSAII (Michael W. Deem and Ramdas Pophale) SiO2 
 PCOD9381717
Probable space group: P M M M
;
_chemical_formula_sum "Si O2"
_cell_formula_units_Z 40
_cell_length_a 15.837482
_cell_length_b 9.045723
_cell_length_c 20.305975
_cell_angle_alpha 90.000000
_cell_angle_beta 90.000000
_cell_angle_gamma 90.000000
_cell_volume 2909.063934
_symmetry_space_group_name_H-M "P M M M"
_symmetry_group_IT_number 47
_symmetry_cell_setting 'orthorhombic'
loop_
_space_group_symop_operation_xyz
x,y,z
-x,-y,z
x,-y,-z
-x,y,-z
-x,-y,-z
x,y,-z
-x,y,z
x,-y,z
loop_
_atom_site_type_symbol
_atom_site_label
_atom_site_fract_x
_atom_site_fract_y
_atom_site_fract_z
Si Si1 0.000000 0.320367 0.075220
Si Si2 0.675312 0.823241 0.078030
Si Si3 0.500000 0.669890 0.079832
Si Si4 0.169021 0.320920 0.846698
Si Si5 0.098816 0.677568 0.293375
Si Si6 0.897832 0.825836 0.572161
O O1 0.084785 0.276793 0.113148
O O2 0.000000 0.500000 0.074585
O O3 0.000000 0.268337 0.000000
O O4 0.585566 0.753862 0.098794
O O5 0.750389 0.753346 0.120252
O O6 0.673156 0.000000 0.084701
O O7 0.688315 0.789138 0.000000
O O8 0.500000 0.500000 0.102544
O O9 0.500000 0.668301 0.000000
O O10 0.176649 0.500000 0.850327
O O11 0.152101 0.279394 0.770756
O O12 0.099386 0.500000 0.297362
O O13 0.130767 0.743337 0.362225
O O14 0.000000 0.721784 0.283673
O O15 0.868076 0.772225 0.500000
O O16 0.000000 0.811580 0.571640
O O17 0.878911 0.000000 0.577005
#
# Coordination Sequence:
#
# PCOD9381717 Si02
#       6
#     4   8   4   8   8   8
#     4   9  16  26  41  57  74 103 144 184 213 237
#     4  10  20  32  45  63  86 108 133 171 217 259
#     4   9  17  31  51  69  81  99 130 167 210 261
#     4  10  18  29  43  60  81 109 145 179 210 249
#     4   9  16  26  39  56  79 105 137 177 213 243
#     4   8  14  24  37  53  73  99 133 169 204 247
#
# _framework density 13.750128
#
# number of rings (size 3 to 8) (size 9 to 14) (size 15 to 20)
#    0.000    2.800    1.000    2.100    0.000    4.400 
#    0.000    2.500    0.000    1.800    0.000    0.000 
#    0.000    0.000    0.000    0.900    0.000   16.800 
#
# Total GULP energy -222751.913879 kJ/mol
# GULP energy per Si atom -5568.797847 kJ/mol
# Density = 1.371883 g / cm^3
# Si number density = 13.750128 Si / 1000 Ang^3
#
#
#
# Elastic Constant Matrix: (Units=GPa)
#
#
# Indices 1 2 3 4 5 6 
#
# 1 97.6342 36.6533 59.9972 0.0000 0.0000 0.0000
# 2 36.6533 34.9552 44.6153 0.0000 0.0000 0.0000
# 3 59.9972 44.6153 129.4609 0.0000 0.0000 0.0000
# 4 0.0000 0.0000 0.0000 21.5548 0.0000 0.0000
# 5 0.0000 0.0000 0.0000 0.0000 4.7742 0.0000
# 6 0.0000 0.0000 0.0000 0.0000 0.0000 13.4531
#
#
#
# Elastic Compliance Matrix: (Units=1/GPa)
#
#
# Indices 1 2 3 4 5 6 
#
# 1 0.017608 -0.014368 -0.003209 0.000000 0.000000 0.000000
# 2 -0.014368 0.062798 -0.014983 0.000000 0.000000 0.000000
# 3 -0.003209 -0.014983 0.014375 0.000000 0.000000 0.000000
# 4 0.000000 0.000000 0.000000 0.046393 0.000000 0.000000
# 5 0.000000 0.000000 0.000000 0.000000 0.209459 0.000000
# 6 0.000000 0.000000 0.000000 0.000000 0.000000 0.074332
#
#
# Mechanical properties :
#
#
# Convention : Reuss Voigt Hill
#
# Bulk Modulus (GPa) = 33.71392 60.50911 47.11151
# Shear Modulus (GPa) = 10.00058 16.00872 13.00465
#
# Velocity S-wave (km/s) = 2.69979 3.41583 3.07870
# Velocity P-wave (km/s) = 5.85583 7.72392 6.85382
#
# Compressibility (1/GPa) = 0.02966134
#
# Stress axis : x y z
#
# Youngs Moduli (GPa) = 56.79216 15.92417 69.56609
#
# Poissons Ratio (x) = 0.22880 0.22322
# Poissons Ratio (y) = 0.81599 1.04230
# Poissons Ratio (z) = 0.18223 0.23859
#
# Static dielectric constant tensor:
#      x y z
#    x 1.423690 0.000000 0.000000 
#    y 0.000000 1.460550 0.000000 
#    z 0.000000 0.000000 1.462240 
# 
# From -- ./inp_files/4127.got.cif
#   From: 2010.05.17/outbox.cif.g08.bks.cpg/sg47_3_cif.got.tgz:4127.got - 2010.06.03 20:15:42.
