data_PCOD9381261
_publ_section_title
;
Structure prediction by ZEFSAII (Michael W. Deem and Ramdas Pophale) SiO2 
 PCOD9381261
Probable space group: P M M M
;
_chemical_formula_sum "Si O2"
_cell_formula_units_Z 64
_cell_length_a 28.775594
_cell_length_b 7.753799
_cell_length_c 15.100535
_cell_angle_alpha 90.000000
_cell_angle_beta 90.000000
_cell_angle_gamma 90.000000
_cell_volume 3369.233966
_symmetry_space_group_name_H-M "P M M M"
_symmetry_group_IT_number 47
_symmetry_cell_setting 'orthorhombic'
loop_
_space_group_symop_operation_xyz
x,y,z
-x,-y,z
x,-y,-z
-x,y,-z
-x,-y,-z
x,y,-z
-x,y,z
x,-y,z
loop_
_atom_site_type_symbol
_atom_site_label
_atom_site_fract_x
_atom_site_fract_y
_atom_site_fract_z
Si Si1 0.446537 0.710938 0.600056
Si Si2 0.712356 0.799574 0.601632
Si Si3 0.815524 0.297939 0.400451
Si Si4 0.632093 0.699714 0.270850
Si Si5 0.787592 0.291462 0.101832
Si Si6 0.946250 0.789209 0.099691
Si Si7 0.130773 0.800427 0.232685
Si Si8 0.681021 0.288834 0.100248
O O1 0.433640 0.764919 0.500000
O O2 0.500000 0.760381 0.616541
O O3 0.445062 0.500000 0.600009
O O4 0.410217 0.775627 0.672600
O O5 0.708542 0.735465 0.500000
O O6 0.766545 0.786017 0.627034
O O7 0.677817 0.705153 0.667510
O O8 0.699112 0.000000 0.602793
O O9 0.827449 0.236413 0.500000
O O10 0.805458 0.500000 0.405100
O O11 0.854946 0.273346 0.327460
O O12 0.619849 0.500000 0.254370
O O13 0.646935 0.775859 0.176554
O O14 0.789556 0.500000 0.108365
O O15 0.824343 0.216647 0.169608
O O16 0.734395 0.238334 0.119665
O O17 0.798546 0.244305 0.000000
O O18 0.911815 0.724769 0.175775
O O19 0.000000 0.740676 0.113387
O O20 0.944439 0.000000 0.099762
O O21 0.932216 0.734628 0.000000
O O22 0.120278 0.000000 0.247762
O O23 0.680830 0.500000 0.101752
O O24 0.669634 0.236212 0.000000
#
# Coordination Sequence:
#
# PCOD9381261 Si02
#       8
#     8   8   8   8   8   8   8   8
#     4   8  14  24  38  60  89 115 144 188 234 273
#     4  10  20  32  46  68  98 123 144 182 234 277
#     4  10  21  36  51  66  90 127 165 194 224 274
#     4  10  17  26  46  68  85 116 159 192 222 272
#     4   9  17  29  44  63  92 128 159 187 226 281
#     4   8  15  29  48  71 100 130 157 187 228 280
#     4  11  20  29  48  75  98 121 154 199 245 281
#     4   8  15  27  41  59  84 114 148 185 223 261
#
# _framework density 18.995415000000001
#
# number of rings (size 3 to 8) (size 9 to 14) (size 15 to 20)
#    0.000    2.750    0.000    4.125    0.000    3.750 
#    0.000    0.000    0.000    3.750    0.000   11.375 
#    0.000    0.000    0.000    1.125    0.000    1.375 
#
# Total GULP energy -357025.854312 kJ/mol
# GULP energy per Si atom -5578.528974 kJ/mol
# Density = 1.895218 g / cm^3
# Si number density = 18.995415 Si / 1000 Ang^3
#
#
#
# Elastic Constant Matrix: (Units=GPa)
#
#
# Indices 1 2 3 4 5 6 
#
# 1 89.0576 -3.8092 78.6561 0.0000 0.0000 0.0000
# 2 -3.8092 27.9102 -2.6480 0.0000 0.0000 0.0000
# 3 78.6561 -2.6480 109.6161 0.0000 0.0000 0.0000
# 4 0.0000 0.0000 0.0000 7.9659 0.0000 0.0000
# 5 0.0000 0.0000 0.0000 0.0000 34.0556 0.0000
# 6 0.0000 0.0000 0.0000 0.0000 0.0000 10.9226
#
#
#
# Elastic Compliance Matrix: (Units=1/GPa)
#
#
# Indices 1 2 3 4 5 6 
#
# 1 0.030782 0.002110 -0.022037 0.000000 0.000000 0.000000
# 2 0.002110 0.036056 -0.000643 0.000000 0.000000 0.000000
# 3 -0.022037 -0.000643 0.024920 0.000000 0.000000 0.000000
# 4 0.000000 0.000000 0.000000 0.125535 0.000000 0.000000
# 5 0.000000 0.000000 0.000000 0.000000 0.029364 0.000000
# 6 0.000000 0.000000 0.000000 0.000000 0.000000 0.091553
#
#
# Mechanical properties :
#
#
# Convention : Reuss Voigt Hill
#
# Bulk Modulus (GPa) = 19.75560 41.22018 30.48789
# Shear Modulus (GPa) = 12.61914 20.88116 16.75015
#
# Velocity S-wave (km/s) = 2.58025 3.31913 2.97273
# Velocity P-wave (km/s) = 4.39314 6.03622 5.27900
#
# Compressibility (1/GPa) = 0.05061855
#
# Stress axis : x y z
#
# Youngs Moduli (GPa) = 32.48630 27.73446 40.12819
#
# Poissons Ratio (x) = -0.05853 0.88431
# Poissons Ratio (y) = -0.06856 0.02582
# Poissons Ratio (z) = 0.71590 0.01784
#
# Static dielectric constant tensor:
#      x y z
#    x 1.644960 0.000000 0.000000 
#    y 0.000000 1.712210 0.000000 
#    z 0.000000 0.000000 1.678250 
# 
# From -- ./inp_files/25870.got.cif
#   From: 2010.05.17/outbox.cif.g08.bks.cpg/sg47_13_cif.got.tgz:25870.got - 2010.06.03 20:15:42.
