data_PCOD9381357
_publ_section_title
;
Structure prediction by ZEFSAII (Michael W. Deem and Ramdas Pophale) SiO2 
 PCOD9381357
Probable space group: P M M M
;
_chemical_formula_sum "Si O2"
_cell_formula_units_Z 52
_cell_length_a 23.488736
_cell_length_b 14.910866
_cell_length_c 7.661046
_cell_angle_alpha 90.000000
_cell_angle_beta 90.000000
_cell_angle_gamma 90.000000
_cell_volume 2683.184794
_symmetry_space_group_name_H-M "P M M M"
_symmetry_group_IT_number 47
_symmetry_cell_setting 'orthorhombic'
loop_
_space_group_symop_operation_xyz
x,y,z
-x,-y,z
x,-y,-z
-x,y,-z
-x,-y,-z
x,y,-z
-x,y,z
x,-y,z
loop_
_atom_site_type_symbol
_atom_site_label
_atom_site_fract_x
_atom_site_fract_y
_atom_site_fract_z
Si Si1 0.722884 0.599357 0.286931
Si Si2 0.333433 0.222839 0.702578
Si Si3 0.114646 0.207349 0.706395
Si Si4 0.144067 0.599144 0.712579
Si Si5 0.564825 0.102412 0.286511
Si Si6 0.771630 0.897759 0.796178
Si Si7 0.000000 0.897878 0.791346
O O1 0.722264 0.601714 0.500000
O O2 0.704078 0.500000 0.232918
O O3 0.685952 0.682124 0.220157
O O4 0.789337 0.609909 0.239144
O O5 0.347516 0.240172 0.500000
O O6 0.387398 0.170640 0.778572
O O7 0.278408 0.158458 0.707654
O O8 0.125052 0.212131 0.500000
O O9 0.113091 0.310286 0.772223
O O10 0.168265 0.152837 0.780028
O O11 0.056439 0.154948 0.737185
O O12 0.141215 0.596856 0.500000
O O13 0.124914 0.500000 0.772802
O O14 0.566288 0.102382 0.500000
O O15 0.500000 0.124067 0.235338
O O16 0.577514 0.000000 0.232702
O O17 0.775965 0.000000 0.730033
O O18 0.756831 0.901215 0.000000
O O19 0.000000 0.000000 0.723039
O O20 0.000000 0.902469 0.000000
#
# Coordination Sequence:
#
# PCOD9381357 Si02
#       7
#     8   8   8   8   8   8   4
#     4   8  13  23  42  70 100 125 153 195 248 297
#     4  10  17  28  49  73  93 123 170 211 241 287
#     4  11  21  36  59  82  99 126 172 213 237 278
#     4   8  14  27  49  77 105 127 152 195 249 296
#     4   8  14  24  39  63  95 127 161 207 257 294
#     4  11  23  35  47  69 104 136 157 194 258 309
#     4  11  25  43  58  73 102 142 171 197 248 303
#
# _framework density 19.379953
#
# number of rings (size 3 to 8) (size 9 to 14) (size 15 to 20)
#    0.000    2.538    1.538    3.462    0.000    4.308 
#    0.000    0.385    0.000    6.462    0.000    5.385 
#    0.000    0.000    0.000    1.385    0.000    1.692 
#
# Total GULP energy -290086.081923 kJ/mol
# GULP energy per Si atom -5578.578499 kJ/mol
# Density = 1.933584 g / cm^3
# Si number density = 19.379953 Si / 1000 Ang^3
#
#
#
# Elastic Constant Matrix: (Units=GPa)
#
#
# Indices 1 2 3 4 5 6 
#
# 1 94.1089 82.4542 -11.8829 0.0000 0.0000 0.0000
# 2 82.4542 206.7681 -1.2019 0.0000 0.0000 0.0000
# 3 -11.8829 -1.2019 37.0120 0.0000 0.0000 0.0000
# 4 0.0000 0.0000 0.0000 94.9350 0.0000 0.0000
# 5 0.0000 0.0000 0.0000 0.0000 -67.5630 0.0000
# 6 0.0000 0.0000 0.0000 0.0000 0.0000 33.4257
#
#
#
# Elastic Compliance Matrix: (Units=1/GPa)
#
#
# Indices 1 2 3 4 5 6 
#
# 1 0.017327 -0.006878 0.005340 0.000000 0.000000 0.000000
# 2 -0.006878 0.007568 -0.001963 0.000000 0.000000 0.000000
# 3 0.005340 -0.001963 0.028669 0.000000 0.000000 0.000000
# 4 0.000000 0.000000 0.000000 0.010534 0.000000 0.000000
# 5 0.000000 0.000000 0.000000 0.000000 -0.014801 0.000000
# 6 0.000000 0.000000 0.000000 0.000000 0.000000 0.029917
#
#
# Mechanical properties :
#
#
# Convention : Reuss Voigt Hill
#
# Bulk Modulus (GPa) = 21.47749 52.95863 37.21806
# Shear Modulus (GPa) = 49.14655 30.06084 39.60369
#
# Velocity S-wave (km/s) = 5.04128 3.94271 4.52546
# Velocity P-wave (km/s) = 6.70764 6.93631 6.82294
#
# Compressibility (1/GPa) = 0.04656037
#
# Stress axis : x y z
#
# Youngs Moduli (GPa) = 57.71391 132.13690 34.88109
#
# Poissons Ratio (x) = 0.90890 -0.18625
# Poissons Ratio (y) = 0.39698 0.06846
# Poissons Ratio (z) = -0.30816 0.25934
#
# Static dielectric constant tensor:
#      x y z
#    x 1.613480 0.000000 0.000000 
#    y 0.000000 1.709760 0.000000 
#    z 0.000000 0.000000 1.737760 
# 
# From -- ./inp_files/11074.got.cif
#   From: 2010.05.17/outbox.cif.g08.bks.cpg/sg47_6_cif.got.tgz:11074.got - 2010.06.03 20:15:42.
