data_PCOD9381060
_publ_section_title
;
Structure prediction by ZEFSAII (Michael W. Deem and Ramdas Pophale) SiO2 
 PCOD9381060
Probable space group: I M A 2
;
_chemical_formula_sum "Si O2"
_cell_formula_units_Z 64
_cell_length_a 14.748224
_cell_length_b 14.851019
_cell_length_c 13.827383
_cell_angle_alpha 90.000000
_cell_angle_beta 90.000000
_cell_angle_gamma 90.000000
_cell_volume 3028.558530
_symmetry_space_group_name_H-M "I M A 2"
_symmetry_group_IT_number 46
_symmetry_cell_setting 'orthorhombic'
loop_
_space_group_symop_operation_xyz
x,y,z
-x,-y,z
1/2-x,y,z
1/2+x,-y,z
1/2+x,1/2+y,1/2+z
1/2-x,1/2-y,1/2+z
-x,1/2+y,1/2+z
x,1/2-y,1/2+z
loop_
_atom_site_type_symbol
_atom_site_label
_atom_site_fract_x
_atom_site_fract_y
_atom_site_fract_z
Si Si1 0.355384 0.541123 0.847090
Si Si2 0.152240 0.132117 0.999668
Si Si3 0.854678 0.374471 0.062782
Si Si4 0.529650 0.640627 0.830168
Si Si5 0.855261 0.514747 0.210074
Si Si6 0.145187 0.201382 0.774830
Si Si7 0.401804 0.545392 0.418125
Si Si8 0.024754 0.773956 0.004050
O O1 0.250000 0.539334 0.812827
O O2 0.432995 0.601374 0.794029
O O3 0.401581 0.442261 0.850227
O O4 0.353368 0.584286 0.954640
O O5 0.250000 0.158635 0.039821
O O6 0.148308 0.166464 0.887280
O O7 0.063982 0.176819 0.045491
O O8 0.145065 0.023827 0.992606
O O9 0.750000 0.357948 0.090306
O O10 0.896411 0.450513 0.130899
O O11 0.910391 0.283108 0.071705
O O12 0.582799 0.712389 0.765777
O O13 0.508913 0.699158 0.926566
O O14 0.750000 0.529296 0.183715
O O15 0.893645 0.614815 0.219371
O O16 0.857264 0.465239 0.313507
O O17 0.250000 0.219729 0.749400
O O18 0.500000 0.500000 0.405487
O O19 0.417393 0.646676 0.452585
#
# Coordination Sequence:
#
# PCOD9381060 Si02
#       8
#     8   8   8   8   8   8   8   8
#     4   9  17  29  44  65  96 133 167 211 260 305
#     4   8  14  25  43  68  98 128 168 219 266 300
#     4   9  18  31  45  67 105 146 174 205 257 322
#     4   9  16  27  44  64  96 123 169 212 257 305
#     4   9  17  30  46  68 103 142 175 207 259 319
#     4   8  13  23  43  68  93 127 169 211 253 302
#     4   9  16  27  43  71 101 133 167 220 265 311
#     4   9  17  28  44  68 101 131 175 215 262 310
#
# _framework density 21.132166000000002
#
# number of rings (size 3 to 8) (size 9 to 14) (size 15 to 20)
#    0.000    3.250    0.000    2.250    0.000    1.500 
#    4.500    0.000    0.000    0.000    0.000    1.750 
#   22.500    0.750    2.250   23.750    0.750    0.000 
#
# Total GULP energy -178279.150670 kJ/mol
# GULP energy per Si atom -5571.223458 kJ/mol
# Density = 2.108407 g / cm^3
# Si number density = 21.132166 Si / 1000 Ang^3
#
#
#
# Elastic Constant Matrix: (Units=GPa)
#
#
# Indices 1 2 3 4 5 6 
#
# 1 142.0523 72.4647 14.1230 0.0000 0.0000 0.0000
# 2 72.4647 124.8576 10.9439 0.0000 0.0000 0.0000
# 3 14.1230 10.9439 15.0303 0.0000 0.0000 0.0000
# 4 0.0000 0.0000 0.0000 19.6691 0.0000 0.0000
# 5 0.0000 0.0000 0.0000 0.0000 1.8997 0.0000
# 6 0.0000 0.0000 0.0000 0.0000 0.0000 8.2856
#
#
#
# Elastic Compliance Matrix: (Units=1/GPa)
#
#
# Indices 1 2 3 4 5 6 
#
# 1 0.010449 -0.005559 -0.005771 0.000000 0.000000 0.000000
# 2 -0.005559 0.011512 -0.003159 0.000000 0.000000 0.000000
# 3 -0.005771 -0.003159 0.074255 0.000000 0.000000 0.000000
# 4 0.000000 0.000000 0.000000 0.050841 0.000000 0.000000
# 5 0.000000 0.000000 0.000000 0.000000 0.526404 0.000000
# 6 0.000000 0.000000 0.000000 0.000000 0.000000 0.120691
#
#
# Mechanical properties :
#
#
# Convention : Reuss Voigt Hill
#
# Bulk Modulus (GPa) = 14.87234 53.00037 33.93636
# Shear Modulus (GPa) = 5.91336 18.26478 12.08907
#
# Velocity S-wave (km/s) = 1.67462 2.94311 2.39439
# Velocity P-wave (km/s) = 3.28515 6.05674 4.87218
#
# Compressibility (1/GPa) = 0.06723889
#
# Stress axis : x y z
#
# Youngs Moduli (GPa) = 95.70315 86.86525 13.46708
#
# Poissons Ratio (x) = 0.48284 0.07772
# Poissons Ratio (y) = 0.53197 0.04254
# Poissons Ratio (z) = 0.55230 0.27442
#
# Static dielectric constant tensor:
#      x y z
#    x 1.851440 0.000000 0.000000 
#    y 0.000000 1.770520 0.000000 
#    z 0.000000 0.000000 1.771560 
# 
# From -- ./inp_files/19717.got.cif
#   From: 2010.05.17/outbox.cif.g08.bks.cpg/sg46_10_cif.got.tgz:19717.got - 2010.06.03 19:58:25.
