data_PCOD9381240
_publ_section_title
;
Structure prediction by ZEFSAII (Michael W. Deem and Ramdas Pophale) SiO2 
 PCOD9381240
Probable space group: P M M M
;
_chemical_formula_sum "Si O2"
_cell_formula_units_Z 48
_cell_length_a 7.352866
_cell_length_b 12.383575
_cell_length_c 26.329946
_cell_angle_alpha 90.000000
_cell_angle_beta 90.000000
_cell_angle_gamma 90.000000
_cell_volume 2397.467113
_symmetry_space_group_name_H-M "P M M M"
_symmetry_group_IT_number 47
_symmetry_cell_setting 'orthorhombic'
loop_
_space_group_symop_operation_xyz
x,y,z
-x,-y,z
x,-y,-z
-x,y,-z
-x,-y,-z
x,y,-z
-x,y,z
x,-y,z
loop_
_atom_site_type_symbol
_atom_site_label
_atom_site_fract_x
_atom_site_fract_y
_atom_site_fract_z
Si Si1 0.778600 0.875320 0.943326
Si Si2 0.215196 0.722303 0.340196
Si Si3 0.222199 0.738765 0.846680
Si Si4 0.221841 0.500000 0.707415
Si Si5 0.717806 0.622099 0.442613
Si Si6 0.777914 0.876118 0.252454
Si Si7 0.220807 0.500000 0.825361
O O1 0.718052 0.802636 0.896629
O O2 0.000000 0.873966 0.942914
O O3 0.724454 0.000000 0.936083
O O4 0.722068 0.840807 0.000000
O O5 0.288442 0.609113 0.318542
O O6 0.238569 0.711306 0.400492
O O7 0.282165 0.820509 0.305366
O O8 0.000000 0.721285 0.331220
O O9 0.277073 0.801164 0.795161
O O10 0.281550 0.614294 0.847616
O O11 0.000000 0.738875 0.846042
O O12 0.269819 0.500000 0.766191
O O13 0.000000 0.500000 0.704505
O O14 0.781495 0.644788 0.500000
O O15 0.500000 0.616194 0.444315
O O16 0.783341 0.500000 0.428529
O O17 0.000000 0.878451 0.251710
O O18 0.717977 0.000000 0.247320
O O19 0.000000 0.500000 0.828145
#
# Coordination Sequence:
#
# PCOD9381240 Si02
#       7
#     8   8   8   4   8   8   4
#     4   8  13  20  28  37  52  81 125 171 205 234
#     4  10  17  26  43  64  86 108 134 170 208 245
#     4   9  14  20  30  44  65  93 123 158 203 249
#     4   9  14  22  34  55  81 103 124 154 201 248
#     4   9  18  31  45  63  88 114 137 164 201 244
#     4   9  16  24  36  56  79 101 127 164 208 247
#     4   9  14  20  29  44  69  97 120 148 197 254
#
# _framework density 20.021132000000001
#
# number of rings (size 3 to 8) (size 9 to 14) (size 15 to 20)
#    0.000    3.000    2.500    1.500    0.000    2.333 
#    0.000    1.250    0.000    3.500    0.000    3.500 
#    0.000    0.000    0.000    0.000    0.000    0.833 
#
# Total GULP energy -267706.517489 kJ/mol
# GULP energy per Si atom -5577.219114 kJ/mol
# Density = 1.997556 g / cm^3
# Si number density = 20.021132 Si / 1000 Ang^3
#
#
#
# Elastic Constant Matrix: (Units=GPa)
#
#
# Indices 1 2 3 4 5 6 
#
# 1 72.7900 5.0875 -1.9199 0.0000 0.0000 0.0000
# 2 5.0875 150.9359 99.4042 0.0000 0.0000 0.0000
# 3 -1.9199 99.4042 165.4611 0.0000 0.0000 0.0000
# 4 0.0000 0.0000 0.0000 28.4377 0.0000 0.0000
# 5 0.0000 0.0000 0.0000 0.0000 54.9809 0.0000
# 6 0.0000 0.0000 0.0000 0.0000 0.0000 -7.8330
#
#
#
# Elastic Compliance Matrix: (Units=1/GPa)
#
#
# Indices 1 2 3 4 5 6 
#
# 1 0.013823 -0.000946 0.000729 0.000000 0.000000 0.000000
# 2 -0.000946 0.011028 -0.006636 0.000000 0.000000 0.000000
# 3 0.000729 -0.006636 0.010039 0.000000 0.000000 0.000000
# 4 0.000000 0.000000 0.000000 0.035165 0.000000 0.000000
# 5 0.000000 0.000000 0.000000 0.000000 0.018188 0.000000
# 6 0.000000 0.000000 0.000000 0.000000 0.000000 -0.127665
#
#
# Mechanical properties :
#
#
# Convention : Reuss Voigt Hill
#
# Bulk Modulus (GPa) = 47.20648 66.03674 56.62161
# Shear Modulus (GPa) = -268.02180 34.22482 -116.89849
#
# Velocity S-wave (km/s) = -11.58275 4.13902 -7.64946
# Velocity P-wave (km/s) = 12.45996 7.47643 7.04817
#
# Compressibility (1/GPa) = 0.02118353
#
# Stress axis : x y z
#
# Youngs Moduli (GPa) = 72.34078 90.68147 99.61243
#
# Poissons Ratio (x) = 0.08576 -0.07258
# Poissons Ratio (y) = 0.06842 0.66103
# Poissons Ratio (z) = -0.05271 0.60177
#
# Static dielectric constant tensor:
#      x y z
#    x 1.796180 0.000000 0.000000 
#    y 0.000000 1.682300 0.000000 
#    z 0.000000 0.000000 1.707810 
# 
# From -- ./inp_files/32435.got.cif
#   From: 2010.05.17/outbox.cif.g08.bks.cpg/sg47_17_cif.got.tgz:32435.got - 2010.06.03 20:15:42.
