data_PCOD9381610
_publ_section_title
;
Structure prediction by ZEFSAII (Michael W. Deem and Ramdas Pophale) SiO2 
 PCOD9381610
Probable space group: P M M M
;
_chemical_formula_sum "Si O2"
_cell_formula_units_Z 56
_cell_length_a 19.048995
_cell_length_b 8.353631
_cell_length_c 21.870128
_cell_angle_alpha 90.000000
_cell_angle_beta 90.000000
_cell_angle_gamma 90.000000
_cell_volume 3480.155746
_symmetry_space_group_name_H-M "P M M M"
_symmetry_group_IT_number 47
_symmetry_cell_setting 'orthorhombic'
loop_
_space_group_symop_operation_xyz
x,y,z
-x,-y,z
x,-y,-z
-x,y,-z
-x,-y,-z
x,y,-z
-x,y,z
x,-y,z
loop_
_atom_site_type_symbol
_atom_site_label
_atom_site_fract_x
_atom_site_fract_y
_atom_site_fract_z
Si Si1 0.080385 0.190493 0.309464
Si Si2 0.847079 0.310372 0.567795
Si Si3 0.581162 0.306721 0.930360
Si Si4 0.288348 0.813652 0.623894
Si Si5 0.214888 0.686012 0.742633
Si Si6 0.419916 0.804659 0.693590
Si Si7 0.665500 0.809288 0.814868
O O1 0.110149 0.230238 0.377144
O O2 0.133104 0.273047 0.261543
O O3 0.000000 0.243945 0.304399
O O4 0.083470 0.000000 0.300947
O O5 0.866887 0.253522 0.500000
O O6 0.858931 0.500000 0.571528
O O7 0.764311 0.276972 0.579063
O O8 0.500000 0.259291 0.918948
O O9 0.583992 0.500000 0.927529
O O10 0.630692 0.236258 0.878658
O O11 0.599018 0.259143 0.000000
O O12 0.250150 0.794459 0.689751
O O13 0.366760 0.754190 0.639390
O O14 0.290635 0.000000 0.606545
O O15 0.224787 0.500000 0.726510
O O16 0.259461 0.727297 0.802411
O O17 0.500000 0.750176 0.687671
O O18 0.386082 0.756986 0.758876
O O19 0.419833 0.000000 0.692832
O O20 0.673562 0.000000 0.810663
#
# Coordination Sequence:
#
# PCOD9381610 Si02
#       7
#     8   8   8   8   8   8   8
#     4  10  20  33  49  69  93 117 140 172 215 261
#     4  10  20  32  46  63  84 113 147 179 211 255
#     4   9  18  31  44  61  91 129 164 198 236 274
#     4   9  16  27  44  63  83 108 139 178 221 263
#     4  10  18  29  46  65  88 117 146 178 218 263
#     4   8  14  24  39  61  85 106 133 176 226 266
#     4  10  18  28  44  65  89 118 155 193 225 263
#
# _framework density 16.091234
#
# number of rings (size 3 to 8) (size 9 to 14) (size 15 to 20)
#    0.000    2.571    0.000    6.429    0.000    3.714 
#    0.000    2.143    0.000    9.000    0.000    3.000 
#    0.000    0.571    0.000    6.000    0.000    2.571 
#
# Total GULP energy -311982.518015 kJ/mol
# GULP energy per Si atom -5571.116393 kJ/mol
# Density = 1.605461 g / cm^3
# Si number density = 16.091234 Si / 1000 Ang^3
#
#
#
# Elastic Constant Matrix: (Units=GPa)
#
#
# Indices 1 2 3 4 5 6 
#
# 1 121.3092 13.3985 31.5340 0.0000 0.0000 0.0000
# 2 13.3985 25.6792 5.8229 0.0000 0.0000 0.0000
# 3 31.5340 5.8229 41.9620 0.0000 0.0000 0.0000
# 4 0.0000 0.0000 0.0000 21.6963 0.0000 0.0000
# 5 0.0000 0.0000 0.0000 0.0000 18.6906 0.0000
# 6 0.0000 0.0000 0.0000 0.0000 0.0000 13.0994
#
#
#
# Elastic Compliance Matrix: (Units=1/GPa)
#
#
# Indices 1 2 3 4 5 6 
#
# 1 0.010600 -0.003845 -0.007432 0.000000 0.000000 0.000000
# 2 -0.003845 0.041602 -0.002883 0.000000 0.000000 0.000000
# 3 -0.007432 -0.002883 0.029816 0.000000 0.000000 0.000000
# 4 0.000000 0.000000 0.000000 0.046091 0.000000 0.000000
# 5 0.000000 0.000000 0.000000 0.000000 0.053503 0.000000
# 6 0.000000 0.000000 0.000000 0.000000 0.000000 0.076339
#
#
# Mechanical properties :
#
#
# Convention : Reuss Voigt Hill
#
# Bulk Modulus (GPa) = 18.62301 32.27347 25.44824
# Shear Modulus (GPa) = 16.43805 19.91028 18.17417
#
# Velocity S-wave (km/s) = 3.19964 3.52140 3.36437
# Velocity P-wave (km/s) = 5.02482 6.05258 5.56249
#
# Compressibility (1/GPa) = 0.05369702
#
# Stress axis : x y z
#
# Youngs Moduli (GPa) = 94.33857 24.03714 33.53860
#
# Poissons Ratio (x) = 0.09243 0.24927
# Poissons Ratio (y) = 0.36278 0.09670
# Poissons Ratio (z) = 0.70115 0.06930
#
# Static dielectric constant tensor:
#      x y z
#    x 1.574420 0.000000 0.000000 
#    y 0.000000 1.547580 0.000000 
#    z 0.000000 0.000000 1.532630 
# 
# From -- ./inp_files/28717.got.cif
#   From: 2010.05.17/outbox.cif.g08.bks.cpg/sg47_15_cif.got.tgz:28717.got - 2010.06.03 20:15:42.
