data_PCOD9381869
_publ_section_title
;
Structure prediction by ZEFSAII (Michael W. Deem and Ramdas Pophale) SiO2 
 PCOD9381869
Probable space group: P M M M
;
_chemical_formula_sum "Si O2"
_cell_formula_units_Z 64
_cell_length_a 8.624766
_cell_length_b 16.643711
_cell_length_c 22.831448
_cell_angle_alpha 90.000000
_cell_angle_beta 90.000000
_cell_angle_gamma 90.000000
_cell_volume 3277.411272
_symmetry_space_group_name_H-M "P M M M"
_symmetry_group_IT_number 47
_symmetry_cell_setting 'orthorhombic'
loop_
_space_group_symop_operation_xyz
x,y,z
-x,-y,z
x,-y,-z
-x,y,-z
-x,-y,-z
x,y,-z
-x,y,z
x,-y,z
loop_
_atom_site_type_symbol
_atom_site_label
_atom_site_fract_x
_atom_site_fract_y
_atom_site_fract_z
Si Si1 0.825541 0.907447 0.662248
Si Si2 0.814389 0.363797 0.687450
Si Si3 0.313552 0.910259 0.931171
Si Si4 0.811749 0.588237 0.820672
Si Si5 0.316729 0.383742 0.434685
Si Si6 0.674947 0.191538 0.566621
Si Si7 0.818974 0.758547 0.138781
Si Si8 0.322853 0.209389 0.260538
O O1 0.797612 0.854725 0.605036
O O2 0.704730 0.875472 0.709540
O O3 0.000000 0.894377 0.684568
O O4 0.804330 0.000000 0.648739
O O5 0.775303 0.402991 0.750918
O O6 0.762527 0.406430 0.627090
O O7 0.727345 0.278287 0.693568
O O8 0.000000 0.353072 0.685582
O O9 0.500000 0.910232 0.926614
O O10 0.254591 0.830162 0.899037
O O11 0.260625 0.000000 0.910014
O O12 0.272810 0.905414 0.000000
O O13 0.758843 0.500000 0.840503
O O14 0.757214 0.665730 0.858201
O O15 0.000000 0.590169 0.823419
O O16 0.261844 0.410581 0.500000
O O17 0.500000 0.402711 0.431297
O O18 0.300933 0.287027 0.435442
O O19 0.679441 0.162581 0.500000
O O20 0.500000 0.177636 0.590030
O O21 0.791031 0.783015 0.205995
O O22 0.000000 0.755151 0.124094
O O23 0.500000 0.221514 0.242327
#
# Coordination Sequence:
#
# PCOD9381869 Si02
#       8
#     8   8   8   8   8   8   8   8
#     4  11  23  35  46  63  89 119 156 208 264 314
#     4  10  18  29  50  76  98 123 163 215 267 316
#     4   9  19  37  60  86 119 160 200 232 268 320
#     4   8  16  32  53  79 112 147 181 222 275 334
#     4   9  17  29  46  68  93 123 159 203 261 329
#     4   9  18  32  48  64  83 114 156 199 250 318
#     4  10  20  34  57  87 115 146 186 233 278 315
#     4  11  21  34  51  69  95 131 169 208 257 321
#
# _framework density 19.527607
#
# number of rings (size 3 to 8) (size 9 to 14) (size 15 to 20)
#    0.000    2.375    1.250    4.125    0.000    2.750 
#    0.000    3.125    0.000   14.250    0.000    5.250 
#    0.000    0.000    0.000    0.000    0.000    0.000 
#
# Total GULP energy -356504.136764 kJ/mol
# GULP energy per Si atom -5570.377137 kJ/mol
# Density = 1.948316 g / cm^3
# Si number density = 19.527607 Si / 1000 Ang^3
#
#
#
# Elastic Constant Matrix: (Units=GPa)
#
#
# Indices 1 2 3 4 5 6 
#
# 1 21.1698 29.4587 0.6150 0.0000 0.0000 0.0000
# 2 29.4587 141.7773 49.8918 0.0000 0.0000 0.0000
# 3 0.6150 49.8918 56.1211 0.0000 0.0000 0.0000
# 4 0.0000 0.0000 0.0000 -7.6054 0.0000 0.0000
# 5 0.0000 0.0000 0.0000 0.0000 63.1559 0.0000
# 6 0.0000 0.0000 0.0000 0.0000 0.0000 69.1205
#
#
#
# Elastic Compliance Matrix: (Units=1/GPa)
#
#
# Indices 1 2 3 4 5 6 
#
# 1 0.079472 -0.023585 0.020096 0.000000 0.000000 0.000000
# 2 -0.023585 0.017264 -0.015089 0.000000 0.000000 0.000000
# 3 0.020096 -0.015089 0.031013 0.000000 0.000000 0.000000
# 4 0.000000 0.000000 0.000000 -0.131485 0.000000 0.000000
# 5 0.000000 0.000000 0.000000 0.000000 0.015834 0.000000
# 6 0.000000 0.000000 0.000000 0.000000 0.000000 0.014467
#
#
# Mechanical properties :
#
#
# Convention : Reuss Voigt Hill
#
# Bulk Modulus (GPa) = 11.03837 42.11103 26.57470
# Shear Modulus (GPa) = 53.23819 34.20771 43.72295
#
# Velocity S-wave (km/s) = 5.22707 4.18995 4.73698
# Velocity P-wave (km/s) = 6.48804 6.70964 6.59977
#
# Compressibility (1/GPa) = 0.09059312
#
# Stress axis : x y z
#
# Youngs Moduli (GPa) = 12.58299 57.92526 32.24504
#
# Poissons Ratio (x) = 1.36615 -0.64800
# Poissons Ratio (y) = 0.29677 0.48654
# Poissons Ratio (z) = -0.25287 0.87403
#
# Static dielectric constant tensor:
#      x y z
#    x 1.686240 0.000000 0.000000 
#    y 0.000000 1.733470 0.000000 
#    z 0.000000 0.000000 1.692980 
# 
# From -- ./inp_files/11582.got.cif
#   From: 2010.05.17/outbox.cif.g08.bks.cpg/sg47_6_cif.got.tgz:11582.got - 2010.06.03 20:15:42.
