data_PCOD9381389
_publ_section_title
;
Structure prediction by ZEFSAII (Michael W. Deem and Ramdas Pophale) SiO2 
 PCOD9381389
Probable space group: P M M M
;
_chemical_formula_sum "Si O2"
_cell_formula_units_Z 45
_cell_length_a 21.364484
_cell_length_b 7.953511
_cell_length_c 13.971935
_cell_angle_alpha 90.000000
_cell_angle_beta 90.000000
_cell_angle_gamma 90.000000
_cell_volume 2374.148340
_symmetry_space_group_name_H-M "P M M M"
_symmetry_group_IT_number 47
_symmetry_cell_setting 'orthorhombic'
loop_
_space_group_symop_operation_xyz
x,y,z
-x,-y,z
x,-y,-z
-x,y,-z
-x,-y,-z
x,y,-z
-x,y,z
x,-y,z
loop_
_atom_site_type_symbol
_atom_site_label
_atom_site_fract_x
_atom_site_fract_y
_atom_site_fract_z
Si Si1 0.370232 0.799713 0.107571
Si Si2 0.224535 0.295712 0.892272
Si Si3 0.128984 0.311412 0.500000
Si Si4 0.000000 0.500000 0.500000
Si Si5 0.696355 0.806938 0.611549
Si Si6 0.817659 0.691275 0.304238
Si Si7 0.569888 0.696091 0.699623
O O1 0.296270 0.763583 0.120543
O O2 0.410605 0.714352 0.189595
O O3 0.379278 0.000000 0.115056
O O4 0.386689 0.744916 0.000000
O O5 0.225045 0.500000 0.888591
O O6 0.182125 0.235249 0.803158
O O7 0.204997 0.245419 0.000000
O O8 0.160907 0.500000 0.500000
O O9 0.150023 0.230974 0.399040
O O10 0.055978 0.355802 0.500000
O O11 0.703556 0.770278 0.500000
O O12 0.743993 0.692951 0.670186
O O13 0.624976 0.784678 0.641894
O O14 0.714800 0.000000 0.629770
O O15 0.842406 0.500000 0.297618
O O16 0.500000 0.762767 0.683886
O O17 0.570708 0.500000 0.673473
#
# Coordination Sequence:
#
# PCOD9381389 Si02
#       7
#     8   8   4   1   8   8   8
#     4  10  20  33  50  72  98 129 165 214 277 333
#     4   9  17  28  45  71 102 134 168 210 260 316
#     4   8  16  28  49  79 110 142 174 215 250 289
#     4   8  16  32  48  84 128 140 182 228 246 290
#     4  11  23  36  52  75 102 129 162 218 277 329
#     4  10  17  29  51  78 103 134 175 213 255 303
#     4  11  24  39  53  69  91 129 177 224 273 328
#
# _framework density 18.954165
#
# number of rings (size 3 to 8) (size 9 to 14) (size 15 to 20)
#    0.267    1.778    2.667    1.600    0.000    4.267 
#    0.000    3.556    0.000    0.000    0.000    2.489 
#    0.000    0.000    0.000    0.000    0.000   10.222 
#
# Total GULP energy -250537.309722 kJ/mol
# GULP energy per Si atom -5567.495772 kJ/mol
# Density = 1.891102 g / cm^3
# Si number density = 18.954165 Si / 1000 Ang^3
#
#
#
# Elastic Constant Matrix: (Units=GPa)
#
#
# Indices 1 2 3 4 5 6 
#
# 1 66.8785 0.6342 33.4008 0.0000 0.0000 0.0000
# 2 0.6342 21.5005 12.7609 0.0000 0.0000 0.0000
# 3 33.4008 12.7609 81.9954 0.0000 0.0000 0.0000
# 4 0.0000 0.0000 0.0000 14.6022 0.0000 0.0000
# 5 0.0000 0.0000 0.0000 0.0000 3.1132 0.0000
# 6 0.0000 0.0000 0.0000 0.0000 0.0000 -12.1332
#
#
#
# Elastic Compliance Matrix: (Units=1/GPa)
#
#
# Indices 1 2 3 4 5 6 
#
# 1 0.019155 0.004480 -0.008500 0.000000 0.000000 0.000000
# 2 0.004480 0.052292 -0.009963 0.000000 0.000000 0.000000
# 3 -0.008500 -0.009963 0.017209 0.000000 0.000000 0.000000
# 4 0.000000 0.000000 0.000000 0.068483 0.000000 0.000000
# 5 0.000000 0.000000 0.000000 0.000000 0.321217 0.000000
# 6 0.000000 0.000000 0.000000 0.000000 0.000000 -0.082419
#
#
# Mechanical properties :
#
#
# Convention : Reuss Voigt Hill
#
# Bulk Modulus (GPa) = 16.47737 29.32957 22.90347
# Shear Modulus (GPa) = 11.25791 9.35501 10.30646
#
# Velocity S-wave (km/s) = 2.43976 2.22403 2.33439
# Velocity P-wave (km/s) = 4.08028 4.70134 4.40178
#
# Compressibility (1/GPa) = 0.06068931
#
# Stress axis : x y z
#
# Youngs Moduli (GPa) = 52.20532 19.12351 58.10969
#
# Poissons Ratio (x) = -0.08567 0.49393
# Poissons Ratio (y) = -0.23387 0.57895
# Poissons Ratio (z) = 0.44375 0.19053
#
# Static dielectric constant tensor:
#      x y z
#    x 1.612000 0.000000 0.000000 
#    y 0.000000 1.685590 0.000000 
#    z 0.000000 0.000000 1.736140 
# 
# From -- ./inp_files/24941.got.cif
#   From: 2010.05.17/outbox.cif.g08.bks.cpg/sg47_13_cif.got.tgz:24941.got - 2010.06.03 20:15:42.
