data_PCOD9381583
_publ_section_title
;
Structure prediction by ZEFSAII (Michael W. Deem and Ramdas Pophale) SiO2 
 PCOD9381583
Probable space group: P M M M
;
_chemical_formula_sum "Si O2"
_cell_formula_units_Z 52
_cell_length_a 7.738219
_cell_length_b 14.189538
_cell_length_c 29.096547
_cell_angle_alpha 90.000000
_cell_angle_beta 90.000000
_cell_angle_gamma 90.000000
_cell_volume 3194.851854
_symmetry_space_group_name_H-M "P M M M"
_symmetry_group_IT_number 47
_symmetry_cell_setting 'orthorhombic'
loop_
_space_group_symop_operation_xyz
x,y,z
-x,-y,z
x,-y,-z
-x,y,-z
-x,-y,-z
x,y,-z
-x,y,z
x,-y,z
loop_
_atom_site_type_symbol
_atom_site_label
_atom_site_fract_x
_atom_site_fract_y
_atom_site_fract_z
Si Si1 0.291718 0.894292 0.734916
Si Si2 0.500000 0.614369 0.947698
Si Si3 0.790753 0.394306 0.306138
Si Si4 0.804670 0.389288 0.879879
Si Si5 0.792272 0.211418 0.357971
Si Si6 0.705474 0.710108 0.787120
Si Si7 0.211059 0.109168 0.551468
O O1 0.500000 0.895382 0.738238
O O2 0.247470 0.860540 0.683440
O O3 0.229776 0.812125 0.769349
O O4 0.227505 0.000000 0.743649
O O5 0.500000 0.500000 0.949891
O O6 0.332491 0.641401 0.918107
O O7 0.500000 0.649349 0.000000
O O8 0.729631 0.500000 0.315547
O O9 0.727996 0.313498 0.341096
O O10 0.739440 0.360476 0.255267
O O11 0.000000 0.394661 0.307721
O O12 0.770072 0.500000 0.868746
O O13 0.786213 0.329565 0.833490
O O14 0.000000 0.382856 0.897317
O O15 0.726681 0.173044 0.406550
O O16 0.000000 0.217500 0.361401
O O17 0.500000 0.715831 0.794438
O O18 0.265511 0.137507 0.500000
O O19 0.000000 0.110870 0.551865
O O20 0.261115 0.000000 0.558737
#
# Coordination Sequence:
#
# PCOD9381583 Si02
#       7
#     8   4   8   8   8   8   8
#     4   9  18  30  42  59  86 116 141 171 215 264
#     4   9  18  32  48  68  95 127 163 197 229 270
#     4   9  17  27  38  55  80 108 138 174 214 255
#     4  10  19  30  46  68  95 126 157 192 231 267
#     4   9  16  26  41  58  76 103 138 172 208 255
#     4  10  18  28  43  62  86 116 149 182 216 260
#     4   8  13  21  35  56  77  95 123 168 216 259
#
# _framework density 16.276185999999999
#
# number of rings (size 3 to 8) (size 9 to 14) (size 15 to 20)
#    0.000    2.846    0.769    1.846    0.000    4.000 
#    0.000    1.538    0.000    0.923    0.000    5.385 
#    0.000    1.231    0.000    9.077    0.000    8.462 
#
# Total GULP energy -289838.446338 kJ/mol
# GULP energy per Si atom -5573.816276 kJ/mol
# Density = 1.623914 g / cm^3
# Si number density = 16.276186 Si / 1000 Ang^3
#
#
#
# Elastic Constant Matrix: (Units=GPa)
#
#
# Indices 1 2 3 4 5 6 
#
# 1 45.6916 20.5779 31.3250 0.0000 0.0000 0.0000
# 2 20.5779 101.6490 62.0342 0.0000 0.0000 0.0000
# 3 31.3250 62.0342 139.0827 0.0000 0.0000 0.0000
# 4 0.0000 0.0000 0.0000 18.7036 0.0000 0.0000
# 5 0.0000 0.0000 0.0000 0.0000 14.6325 0.0000
# 6 0.0000 0.0000 0.0000 0.0000 0.0000 9.1000
#
#
#
# Elastic Compliance Matrix: (Units=1/GPa)
#
#
# Indices 1 2 3 4 5 6 
#
# 1 0.026284 -0.002347 -0.004873 0.000000 0.000000 0.000000
# 2 -0.002347 0.013727 -0.005594 0.000000 0.000000 0.000000
# 3 -0.004873 -0.005594 0.010782 0.000000 0.000000 0.000000
# 4 0.000000 0.000000 0.000000 0.053466 0.000000 0.000000
# 5 0.000000 0.000000 0.000000 0.000000 0.068341 0.000000
# 6 0.000000 0.000000 0.000000 0.000000 0.000000 0.109890
#
#
# Mechanical properties :
#
#
# Convention : Reuss Voigt Hill
#
# Bulk Modulus (GPa) = 39.73736 57.14415 48.44076
# Shear Modulus (GPa) = 15.79753 19.98632 17.89192
#
# Velocity S-wave (km/s) = 3.11881 3.50801 3.31912
# Velocity P-wave (km/s) = 6.11856 7.18286 6.67196
#
# Compressibility (1/GPa) = 0.02516523
#
# Stress axis : x y z
#
# Youngs Moduli (GPa) = 38.04649 72.85074 92.74338
#
# Poissons Ratio (x) = 0.17098 0.45193
# Poissons Ratio (y) = 0.08930 0.51879
# Poissons Ratio (z) = 0.18540 0.40751
#
# Static dielectric constant tensor:
#      x y z
#    x 1.597800 0.000000 0.000000 
#    y 0.000000 1.554530 0.000000 
#    z 0.000000 0.000000 1.520070 
# 
# From -- ./inp_files/33380.got.cif
#   From: 2010.05.17/outbox.cif.g08.bks.cpg/sg47_17_cif.got.tgz:33380.got - 2010.06.03 20:15:42.
