data_PCOD9381984
_publ_section_title
;
Structure prediction by ZEFSAII (Michael W. Deem and Ramdas Pophale) SiO2 
 PCOD9381984
Probable space group: P M M M
;
_chemical_formula_sum "Si O2"
_cell_formula_units_Z 52
_cell_length_a 28.653562
_cell_length_b 9.074267
_cell_length_c 11.984655
_cell_angle_alpha 90.000000
_cell_angle_beta 90.000000
_cell_angle_gamma 90.000000
_cell_volume 3116.131011
_symmetry_space_group_name_H-M "P M M M"
_symmetry_group_IT_number 47
_symmetry_cell_setting 'orthorhombic'
loop_
_space_group_symop_operation_xyz
x,y,z
-x,-y,z
x,-y,-z
-x,y,-z
-x,-y,-z
x,y,-z
-x,y,z
x,-y,z
loop_
_atom_site_type_symbol
_atom_site_label
_atom_site_fract_x
_atom_site_fract_y
_atom_site_fract_z
Si Si1 0.816651 0.177562 0.247527
Si Si2 0.904111 0.327196 0.365485
Si Si3 0.301886 0.672852 0.000000
Si Si4 0.728386 0.677113 0.368399
Si Si5 0.202695 0.823558 0.000000
Si Si6 0.640655 0.325202 0.226046
Si Si7 0.000000 0.170010 0.635673
Si Si8 0.446521 0.822718 0.129381
O O1 0.860413 0.243770 0.312877
O O2 0.769023 0.241399 0.300485
O O3 0.819432 0.223425 0.117378
O O4 0.816281 0.000000 0.255078
O O5 0.901112 0.315835 0.500000
O O6 0.903240 0.500000 0.336947
O O7 0.952917 0.253396 0.329785
O O8 0.331805 0.701328 0.889716
O O9 0.288894 0.500000 0.000000
O O10 0.255618 0.768075 0.000000
O O11 0.732793 0.706332 0.500000
O O12 0.733333 0.500000 0.350760
O O13 0.677219 0.719413 0.322034
O O14 0.202461 0.000000 0.000000
O O15 0.632270 0.500000 0.236453
O O16 0.591669 0.243904 0.211824
O O17 0.000000 0.170384 0.500000
O O18 0.000000 0.000000 0.672151
O O19 0.500000 0.780524 0.155273
O O20 0.443799 0.000000 0.131793
O O21 0.437270 0.776798 0.000000
#
# Coordination Sequence:
#
# PCOD9381984 Si02
#       8
#     8   8   4   8   4   8   4   8
#     4  11  22  35  52  75 104 136 172 212 253 300
#     4  10  20  34  53  78 108 140 173 211 257 304
#     4  10  18  30  49  73  97 126 168 208 247 298
#     4  10  21  36  52  72 101 135 169 206 250 299
#     4  10  22  36  50  72 102 136 172 209 252 300
#     4  10  19  31  49  73  99 127 161 204 249 296
#     4   9  17  31  53  80 107 136 173 215 257 301
#     4   9  18  31  47  70  99 128 158 196 246 300
#
# _framework density 16.687360000000002
#
# number of rings (size 3 to 8) (size 9 to 14) (size 15 to 20)
#    0.000    2.077    2.308    2.077    0.000    6.154 
#    0.000    0.769    0.000    0.923    0.000    6.462 
#    0.000    0.000    0.000    0.000    0.000    0.000 
#
# Total GULP energy -290053.109274 kJ/mol
# GULP energy per Si atom -5577.944409 kJ/mol
# Density = 1.664938 g / cm^3
# Si number density = 16.687360 Si / 1000 Ang^3
#
#
#
# Elastic Constant Matrix: (Units=GPa)
#
#
# Indices 1 2 3 4 5 6 
#
# 1 135.1337 53.6942 42.3535 0.0000 0.0000 0.0000
# 2 53.6942 51.1512 40.4171 0.0000 0.0000 0.0000
# 3 42.3535 40.4171 70.3523 0.0000 0.0000 0.0000
# 4 0.0000 0.0000 0.0000 18.3271 0.0000 0.0000
# 5 0.0000 0.0000 0.0000 0.0000 9.8710 0.0000
# 6 0.0000 0.0000 0.0000 0.0000 0.0000 35.6953
#
#
#
# Elastic Compliance Matrix: (Units=1/GPa)
#
#
# Indices 1 2 3 4 5 6 
#
# 1 0.012695 -0.013345 0.000024 0.000000 0.000000 0.000000
# 2 -0.013345 0.049830 -0.020593 0.000000 0.000000 0.000000
# 3 0.000024 -0.020593 0.026030 0.000000 0.000000 0.000000
# 4 0.000000 0.000000 0.000000 0.054564 0.000000 0.000000
# 5 0.000000 0.000000 0.000000 0.000000 0.101307 0.000000
# 6 0.000000 0.000000 0.000000 0.000000 0.000000 0.028015
#
#
# Mechanical properties :
#
#
# Convention : Reuss Voigt Hill
#
# Bulk Modulus (GPa) = 48.24608 58.84076 53.54342
# Shear Modulus (GPa) = 14.40175 20.79017 17.59596
#
# Velocity S-wave (km/s) = 2.94093 3.53351 3.25075
# Velocity P-wave (km/s) = 6.36448 7.21005 6.80042
#
# Compressibility (1/GPa) = 0.02072707
#
# Stress axis : x y z
#
# Youngs Moduli (GPa) = 78.76995 20.06804 38.41669
#
# Poissons Ratio (x) = 0.26782 -0.00093
# Poissons Ratio (y) = 1.05122 0.79112
# Poissons Ratio (z) = -0.00190 0.41326
#
# Static dielectric constant tensor:
#      x y z
#    x 1.544260 0.000000 0.000000 
#    y 0.000000 1.561190 0.000000 
#    z 0.000000 0.000000 1.561830 
# 
# From -- ./inp_files/19856.got.cif
#   From: 2010.05.17/outbox.cif.g08.bks.cpg/sg47_10_cif.got.tgz:19856.got - 2010.06.03 20:15:42.
