data_PCOD9381419
_publ_section_title
;
Structure prediction by ZEFSAII (Michael W. Deem and Ramdas Pophale) SiO2 
 PCOD9381419
Probable space group: P M M M
;
_chemical_formula_sum "Si O2"
_cell_formula_units_Z 64
_cell_length_a 16.048006
_cell_length_b 7.489159
_cell_length_c 24.655556
_cell_angle_alpha 90.000000
_cell_angle_beta 90.000000
_cell_angle_gamma 90.000000
_cell_volume 2963.254344
_symmetry_space_group_name_H-M "P M M M"
_symmetry_group_IT_number 47
_symmetry_cell_setting 'orthorhombic'
loop_
_space_group_symop_operation_xyz
x,y,z
-x,-y,z
x,-y,-z
-x,y,-z
-x,-y,-z
x,y,-z
-x,y,z
x,-y,z
loop_
_atom_site_type_symbol
_atom_site_label
_atom_site_fract_x
_atom_site_fract_y
_atom_site_fract_z
Si Si1 0.093451 0.281643 0.634113
Si Si2 0.752980 0.712659 0.438836
Si Si3 0.092870 0.281910 0.867181
Si Si4 0.591116 0.292642 0.871262
Si Si5 0.159775 0.716131 0.249274
Si Si6 0.250019 0.718689 0.937480
Si Si7 0.644464 0.792259 0.751840
Si Si8 0.592073 0.784823 0.633781
O O1 0.094409 0.500000 0.633772
O O2 0.167420 0.218851 0.594842
O O3 0.115104 0.226091 0.695539
O O4 0.000000 0.226220 0.618859
O O5 0.747901 0.784018 0.500000
O O6 0.764772 0.500000 0.442572
O O7 0.667923 0.739045 0.405621
O O8 0.093270 0.500000 0.867260
O O9 0.115382 0.225834 0.805944
O O10 0.165815 0.223580 0.907367
O O11 0.000000 0.224373 0.882168
O O12 0.500000 0.212408 0.881455
O O13 0.586845 0.500000 0.887506
O O14 0.669576 0.217191 0.903890
O O15 0.610283 0.288938 0.807188
O O16 0.159888 0.500000 0.249178
O O17 0.255737 0.774400 0.249214
O O18 0.249692 0.500000 0.935958
O O19 0.253133 0.772290 0.000000
O O20 0.610397 0.718817 0.694916
O O21 0.621431 0.000000 0.754273
O O22 0.500000 0.724822 0.616024
O O23 0.591019 0.000000 0.636435
#
# Coordination Sequence:
#
# PCOD9381419 Si02
#       8
#     8   8   8   8   8   8   8   8
#     4   9  17  30  52  81 110 140 173 212 260 312
#     4  10  21  36  55  81 110 139 176 221 261 300
#     4   9  16  26  45  74 105 134 166 210 260 307
#     4  10  20  34  53  77 104 136 172 210 258 312
#     4  10  17  30  53  78 106 137 173 214 259 313
#     4   9  17  29  46  72 105 137 172 214 255 299
#     4  11  21  34  55  80 107 136 169 213 265 316
#     4  10  22  39  57  77 103 138 177 215 262 320
#
# _framework density 21.597874000000001
#
# number of rings (size 3 to 8) (size 9 to 14) (size 15 to 20)
#    0.000    2.250    2.500    1.125    0.000    4.250 
#    0.000    5.000    0.000    3.000    0.000    1.750 
#    0.000    1.000    0.000    0.000    0.000    0.000 
#
# Total GULP energy -357560.101818 kJ/mol
# GULP energy per Si atom -5586.876591 kJ/mol
# Density = 2.154872 g / cm^3
# Si number density = 21.597874 Si / 1000 Ang^3
#
#
#
# Elastic Constant Matrix: (Units=GPa)
#
#
# Indices 1 2 3 4 5 6 
#
# 1 230.3951 0.2092 112.7566 0.0000 0.0000 0.0000
# 2 0.2092 59.4534 3.4649 0.0000 0.0000 0.0000
# 3 112.7566 3.4649 178.9883 0.0000 0.0000 0.0000
# 4 0.0000 0.0000 0.0000 -36.2833 0.0000 0.0000
# 5 0.0000 0.0000 0.0000 0.0000 1.4482 0.0000
# 6 0.0000 0.0000 0.0000 0.0000 0.0000 71.9983
#
#
#
# Elastic Compliance Matrix: (Units=1/GPa)
#
#
# Indices 1 2 3 4 5 6 
#
# 1 0.006278 0.000209 -0.003959 0.000000 0.000000 0.000000
# 2 0.000209 0.016846 -0.000458 0.000000 0.000000 0.000000
# 3 -0.003959 -0.000458 0.008090 0.000000 0.000000 0.000000
# 4 0.000000 0.000000 0.000000 -0.027561 0.000000 0.000000
# 5 0.000000 0.000000 0.000000 0.000000 0.690525 0.000000
# 6 0.000000 0.000000 0.000000 0.000000 0.000000 0.013889
#
#
# Mechanical properties :
#
#
# Convention : Reuss Voigt Hill
#
# Bulk Modulus (GPa) = 43.86378 77.96648 60.91513
# Shear Modulus (GPa) = 6.90531 30.92638 18.91584
#
# Velocity S-wave (km/s) = 1.79002 3.78817 2.96264
# Velocity P-wave (km/s) = 4.96242 7.43715 6.32206
#
# Compressibility (1/GPa) = 0.02279785
#
# Stress axis : x y z
#
# Youngs Moduli (GPa) = 159.29671 59.36184 123.61448
#
# Poissons Ratio (x) = -0.01238 0.48935
# Poissons Ratio (y) = -0.03323 0.05656
# Poissons Ratio (z) = 0.63061 0.02716
#
# Static dielectric constant tensor:
#      x y z
#    x 1.760540 0.000000 0.000000 
#    y 0.000000 1.807080 0.000000 
#    z 0.000000 0.000000 1.740710 
# 
# From -- ./inp_files/12679.got.cif
#   From: 2010.05.17/outbox.cif.g08.bks.cpg/sg47_7_cif.got.tgz:12679.got - 2010.06.03 20:15:42.
