data_PCOD9381429
_publ_section_title
;
Structure prediction by ZEFSAII (Michael W. Deem and Ramdas Pophale) SiO2 
 PCOD9381429
Probable space group: P M M M
;
_chemical_formula_sum "Si O2"
_cell_formula_units_Z 52
_cell_length_a 19.539153
_cell_length_b 13.619969
_cell_length_c 11.772348
_cell_angle_alpha 90.000000
_cell_angle_beta 90.000000
_cell_angle_gamma 90.000000
_cell_volume 3132.888542
_symmetry_space_group_name_H-M "P M M M"
_symmetry_group_IT_number 47
_symmetry_cell_setting 'orthorhombic'
loop_
_space_group_symop_operation_xyz
x,y,z
-x,-y,z
x,-y,-z
-x,y,-z
-x,-y,-z
x,y,-z
-x,y,z
x,-y,z
loop_
_atom_site_type_symbol
_atom_site_label
_atom_site_fract_x
_atom_site_fract_y
_atom_site_fract_z
Si Si1 0.790005 0.388589 0.749698
Si Si2 0.661817 0.303268 0.362590
Si Si3 0.079910 0.306629 0.365572
Si Si4 0.917890 0.192596 0.000000
Si Si5 0.420487 0.889812 0.637974
Si Si6 0.917144 0.108573 0.757750
Si Si7 0.836142 0.388203 0.000000
Si Si8 0.421161 0.500000 0.362130
O O1 0.769170 0.500000 0.722287
O O2 0.736573 0.316736 0.690443
O O3 0.866381 0.371918 0.702380
O O4 0.793016 0.376177 0.885002
O O5 0.666790 0.303390 0.500000
O O6 0.625343 0.202253 0.326009
O O7 0.617359 0.399488 0.328913
O O8 0.086740 0.321299 0.500000
O O9 0.097984 0.194862 0.330474
O O10 0.000000 0.323796 0.334568
O O11 0.894085 0.140662 0.883928
O O12 0.893192 0.304398 0.000000
O O13 0.000000 0.189112 0.000000
O O14 0.419393 0.889529 0.500000
O O15 0.500000 0.875536 0.671052
O O16 0.399017 0.000000 0.674135
O O17 0.000000 0.103889 0.762039
O O18 0.891746 0.000000 0.728304
O O19 0.863488 0.500000 0.000000
O O20 0.500000 0.500000 0.323617
O O21 0.421946 0.500000 0.500000
#
# Coordination Sequence:
#
# PCOD9381429 Si02
#       8
#     8   8   8   4   8   8   4   4
#     4  11  22  37  53  71  97 132 173 216 266 315
#     4  10  18  29  48  75 105 138 169 201 246 304
#     4  10  21  35  51  73 101 135 173 211 253 309
#     4  10  17  31  54  77  97 118 156 215 269 312
#     4   8  14  26  46  74 109 143 169 197 237 289
#     4   9  17  30  50  74  97 123 157 203 260 311
#     4  10  22  36  53  72  90 124 170 215 264 307
#     4   9  16  26  44  75 108 132 161 203 245 290
#
# _framework density 16.598101
#
# number of rings (size 3 to 8) (size 9 to 14) (size 15 to 20)
#    0.000    2.385    2.308    1.615    0.000    4.462 
#    0.000    4.615    0.000    1.846    0.000    2.692 
#    0.000    1.231    0.000    0.000    0.000    0.000 
#
# Total GULP energy -289681.343725 kJ/mol
# GULP energy per Si atom -5570.795072 kJ/mol
# Density = 1.656032 g / cm^3
# Si number density = 16.598101 Si / 1000 Ang^3
#
#
#
# Elastic Constant Matrix: (Units=GPa)
#
#
# Indices 1 2 3 4 5 6 
#
# 1 70.5382 43.3019 26.2751 0.0000 0.0000 0.0000
# 2 43.3019 102.1004 22.6174 0.0000 0.0000 0.0000
# 3 26.2751 22.6174 41.7708 0.0000 0.0000 0.0000
# 4 0.0000 0.0000 0.0000 15.7138 0.0000 0.0000
# 5 0.0000 0.0000 0.0000 0.0000 6.3956 0.0000
# 6 0.0000 0.0000 0.0000 0.0000 0.0000 26.5444
#
#
#
# Elastic Compliance Matrix: (Units=1/GPa)
#
#
# Indices 1 2 3 4 5 6 
#
# 1 0.022420 -0.007255 -0.010175 0.000000 0.000000 0.000000
# 2 -0.007255 0.013477 -0.002734 0.000000 0.000000 0.000000
# 3 -0.010175 -0.002734 0.031821 0.000000 0.000000 0.000000
# 4 0.000000 0.000000 0.000000 0.063638 0.000000 0.000000
# 5 0.000000 0.000000 0.000000 0.000000 0.156358 0.000000
# 6 0.000000 0.000000 0.000000 0.000000 0.000000 0.037673
#
#
# Mechanical properties :
#
#
# Convention : Reuss Voigt Hill
#
# Bulk Modulus (GPa) = 36.50827 44.31092 40.40959
# Shear Modulus (GPa) = 13.33890 17.87842 15.60866
#
# Velocity S-wave (km/s) = 2.83793 3.28554 3.06990
# Velocity P-wave (km/s) = 5.72553 6.41462 6.07984
#
# Compressibility (1/GPa) = 0.02739105
#
# Stress axis : x y z
#
# Youngs Moduli (GPa) = 44.60229 74.20233 31.42610
#
# Poissons Ratio (x) = 0.53832 0.31976
# Poissons Ratio (y) = 0.32358 0.08591
# Poissons Ratio (z) = 0.45382 0.20284
#
# Static dielectric constant tensor:
#      x y z
#    x 1.550860 0.000000 0.000000 
#    y 0.000000 1.588380 0.000000 
#    z 0.000000 0.000000 1.542730 
# 
# From -- ./inp_files/18604.got.cif
#   From: 2010.05.17/outbox.cif.g08.bks.cpg/sg47_10_cif.got.tgz:18604.got - 2010.06.03 20:15:42.
