data_PCOD9381126
_publ_section_title
;
Structure prediction by ZEFSAII (Michael W. Deem and Ramdas Pophale) SiO2 
 PCOD9381126
Probable space group: I M A 2
;
_chemical_formula_sum "Si O2"
_cell_formula_units_Z 20
_cell_length_a 9.000000
_cell_length_b 18.000000
_cell_length_c 12.000000
_cell_angle_alpha 90.000000
_cell_angle_beta 90.000000
_cell_angle_gamma 90.000000
_cell_volume 1944.000000
_symmetry_space_group_name_H-M "I M A 2"
_symmetry_group_IT_number 46
_symmetry_cell_setting 'orthorhombic'
loop_
_space_group_symop_operation_xyz
x,y,z
-x,-y,z
1/2-x,y,z
1/2+x,-y,z
1/2+x,1/2+y,1/2+z
1/2-x,1/2-y,1/2+z
-x,1/2+y,1/2+z
x,1/2-y,1/2+z
loop_
_atom_site_type_symbol
_atom_site_label
_atom_site_fract_x
_atom_site_fract_y
_atom_site_fract_z
Si Si1 0.582609 0.424833 0.250000
Si Si2 0.072718 0.082826 0.369017
Si Si3 0.072543 0.841006 0.154571
Si Si4 0.083389 0.815867 0.547053
Si Si5 0.073655 0.419986 0.450873
O O1 0.500000 0.500000 0.214772
O O2 0.750000 0.439651 0.294525
O O3 0.599399 0.375631 0.143043
O O4 0.479282 0.380703 0.337684
O O5 0.250000 0.073288 0.365861
O O6 0.011098 0.122425 0.257995
O O7 0.024467 0.143497 0.461172
O O8 0.000000 0.000000 0.383252
O O9 0.250000 0.843235 0.173239
O O10 0.033207 0.758668 0.110359
O O11 0.018799 0.890208 0.052469
O O12 0.250000 0.801428 0.497569
O O13 0.250000 0.419628 0.467282
O O14 0.000000 0.500000 0.430068
#
# Coordination Sequence:
#
# PCOD9381126 Si02
#       5
#     8   8   8   8   8
#     4  10  20  37  61  91 122 162 207 255 312 378
#     4  12  26  45  70  99 134 176 225 275 328 394
#     4  11  24  43  66  93 130 172 215 266 325 388
#     4  10  24  43  66  94 129 171 214 264 326 387
#     4  11  22  38  61  91 124 163 208 260 316 378
#
# _framework density 10.288066000000001
#
# number of rings (size 3 to 8) (size 9 to 14) (size 15 to 20)
#    0.000    1.200    0.000    7.200    2.800    4.800 
#    0.000    0.000    0.000    0.000    0.000    0.000 
#    0.000    0.000    0.000    0.000    0.000    0.000 
#
# Total GULP energy -111436.449226 kJ/mol
# GULP energy per Si atom -5571.822461 kJ/mol
# Density = 1.026465 g / cm^3
# Si number density = 10.288066 Si / 1000 Ang^3
#
#
#
# Elastic Constant Matrix: (Units=GPa)
#
#
# Indices 1 2 3 4 5 6 
#
# 1 95.6537 46.2115 20.1190 0.0000 0.0000 0.0000
# 2 46.2115 40.2958 1.9259 0.0000 0.0000 -0.0001
# 3 20.1190 1.9259 40.4215 0.0000 0.0000 -0.0001
# 4 0.0000 0.0000 0.0000 18.6291 0.0000 -0.0001
# 5 0.0000 0.0000 0.0000 0.0000 29.8219 0.0000
# 6 0.0000 -0.0001 -0.0001 -0.0001 0.0000 18.7715
#
#
#
# Elastic Compliance Matrix: (Units=1/GPa)
#
#
# Indices 1 2 3 4 5 6 
#
# 1 0.028815 -0.032434 -0.012797 0.000000 0.000000 0.000000
# 2 -0.032434 0.061380 0.013219 0.000000 0.000000 0.000000
# 3 -0.012797 0.013219 0.030479 0.000000 0.000000 0.000000
# 4 0.000000 0.000000 0.000000 0.053679 0.000000 0.000000
# 5 0.000000 0.000000 0.000000 0.000000 0.033532 0.000000
# 6 0.000000 0.000000 0.000000 0.000000 0.000000 0.053272
#
#
# Mechanical properties :
#
#
# Convention : Reuss Voigt Hill
#
# Bulk Modulus (GPa) = 17.65215 34.76488 26.20851
# Shear Modulus (GPa) = 14.53214 20.65216 17.59215
#
# Velocity S-wave (km/s) = 2.66044 3.17155 2.92717
# Velocity P-wave (km/s) = 4.24674 5.50854 4.91828
#
# Compressibility (1/GPa) = 0.05665034
#
# Stress axis : x y z
#
# Youngs Moduli (GPa) = 34.70401 16.29194 32.80962
#
# Poissons Ratio (x) = 0.52841 0.41986
# Poissons Ratio (y) = 1.12558 -0.43370
# Poissons Ratio (z) = 0.44410 -0.21536
#
# Static dielectric constant tensor:
#      x y z
#    x 1.834340 0.000000 0.000000 
#    y 0.000000 2.299350 0.000000 
#    z 0.000000 0.000000 1.880570 
# 
# From -- ./inp_files/9043.got.cif
#   From: 2010.05.17/outbox.ucp.g08.bks.cvg/sg46_5_cif.got.tgz:9043.got - 2010.06.11 16:34:52.
