data_PCOD9381351
_publ_section_title
;
Structure prediction by ZEFSAII (Michael W. Deem and Ramdas Pophale) SiO2 
 PCOD9381351
Probable space group: P M M M
;
_chemical_formula_sum "Si O2"
_cell_formula_units_Z 52
_cell_length_a 23.342012
_cell_length_b 15.057302
_cell_length_c 9.015537
_cell_angle_alpha 90.000000
_cell_angle_beta 90.000000
_cell_angle_gamma 90.000000
_cell_volume 3168.670270
_symmetry_space_group_name_H-M "P M M M"
_symmetry_group_IT_number 47
_symmetry_cell_setting 'orthorhombic'
loop_
_space_group_symop_operation_xyz
x,y,z
-x,-y,z
x,-y,-z
-x,y,-z
-x,-y,-z
x,y,-z
-x,y,z
x,-y,z
loop_
_atom_site_type_symbol
_atom_site_label
_atom_site_fract_x
_atom_site_fract_y
_atom_site_fract_z
Si Si1 0.163128 0.106028 0.172286
Si Si2 0.613273 0.212483 0.179903
Si Si3 0.932864 0.221185 0.676125
Si Si4 0.283822 0.895772 0.322518
Si Si5 0.930565 0.401615 0.171274
Si Si6 0.500000 0.897925 0.819916
Si Si7 0.566877 0.400858 0.180312
O O1 0.108387 0.153122 0.242271
O O2 0.221244 0.128214 0.259890
O O3 0.155903 0.000000 0.181305
O O4 0.169335 0.130812 0.000000
O O5 0.668130 0.166066 0.250596
O O6 0.556913 0.155693 0.223108
O O7 0.602818 0.314807 0.226726
O O8 0.617685 0.210090 0.000000
O O9 0.928437 0.211485 0.500000
O O10 0.914313 0.320010 0.725814
O O11 0.000000 0.209563 0.717581
O O12 0.284448 0.888494 0.500000
O O13 0.294529 0.000000 0.283568
O O14 0.910524 0.500000 0.216451
O O15 0.000000 0.404274 0.172597
O O16 0.913430 0.385931 0.000000
O O17 0.500000 0.000000 0.767460
O O18 0.500000 0.900055 0.000000
O O19 0.500000 0.388867 0.222575
O O20 0.585234 0.500000 0.228830
O O21 0.567748 0.400932 0.000000
#
# Coordination Sequence:
#
# PCOD9381351 Si02
#       7
#     8   8   8   8   8   4   8
#     4  10  21  37  56  75  95 125 168 213 252 295
#     4  10  17  28  48  73  98 128 165 203 244 288
#     4  10  20  32  49  76 108 138 165 199 249 306
#     4  10  21  36  52  70  95 128 163 201 249 304
#     4   8  14  26  45  69  98 132 168 204 240 281
#     4   9  16  24  38  66 100 127 155 197 242 281
#     4   8  13  23  42  70 101 129 162 205 247 286
#
# _framework density 16.41067
#
# number of rings (size 3 to 8) (size 9 to 14) (size 15 to 20)
#    0.000    2.692    0.769    2.769    0.000    4.000 
#    0.000    3.462    0.000    2.769    0.000    3.231 
#    0.000    0.000    0.000    0.000    0.000    0.000 
#
# Total GULP energy -289745.058773 kJ/mol
# GULP energy per Si atom -5572.020361 kJ/mol
# Density = 1.637332 g / cm^3
# Si number density = 16.410670 Si / 1000 Ang^3
#
#
#
# Elastic Constant Matrix: (Units=GPa)
#
#
# Indices 1 2 3 4 5 6 
#
# 1 92.9884 68.6518 41.3421 0.0000 0.0000 0.0000
# 2 68.6518 109.1743 42.6269 0.0000 0.0000 0.0000
# 3 41.3421 42.6269 42.0022 0.0000 0.0000 0.0000
# 4 0.0000 0.0000 0.0000 17.0797 0.0000 0.0000
# 5 0.0000 0.0000 0.0000 0.0000 10.4920 0.0000
# 6 0.0000 0.0000 0.0000 0.0000 0.0000 5.1926
#
#
#
# Elastic Compliance Matrix: (Units=1/GPa)
#
#
# Indices 1 2 3 4 5 6 
#
# 1 0.024105 -0.009763 -0.013819 0.000000 0.000000 0.000000
# 2 -0.009763 0.019125 -0.009800 0.000000 0.000000 0.000000
# 3 -0.013819 -0.009800 0.047356 0.000000 0.000000 0.000000
# 4 0.000000 0.000000 0.000000 0.058549 0.000000 0.000000
# 5 0.000000 0.000000 0.000000 0.000000 0.095311 0.000000
# 6 0.000000 0.000000 0.000000 0.000000 0.000000 0.192582
#
#
# Mechanical properties :
#
#
# Convention : Reuss Voigt Hill
#
# Bulk Modulus (GPa) = 41.97622 61.04518 51.51070
# Shear Modulus (GPa) = 9.77072 12.65581 11.21326
#
# Velocity S-wave (km/s) = 2.44271 2.78005 2.61682
# Velocity P-wave (km/s) = 5.79568 6.89812 6.37079
#
# Compressibility (1/GPa) = 0.02382301
#
# Stress axis : x y z
#
# Youngs Moduli (GPa) = 41.48461 52.28694 21.11665
#
# Poissons Ratio (x) = 0.51046 0.29180
# Poissons Ratio (y) = 0.40500 0.20695
# Poissons Ratio (z) = 0.57326 0.51244
#
# Static dielectric constant tensor:
#      x y z
#    x 1.521930 0.000000 0.000000 
#    y 0.000000 1.567940 0.000000 
#    z 0.000000 0.000000 1.546620 
# 
# From -- ./inp_files/7075.got.cif
#   From: 2010.05.17/outbox.cif.g08.bks.cpg/sg47_4_cif.got.tgz:7075.got - 2010.06.03 20:15:42.
