data_PCOD9381810
_publ_section_title
;
Structure prediction by ZEFSAII (Michael W. Deem and Ramdas Pophale) SiO2 
 PCOD9381810
Probable space group: P M M M
;
_chemical_formula_sum "Si O2"
_cell_formula_units_Z 64
_cell_length_a 20.684792
_cell_length_b 20.792064
_cell_length_c 7.363932
_cell_angle_alpha 90.000000
_cell_angle_beta 90.000000
_cell_angle_gamma 90.000000
_cell_volume 3167.076333
_symmetry_space_group_name_H-M "P M M M"
_symmetry_group_IT_number 47
_symmetry_cell_setting 'orthorhombic'
loop_
_space_group_symop_operation_xyz
x,y,z
-x,-y,z
x,-y,-z
-x,y,-z
-x,-y,-z
x,y,-z
-x,y,z
x,-y,z
loop_
_atom_site_type_symbol
_atom_site_label
_atom_site_fract_x
_atom_site_fract_y
_atom_site_fract_z
Si Si1 0.821168 0.827916 0.790980
Si Si2 0.401848 0.746884 0.711260
Si Si3 0.074863 0.927780 0.778541
Si Si4 0.743987 0.710715 0.779302
Si Si5 0.430040 0.110810 0.721969
Si Si6 0.430283 0.395001 0.720336
Si Si7 0.288381 0.929415 0.719755
Si Si8 0.284969 0.430766 0.788363
O O1 0.877936 0.871874 0.711186
O O2 0.799876 0.758861 0.714438
O O3 0.757666 0.873146 0.787639
O O4 0.839242 0.815774 0.000000
O O5 0.420441 0.747154 0.500000
O O6 0.324521 0.741823 0.725200
O O7 0.425284 0.814831 0.783665
O O8 0.427104 0.679256 0.784654
O O9 0.000000 0.917851 0.728797
O O10 0.094200 0.000000 0.720375
O O11 0.077786 0.927930 0.000000
O O12 0.742245 0.636758 0.713982
O O13 0.744857 0.709721 0.000000
O O14 0.429125 0.109689 0.500000
O O15 0.500000 0.084136 0.777208
O O16 0.362977 0.078466 0.777831
O O17 0.428264 0.395862 0.500000
O O18 0.500000 0.422331 0.774991
O O19 0.363149 0.425975 0.779626
O O20 0.287243 0.926032 0.500000
O O21 0.264540 0.000000 0.775153
O O22 0.265791 0.500000 0.709050
O O23 0.266909 0.431518 0.000000
#
# Coordination Sequence:
#
# PCOD9381810 Si02
#       8
#     8   8   8   8   8   8   8   8
#     4  10  18  29  48  69  88 111 141 177 213 248
#     4   9  15  26  43  59  76 101 133 169 212 259
#     4   8  14  25  42  66  94 120 144 168 198 242
#     4   9  17  28  43  63  83 102 132 173 210 244
#     4   9  16  26  41  58  76 101 136 177 216 253
#     4   9  17  27  40  59  79  98 127 170 216 260
#     4  10  20  31  43  62  86 111 142 179 216 255
#     4   9  18  31  43  55  77 108 136 164 204 256
#
# _framework density 20.207912
#
# number of rings (size 3 to 8) (size 9 to 14) (size 15 to 20)
#    0.000    2.875    1.250    1.125    0.000    3.250 
#    0.000    2.500    0.000    2.625    0.000    2.625 
#    0.000    0.500    0.000    7.000    0.000    0.000 
#
# Total GULP energy -357026.686761 kJ/mol
# GULP energy per Si atom -5578.541981 kJ/mol
# Density = 2.016192 g / cm^3
# Si number density = 20.207912 Si / 1000 Ang^3
#
#
#
# Elastic Constant Matrix: (Units=GPa)
#
#
# Indices 1 2 3 4 5 6 
#
# 1 90.6946 57.8159 -2.2820 0.0000 0.0000 0.0000
# 2 57.8159 147.9013 1.4369 0.0000 0.0000 0.0000
# 3 -2.2820 1.4369 75.1124 0.0000 0.0000 0.0000
# 4 0.0000 0.0000 0.0000 2.4835 0.0000 0.0000
# 5 0.0000 0.0000 0.0000 0.0000 5.2764 0.0000
# 6 0.0000 0.0000 0.0000 0.0000 0.0000 76.1458
#
#
#
# Elastic Compliance Matrix: (Units=1/GPa)
#
#
# Indices 1 2 3 4 5 6 
#
# 1 0.014709 -0.005755 0.000557 0.000000 0.000000 0.000000
# 2 -0.005755 0.009014 -0.000347 0.000000 0.000000 0.000000
# 3 0.000557 -0.000347 0.013337 0.000000 0.000000 0.000000
# 4 0.000000 0.000000 0.000000 0.402663 0.000000 0.000000
# 5 0.000000 0.000000 0.000000 0.000000 0.189525 0.000000
# 6 0.000000 0.000000 0.000000 0.000000 0.000000 0.013133
#
#
# Mechanical properties :
#
#
# Convention : Reuss Voigt Hill
#
# Bulk Modulus (GPa) = 38.50731 47.51667 43.01199
# Shear Modulus (GPa) = 7.55142 33.89696 20.72419
#
# Velocity S-wave (km/s) = 1.93519 4.10006 3.20589
# Velocity P-wave (km/s) = 4.90818 6.78078 5.91900
#
# Compressibility (1/GPa) = 0.02596909
#
# Stress axis : x y z
#
# Youngs Moduli (GPa) = 67.98618 110.93344 74.97968
#
# Poissons Ratio (x) = 0.63845 -0.04176
# Poissons Ratio (y) = 0.39128 0.02604
# Poissons Ratio (z) = -0.03787 0.03853
#
# Static dielectric constant tensor:
#      x y z
#    x 1.690670 0.000000 0.000000 
#    y 0.000000 1.753480 0.000000 
#    z 0.000000 0.000000 1.776260 
# 
# From -- ./inp_files/11820.got.cif
#   From: 2010.05.17/outbox.cif.g08.bks.cpg/sg47_6_cif.got.tgz:11820.got - 2010.06.03 20:15:42.
