data_PCOD9381247
_publ_section_title
;
Structure prediction by ZEFSAII (Michael W. Deem and Ramdas Pophale) SiO2 
 PCOD9381247
Probable space group: P M M M
;
_chemical_formula_sum "Si O2"
_cell_formula_units_Z 52
_cell_length_a 25.279994
_cell_length_b 7.429848
_cell_length_c 14.065777
_cell_angle_alpha 90.000000
_cell_angle_beta 90.000000
_cell_angle_gamma 90.000000
_cell_volume 2641.925845
_symmetry_space_group_name_H-M "P M M M"
_symmetry_group_IT_number 47
_symmetry_cell_setting 'orthorhombic'
loop_
_space_group_symop_operation_xyz
x,y,z
-x,-y,z
x,-y,-z
-x,y,-z
-x,-y,-z
x,y,-z
-x,y,z
x,-y,z
loop_
_atom_site_type_symbol
_atom_site_label
_atom_site_fract_x
_atom_site_fract_y
_atom_site_fract_z
Si Si1 0.623844 0.779801 0.690167
Si Si2 0.353433 0.210075 0.893001
Si Si3 0.561233 0.780672 0.500000
Si Si4 0.059808 0.219379 0.390410
Si Si5 0.264931 0.780496 0.391829
Si Si6 0.230681 0.714562 0.893819
Si Si7 0.162285 0.213345 0.714727
O O1 0.615960 0.718519 0.799579
O O2 0.588611 0.722839 0.599456
O O3 0.683514 0.724145 0.664837
O O4 0.621483 0.000000 0.691427
O O5 0.290074 0.217509 0.872030
O O6 0.367410 0.000000 0.899192
O O7 0.361048 0.287410 0.000000
O O8 0.500000 0.729347 0.500000
O O9 0.564623 0.000000 0.500000
O O10 0.072445 0.268835 0.500000
O O11 0.105391 0.282831 0.318704
O O12 0.000000 0.279631 0.368730
O O13 0.058573 0.000000 0.388330
O O14 0.271116 0.726611 0.500000
O O15 0.210009 0.714126 0.349724
O O16 0.264180 0.000000 0.388650
O O17 0.235067 0.500000 0.893721
O O18 0.184838 0.763100 0.820303
O O19 0.217795 0.777446 0.000000
O O20 0.159827 0.000000 0.697445
#
# Coordination Sequence:
#
# PCOD9381247 Si02
#       7
#     8   8   4   8   8   8   8
#     4   9  14  22  36  57  84 113 144 180 213 248
#     4   9  16  27  44  64  85 112 147 183 221 267
#     4   9  16  24  36  58  91 127 154 178 213 256
#     4   8  14  25  42  67  95 116 139 178 222 260
#     4   9  14  20  34  60  87 108 135 174 213 249
#     4  10  20  31  42  60  89 119 144 178 226 272
#     4  10  17  26  44  67  87 114 148 177 213 263
#
# _framework density 19.682611999999999
#
# number of rings (size 3 to 8) (size 9 to 14) (size 15 to 20)
#    0.000    2.846    2.308    1.385    0.000    2.769 
#    0.000    0.000    0.000    3.231    0.000    7.538 
#    0.000    1.231    0.000    3.846    0.000    4.000 
#
# Total GULP energy -289748.045009 kJ/mol
# GULP energy per Si atom -5572.077789 kJ/mol
# Density = 1.963781 g / cm^3
# Si number density = 19.682612 Si / 1000 Ang^3
#
#
#
# Elastic Constant Matrix: (Units=GPa)
#
#
# Indices 1 2 3 4 5 6 
#
# 1 69.8120 4.2725 77.7705 0.0000 0.0000 0.0000
# 2 4.2725 60.9847 -1.9661 0.0000 0.0000 0.0000
# 3 77.7705 -1.9661 190.1226 0.0000 0.0000 0.0000
# 4 0.0000 0.0000 0.0000********** 0.0000 0.0000
# 5 0.0000 0.0000 0.0000 0.0000 9.9342 0.0000
# 6 0.0000 0.0000 0.0000 0.0000 0.0000 -7.7919
#
#
#
# Elastic Compliance Matrix: (Units=1/GPa)
#
#
# Indices 1 2 3 4 5 6 
#
# 1 0.026612 -0.002216 -0.010909 0.000000 0.000000 0.000000
# 2 -0.002216 0.016588 0.001078 0.000000 0.000000 0.000000
# 3 -0.010909 0.001078 0.009733 0.000000 0.000000 0.000000
# 4 0.000000 0.000000 0.000000 -0.000048 0.000000 0.000000
# 5 0.000000 0.000000 0.000000 0.000000 0.100662 0.000000
# 6 0.000000 0.000000 0.000000 0.000000 0.000000 -0.128339
#
#
# Mechanical properties :
#
#
# Convention : Reuss Voigt Hill
#
# Bulk Modulus (GPa) = 34.67492 53.45258 44.06375
# Shear Modulus (GPa) = 84.86804 -4136.62257 -2025.87727
#
# Velocity S-wave (km/s) = 6.57357 -45.89364 -32.11708
# Velocity P-wave (km/s) = 8.67589 52.73599 36.78188
#
# Compressibility (1/GPa) = 0.02883929
#
# Stress axis : x y z
#
# Youngs Moduli (GPa) = 37.57682 60.28614 102.74130
#
# Poissons Ratio (x) = 0.13360 1.12078
# Poissons Ratio (y) = 0.08327 -0.11076
# Poissons Ratio (z) = 0.40992 -0.06499
#
# Static dielectric constant tensor:
#      x y z
#    x 1.667220 0.000000 0.000000 
#    y 0.000000 1.742780 0.000000 
#    z 0.000000 0.000000 1.742570 
# 
# From -- ./inp_files/25401.got.cif
#   From: 2010.05.17/outbox.cif.g08.bks.cpg/sg47_13_cif.got.tgz:25401.got - 2010.06.03 20:15:42.
