data_PCOD9381021
_publ_section_title
;
Structure prediction by ZEFSAII (Michael W. Deem and Ramdas Pophale) SiO2 
 PCOD9381021
Probable space group: I M A 2
;
_chemical_formula_sum "Si O2"
_cell_formula_units_Z 48
_cell_length_a 15.882374
_cell_length_b 10.557802
_cell_length_c 14.681980
_cell_angle_alpha 90.000000
_cell_angle_beta 90.000000
_cell_angle_gamma 90.000000
_cell_volume 2461.917865
_symmetry_space_group_name_H-M "I M A 2"
_symmetry_group_IT_number 46
_symmetry_cell_setting 'orthorhombic'
loop_
_space_group_symop_operation_xyz
x,y,z
-x,-y,z
1/2-x,y,z
1/2+x,-y,z
1/2+x,1/2+y,1/2+z
1/2-x,1/2-y,1/2+z
-x,1/2+y,1/2+z
x,1/2-y,1/2+z
loop_
_atom_site_type_symbol
_atom_site_label
_atom_site_fract_x
_atom_site_fract_y
_atom_site_fract_z
Si Si1 0.750000 0.110145 0.041060
Si Si2 0.750000 0.563866 0.720811
Si Si3 0.902732 0.993569 0.356664
Si Si4 0.600294 0.198525 0.514981
Si Si5 0.091957 0.480588 0.168489
Si Si6 0.250000 0.135038 0.960595
Si Si7 0.250000 0.354763 0.254323
Si Si8 0.087256 0.277933 0.009100
O O1 0.830073 0.199082 0.034526
O O2 0.750000 0.019798 0.129463
O O3 0.750000 0.015065 0.956700
O O4 0.667228 0.525766 0.779782
O O5 0.750000 0.716692 0.704921
O O6 0.899397 0.873948 0.424899
O O7 0.886325 0.114073 0.423472
O O8 0.000000 0.000000 0.323007
O O9 0.509321 0.264868 0.504720
O O10 0.603131 0.100001 0.600241
O O11 0.169065 0.442059 0.232171
O O12 0.089190 0.362334 0.099506
O O13 0.000000 0.500000 0.213141
O O14 0.250000 0.185679 0.858740
O O15 0.163827 0.181403 0.006949
#
# Coordination Sequence:
#
# PCOD9381021 Si02
#       8
#     4   4   8   8   8   4   4   8
#     4  12  26  40  51  93 126 165 194 247 320 370
#     4  12  23  40  61  94 128 161 206 251 312 364
#     4   9  18  39  69  93 112 158 212 257 297 361
#     4   9  20  41  65  87 123 156 207 245 307 369
#     4   9  19  39  67  92 113 155 208 252 298 358
#     4  12  24  40  55  85 127 156 207 248 307 369
#     4  12  23  40  61  92 123 162 201 256 307 365
#     4   9  17  39  69  88 110 159 207 255 293 353
#
# _framework density 19.496995999999999
#
# number of rings (size 3 to 8) (size 9 to 14) (size 15 to 20)
#    0.000    2.000    1.667    4.500    0.000    3.333 
#   18.000    0.000    0.000    0.000    0.000    0.000 
#    0.000    0.000    0.000    0.000    0.000    0.000 
#
# Total GULP energy -133824.937935 kJ/mol
# GULP energy per Si atom -5576.039081 kJ/mol
# Density = 1.945262 g / cm^3
# Si number density = 19.496996 Si / 1000 Ang^3
#
#
#
# Elastic Constant Matrix: (Units=GPa)
#
#
# Indices 1 2 3 4 5 6 
#
# 1 176.3353 67.7997 49.9229 0.0000 0.0000 0.0000
# 2 67.7997 72.1646 16.1918 0.0000 0.0000 0.0000
# 3 49.9229 16.1918 40.1962 0.0000 0.0000 0.0000
# 4 0.0000 0.0000 0.0000 16.0503 0.0000 0.0000
# 5 0.0000 0.0000 0.0000 0.0000 6.1279 0.0000
# 6 0.0000 0.0000 0.0000 0.0000 0.0000 47.2805
#
#
#
# Elastic Compliance Matrix: (Units=1/GPa)
#
#
# Indices 1 2 3 4 5 6 
#
# 1 0.012549 -0.009117 -0.011914 0.000000 0.000000 0.000000
# 2 -0.009117 0.021858 0.002519 0.000000 0.000000 0.000000
# 3 -0.011914 0.002519 0.038660 0.000000 0.000000 0.000000
# 4 0.000000 0.000000 0.000000 0.062304 0.000000 0.000000
# 5 0.000000 0.000000 0.000000 0.000000 0.163189 0.000000
# 6 0.000000 0.000000 0.000000 0.000000 0.000000 0.021150
#
#
# Mechanical properties :
#
#
# Convention : Reuss Voigt Hill
#
# Bulk Modulus (GPa) = 27.74472 61.83608 44.79040
# Shear Modulus (GPa) = 13.55936 24.21051 18.88494
#
# Velocity S-wave (km/s) = 2.64002 3.52768 3.11562
# Velocity P-wave (km/s) = 4.85325 6.95537 5.99714
#
# Compressibility (1/GPa) = 0.03604289
#
# Stress axis : x y z
#
# Youngs Moduli (GPa) = 79.68489 45.75001 25.86672
#
# Poissons Ratio (x) = 0.41712 0.30816
# Poissons Ratio (y) = 0.72651 -0.06515
# Poissons Ratio (z) = 0.94933 -0.11523
#
# Static dielectric constant tensor:
#      x y z
#    x 1.715920 0.000000 0.000000 
#    y 0.000000 1.661220 0.000000 
#    z 0.000000 0.000000 1.716440 
# 
# From -- ./inp_files/15906.got.cif
#   From: 2010.05.17/outbox.cif.g08.bks.cpg/sg46_8_cif.got.tgz:15906.got - 2010.06.03 19:58:25.
