data_PCOD9381186
_publ_section_title
;
Structure prediction by ZEFSAII (Michael W. Deem and Ramdas Pophale) SiO2 
 PCOD9381186
Probable space group: P M M M
;
_chemical_formula_sum "Si O2"
_cell_formula_units_Z 52
_cell_length_a 30.929455
_cell_length_b 7.826257
_cell_length_c 12.218516
_cell_angle_alpha 90.000000
_cell_angle_beta 90.000000
_cell_angle_gamma 90.000000
_cell_volume 2957.636755
_symmetry_space_group_name_H-M "P M M M"
_symmetry_group_IT_number 47
_symmetry_cell_setting 'orthorhombic'
loop_
_space_group_symop_operation_xyz
x,y,z
-x,-y,z
x,-y,-z
-x,y,-z
-x,-y,-z
x,y,-z
-x,y,z
x,-y,z
loop_
_atom_site_type_symbol
_atom_site_label
_atom_site_fract_x
_atom_site_fract_y
_atom_site_fract_z
Si Si1 0.384815 0.703125 0.368568
Si Si2 0.707056 0.292808 0.280988
Si Si3 0.143880 0.193757 0.500000
Si Si4 0.241937 0.292710 0.500000
Si Si5 0.782824 0.290426 0.873539
Si Si6 0.450976 0.000000 0.632253
Si Si7 0.132369 0.699380 0.744776
Si Si8 0.952366 0.204687 0.875931
O O1 0.375536 0.721632 0.500000
O O2 0.393389 0.500000 0.351478
O O3 0.342601 0.757217 0.299125
O O4 0.423995 0.829334 0.339745
O O5 0.706156 0.500000 0.277180
O O6 0.732090 0.245791 0.391865
O O7 0.737468 0.234789 0.181350
O O8 0.195582 0.208047 0.500000
O O9 0.130146 0.272452 0.384805
O O10 0.128967 0.000000 0.500000
O O11 0.235852 0.500000 0.500000
O O12 0.782492 0.500000 0.871257
O O13 0.823746 0.228334 0.800847
O O14 0.787239 0.238786 0.000000
O O15 0.500000 0.000000 0.674770
O O16 0.453343 0.000000 0.500000
O O17 0.135775 0.500000 0.764718
O O18 0.088393 0.756699 0.801517
O O19 0.000000 0.266365 0.838668
O O20 0.954799 0.000000 0.881788
O O21 0.945263 0.269164 0.000000
#
# Coordination Sequence:
#
# PCOD9381186 Si02
#       8
#     8   8   4   4   8   4   8   8
#     4   9  16  27  44  66  91 128 172 209 252 307
#     4   9  15  26  45  67  98 132 168 206 246 298
#     4  12  24  36  49  75 104 134 177 214 257 313
#     4  10  16  30  50  69  93 131 172 211 253 289
#     4   9  17  28  46  74 104 134 165 200 249 303
#     4   9  18  30  42  64  97 131 165 209 261 307
#     4  11  21  35  55  77 104 136 172 215 256 299
#     4   9  19  37  59  81 107 138 168 204 256 310
#
# _framework density 17.581605
#
# number of rings (size 3 to 8) (size 9 to 14) (size 15 to 20)
#    0.000    2.385    2.308    2.077    0.000    1.538 
#    1.385    2.692    0.000    2.308    0.000    0.000 
#    0.000    1.231    0.000    6.000    0.000    0.154 
#
# Total GULP energy -289790.219991 kJ/mol
# GULP energy per Si atom -5572.888846 kJ/mol
# Density = 1.754159 g / cm^3
# Si number density = 17.581605 Si / 1000 Ang^3
#
#
#
# Elastic Constant Matrix: (Units=GPa)
#
#
# Indices 1 2 3 4 5 6 
#
# 1 165.0187 36.3216 68.4498 0.0000 0.0000 0.0000
# 2 36.3216 38.9288 11.8555 0.0000 0.0000 0.0000
# 3 68.4498 11.8555 88.6826 0.0000 0.0000 0.0000
# 4 0.0000 0.0000 0.0000 25.9440 0.0000 0.0000
# 5 0.0000 0.0000 0.0000 0.0000 7.3596 0.0000
# 6 0.0000 0.0000 0.0000 0.0000 0.0000 24.9999
#
#
#
# Elastic Compliance Matrix: (Units=1/GPa)
#
#
# Indices 1 2 3 4 5 6 
#
# 1 0.010821 -0.007873 -0.007299 0.000000 0.000000 0.000000
# 2 -0.007873 0.032506 0.001731 0.000000 0.000000 0.000000
# 3 -0.007299 0.001731 0.016679 0.000000 0.000000 0.000000
# 4 0.000000 0.000000 0.000000 0.038545 0.000000 0.000000
# 5 0.000000 0.000000 0.000000 0.000000 0.135876 0.000000
# 6 0.000000 0.000000 0.000000 0.000000 0.000000 0.040000
#
#
# Mechanical properties :
#
#
# Convention : Reuss Voigt Hill
#
# Bulk Modulus (GPa) = 30.19016 58.43154 44.31085
# Shear Modulus (GPa) = 16.00767 23.39426 19.70097
#
# Velocity S-wave (km/s) = 3.02069 3.65171 3.35108
# Velocity P-wave (km/s) = 5.41985 7.14749 6.34277
#
# Compressibility (1/GPa) = 0.03312337
#
# Stress axis : x y z
#
# Youngs Moduli (GPa) = 92.41640 30.76323 59.95634
#
# Poissons Ratio (x) = 0.24220 0.43765
# Poissons Ratio (y) = 0.72759 -0.10379
# Poissons Ratio (z) = 0.67459 -0.05326
#
# Static dielectric constant tensor:
#      x y z
#    x 1.611370 0.000000 0.000000 
#    y 0.000000 1.637160 0.000000 
#    z 0.000000 0.000000 1.581320 
# 
# From -- ./inp_files/19865.got.cif
#   From: 2010.05.17/outbox.cif.g08.bks.cpg/sg47_10_cif.got.tgz:19865.got - 2010.06.03 20:15:42.
