data_PCOD9381773
_publ_section_title
;
Structure prediction by ZEFSAII (Michael W. Deem and Ramdas Pophale) SiO2 
 PCOD9381773
Probable space group: P M M M
;
_chemical_formula_sum "Si O2"
_cell_formula_units_Z 64
_cell_length_a 20.392137
_cell_length_b 9.487850
_cell_length_c 20.690149
_cell_angle_alpha 90.000000
_cell_angle_beta 90.000000
_cell_angle_gamma 90.000000
_cell_volume 4003.079069
_symmetry_space_group_name_H-M "P M M M"
_symmetry_group_IT_number 47
_symmetry_cell_setting 'orthorhombic'
loop_
_space_group_symop_operation_xyz
x,y,z
-x,-y,z
x,-y,-z
-x,y,-z
-x,-y,-z
x,y,-z
-x,y,z
x,-y,z
loop_
_atom_site_type_symbol
_atom_site_label
_atom_site_fract_x
_atom_site_fract_y
_atom_site_fract_z
Si Si1 0.159807 0.170167 0.820675
Si Si2 0.155425 0.171772 0.570702
Si Si3 0.299587 0.832535 0.611043
Si Si4 0.924569 0.667989 0.923297
Si Si5 0.074894 0.828388 0.695103
Si Si6 0.427781 0.335749 0.237792
Si Si7 0.427205 0.664128 0.605011
Si Si8 0.300444 0.167126 0.765895
O O1 0.127376 0.246035 0.881524
O O2 0.116316 0.209634 0.758144
O O3 0.234760 0.209139 0.803840
O O4 0.157150 0.000000 0.827894
O O5 0.131285 0.214726 0.500000
O O6 0.231180 0.213790 0.579832
O O7 0.111384 0.220574 0.630281
O O8 0.155327 0.000000 0.572931
O O9 0.363988 0.753460 0.585672
O O10 0.291661 0.809513 0.688554
O O11 0.307565 0.000000 0.601017
O O12 0.917639 0.500000 0.912436
O O13 0.000000 0.706988 0.905898
O O14 0.916905 0.692772 0.000000
O O15 0.000000 0.780036 0.698644
O O16 0.074183 0.000000 0.693120
O O17 0.500000 0.285048 0.216871
O O18 0.421411 0.500000 0.220563
O O19 0.427511 0.329399 0.316343
O O20 0.365903 0.248304 0.213943
O O21 0.500000 0.712308 0.583659
O O22 0.420187 0.500000 0.586898
O O23 0.309389 0.000000 0.774136
#
# Coordination Sequence:
#
# PCOD9381773 Si02
#       8
#     8   8   8   8   8   8   8   8
#     4  10  18  29  46  70  97 123 153 188 226 269
#     4   9  16  26  40  58  82 113 148 186 228 272
#     4   9  15  25  40  58  82 110 142 180 221 265
#     4   9  19  35  51  68  94 126 157 190 227 266
#     4   9  16  26  41  62  88 116 146 184 229 271
#     4   8  14  24  37  56  84 115 147 183 221 263
#     4   8  14  24  38  57  80 105 135 174 219 265
#     4   9  16  25  39  60  89 119 146 182 225 267
#
# _framework density 15.987693
#
# number of rings (size 3 to 8) (size 9 to 14) (size 15 to 20)
#    0.000    3.125    1.250    1.500    0.000    2.250 
#    0.000    4.375    0.000    0.750    0.000    2.625 
#    0.000    0.500    0.000    9.250    0.000    8.000 
#
# Total GULP energy -356407.231632 kJ/mol
# GULP energy per Si atom -5568.862994 kJ/mol
# Density = 1.595130 g / cm^3
# Si number density = 15.987693 Si / 1000 Ang^3
#
#
#
# Elastic Constant Matrix: (Units=GPa)
#
#
# Indices 1 2 3 4 5 6 
#
# 1 144.5995 39.8445 47.6296 0.0000 0.0000 0.0000
# 2 39.8445 17.8935 22.8221 0.0000 0.0000 0.0000
# 3 47.6296 22.8221 51.7669 0.0000 0.0000 0.0000
# 4 0.0000 0.0000 0.0000 3.8694 0.0000 0.0000
# 5 0.0000 0.0000 0.0000 0.0000 -22.7572 0.0000
# 6 0.0000 0.0000 0.0000 0.0000 0.0000 22.2350
#
#
#
# Elastic Compliance Matrix: (Units=1/GPa)
#
#
# Indices 1 2 3 4 5 6 
#
# 1 0.018042 -0.043414 0.002540 0.000000 0.000000 0.000000
# 2 -0.043414 0.232146 -0.062400 0.000000 0.000000 0.000000
# 3 0.002540 -0.062400 0.044491 0.000000 0.000000 0.000000
# 4 0.000000 0.000000 0.000000 0.258435 0.000000 0.000000
# 5 0.000000 0.000000 0.000000 0.000000 -0.043942 0.000000
# 6 0.000000 0.000000 0.000000 0.000000 0.000000 0.044974
#
#
# Mechanical properties :
#
#
# Convention : Reuss Voigt Hill
#
# Bulk Modulus (GPa) = 11.34694 48.31693 29.83193
# Shear Modulus (GPa) = 6.32854 7.60035 6.96444
#
# Velocity S-wave (km/s) = 1.99173 2.18270 2.08940
# Velocity P-wave (km/s) = 3.52165 6.05303 4.95183
#
# Compressibility (1/GPa) = 0.08812953
#
# Stress axis : x y z
#
# Youngs Moduli (GPa) = 55.42653 4.30763 22.47666
#
# Poissons Ratio (x) = 0.18701 -0.05708
# Poissons Ratio (y) = 2.40629 1.40255
# Poissons Ratio (z) = -0.14077 0.26880
#
# Static dielectric constant tensor:
#      x y z
#    x 1.542690 0.000000 0.000000 
#    y 0.000000 1.525480 0.000000 
#    z 0.000000 0.000000 1.531430 
# 
# From -- ./inp_files/11571.got.cif
#   From: 2010.05.17/outbox.cif.g08.bks.cpg/sg47_6_cif.got.tgz:11571.got - 2010.06.03 20:15:42.
