data_PCOD9381018
_publ_section_title
;
Structure prediction by ZEFSAII (Michael W. Deem and Ramdas Pophale) SiO2 
 PCOD9381018
Probable space group: I M A 2
;
_chemical_formula_sum "Si O2"
_cell_formula_units_Z 28
_cell_length_a 11.242820
_cell_length_b 12.716121
_cell_length_c 8.667142
_cell_angle_alpha 90.000000
_cell_angle_beta 90.000000
_cell_angle_gamma 90.000000
_cell_volume 1239.098472
_symmetry_space_group_name_H-M "I M A 2"
_symmetry_group_IT_number 46
_symmetry_cell_setting 'orthorhombic'
loop_
_space_group_symop_operation_xyz
x,y,z
-x,-y,z
1/2-x,y,z
1/2+x,-y,z
1/2+x,1/2+y,1/2+z
1/2-x,1/2-y,1/2+z
-x,1/2+y,1/2+z
x,1/2-y,1/2+z
loop_
_atom_site_type_symbol
_atom_site_label
_atom_site_fract_x
_atom_site_fract_y
_atom_site_fract_z
Si Si1 0.750000 0.271927 0.017560
Si Si2 0.499396 0.374747 0.960747
Si Si3 0.890594 0.805930 0.790999
Si Si4 0.250000 0.598280 0.306035
Si Si5 0.500000 0.000000 0.848506
O O1 0.631917 0.328644 0.956919
O O2 0.750000 0.299578 0.198070
O O3 0.750000 0.148983 0.975775
O O4 0.500000 0.500000 0.944786
O O5 0.440176 0.341686 0.124649
O O6 0.427088 0.311903 0.831443
O O7 0.750000 0.816560 0.799424
O O8 0.955863 0.886774 0.911302
O O9 0.371490 0.535170 0.276120
#
# Coordination Sequence:
#
# PCOD9381018 Si02
#       5
#     4   8   8   4   4
#     4  12  22  42  69 100 136 186 233 289 346 425
#     4  12  26  45  72 107 144 189 238 299 358 428
#     4  12  25  45  72 105 145 191 237 293 364 428
#     4  12  24  44  71 100 142 182 241 281 358 415
#     4  12  22  42  72 102 132 190 232 288 340 430
#
# _framework density 22.597075
#
# number of rings (size 3 to 8) (size 9 to 14) (size 15 to 20)
#    0.000    0.000    8.571    0.857    4.000    0.000 
#    2.571    0.000    0.000    0.000    0.000    0.000 
#    0.000    0.000    0.000    0.000    0.000    0.000 
#
# Total GULP energy -78078.569817 kJ/mol
# GULP energy per Si atom -5577.040701 kJ/mol
# Density = 2.254564 g / cm^3
# Si number density = 22.597075 Si / 1000 Ang^3
#
#
#
# Elastic Constant Matrix: (Units=GPa)
#
#
# Indices 1 2 3 4 5 6 
#
# 1 229.7736 61.2920 26.7682 0.0000 0.0000 0.0000
# 2 61.2920 183.7196 57.7902 0.0000 0.0000 0.0000
# 3 26.7682 57.7902 39.1013 0.0000 0.0000 0.0000
# 4 0.0000 0.0000 0.0000 36.4770 0.0000 0.0000
# 5 0.0000 0.0000 0.0000 0.0000 18.4813 0.0000
# 6 0.0000 0.0000 0.0000 0.0000 0.0000 47.3154
#
#
#
# Elastic Compliance Matrix: (Units=1/GPa)
#
#
# Indices 1 2 3 4 5 6 
#
# 1 0.004839 -0.001070 -0.001732 0.000000 0.000000 0.000000
# 2 -0.001070 0.010409 -0.014651 0.000000 0.000000 0.000000
# 3 -0.001732 -0.014651 0.048414 0.000000 0.000000 0.000000
# 4 0.000000 0.000000 0.000000 0.027415 0.000000 0.000000
# 5 0.000000 0.000000 0.000000 0.000000 0.054109 0.000000
# 6 0.000000 0.000000 0.000000 0.000000 0.000000 0.021135
#
#
# Mechanical properties :
#
#
# Convention : Reuss Voigt Hill
#
# Bulk Modulus (GPa) = 34.77497 82.69947 58.73722
# Shear Modulus (GPa) = 23.71794 40.90434 32.31114
#
# Velocity S-wave (km/s) = 3.24327 4.25921 3.78548
# Velocity P-wave (km/s) = 5.42657 7.80159 6.71984
#
# Compressibility (1/GPa) = 0.02875632
#
# Stress axis : x y z
#
# Youngs Moduli (GPa) = 206.64544 96.07490 20.65515
#
# Poissons Ratio (x) = 0.10277 0.03577
# Poissons Ratio (y) = 0.22104 0.30262
# Poissons Ratio (z) = 0.35790 1.40761
#
# Static dielectric constant tensor:
#      x y z
#    x 1.788890 0.000000 0.000000 
#    y 0.000000 1.890040 0.000000 
#    z 0.000000 0.000000 1.953130 
# 
# From -- ./inp_files/9955.got.cif
#   From: 2010.05.17/outbox.cif.g08.bks.cpg/sg46_5_cif.got.tgz:9955.got - 2010.06.03 19:58:25.
