data_PCOD9381182
_publ_section_title
;
Structure prediction by ZEFSAII (Michael W. Deem and Ramdas Pophale) SiO2 
 PCOD9381182
Probable space group: P M M M
;
_chemical_formula_sum "Si O2"
_cell_formula_units_Z 40
_cell_length_a 12.257874
_cell_length_b 20.632666
_cell_length_c 7.408200
_cell_angle_alpha 90.000000
_cell_angle_beta 90.000000
_cell_angle_gamma 90.000000
_cell_volume 1873.627272
_symmetry_space_group_name_H-M "P M M M"
_symmetry_group_IT_number 47
_symmetry_cell_setting 'orthorhombic'
loop_
_space_group_symop_operation_xyz
x,y,z
-x,-y,z
x,-y,-z
-x,y,-z
-x,-y,-z
x,y,-z
-x,y,z
x,-y,z
loop_
_atom_site_type_symbol
_atom_site_label
_atom_site_fract_x
_atom_site_fract_y
_atom_site_fract_z
Si Si1 0.000000 0.219089 0.718188
Si Si2 0.375514 0.500000 0.779405
Si Si3 0.759409 0.375651 0.217023
Si Si4 0.871782 0.000000 0.279332
Si Si5 0.623231 0.754710 0.284405
Si Si6 0.786016 0.138172 0.280299
Si Si7 0.000000 0.367433 0.796010
O O1 0.107176 0.179495 0.768524
O O2 0.000000 0.226604 0.500000
O O3 0.000000 0.289561 0.801851
O O4 0.500000 0.500000 0.720588
O O5 0.314619 0.435031 0.720448
O O6 0.374973 0.500000 0.000000
O O7 0.701569 0.307080 0.254501
O O8 0.882772 0.383245 0.288144
O O9 0.767308 0.379091 0.000000
O O10 0.809059 0.064909 0.220977
O O11 0.873995 0.000000 0.500000
O O12 0.000000 0.000000 0.224675
O O13 0.615388 0.761142 0.500000
O O14 0.500000 0.744698 0.214627
O O15 0.682215 0.820252 0.217488
O O16 0.781664 0.136349 0.500000
O O17 0.000000 0.394697 0.000000
#
# Coordination Sequence:
#
# PCOD9381182 Si02
#       7
#     4   4   8   4   8   8   4
#     4  10  16  27  49  71  95 129 162 194 240 290
#     4   9  18  33  52  72  95 127 166 201 232 276
#     4  10  20  34  53  75  99 127 160 199 242 288
#     4   9  14  22  39  67  97 122 156 199 240 285
#     4  10  20  33  49  71  99 130 165 203 240 282
#     4   9  16  26  43  69  97 125 159 200 242 284
#     4  10  20  31  47  77 105 123 152 198 246 288
#
# _framework density 21.348962
#
# number of rings (size 3 to 8) (size 9 to 14) (size 15 to 20)
#    0.000    2.400    3.000    0.600    0.000    1.600 
#    0.000    3.000    0.000    4.800    0.000    5.600 
#    0.000    1.600    0.000    0.000    0.000    0.000 
#
# Total GULP energy -223321.372054 kJ/mol
# GULP energy per Si atom -5583.034301 kJ/mol
# Density = 2.130037 g / cm^3
# Si number density = 21.348962 Si / 1000 Ang^3
#
#
#
# Elastic Constant Matrix: (Units=GPa)
#
#
# Indices 1 2 3 4 5 6 
#
# 1 211.5475 90.4033 9.7673 0.0000 0.0000 0.0000
# 2 90.4033 145.6206 -0.7161 0.0000 0.0000 0.0000
# 3 9.7673 -0.7161 72.2287 0.0000 0.0000 0.0000
# 4 0.0000 0.0000 0.0000 11.2457 0.0000 0.0000
# 5 0.0000 0.0000 0.0000 0.0000 4.3200 0.0000
# 6 0.0000 0.0000 0.0000 0.0000 0.0000 20.8635
#
#
#
# Elastic Compliance Matrix: (Units=1/GPa)
#
#
# Indices 1 2 3 4 5 6 
#
# 1 0.006494 -0.004036 -0.000918 0.000000 0.000000 0.000000
# 2 -0.004036 0.009376 0.000639 0.000000 0.000000 0.000000
# 3 -0.000918 0.000639 0.013975 0.000000 0.000000 0.000000
# 4 0.000000 0.000000 0.000000 0.088923 0.000000 0.000000
# 5 0.000000 0.000000 0.000000 0.000000 0.231480 0.000000
# 6 0.000000 0.000000 0.000000 0.000000 0.000000 0.047931
#
#
# Mechanical properties :
#
#
# Convention : Reuss Voigt Hill
#
# Bulk Modulus (GPa) = 47.13790 69.81177 58.47483
# Shear Modulus (GPa) = 12.08073 29.28199 20.68136
#
# Velocity S-wave (km/s) = 2.38138 3.70751 3.11582
# Velocity P-wave (km/s) = 5.44876 7.14835 6.35562
#
# Compressibility (1/GPa) = 0.02121435
#
# Stress axis : x y z
#
# Youngs Moduli (GPa) = 153.97998 106.65418 71.55419
#
# Poissons Ratio (x) = 0.43049 0.06570
# Poissons Ratio (y) = 0.62151 -0.04571
# Poissons Ratio (z) = 0.14139 -0.06813
#
# Static dielectric constant tensor:
#      x y z
#    x 1.771540 0.000000 0.000000 
#    y 0.000000 1.724650 0.000000 
#    z 0.000000 0.000000 1.855430 
# 
# From -- ./inp_files/4151.got.cif
#   From: 2010.05.17/outbox.cif.g08.bks.cpg/sg47_3_cif.got.tgz:4151.got - 2010.06.03 20:15:42.
