data_PCOD9381280
_publ_section_title
;
Structure prediction by ZEFSAII (Michael W. Deem and Ramdas Pophale) SiO2 
 PCOD9381280
Probable space group: P M M M
;
_chemical_formula_sum "Si O2"
_cell_formula_units_Z 64
_cell_length_a 7.489341
_cell_length_b 22.194003
_cell_length_c 19.409273
_cell_angle_alpha 90.000000
_cell_angle_beta 90.000000
_cell_angle_gamma 90.000000
_cell_volume 3226.179402
_symmetry_space_group_name_H-M "P M M M"
_symmetry_group_IT_number 47
_symmetry_cell_setting 'orthorhombic'
loop_
_space_group_symop_operation_xyz
x,y,z
-x,-y,z
x,-y,-z
-x,y,-z
-x,-y,-z
x,y,-z
-x,y,z
x,-y,z
loop_
_atom_site_type_symbol
_atom_site_label
_atom_site_fract_x
_atom_site_fract_y
_atom_site_fract_z
Si Si1 0.281320 0.105198 0.223925
Si Si2 0.793377 0.804309 0.574442
Si Si3 0.716023 0.065159 0.624732
Si Si4 0.298352 0.333585 0.816476
Si Si5 0.293292 0.092206 0.924408
Si Si6 0.291029 0.235036 0.274651
Si Si7 0.717913 0.570105 0.922638
Si Si8 0.213217 0.233004 0.923151
O O1 0.500000 0.105755 0.220890
O O2 0.233080 0.071925 0.294605
O O3 0.218717 0.076973 0.151453
O O4 0.219515 0.174565 0.236888
O O5 0.713465 0.788761 0.500000
O O6 0.781461 0.876369 0.585039
O O7 0.718068 0.775881 0.643998
O O8 0.000000 0.787398 0.573509
O O9 0.500000 0.067565 0.622278
O O10 0.773851 0.000000 0.598520
O O11 0.500000 0.352996 0.798068
O O12 0.214176 0.298634 0.751425
O O13 0.215719 0.387743 0.860711
O O14 0.300173 0.278227 0.870350
O O15 0.500000 0.072935 0.925657
O O16 0.285462 0.165088 0.921275
O O17 0.215919 0.075210 0.000000
O O18 0.500000 0.236679 0.256803
O O19 0.500000 0.574123 0.922741
O O20 0.764094 0.500000 0.913124
O O21 0.776281 0.588325 0.000000
O O22 0.000000 0.230383 0.911824
O O23 0.245792 0.256219 0.000000
#
# Coordination Sequence:
#
# PCOD9381280 Si02
#       8
#     8   8   8   8   8   8   8   8
#     4   8  13  25  41  59  83 108 139 179 219 258
#     4  10  21  35  50  69  94 120 141 170 217 268
#     4   9  18  32  50  69  89 117 151 184 216 254
#     4  10  17  27  44  63  85 116 154 192 226 263
#     4   9  15  24  39  56  77 108 144 179 217 261
#     4   9  17  29  45  66  89 115 147 180 219 268
#     4   8  14  24  39  62  91 123 161 200 231 259
#     4  10  19  26  33  53  85 114 143 182 224 263
#
# _framework density 19.837706000000001
#
# number of rings (size 3 to 8) (size 9 to 14) (size 15 to 20)
#    0.000    2.875    1.250    2.250    0.000    3.250 
#    0.000    1.250    0.000    0.750    0.000    4.375 
#    0.000    0.500    0.000   12.625    0.000    8.500 
#
# Total GULP energy -356730.636623 kJ/mol
# GULP energy per Si atom -5573.916197 kJ/mol
# Density = 1.979255 g / cm^3
# Si number density = 19.837706 Si / 1000 Ang^3
#
#
#
# Elastic Constant Matrix: (Units=GPa)
#
#
# Indices 1 2 3 4 5 6 
#
# 1 57.3274 -2.6436 5.1880 0.0000 0.0000 0.0000
# 2 -2.6436 85.1420 31.3094 0.0000 0.0000 0.0000
# 3 5.1880 31.3094 132.1601 0.0000 0.0000 0.0000
# 4 0.0000 0.0000 0.0000 1.9289 0.0000 0.0000
# 5 0.0000 0.0000 0.0000 0.0000 21.8245 0.0000
# 6 0.0000 0.0000 0.0000 0.0000 0.0000 -9.4746
#
#
#
# Elastic Compliance Matrix: (Units=1/GPa)
#
#
# Indices 1 2 3 4 5 6 
#
# 1 0.017565 0.000875 -0.000897 0.000000 0.000000 0.000000
# 2 0.000875 0.012910 -0.003093 0.000000 0.000000 0.000000
# 3 -0.000897 -0.003093 0.008334 0.000000 0.000000 0.000000
# 4 0.000000 0.000000 0.000000 0.518421 0.000000 0.000000
# 5 0.000000 0.000000 0.000000 0.000000 0.045820 0.000000
# 6 0.000000 0.000000 0.000000 0.000000 0.000000 -0.105545
#
#
# Mechanical properties :
#
#
# Convention : Reuss Voigt Hill
#
# Bulk Modulus (GPa) = 30.69324 38.03745 34.36534
# Shear Modulus (GPa) = 9.71641 18.90749 14.31195
#
# Velocity S-wave (km/s) = 2.21553 3.09060 2.68890
# Velocity P-wave (km/s) = 4.69580 5.65258 5.19626
#
# Compressibility (1/GPa) = 0.03258047
#
# Stress axis : x y z
#
# Youngs Moduli (GPa) = 56.93078 77.46215 119.98377
#
# Poissons Ratio (x) = -0.06779 0.10761
# Poissons Ratio (y) = -0.04983 0.37107
# Poissons Ratio (z) = 0.05106 0.23957
#
# Static dielectric constant tensor:
#      x y z
#    x 1.773760 0.000000 0.000000 
#    y 0.000000 1.701630 0.000000 
#    z 0.000000 0.000000 1.766640 
# 
# From -- ./inp_files/30172.got.cif
#   From: 2010.05.17/outbox.cif.g08.bks.cpg/sg47_16_cif.got.tgz:30172.got - 2010.06.03 20:15:42.
