data_PCOD9381776
_publ_section_title
;
Structure prediction by ZEFSAII (Michael W. Deem and Ramdas Pophale) SiO2 
 PCOD9381776
Probable space group: P M M M
;
_chemical_formula_sum "Si O2"
_cell_formula_units_Z 32
_cell_length_a 19.216696
_cell_length_b 7.433952
_cell_length_c 11.931737
_cell_angle_alpha 90.000000
_cell_angle_beta 90.000000
_cell_angle_gamma 90.000000
_cell_volume 1704.520169
_symmetry_space_group_name_H-M "P M M M"
_symmetry_group_IT_number 47
_symmetry_cell_setting 'orthorhombic'
loop_
_space_group_symop_operation_xyz
x,y,z
-x,-y,z
x,-y,-z
-x,y,-z
-x,-y,-z
x,y,-z
-x,y,z
x,-y,z
loop_
_atom_site_type_symbol
_atom_site_label
_atom_site_fract_x
_atom_site_fract_y
_atom_site_fract_z
Si Si1 0.500000 0.279742 0.129202
Si Si2 0.925190 0.283754 0.865745
Si Si3 0.772838 0.720038 0.131053
Si Si4 0.363493 0.712671 0.742910
Si Si5 0.420004 0.213799 0.500000
O O1 0.500000 0.500000 0.133718
O O2 0.430831 0.215536 0.191657
O O3 0.500000 0.228245 0.000000
O O4 0.925904 0.500000 0.849764
O O5 0.849330 0.218887 0.827812
O O6 0.000000 0.215210 0.822364
O O7 0.925016 0.253474 0.000000
O O8 0.774413 0.500000 0.132054
O O9 0.708980 0.782820 0.207471
O O10 0.762864 0.770582 0.000000
O O11 0.361722 0.500000 0.766051
O O12 0.378923 0.734352 0.611925
O O13 0.500000 0.285899 0.500000
O O14 0.425468 0.000000 0.500000
#
# Coordination Sequence:
#
# PCOD9381776 Si02
#       5
#     4   8   8   8   4
#     4   9  16  25  41  66  90 109 130 161 206 255
#     4   7   9  14  26  48  83 122 146 158 187 242
#     4   8  13  21  36  62  92 116 139 170 207 248
#     4  10  18  29  47  67  86 109 141 178 212 248
#     4  11  23  37  49  59  78 109 146 186 221 253
#
# _framework density 18.773613000000001
#
# number of rings (size 3 to 8) (size 9 to 14) (size 15 to 20)
#    0.000    3.250    1.250    3.375    0.000    3.500 
#    0.000    0.000    0.000    3.750    0.000    0.875 
#    0.000    8.000    0.000    6.250    0.000    5.000 
#
# Total GULP energy -178246.756890 kJ/mol
# GULP energy per Si atom -5570.211153 kJ/mol
# Density = 1.873088 g / cm^3
# Si number density = 18.773613 Si / 1000 Ang^3
#
#
#
# Elastic Constant Matrix: (Units=GPa)
#
#
# Indices 1 2 3 4 5 6 
#
# 1 253.5102 10.4948 93.8017 0.0000 0.0000 0.0000
# 2 10.4948 55.2183 -8.4491 0.0000 0.0000 0.0000
# 3 93.8017 -8.4491 99.1350 0.0000 0.0000 0.0000
# 4 0.0000 0.0000 0.0000 83.2152 0.0000 0.0000
# 5 0.0000 0.0000 0.0000 0.0000 3.2856 0.0000
# 6 0.0000 0.0000 0.0000 0.0000 0.0000 -10.7140
#
#
#
# Elastic Compliance Matrix: (Units=1/GPa)
#
#
# Indices 1 2 3 4 5 6 
#
# 1 0.006310 -0.002141 -0.006153 0.000000 0.000000 0.000000
# 2 -0.002141 0.019075 0.003651 0.000000 0.000000 0.000000
# 3 -0.006153 0.003651 0.016220 0.000000 0.000000 0.000000
# 4 0.000000 0.000000 0.000000 0.012017 0.000000 0.000000
# 5 0.000000 0.000000 0.000000 0.000000 0.304358 0.000000
# 6 0.000000 0.000000 0.000000 0.000000 0.000000 -0.093336
#
#
# Mechanical properties :
#
#
# Convention : Reuss Voigt Hill
#
# Bulk Modulus (GPa) = 30.93950 66.61758 48.77854
# Shear Modulus (GPa) = 17.56216 35.95843 26.76030
#
# Velocity S-wave (km/s) = 3.06186 4.38124 3.77957
# Velocity P-wave (km/s) = 5.38666 7.82019 6.71459
#
# Compressibility (1/GPa) = 0.03232115
#
# Stress axis : x y z
#
# Youngs Moduli (GPa) = 158.48218 52.42328 61.65123
#
# Poissons Ratio (x) = 0.11222 0.37933
# Poissons Ratio (y) = 0.33926 -0.22511
# Poissons Ratio (z) = 0.97512 -0.19141
#
# Static dielectric constant tensor:
#      x y z
#    x 1.716000 0.000000 0.000000 
#    y 0.000000 1.699750 0.000000 
#    z 0.000000 0.000000 1.604590 
# 
# From -- ./inp_files/3555.got.cif
#   From: 2010.05.17/outbox.cif.g08.bks.cpg/sg47_2_cif.got.tgz:3555.got - 2010.06.03 20:15:42.
