data_PCOD9381108
_publ_section_title
;
Structure prediction by ZEFSAII (Michael W. Deem and Ramdas Pophale) SiO2 
 PCOD9381108
Probable space group: I M A 2
;
_chemical_formula_sum "Si O2"
_cell_formula_units_Z 28
_cell_length_a 15.000000
_cell_length_b 12.000000
_cell_length_c 15.000000
_cell_angle_alpha 90.000000
_cell_angle_beta 90.000000
_cell_angle_gamma 90.000000
_cell_volume 2700.000000
_symmetry_space_group_name_H-M "I M A 2"
_symmetry_group_IT_number 46
_symmetry_cell_setting 'orthorhombic'
loop_
_space_group_symop_operation_xyz
x,y,z
-x,-y,z
1/2-x,y,z
1/2+x,-y,z
1/2+x,1/2+y,1/2+z
1/2-x,1/2-y,1/2+z
-x,1/2+y,1/2+z
x,1/2-y,1/2+z
loop_
_atom_site_type_symbol
_atom_site_label
_atom_site_fract_x
_atom_site_fract_y
_atom_site_fract_z
Si Si1 0.852179 0.642851 0.442970
Si Si2 0.647925 0.604111 0.764065
Si Si3 0.465146 0.355161 0.937363
Si Si4 0.145463 0.361217 0.244760
Si Si5 0.854752 0.510435 0.076711
Si Si6 0.896335 0.031268 0.090920
Si Si7 0.353332 0.773858 0.513738
O O1 0.750000 0.681182 0.432466
O O2 0.911926 0.745851 0.471212
O O3 0.887906 0.613648 0.344099
O O4 0.854421 0.544236 0.512989
O O5 0.750000 0.595116 0.800672
O O6 0.571811 0.608428 0.840007
O O7 0.640043 0.729502 0.724198
O O8 0.637075 0.511729 0.687372
O O9 0.419631 0.448772 0.999040
O O10 0.568272 0.314379 0.945137
O O11 0.250000 0.390422 0.247323
O O12 0.108045 0.433154 0.165424
O O13 0.750000 0.543583 0.060305
O O14 0.854768 0.377380 0.081952
O O15 0.877823 0.158678 0.063089
O O16 0.000000 0.000000 0.089448
O O17 0.250000 0.766517 0.479281
#
# Coordination Sequence:
#
# PCOD9381108 Si02
#       7
#     8   8   8   8   8   8   8
#     4  10  19  37  67  98 128 163 217 287 345 401
#     4  10  21  39  68 103 135 167 220 292 348 405
#     4  11  21  40  67 102 130 171 227 282 346 411
#     4   8  17  34  62 100 125 154 210 273 339 398
#     4  10  20  38  65  95 131 174 219 277 344 409
#     4  12  24  42  64  96 138 186 230 277 345 419
#     4  11  25  43  64  94 137 186 231 275 342 421
#
# _framework density 10.370369999999999
#
# number of rings (size 3 to 8) (size 9 to 14) (size 15 to 20)
#    0.000    1.714    1.429    4.714    0.000    2.286 
#    0.000    4.286    0.000    8.571    0.000    0.000 
#    0.000    0.000    0.000    0.000    0.000    0.000 
#
# Total GULP energy -156084.742391 kJ/mol
# GULP energy per Si atom -5574.455085 kJ/mol
# Density = 1.034677 g / cm^3
# Si number density = 10.370370 Si / 1000 Ang^3
#
#
#
# Elastic Constant Matrix: (Units=GPa)
#
#
# Indices 1 2 3 4 5 6 
#
# 1 144.2757 38.5846 34.6479 0.0000 0.0000 0.0000
# 2 38.5846 118.5763 64.5825 0.0000 0.0000 0.0000
# 3 34.6479 64.5825 75.1523 0.0000 0.0000 0.0000
# 4 0.0000 0.0000 0.0000 151.3712 0.0000 0.0000
# 5 0.0000 0.0000 0.0000 0.0000 14.6952 0.0000
# 6 0.0000 0.0000 0.0000 0.0000 0.0000 26.3223
#
#
#
# Elastic Compliance Matrix: (Units=1/GPa)
#
#
# Indices 1 2 3 4 5 6 
#
# 1 0.007870 -0.001099 -0.002684 0.000000 0.000000 0.000000
# 2 -0.001099 0.016007 -0.013249 0.000000 0.000000 0.000000
# 3 -0.002684 -0.013249 0.025929 0.000000 0.000000 0.000000
# 4 0.000000 0.000000 0.000000 0.006606 0.000000 0.000000
# 5 0.000000 0.000000 0.000000 0.000000 0.068049 0.000000
# 6 0.000000 0.000000 0.000000 0.000000 0.000000 0.037991
#
#
# Mechanical properties :
#
#
# Convention : Reuss Voigt Hill
#
# Bulk Modulus (GPa) = 63.52313 68.18158 65.85236
# Shear Modulus (GPa) = 24.78154 51.82370 38.30262
#
# Velocity S-wave (km/s) = 3.46037 5.00407 4.30203
# Velocity P-wave (km/s) = 6.83076 8.14446 7.51636
#
# Compressibility (1/GPa) = 0.01574230
#
# Stress axis : x y z
#
# Youngs Moduli (GPa) = 127.07134 62.47210 38.56658
#
# Poissons Ratio (x) = 0.06867 0.10350
# Poissons Ratio (y) = 0.13967 0.51097
# Poissons Ratio (z) = 0.34101 0.82770
#
# Static dielectric constant tensor:
#      x y z
#    x 1.790970 0.000000 0.000000 
#    y 0.000000 1.691720 0.000000 
#    z 0.000000 0.000000 1.788190 
# 
# From -- ./inp_files/15982.got.cif
#   From: 2010.05.17/outbox.ucp.g08.bks.cvg/sg46_8_cif.got.tgz:15982.got - 2010.06.11 16:34:52.
