data_PCOD9381408
_publ_section_title
;
Structure prediction by ZEFSAII (Michael W. Deem and Ramdas Pophale) SiO2 
 PCOD9381408
Probable space group: P M M M
;
_chemical_formula_sum "Si O2"
_cell_formula_units_Z 45
_cell_length_a 7.347250
_cell_length_b 12.641066
_cell_length_c 23.862662
_cell_angle_alpha 90.000000
_cell_angle_beta 90.000000
_cell_angle_gamma 90.000000
_cell_volume 2216.294181
_symmetry_space_group_name_H-M "P M M M"
_symmetry_group_IT_number 47
_symmetry_cell_setting 'orthorhombic'
loop_
_space_group_symop_operation_xyz
x,y,z
-x,-y,z
x,-y,-z
-x,y,-z
-x,-y,-z
x,y,-z
-x,y,z
x,-y,z
loop_
_atom_site_type_symbol
_atom_site_label
_atom_site_fract_x
_atom_site_fract_y
_atom_site_fract_z
Si Si1 0.777850 0.378395 0.435817
Si Si2 0.281268 0.500000 0.722341
Si Si3 0.222474 0.876440 0.773596
Si Si4 0.220049 0.271134 0.876978
Si Si5 0.215730 0.188363 0.000000
Si Si6 0.793394 0.500000 0.149237
Si Si7 0.500000 0.000000 0.000000
Si Si8 0.209964 0.729051 0.671493
O O1 0.725429 0.357300 0.500000
O O2 0.721390 0.500000 0.422186
O O3 0.712688 0.292148 0.390712
O O4 0.000000 0.378899 0.433775
O O5 0.500000 0.500000 0.723008
O O6 0.203454 0.500000 0.784230
O O7 0.217493 0.609578 0.695329
O O8 0.281237 0.814009 0.830134
O O9 0.283726 0.809531 0.718648
O O10 0.000000 0.875442 0.773445
O O11 0.277456 0.000000 0.773187
O O12 0.291881 0.388489 0.866326
O O13 0.000000 0.274056 0.869894
O O14 0.255884 0.245105 0.941305
O O15 0.342022 0.088950 0.000000
O O16 0.000000 0.163932 0.000000
O O17 0.000000 0.500000 0.125935
O O18 0.000000 0.761283 0.664276
#
# Coordination Sequence:
#
# PCOD9381408 Si02
#       8
#     8   4   8   8   4   4   1   8
#     4   8  13  21  39  69  96 121 162 212 255 300
#     4  12  22  30  44  76 109 136 164 214 267 312
#     4   9  17  28  48  78 102 128 173 220 258 301
#     4   9  18  33  58  84 109 139 176 224 271 321
#     4  10  23  42  61  88 118 149 188 237 284 319
#     4  10  18  35  60  82 104 140 184 210 258 338
#     4  12  26  44  64  88 108 160 202 236 260 342
#     4  10  17  30  51  69  96 135 172 208 251 315
#
# _framework density 20.304162999999999
#
# number of rings (size 3 to 8) (size 9 to 14) (size 15 to 20)
#    0.000    2.489    2.667    1.467    1.244    0.356 
#    1.600    1.778    0.000    2.667    0.000    3.733 
#    0.000    0.000    0.000    1.600    0.000    1.778 
#
# Total GULP energy -250608.433817 kJ/mol
# GULP energy per Si atom -5569.076307 kJ/mol
# Density = 2.025795 g / cm^3
# Si number density = 20.304163 Si / 1000 Ang^3
#
#
#
# Elastic Constant Matrix: (Units=GPa)
#
#
# Indices 1 2 3 4 5 6 
#
# 1 66.3514 1.1258 13.0537 0.0000 0.0000 0.0000
# 2 1.1258 160.1030 103.3305 0.0000 0.0000 0.0000
# 3 13.0537 103.3305 183.3470 0.0000 0.0000 0.0000
# 4 0.0000 0.0000 0.0000 -237.9956 0.0000 0.0000
# 5 0.0000 0.0000 0.0000 0.0000 -15.8660 0.0000
# 6 0.0000 0.0000 0.0000 0.0000 0.0000 -17.3025
#
#
#
# Elastic Compliance Matrix: (Units=1/GPa)
#
#
# Indices 1 2 3 4 5 6 
#
# 1 0.015375 0.000940 -0.001625 0.000000 0.000000 0.000000
# 2 0.000940 0.009874 -0.005632 0.000000 0.000000 0.000000
# 3 -0.001625 -0.005632 0.008744 0.000000 0.000000 0.000000
# 4 0.000000 0.000000 0.000000 -0.004202 0.000000 0.000000
# 5 0.000000 0.000000 0.000000 0.000000 -0.063028 0.000000
# 6 0.000000 0.000000 0.000000 0.000000 0.000000 -0.057795
#
#
# Mechanical properties :
#
#
# Convention : Reuss Voigt Hill
#
# Bulk Modulus (GPa) = 46.81474 71.64683 59.23079
# Shear Modulus (GPa) = -70.14619 -34.74671 -52.44645
#
# Velocity S-wave (km/s) = -5.88410 -4.14129 -5.08787
# Velocity P-wave (km/s) = 4.80175 3.53502 2.29787
#
# Compressibility (1/GPa) = 0.02136079
#
# Stress axis : x y z
#
# Youngs Moduli (GPa) = 65.04092 101.27470 114.36707
#
# Poissons Ratio (x) = -0.09524 0.18581
# Poissons Ratio (y) = -0.06117 0.64409
# Poissons Ratio (z) = 0.10567 0.57036
#
# Static dielectric constant tensor:
#      x y z
#    x 1.757100 0.000000 0.000000 
#    y 0.000000 1.986800 0.000000 
#    z 0.000000 0.000000 2.698980 
# 
# From -- ./inp_files/31895.got.cif
#   From: 2010.05.17/outbox.cif.g08.bks.cpg/sg47_16_cif.got.tgz:31895.got - 2010.06.03 20:15:42.
