data_PCOD9381256
_publ_section_title
;
Structure prediction by ZEFSAII (Michael W. Deem and Ramdas Pophale) SiO2 
 PCOD9381256
Probable space group: P M M M
;
_chemical_formula_sum "Si O2"
_cell_formula_units_Z 64
_cell_length_a 20.487741
_cell_length_b 21.499173
_cell_length_c 7.615433
_cell_angle_alpha 90.000000
_cell_angle_beta 90.000000
_cell_angle_gamma 90.000000
_cell_volume 3354.365875
_symmetry_space_group_name_H-M "P M M M"
_symmetry_group_IT_number 47
_symmetry_cell_setting 'orthorhombic'
loop_
_space_group_symop_operation_xyz
x,y,z
-x,-y,z
x,-y,-z
-x,y,-z
-x,-y,-z
x,y,-z
-x,y,z
x,-y,z
loop_
_atom_site_type_symbol
_atom_site_label
_atom_site_fract_x
_atom_site_fract_y
_atom_site_fract_z
Si Si1 0.429266 0.887832 0.289577
Si Si2 0.924449 0.189887 0.715146
Si Si3 0.285543 0.111553 0.207729
Si Si4 0.146925 0.933248 0.704856
Si Si5 0.290328 0.745190 0.788565
Si Si6 0.569703 0.258581 0.793844
Si Si7 0.153296 0.311097 0.710157
Si Si8 0.924792 0.570272 0.285655
O O1 0.429905 0.885912 0.500000
O O2 0.500000 0.915103 0.233080
O O3 0.358640 0.914236 0.238348
O O4 0.428420 0.816742 0.220252
O O5 0.921843 0.190476 0.500000
O O6 0.887295 0.128171 0.778771
O O7 0.887635 0.251822 0.776564
O O8 0.000000 0.189712 0.765323
O O9 0.224903 0.075119 0.286279
O O10 0.281668 0.183326 0.274866
O O11 0.275120 0.112722 0.000000
O O12 0.128225 0.934896 0.500000
O O13 0.128932 0.000000 0.783960
O O14 0.360380 0.720937 0.721080
O O15 0.228744 0.703163 0.745461
O O16 0.295073 0.749255 0.000000
O O17 0.500000 0.278417 0.715513
O O18 0.568274 0.274668 0.000000
O O19 0.145141 0.312204 0.500000
O O20 0.123526 0.375782 0.776653
O O21 0.923453 0.569759 0.500000
O O22 0.908798 0.500000 0.228303
O O23 0.000000 0.583958 0.236215
#
# Coordination Sequence:
#
# PCOD9381256 Si02
#       8
#     8   8   8   8   8   8   8   8
#     4   9  16  25  41  66  92 116 144 182 227 271
#     4   9  17  29  46  69  92 113 143 183 224 269
#     4  10  19  31  47  64  87 120 154 187 224 271
#     4  10  20  33  49  68  89 114 145 186 234 277
#     4   9  17  27  41  63  90 119 148 184 226 264
#     4   8  14  25  39  57  85 121 156 185 219 266
#     4  10  17  26  45  69  92 120 151 185 222 264
#     4   8  14  25  42  66  94 121 152 190 227 263
#
# _framework density 19.079612999999998
#
# number of rings (size 3 to 8) (size 9 to 14) (size 15 to 20)
#    0.000    2.875    1.250    2.250    0.000    4.750 
#    0.000    1.250    0.000    3.375    0.000    4.375 
#    0.000    0.500    0.000    6.250    0.000    0.125 
#
# Total GULP energy -356669.954875 kJ/mol
# GULP energy per Si atom -5572.968045 kJ/mol
# Density = 1.903619 g / cm^3
# Si number density = 19.079613 Si / 1000 Ang^3
#
#
#
# Elastic Constant Matrix: (Units=GPa)
#
#
# Indices 1 2 3 4 5 6 
#
# 1 152.7495 74.3653 -5.0536 0.0000 0.0000 0.0000
# 2 74.3653 103.1627 5.7451 0.0000 0.0000 0.0000
# 3 -5.0536 5.7451 41.4754 0.0000 0.0000 0.0000
# 4 0.0000 0.0000 0.0000 7.6234 0.0000 0.0000
# 5 0.0000 0.0000 0.0000 0.0000 30.8689 0.0000
# 6 0.0000 0.0000 0.0000 0.0000 0.0000 -30.3425
#
#
#
# Elastic Compliance Matrix: (Units=1/GPa)
#
#
# Indices 1 2 3 4 5 6 
#
# 1 0.010300 -0.007553 0.002301 0.000000 0.000000 0.000000
# 2 -0.007553 0.015307 -0.003041 0.000000 0.000000 0.000000
# 3 0.002301 -0.003041 0.024812 0.000000 0.000000 0.000000
# 4 0.000000 0.000000 0.000000 0.131175 0.000000 0.000000
# 5 0.000000 0.000000 0.000000 0.000000 0.032395 0.000000
# 6 0.000000 0.000000 0.000000 0.000000 0.000000 -0.032957
#
#
# Mechanical properties :
#
#
# Convention : Reuss Voigt Hill
#
# Bulk Modulus (GPa) = 29.55534 49.72237 39.63886
# Shear Modulus (GPa) = 23.93540 16.45200 20.19370
#
# Velocity S-wave (km/s) = 3.54574 2.93965 3.25682
# Velocity P-wave (km/s) = 5.68218 6.13507 5.91296
#
# Compressibility (1/GPa) = 0.03383483
#
# Stress axis : x y z
#
# Youngs Moduli (GPa) = 97.08855 65.32844 40.30267
#
# Poissons Ratio (x) = 0.49342 -0.09274
# Poissons Ratio (y) = 0.73330 0.12255
# Poissons Ratio (z) = -0.22342 0.19864
#
# Static dielectric constant tensor:
#      x y z
#    x 1.704200 0.000000 0.000000 
#    y 0.000000 1.651790 0.000000 
#    z 0.000000 0.000000 1.665480 
# 
# From -- ./inp_files/11808.got.cif
#   From: 2010.05.17/outbox.cif.g08.bks.cpg/sg47_6_cif.got.tgz:11808.got - 2010.06.03 20:15:42.
