data_PCOD9381265
_publ_section_title
;
Structure prediction by ZEFSAII (Michael W. Deem and Ramdas Pophale) SiO2 
 PCOD9381265
Probable space group: P M M M
;
_chemical_formula_sum "Si O2"
_cell_formula_units_Z 52
_cell_length_a 11.858147
_cell_length_b 18.444350
_cell_length_c 19.402574
_cell_angle_alpha 90.000000
_cell_angle_beta 90.000000
_cell_angle_gamma 90.000000
_cell_volume 4243.649759
_symmetry_space_group_name_H-M "P M M M"
_symmetry_group_IT_number 47
_symmetry_cell_setting 'orthorhombic'
loop_
_space_group_symop_operation_xyz
x,y,z
-x,-y,z
x,-y,-z
-x,y,-z
-x,-y,-z
x,y,-z
-x,y,z
x,-y,z
loop_
_atom_site_type_symbol
_atom_site_label
_atom_site_fract_x
_atom_site_fract_y
_atom_site_fract_z
Si Si1 0.727921 0.914466 0.220073
Si Si2 0.869849 0.418504 0.583580
Si Si3 0.500000 0.082533 0.310035
Si Si4 0.137174 0.000000 0.578773
Si Si5 0.865245 0.144102 0.661102
Si Si6 0.631010 0.088103 0.923154
Si Si7 0.744917 0.726001 0.417764
Si Si8 0.500000 0.211740 0.580620
O O1 0.610214 0.909417 0.262020
O O2 0.818243 0.868656 0.262485
O O3 0.704588 0.889294 0.142139
O O4 0.760192 0.000000 0.219397
O O5 0.868712 0.420122 0.500000
O O6 0.839817 0.500000 0.607025
O O7 0.787551 0.353515 0.603985
O O8 0.000000 0.403477 0.603815
O O9 0.500000 0.142356 0.369566
O O10 0.500000 0.000000 0.337553
O O11 0.172552 0.072345 0.618525
O O12 0.176521 0.000000 0.500000
O O13 0.000000 0.000000 0.577980
O O14 0.813061 0.213476 0.624018
O O15 0.000000 0.147599 0.659864
O O16 0.500000 0.109828 0.913859
O O17 0.631091 0.000000 0.921930
O O18 0.667627 0.110602 0.000000
O O19 0.768037 0.734161 0.500000
O O20 0.612851 0.741628 0.407336
O O21 0.500000 0.189486 0.500000
#
# Coordination Sequence:
#
# PCOD9381265 Si02
#       8
#     8   8   4   4   8   8   8   4
#     4  10  17  27  41  55  74  98 125 163 199 236
#     4   8  14  26  44  62  76  92 119 157 199 239
#     4  10  18  29  41  53  69 103 141 168 202 234
#     4   9  18  30  38  47  66  93 130 171 203 228
#     4  11  20  28  39  54  72 101 134 164 197 232
#     4   8  13  22  38  59  75  88 114 155 198 234
#     4  10  19  30  42  56  76  99 127 165 205 239
#     4  10  20  31  39  53  77 105 133 166 202 239
#
# _framework density 12.253603
#
# number of rings (size 3 to 8) (size 9 to 14) (size 15 to 20)
#    0.000    2.538    3.077    1.846    0.000    1.692 
#    0.000    0.385    0.000    2.769    0.000    2.154 
#    0.000    0.000    0.000    0.000    0.000    0.769 
#
# Total GULP energy -289581.138932 kJ/mol
# GULP energy per Si atom -5568.868056 kJ/mol
# Density = 1.222571 g / cm^3
# Si number density = 12.253603 Si / 1000 Ang^3
#
#
#
# Elastic Constant Matrix: (Units=GPa)
#
#
# Indices 1 2 3 4 5 6 
#
# 1 60.3388 39.1817 33.5531 0.0000 0.0000 0.0000
# 2 39.1817 81.2075 36.5343 0.0000 0.0000 0.0000
# 3 33.5531 36.5343 75.6314 0.0000 0.0000 0.0000
# 4 0.0000 0.0000 0.0000 3.3696 0.0000 0.0000
# 5 0.0000 0.0000 0.0000 0.0000 14.1869 0.0000
# 6 0.0000 0.0000 0.0000 0.0000 0.0000 13.6355
#
#
#
# Elastic Compliance Matrix: (Units=1/GPa)
#
#
# Indices 1 2 3 4 5 6 
#
# 1 0.026918 -0.009730 -0.007242 0.000000 0.000000 0.000000
# 2 -0.009730 0.019250 -0.004982 0.000000 0.000000 0.000000
# 3 -0.007242 -0.004982 0.018842 0.000000 0.000000 0.000000
# 4 0.000000 0.000000 0.000000 0.296769 0.000000 0.000000
# 5 0.000000 0.000000 0.000000 0.000000 0.070487 0.000000
# 6 0.000000 0.000000 0.000000 0.000000 0.000000 0.073338
#
#
# Mechanical properties :
#
#
# Convention : Reuss Voigt Hill
#
# Bulk Modulus (GPa) = 47.38931 48.41288 47.90110
# Shear Modulus (GPa) = 8.98396 13.43232 11.20814
#
# Velocity S-wave (km/s) = 2.71065 3.31447 3.02765
# Velocity P-wave (km/s) = 6.96811 7.36495 7.16928
#
# Compressibility (1/GPa) = 0.02110180
#
# Stress axis : x y z
#
# Youngs Moduli (GPa) = 37.14942 51.94763 53.07384
#
# Poissons Ratio (x) = 0.50543 0.38436
# Poissons Ratio (y) = 0.36145 0.26444
# Poissons Ratio (z) = 0.26904 0.25883
#
# Static dielectric constant tensor:
#      x y z
#    x 1.408890 0.000000 0.000000 
#    y 0.000000 1.383810 0.000000 
#    z 0.000000 0.000000 1.398190 
# 
# From -- ./inp_files/30653.got.cif
#   From: 2010.05.17/outbox.cif.g08.bks.cpg/sg47_16_cif.got.tgz:30653.got - 2010.06.03 20:15:42.
