data_PCOD9381789
_publ_section_title
;
Structure prediction by ZEFSAII (Michael W. Deem and Ramdas Pophale) SiO2 
 PCOD9381789
Probable space group: P M M M
;
_chemical_formula_sum "Si O2"
_cell_formula_units_Z 56
_cell_length_a 7.656726
_cell_length_b 27.436335
_cell_length_c 14.687197
_cell_angle_alpha 90.000000
_cell_angle_beta 90.000000
_cell_angle_gamma 90.000000
_cell_volume 3085.376185
_symmetry_space_group_name_H-M "P M M M"
_symmetry_group_IT_number 47
_symmetry_cell_setting 'orthorhombic'
loop_
_space_group_symop_operation_xyz
x,y,z
-x,-y,z
x,-y,-z
-x,y,-z
-x,-y,-z
x,y,-z
-x,y,z
x,-y,z
loop_
_atom_site_type_symbol
_atom_site_label
_atom_site_fract_x
_atom_site_fract_y
_atom_site_fract_z
Si Si1 0.291322 0.841241 0.104216
Si Si2 0.705999 0.553044 0.206369
Si Si3 0.713926 0.649705 0.105713
Si Si4 0.291972 0.746618 0.208280
Si Si5 0.788702 0.594240 0.397767
Si Si6 0.790066 0.947563 0.894202
Si Si7 0.789833 0.293403 0.398879
O O1 0.500000 0.836018 0.097992
O O2 0.222743 0.796318 0.163779
O O3 0.260088 0.895115 0.144595
O O4 0.221960 0.839306 0.000000
O O5 0.500000 0.551589 0.185093
O O6 0.780858 0.500000 0.182637
O O7 0.777347 0.600332 0.154293
O O8 0.724760 0.562425 0.314083
O O9 0.500000 0.649698 0.109870
O O10 0.776034 0.697960 0.158291
O O11 0.762581 0.651184 0.000000
O O12 0.500000 0.746668 0.193551
O O13 0.262874 0.740211 0.315433
O O14 0.734026 0.579638 0.500000
O O15 0.731528 0.650535 0.382890
O O16 0.000000 0.593396 0.396241
O O17 0.000000 0.948590 0.894965
O O18 0.730184 0.000000 0.855393
O O19 0.730198 0.946541 0.000000
O O20 0.729434 0.278780 0.500000
O O21 0.000000 0.294797 0.400665
#
# Coordination Sequence:
#
# PCOD9381789 Si02
#       7
#     8   8   8   8   8   8   8
#     4   9  17  27  40  63  94 124 155 190 224 260
#     4  10  20  32  47  69  91 111 143 185 223 261
#     4   9  17  30  47  65  87 116 147 180 219 261
#     4  10  18  29  47  69  91 117 149 183 221 265
#     4   9  18  33  51  68  87 113 142 172 216 275
#     4   8  14  25  40  58  84 121 162 197 226 258
#     4   9  18  32  49  68  89 113 142 178 221 269
#
# _framework density 18.150137000000001
#
# number of rings (size 3 to 8) (size 9 to 14) (size 15 to 20)
#    0.000    2.857    1.429    1.714    0.000    4.000 
#    0.000    5.714    0.000    2.571    0.000    1.000 
#    0.000    0.571    0.000    6.286    0.000    4.857 
#
# Total GULP energy -312121.423484 kJ/mol
# GULP energy per Si atom -5573.596848 kJ/mol
# Density = 1.810883 g / cm^3
# Si number density = 18.150137 Si / 1000 Ang^3
#
#
#
# Elastic Constant Matrix: (Units=GPa)
#
#
# Indices 1 2 3 4 5 6 
#
# 1 31.3977 9.4734 -2.9514 0.0000 0.0000 0.0000
# 2 9.4734 176.2079 74.4609 0.0000 0.0000 0.0000
# 3 -2.9514 74.4609 86.4061 0.0000 0.0000 0.0000
# 4 0.0000 0.0000 0.0000 15.9950 0.0000 0.0000
# 5 0.0000 0.0000 0.0000 0.0000 34.6494 0.0000
# 6 0.0000 0.0000 0.0000 0.0000 0.0000 -2.7475
#
#
#
# Elastic Compliance Matrix: (Units=1/GPa)
#
#
# Indices 1 2 3 4 5 6 
#
# 1 0.033324 -0.003574 0.004218 0.000000 0.000000 0.000000
# 2 -0.003574 0.009309 -0.008144 0.000000 0.000000 0.000000
# 3 0.004218 -0.008144 0.018735 0.000000 0.000000 0.000000
# 4 0.000000 0.000000 0.000000 0.062520 0.000000 0.000000
# 5 0.000000 0.000000 0.000000 0.000000 0.028861 0.000000
# 6 0.000000 0.000000 0.000000 0.000000 0.000000 -0.363966
#
#
# Mechanical properties :
#
#
# Convention : Reuss Voigt Hill
#
# Bulk Modulus (GPa) = 21.56614 50.66416 36.11515
# Shear Modulus (GPa) = -27.66072 23.78129 -1.93971
#
# Velocity S-wave (km/s) = -3.90807 3.62367 -1.03490
# Velocity P-wave (km/s) = 2.90795 6.74407 4.30269
#
# Compressibility (1/GPa) = 0.04636899
#
# Stress axis : x y z
#
# Youngs Moduli (GPa) = 30.00806 107.42694 53.37504
#
# Poissons Ratio (x) = 0.38396 -0.22515
# Poissons Ratio (y) = 0.10725 0.43468
# Poissons Ratio (z) = -0.12658 0.87487
#
# Static dielectric constant tensor:
#      x y z
#    x 1.680980 0.000000 0.000000 
#    y 0.000000 1.658620 0.000000 
#    z 0.000000 0.000000 1.608000 
# 
# From -- ./inp_files/16546.got.cif
#   From: 2010.05.17/outbox.cif.g08.bks.cpg/sg47_9_cif.got.tgz:16546.got - 2010.06.03 20:15:42.
