data_PCOD9381480
_publ_section_title
;
Structure prediction by ZEFSAII (Michael W. Deem and Ramdas Pophale) SiO2 
 PCOD9381480
Probable space group: P M M M
;
_chemical_formula_sum "Si O2"
_cell_formula_units_Z 52
_cell_length_a 14.204604
_cell_length_b 7.814495
_cell_length_c 29.256591
_cell_angle_alpha 90.000000
_cell_angle_beta 90.000000
_cell_angle_gamma 90.000000
_cell_volume 3247.534466
_symmetry_space_group_name_H-M "P M M M"
_symmetry_group_IT_number 47
_symmetry_cell_setting 'orthorhombic'
loop_
_space_group_symop_operation_xyz
x,y,z
-x,-y,z
x,-y,-z
-x,y,-z
-x,-y,-z
x,y,-z
-x,y,z
x,-y,z
loop_
_atom_site_type_symbol
_atom_site_label
_atom_site_fract_x
_atom_site_fract_y
_atom_site_fract_z
Si Si1 0.392396 0.797966 0.715037
Si Si2 0.605291 0.291211 0.900751
Si Si3 0.205251 0.291041 0.050836
Si Si4 0.614390 0.311825 0.384376
Si Si5 0.614990 0.000000 0.447425
Si Si6 0.706647 0.293384 0.808160
Si Si7 0.105301 0.709144 0.856748
O O1 0.500000 0.736883 0.723894
O O2 0.356099 0.715186 0.668167
O O3 0.330362 0.766297 0.759531
O O4 0.396906 0.000000 0.706059
O O5 0.500000 0.231821 0.911309
O O6 0.604166 0.500000 0.901401
O O7 0.688769 0.239036 0.934852
O O8 0.637884 0.239790 0.849741
O O9 0.203941 0.500000 0.050530
O O10 0.137198 0.238436 0.092170
O O11 0.180642 0.232503 0.000000
O O12 0.500000 0.302189 0.382880
O O13 0.641322 0.500000 0.400324
O O14 0.645960 0.165231 0.418769
O O15 0.500000 0.000000 0.447827
O O16 0.645553 0.000000 0.500000
O O17 0.706330 0.500000 0.807864
O O18 0.811525 0.236660 0.822557
O O19 0.105184 0.500000 0.856412
O O20 0.000000 0.767117 0.846022
#
# Coordination Sequence:
#
# PCOD9381480 Si02
#       7
#     8   8   8   8   4   8   8
#     4  10  18  27  39  56  80 105 131 170 215 254
#     4   8  13  20  29  43  66  93 121 156 194 237
#     4   8  13  19  27  43  67  95 126 155 189 240
#     4   9  16  26  39  55  78 110 147 185 225 263
#     4   9  16  26  38  54  80 112 151 197 230 253
#     4   9  16  25  38  55  72  96 132 163 195 248
#     4   8  14  24  36  50  70  95 124 162 203 244
#
# _framework density 16.012146999999999
#
# number of rings (size 3 to 8) (size 9 to 14) (size 15 to 20)
#    0.000    3.308    0.769    2.769    0.000    2.462 
#    0.000    4.615    0.000    0.462    0.000    0.000 
#    0.000    9.846    0.000   39.385    0.000   36.000 
#
# Total GULP energy -289651.843805 kJ/mol
# GULP energy per Si atom -5570.227765 kJ/mol
# Density = 1.597570 g / cm^3
# Si number density = 16.012147 Si / 1000 Ang^3
#
#
#
# Elastic Constant Matrix: (Units=GPa)
#
#
# Indices 1 2 3 4 5 6 
#
# 1 63.8409 5.0700 20.4982 0.0000 0.0000 0.0000
# 2 5.0700 46.3611 29.9233 0.0000 0.0000 0.0000
# 3 20.4982 29.9233 106.8087 0.0000 0.0000 0.0000
# 4 0.0000 0.0000 0.0000 16.4154 0.0000 0.0000
# 5 0.0000 0.0000 0.0000 0.0000 8.8492 0.0000
# 6 0.0000 0.0000 0.0000 0.0000 0.0000 1.6828
#
#
#
# Elastic Compliance Matrix: (Units=1/GPa)
#
#
# Indices 1 2 3 4 5 6 
#
# 1 0.016696 0.000296 -0.003287 0.000000 0.000000 0.000000
# 2 0.000296 0.026336 -0.007435 0.000000 0.000000 0.000000
# 3 -0.003287 -0.007435 0.012076 0.000000 0.000000 0.000000
# 4 0.000000 0.000000 0.000000 0.060918 0.000000 0.000000
# 5 0.000000 0.000000 0.000000 0.000000 0.113005 0.000000
# 6 0.000000 0.000000 0.000000 0.000000 0.000000 0.594257
#
#
# Mechanical properties :
#
#
# Convention : Reuss Voigt Hill
#
# Bulk Modulus (GPa) = 29.19213 36.44375 32.81794
# Shear Modulus (GPa) = 5.84412 16.15741 11.00076
#
# Velocity S-wave (km/s) = 1.91252 3.18004 2.62396
# Velocity P-wave (km/s) = 4.81122 6.02437 5.45164
#
# Compressibility (1/GPa) = 0.03425581
#
# Stress axis : x y z
#
# Youngs Moduli (GPa) = 59.89505 37.97024 82.80632
#
# Poissons Ratio (x) = -0.01123 0.27219
# Poissons Ratio (y) = -0.01771 0.61567
# Poissons Ratio (z) = 0.19688 0.28231
#
# Static dielectric constant tensor:
#      x y z
#    x 1.520700 0.000000 0.000000 
#    y 0.000000 1.596870 0.000000 
#    z 0.000000 0.000000 1.521880 
# 
# From -- ./inp_files/33773.got.cif
#   From: 2010.05.17/outbox.cif.g08.bks.cpg/sg47_17_cif.got.tgz:33773.got - 2010.06.03 20:15:42.
