data_PCOD9381735
_publ_section_title
;
Structure prediction by ZEFSAII (Michael W. Deem and Ramdas Pophale) SiO2 
 PCOD9381735
Probable space group: P M M M
;
_chemical_formula_sum "Si O2"
_cell_formula_units_Z 52
_cell_length_a 13.804130
_cell_length_b 21.727562
_cell_length_c 11.854468
_cell_angle_alpha 90.000000
_cell_angle_beta 90.000000
_cell_angle_gamma 90.000000
_cell_volume 3555.511659
_symmetry_space_group_name_H-M "P M M M"
_symmetry_group_IT_number 47
_symmetry_cell_setting 'orthorhombic'
loop_
_space_group_symop_operation_xyz
x,y,z
-x,-y,z
x,-y,-z
-x,y,-z
-x,-y,-z
x,y,-z
-x,y,z
x,-y,z
loop_
_atom_site_type_symbol
_atom_site_label
_atom_site_fract_x
_atom_site_fract_y
_atom_site_fract_z
Si Si1 0.215762 0.126215 0.364021
Si Si2 0.892328 0.251777 0.363682
Si Si3 0.617564 0.620854 0.000000
Si Si4 0.613566 0.192527 0.245443
Si Si5 0.888109 0.000000 0.637212
Si Si6 0.617091 0.569882 0.243163
Si Si7 0.382641 0.237197 0.000000
Si Si8 0.305658 0.311866 0.635016
O O1 0.228930 0.126185 0.500000
O O2 0.143179 0.182666 0.336734
O O3 0.316797 0.143527 0.305399
O O4 0.168724 0.061704 0.329413
O O5 0.896559 0.254851 0.500000
O O6 0.805156 0.296833 0.329869
O O7 0.000000 0.264524 0.319811
O O8 0.645874 0.586761 0.114761
O O9 0.500000 0.622124 0.000000
O O10 0.651320 0.691815 0.000000
O O11 0.500000 0.176753 0.250147
O O12 0.644376 0.203529 0.115639
O O13 0.630653 0.257991 0.308048
O O14 0.890726 0.000000 0.500000
O O15 0.000000 0.000000 0.675292
O O16 0.500000 0.573657 0.249374
O O17 0.645289 0.500000 0.270738
O O18 0.660730 0.621936 0.323031
O O19 0.500000 0.240043 0.000000
O O20 0.313099 0.306550 0.500000
#
# Coordination Sequence:
#
# PCOD9381735 Si02
#       8
#     8   8   4   8   4   8   4   8
#     4   9  17  27  43  70  96 119 146 174 214 265
#     4   8  14  26  43  62  84 109 140 180 219 250
#     4   9  15  28  45  62  81 107 149 191 220 248
#     4  10  18  29  44  64  90 118 149 184 219 256
#     4   9  16  28  47  70  97 124 151 184 217 255
#     4  10  19  29  42  61  87 117 146 179 217 258
#     4   9  16  27  46  64  81 111 151 190 220 249
#     4  10  19  28  41  63  89 117 146 175 216 272
#
# _framework density 14.625182000000001
#
# number of rings (size 3 to 8) (size 9 to 14) (size 15 to 20)
#    0.000    2.692    1.538    2.538    0.000    5.231 
#    0.000    1.154    0.000    2.308    0.000   22.615 
#    0.000    1.231    0.000    0.000    0.000    0.000 
#
# Total GULP energy -289553.842491 kJ/mol
# GULP energy per Si atom -5568.343125 kJ/mol
# Density = 1.459189 g / cm^3
# Si number density = 14.625182 Si / 1000 Ang^3
#
#
#
# Elastic Constant Matrix: (Units=GPa)
#
#
# Indices 1 2 3 4 5 6 
#
# 1 80.1205 49.0944 25.5136 0.0000 0.0000 0.0000
# 2 49.0944 105.3218 32.4527 0.0000 0.0000 0.0000
# 3 25.5136 32.4527 62.5911 0.0000 0.0000 0.0000
# 4 0.0000 0.0000 0.0000 17.7317 0.0000 0.0000
# 5 0.0000 0.0000 0.0000 0.0000 -3.2845 0.0000
# 6 0.0000 0.0000 0.0000 0.0000 0.0000 13.8504
#
#
#
# Elastic Compliance Matrix: (Units=1/GPa)
#
#
# Indices 1 2 3 4 5 6 
#
# 1 0.018121 -0.007344 -0.003579 0.000000 0.000000 0.000000
# 2 -0.007344 0.014276 -0.004409 0.000000 0.000000 0.000000
# 3 -0.003579 -0.004409 0.019721 0.000000 0.000000 0.000000
# 4 0.000000 0.000000 0.000000 0.056396 0.000000 0.000000
# 5 0.000000 0.000000 0.000000 0.000000 -0.304462 0.000000
# 6 0.000000 0.000000 0.000000 0.000000 0.000000 0.072200
#
#
# Mechanical properties :
#
#
# Convention : Reuss Voigt Hill
#
# Bulk Modulus (GPa) = 46.60712 51.35054 48.97883
# Shear Modulus (GPa) = -58.18523 15.05771 -21.56376
#
# Velocity S-wave (km/s) = -6.31432 3.21218 -3.84399
# Velocity P-wave (km/s) = 4.60695 6.99605 3.72295
#
# Compressibility (1/GPa) = 0.02145595
#
# Stress axis : x y z
#
# Youngs Moduli (GPa) = 55.18463 70.04524 50.70681
#
# Poissons Ratio (x) = 0.51442 0.18146
# Poissons Ratio (y) = 0.40529 0.22354
# Poissons Ratio (z) = 0.19749 0.30880
#
# Static dielectric constant tensor:
#      x y z
#    x 1.487610 0.000000 0.000000 
#    y 0.000000 1.475710 0.000000 
#    z 0.000000 0.000000 1.485640 
# 
# From -- ./inp_files/17994.got.cif
#   From: 2010.05.17/outbox.cif.g08.bks.cpg/sg47_9_cif.got.tgz:17994.got - 2010.06.03 20:15:42.
