data_PCOD9381140
_publ_section_title
;
Structure prediction by ZEFSAII (Michael W. Deem and Ramdas Pophale) SiO2 
 PCOD9381140
Probable space group: I M A 2
;
_chemical_formula_sum "Si O2"
_cell_formula_units_Z 28
_cell_length_a 9.000000
_cell_length_b 21.000000
_cell_length_c 15.000000
_cell_angle_alpha 90.000000
_cell_angle_beta 90.000000
_cell_angle_gamma 90.000000
_cell_volume 2835.000000
_symmetry_space_group_name_H-M "I M A 2"
_symmetry_group_IT_number 46
_symmetry_cell_setting 'orthorhombic'
loop_
_space_group_symop_operation_xyz
x,y,z
-x,-y,z
1/2-x,y,z
1/2+x,-y,z
1/2+x,1/2+y,1/2+z
1/2-x,1/2-y,1/2+z
-x,1/2+y,1/2+z
x,1/2-y,1/2+z
loop_
_atom_site_type_symbol
_atom_site_label
_atom_site_fract_x
_atom_site_fract_y
_atom_site_fract_z
Si Si1 0.575526 0.237552 0.923480
Si Si2 0.428376 0.784818 0.622060
Si Si3 0.926521 0.611469 0.347856
Si Si4 0.574347 0.435925 0.521916
Si Si5 0.428674 0.931497 0.663794
Si Si6 0.421881 0.302001 0.776427
Si Si7 0.075992 0.434198 0.684897
O O1 0.750000 0.221211 0.918506
O O2 0.483183 0.180870 0.877525
O O3 0.530218 0.295084 0.860564
O O4 0.540449 0.253410 0.025734
O O5 0.250000 0.779985 0.639741
O O6 0.462127 0.861564 0.619021
O O7 0.515858 0.745472 0.698422
O O8 0.750000 0.608856 0.336470
O O9 0.983135 0.573439 0.433278
O O10 0.008704 0.582698 0.262789
O O11 0.500000 0.500000 0.558726
O O12 0.750000 0.434799 0.508822
O O13 0.519505 0.396669 0.606563
O O14 0.250000 0.938995 0.664268
O O15 0.500000 0.000000 0.634011
O O16 0.250000 0.282892 0.794357
O O17 0.418833 0.376636 0.754223
O O18 0.250000 0.446922 0.658064
O O19 0.000000 0.500000 0.720713
#
# Coordination Sequence:
#
# PCOD9381140 Si02
#       7
#     8   8   8   8   8   8   8
#     4  11  23  40  63  91 121 160 208 258 314 377
#     4  10  23  42  65  91 124 166 213 260 315 382
#     4  12  23  37  57  87 121 157 201 255 314 374
#     4  11  21  34  53  80 115 155 195 240 298 363
#     4  11  23  41  63  90 124 167 214 265 322 385
#     4  11  23  39  62  92 124 159 203 257 315 372
#     4  10  21  37  57  85 119 158 203 251 307 371
#
# _framework density 9.8765429999999999
#
# number of rings (size 3 to 8) (size 9 to 14) (size 15 to 20)
#    0.000    1.143    1.429    6.429    0.000    6.286 
#    0.000    0.714    0.000    3.429    0.000    0.000 
#    0.000    0.000    0.000    0.000    0.000    0.000 
#
# Total GULP energy -155918.662006 kJ/mol
# GULP energy per Si atom -5568.523643 kJ/mol
# Density = 0.985406 g / cm^3
# Si number density = 9.876543 Si / 1000 Ang^3
#
#
#
# Elastic Constant Matrix: (Units=GPa)
#
#
# Indices 1 2 3 4 5 6 
#
# 1 96.0835 31.5276 19.1495 0.0000 0.0000 0.0000
# 2 31.5276 104.0225 11.8022 0.0000 0.0000 0.0000
# 3 19.1495 11.8022 53.5723 0.0000 0.0000 0.0000
# 4 0.0000 0.0000 0.0000 157.8470 0.0000 0.0000
# 5 0.0000 0.0000 0.0000 0.0000 26.5893 0.0000
# 6 0.0000 0.0000 0.0000 0.0000 0.0000 31.7240
#
#
#
# Elastic Compliance Matrix: (Units=1/GPa)
#
#
# Indices 1 2 3 4 5 6 
#
# 1 0.012212 -0.003288 -0.003641 0.000000 0.000000 0.000000
# 2 -0.003288 0.010745 -0.001192 0.000000 0.000000 0.000000
# 3 -0.003641 -0.001192 0.020230 0.000000 0.000000 0.000000
# 4 0.000000 0.000000 0.000000 0.006335 0.000000 0.000000
# 5 0.000000 0.000000 0.000000 0.000000 0.037609 0.000000
# 6 0.000000 0.000000 0.000000 0.000000 0.000000 0.031522
#
#
# Mechanical properties :
#
#
# Convention : Reuss Voigt Hill
#
# Bulk Modulus (GPa) = 37.11144 42.07079 39.59111
# Shear Modulus (GPa) = 34.75170 55.97864 45.36517
#
# Velocity S-wave (km/s) = 4.19896 5.32923 4.79750
# Velocity P-wave (km/s) = 6.50667 7.69495 7.12562
#
# Compressibility (1/GPa) = 0.02694587
#
# Stress axis : x y z
#
# Youngs Moduli (GPa) = 81.88530 93.06534 49.43064
#
# Poissons Ratio (x) = 0.30602 0.17997
# Poissons Ratio (y) = 0.26926 0.05891
# Poissons Ratio (z) = 0.29813 0.11092
#
# Static dielectric constant tensor:
#      x y z
#    x 1.587830 0.000000 0.000000 
#    y 0.000000 -1.251420 0.000000 
#    z 0.000000 0.000000 1.838870 
# 
# From -- ./inp_files/14183.got.cif
#   From: 2010.05.17/outbox.ucp.g08.bks.cvg/sg46_8_cif.got.tgz:14183.got - 2010.06.11 16:34:52.
