data_PCOD9381438
_publ_section_title
;
Structure prediction by ZEFSAII (Michael W. Deem and Ramdas Pophale) SiO2 
 PCOD9381438
Probable space group: P M M M
;
_chemical_formula_sum "Si O2"
_cell_formula_units_Z 37
_cell_length_a 18.418133
_cell_length_b 12.483611
_cell_length_c 7.934453
_cell_angle_alpha 90.000000
_cell_angle_beta 90.000000
_cell_angle_gamma 90.000000
_cell_volume 1824.327580
_symmetry_space_group_name_H-M "P M M M"
_symmetry_group_IT_number 47
_symmetry_cell_setting 'orthorhombic'
loop_
_space_group_symop_operation_xyz
x,y,z
-x,-y,z
x,-y,-z
-x,y,-z
-x,-y,-z
x,y,-z
-x,y,z
x,-y,z
loop_
_atom_site_type_symbol
_atom_site_label
_atom_site_fract_x
_atom_site_fract_y
_atom_site_fract_z
Si Si1 0.580629 0.264040 0.793872
Si Si2 0.157307 0.716359 0.802223
Si Si3 0.000000 0.221705 0.314856
Si Si4 0.717886 0.877181 0.793953
Si Si5 0.616463 0.500000 0.807141
Si Si6 0.226148 0.500000 0.312215
Si Si7 0.000000 0.000000 0.500000
O O1 0.500000 0.226540 0.747042
O O2 0.646410 0.188060 0.738919
O O3 0.591719 0.386382 0.733296
O O4 0.584159 0.266357 0.000000
O O5 0.073998 0.746181 0.775118
O O6 0.210799 0.811028 0.741096
O O7 0.179290 0.605917 0.715303
O O8 0.171682 0.701709 0.000000
O O9 0.000000 0.275806 0.500000
O O10 0.000000 0.095533 0.356004
O O11 0.718527 0.000000 0.736256
O O12 0.717424 0.879302 0.000000
O O13 0.703746 0.500000 0.806494
O O14 0.589605 0.500000 0.000000
O O15 0.256799 0.500000 0.500000
#
# Coordination Sequence:
#
# PCOD9381438 Si02
#       7
#     8   8   4   8   4   4   1
#     4   9  16  27  48  79 114 151 193 244 300 352
#     4  11  22  40  63  89 120 158 203 252 299 352
#     4  10  23  42  62  92 123 163 197 240 289 347
#     4   9  18  30  49  81 117 150 191 243 295 346
#     4  10  17  32  53  81 113 150 199 249 299 354
#     4  12  24  38  60  89 119 156 196 244 311 375
#     4   8  24  44  66  86 140 168 192 244 294 340
#
# _framework density 20.281445000000001
#
# number of rings (size 3 to 8) (size 9 to 14) (size 15 to 20)
#    0.324    1.730    2.162    2.270    1.514    2.162 
#    0.000    4.865    0.000    1.297    0.000    0.000 
#    0.000    1.730    0.000    0.000    0.000    0.000 
#
# Total GULP energy -206229.857281 kJ/mol
# GULP energy per Si atom -5573.779927 kJ/mol
# Density = 2.023528 g / cm^3
# Si number density = 20.281445 Si / 1000 Ang^3
#
#
#
# Elastic Constant Matrix: (Units=GPa)
#
#
# Indices 1 2 3 4 5 6 
#
# 1 168.6132 77.0228 -3.4829 0.0000 0.0000 0.0000
# 2 77.0228 155.8301 9.6202 0.0000 0.0000 0.0000
# 3 -3.4829 9.6202 32.6271 0.0000 0.0000 0.0000
# 4 0.0000 0.0000 0.0000 3.0656 0.0000 0.0000
# 5 0.0000 0.0000 0.0000 0.0000 -10.7614 0.0000
# 6 0.0000 0.0000 0.0000 0.0000 0.0000 4.9953
#
#
#
# Elastic Compliance Matrix: (Units=1/GPa)
#
#
# Indices 1 2 3 4 5 6 
#
# 1 0.007787 -0.003972 0.002002 0.000000 0.000000 0.000000
# 2 -0.003972 0.008563 -0.002949 0.000000 0.000000 0.000000
# 3 0.002002 -0.002949 0.031733 0.000000 0.000000 0.000000
# 4 0.000000 0.000000 0.000000 0.326198 0.000000 0.000000
# 5 0.000000 0.000000 0.000000 0.000000 -0.092925 0.000000
# 6 0.000000 0.000000 0.000000 0.000000 0.000000 0.200188
#
#
# Mechanical properties :
#
#
# Convention : Reuss Voigt Hill
#
# Bulk Modulus (GPa) = 26.14748 58.15449 42.15098
# Shear Modulus (GPa) = 9.91811 17.72060 13.81935
#
# Velocity S-wave (km/s) = 2.21379 2.95911 2.61316
# Velocity P-wave (km/s) = 4.41076 6.35697 5.47110
#
# Compressibility (1/GPa) = 0.03824461
#
# Stress axis : x y z
#
# Youngs Moduli (GPa) = 128.42427 116.78509 31.51338
#
# Poissons Ratio (x) = 0.46392 -0.06311
# Poissons Ratio (y) = 0.51015 0.09293
# Poissons Ratio (z) = -0.25717 0.34437
#
# Static dielectric constant tensor:
#      x y z
#    x 1.698470 0.000000 0.000000 
#    y 0.000000 1.691390 0.000000 
#    z 0.000000 0.000000 1.759490 
# 
# From -- ./inp_files/8742.got.cif
#   From: 2010.05.17/outbox.cif.g08.bks.cpg/sg47_5_cif.got.tgz:8742.got - 2010.06.03 20:15:42.
