data_PCOD9381932
_publ_section_title
;
Structure prediction by ZEFSAII (Michael W. Deem and Ramdas Pophale) SiO2 
 PCOD9381932
Probable space group: P M M M
;
_chemical_formula_sum "Si O2"
_cell_formula_units_Z 44
_cell_length_a 7.905659
_cell_length_b 13.763301
_cell_length_c 23.490468
_cell_angle_alpha 90.000000
_cell_angle_beta 90.000000
_cell_angle_gamma 90.000000
_cell_volume 2555.950006
_symmetry_space_group_name_H-M "P M M M"
_symmetry_group_IT_number 47
_symmetry_cell_setting 'orthorhombic'
loop_
_space_group_symop_operation_xyz
x,y,z
-x,-y,z
x,-y,-z
-x,y,-z
-x,-y,-z
x,y,-z
-x,y,z
x,-y,z
loop_
_atom_site_type_symbol
_atom_site_label
_atom_site_fract_x
_atom_site_fract_y
_atom_site_fract_z
Si Si1 0.701047 0.808708 0.437880
Si Si2 0.198642 0.693188 0.263085
Si Si3 0.000000 0.618361 0.934711
Si Si4 0.312170 0.383437 0.856637
Si Si5 0.794991 0.609111 0.384444
Si Si6 0.705560 0.890686 0.318122
O O1 0.772046 0.833785 0.500000
O O2 0.500000 0.826586 0.439704
O O3 0.729505 0.694917 0.424463
O O4 0.765313 0.865836 0.382497
O O5 0.288889 0.662312 0.205539
O O6 0.257793 0.635669 0.319700
O O7 0.225152 0.806068 0.278065
O O8 0.000000 0.671939 0.255804
O O9 0.165585 0.648827 0.899546
O O10 0.000000 0.500000 0.935846
O O11 0.000000 0.651454 0.000000
O O12 0.500000 0.362322 0.878654
O O13 0.296364 0.500000 0.849954
O O14 0.741583 0.500000 0.399377
O O15 0.000000 0.612783 0.385793
O O16 0.500000 0.884337 0.317516
O O17 0.753932 0.000000 0.302649
#
# Coordination Sequence:
#
# PCOD9381932 Si02
#       6
#     8   8   4   8   8   8
#     4   9  18  31  45  62  84 112 149 191 237 292
#     4  10  18  30  48  68  94 123 156 200 246 296
#     4   9  18  32  48  70 105 145 180 211 239 271
#     4  10  19  30  48  74 103 138 176 209 243 284
#     4   9  18  30  44  62  85 116 150 188 236 286
#     4   9  18  32  48  66  89 116 149 195 249 302
#
# _framework density 17.214734
#
# number of rings (size 3 to 8) (size 9 to 14) (size 15 to 20)
#    0.000    2.636    0.909    1.091    0.000    3.636 
#    0.000    5.455    0.000    0.000    0.000    5.091 
#    0.000    1.455    0.000    3.818    0.000    0.182 
#
# Total GULP energy -245394.916186 kJ/mol
# GULP energy per Si atom -5577.157186 kJ/mol
# Density = 1.717555 g / cm^3
# Si number density = 17.214734 Si / 1000 Ang^3
#
#
#
# Elastic Constant Matrix: (Units=GPa)
#
#
# Indices 1 2 3 4 5 6 
#
# 1 58.6803 5.0295 36.0920 0.0000 0.0000 0.0000
# 2 5.0295 25.1206 -11.1337 0.0000 0.0000 0.0000
# 3 36.0920 -11.1337 81.5717 0.0000 0.0000 0.0000
# 4 0.0000 0.0000 0.0000 6.8206 0.0000 0.0000
# 5 0.0000 0.0000 0.0000 0.0000 13.0386 0.0000
# 6 0.0000 0.0000 0.0000 0.0000 0.0000 15.4967
#
#
#
# Elastic Compliance Matrix: (Units=1/GPa)
#
#
# Indices 1 2 3 4 5 6 
#
# 1 0.025966 -0.010953 -0.012984 0.000000 0.000000 0.000000
# 2 -0.010953 0.046992 0.011260 0.000000 0.000000 0.000000
# 3 -0.012984 0.011260 0.019541 0.000000 0.000000 0.000000
# 4 0.000000 0.000000 0.000000 0.146615 0.000000 0.000000
# 5 0.000000 0.000000 0.000000 0.000000 0.076696 0.000000
# 6 0.000000 0.000000 0.000000 0.000000 0.000000 0.064530
#
#
# Mechanical properties :
#
#
# Convention : Reuss Voigt Hill
#
# Bulk Modulus (GPa) = 14.89321 25.03867 19.96594
# Shear Modulus (GPa) = 11.68018 16.09681 13.88850
#
# Velocity S-wave (km/s) = 2.60763 3.06119 2.84347
# Velocity P-wave (km/s) = 4.21147 5.20298 4.73326
#
# Compressibility (1/GPa) = 0.06714470
#
# Stress axis : x y z
#
# Youngs Moduli (GPa) = 38.51148 21.28033 51.17458
#
# Poissons Ratio (x) = 0.23309 0.66445
# Poissons Ratio (y) = 0.42183 -0.57624
# Poissons Ratio (z) = 0.50003 -0.23962
#
# Static dielectric constant tensor:
#      x y z
#    x 1.625970 0.000000 0.000000 
#    y 0.000000 1.566300 0.000000 
#    z 0.000000 0.000000 1.567540 
# 
# From -- ./inp_files/15279.got.cif
#   From: 2010.05.17/outbox.cif.g08.bks.cpg/sg47_8_cif.got.tgz:15279.got - 2010.06.03 20:15:42.
