data_PCOD9381768
_publ_section_title
;
Structure prediction by ZEFSAII (Michael W. Deem and Ramdas Pophale) SiO2 
 PCOD9381768
Probable space group: P M M M
;
_chemical_formula_sum "Si O2"
_cell_formula_units_Z 36
_cell_length_a 15.460610
_cell_length_b 14.815009
_cell_length_c 7.320952
_cell_angle_alpha 90.000000
_cell_angle_beta 90.000000
_cell_angle_gamma 90.000000
_cell_volume 1676.857293
_symmetry_space_group_name_H-M "P M M M"
_symmetry_group_IT_number 47
_symmetry_cell_setting 'orthorhombic'
loop_
_space_group_symop_operation_xyz
x,y,z
-x,-y,z
x,-y,-z
-x,y,-z
-x,-y,-z
x,y,-z
-x,y,z
x,-y,z
loop_
_atom_site_type_symbol
_atom_site_label
_atom_site_fract_x
_atom_site_fract_y
_atom_site_fract_z
Si Si1 0.000000 0.105732 0.222695
Si Si2 0.897615 0.596783 0.718573
Si Si3 0.360098 0.246553 0.222700
Si Si4 0.500000 0.605195 0.777528
Si Si5 0.830637 0.788710 0.204446
Si Si6 0.500000 0.101541 0.221587
O O1 0.088508 0.155262 0.285411
O O2 0.000000 0.000000 0.269300
O O3 0.000000 0.113765 0.000000
O O4 0.885292 0.603384 0.500000
O O5 0.861081 0.500000 0.778781
O O6 0.861537 0.685708 0.806108
O O7 0.000000 0.595421 0.751722
O O8 0.414826 0.336058 0.278329
O O9 0.263918 0.224124 0.290066
O O10 0.418074 0.161038 0.273749
O O11 0.355309 0.252725 0.000000
O O12 0.500000 0.500000 0.719641
O O13 0.500000 0.605106 0.000000
O O14 0.817549 0.827051 0.000000
O O15 0.500000 0.000000 0.288648
O O16 0.500000 0.098728 0.000000
#
# Coordination Sequence:
#
# PCOD9381768 Si02
#       6
#     4   8   8   4   8   4
#     4   9  18  30  42  61  92 124 149 179 226 273
#     4   9  18  32  48  65  88 120 153 184 223 270
#     4   8  15  24  36  59  86 111 145 184 218 258
#     4   8  13  23  36  51  79 113 136 165 216 266
#     4  10  18  29  46  68  93 120 153 191 226 264
#     4   8  13  23  38  57  85 118 148 182 226 270
#
# _framework density 21.468731999999999
#
# number of rings (size 3 to 8) (size 9 to 14) (size 15 to 20)
#    0.000    3.222    1.111    2.000    0.000    2.222 
#    0.000    7.778    0.000    1.333    0.000    3.111 
#    0.000    8.889    0.000    0.000    0.000    0.000 
#
# Total GULP energy -200574.710170 kJ/mol
# GULP energy per Si atom -5571.519727 kJ/mol
# Density = 2.141987 g / cm^3
# Si number density = 21.468732 Si / 1000 Ang^3
#
#
#
# Elastic Constant Matrix: (Units=GPa)
#
#
# Indices 1 2 3 4 5 6 
#
# 1 192.1572 106.2449 19.5640 0.0000 0.0000 0.0000
# 2 106.2449 192.8971 7.6310 0.0000 0.0000 0.0000
# 3 19.5640 7.6310 74.2202 0.0000 0.0000 0.0000
# 4 0.0000 0.0000 0.0000 15.8487 0.0000 0.0000
# 5 0.0000 0.0000 0.0000 0.0000 -14.2934 0.0000
# 6 0.0000 0.0000 0.0000 0.0000 0.0000 0.7250
#
#
#
# Elastic Compliance Matrix: (Units=1/GPa)
#
#
# Indices 1 2 3 4 5 6 
#
# 1 0.007666 -0.004159 -0.001593 0.000000 0.000000 0.000000
# 2 -0.004159 0.007462 0.000329 0.000000 0.000000 0.000000
# 3 -0.001593 0.000329 0.013859 0.000000 0.000000 0.000000
# 4 0.000000 0.000000 0.000000 0.063097 0.000000 0.000000
# 5 0.000000 0.000000 0.000000 0.000000 -0.069962 0.000000
# 6 0.000000 0.000000 0.000000 0.000000 0.000000 1.379380
#
#
# Mechanical properties :
#
#
# Convention : Reuss Voigt Hill
#
# Bulk Modulus (GPa) = 55.12362 80.68381 67.90371
# Shear Modulus (GPa) = 3.52511 22.17834 12.85173
#
# Velocity S-wave (km/s) = 1.28279 3.21760 2.44934
# Velocity P-wave (km/s) = 5.28451 7.17409 6.30054
#
# Compressibility (1/GPa) = 0.01814105
#
# Stress axis : x y z
#
# Youngs Moduli (GPa) = 130.44687 134.01307 72.15268
#
# Poissons Ratio (x) = 0.55740 0.11494
# Poissons Ratio (y) = 0.54256 -0.02375
# Poissons Ratio (z) = 0.20781 -0.04411
#
# Static dielectric constant tensor:
#      x y z
#    x 1.581570 0.000000 0.000000 
#    y 0.000000 1.736670 0.000000 
#    z 0.000000 0.000000 1.839550 
# 
# From -- ./inp_files/5622.got.cif
#   From: 2010.05.17/outbox.cif.g08.bks.cpg/sg47_3_cif.got.tgz:5622.got - 2010.06.03 20:15:42.
