data_PCOD9381710
_publ_section_title
;
Structure prediction by ZEFSAII (Michael W. Deem and Ramdas Pophale) SiO2 
 PCOD9381710
Probable space group: P M M M
;
_chemical_formula_sum "Si O2"
_cell_formula_units_Z 64
_cell_length_a 8.919443
_cell_length_b 14.551491
_cell_length_c 27.151503
_cell_angle_alpha 90.000000
_cell_angle_beta 90.000000
_cell_angle_gamma 90.000000
_cell_volume 3524.026008
_symmetry_space_group_name_H-M "P M M M"
_symmetry_group_IT_number 47
_symmetry_cell_setting 'orthorhombic'
loop_
_space_group_symop_operation_xyz
x,y,z
-x,-y,z
x,-y,-z
-x,y,-z
-x,-y,-z
x,y,-z
-x,y,z
x,-y,z
loop_
_atom_site_type_symbol
_atom_site_label
_atom_site_fract_x
_atom_site_fract_y
_atom_site_fract_z
Si Si1 0.819706 0.290344 0.053939
Si Si2 0.317454 0.394120 0.444598
Si Si3 0.819894 0.105027 0.101440
Si Si4 0.178690 0.893129 0.306971
Si Si5 0.676276 0.389216 0.146862
Si Si6 0.681391 0.276363 0.648789
Si Si7 0.330483 0.888499 0.795655
Si Si8 0.682537 0.606705 0.744154
O O1 0.781594 0.182768 0.062032
O O2 0.757375 0.345441 0.100349
O O3 0.000000 0.297641 0.054644
O O4 0.766174 0.321606 0.000000
O O5 0.270017 0.367882 0.500000
O O6 0.500000 0.393445 0.444279
O O7 0.272461 0.500000 0.435671
O O8 0.268731 0.328457 0.400554
O O9 0.747670 0.135520 0.153170
O O10 0.000000 0.103926 0.107093
O O11 0.772841 0.000000 0.090086
O O12 0.252455 0.824821 0.345731
O O13 0.239912 0.864334 0.253161
O O14 0.000000 0.886218 0.307620
O O15 0.220112 0.000000 0.314645
O O16 0.500000 0.366745 0.143465
O O17 0.690141 0.500000 0.145651
O O18 0.731463 0.359906 0.201497
O O19 0.500000 0.272426 0.649101
O O20 0.729174 0.333961 0.697262
O O21 0.500000 0.852365 0.792801
O O22 0.336790 0.000000 0.796000
O O23 0.500000 0.607301 0.745221
O O24 0.727606 0.500000 0.738067
#
# Coordination Sequence:
#
# PCOD9381710 Si02
#       8
#     8   8   8   8   8   8   8   8
#     4  10  22  37  52  73  98 126 165 210 252 297
#     4   8  14  26  47  78 114 146 175 211 257 308
#     4   9  18  33  52  73  99 131 163 197 244 301
#     4  10  21  35  48  66 100 142 177 211 255 304
#     4   9  19  36  55  73  96 127 162 202 251 307
#     4  10  18  28  50  81 106 134 174 217 255 294
#     4   9  17  30  49  72  96 124 162 205 246 293
#     4   8  15  29  49  75 104 129 156 195 246 303
#
# _framework density 18.161047
#
# number of rings (size 3 to 8) (size 9 to 14) (size 15 to 20)
#    0.000    2.875    0.000    2.250    1.750    5.250 
#    0.000    2.500    0.000    3.000    0.000    6.125 
#    0.000    0.000    0.000    0.000    0.000    0.000 
#
# Total GULP energy -356865.722164 kJ/mol
# GULP energy per Si atom -5576.026909 kJ/mol
# Density = 1.811971 g / cm^3
# Si number density = 18.161047 Si / 1000 Ang^3
#
#
#
# Elastic Constant Matrix: (Units=GPa)
#
#
# Indices 1 2 3 4 5 6 
#
# 1 12.1223 22.4416 29.0751 0.0000 0.0000 0.0000
# 2 22.4416 68.3687 67.3264 0.0000 0.0000 0.0000
# 3 29.0751 67.3264 147.2448 0.0000 0.0000 0.0000
# 4 0.0000 0.0000 0.0000 30.1422 0.0000 0.0000
# 5 0.0000 0.0000 0.0000 0.0000 10.7653 0.0000
# 6 0.0000 0.0000 0.0000 0.0000 0.0000 18.4963
#
#
#
# Elastic Compliance Matrix: (Units=1/GPa)
#
#
# Indices 1 2 3 4 5 6 
#
# 1 0.240682 -0.058577 -0.020741 0.000000 0.000000 0.000000
# 2 -0.058577 0.040863 -0.007118 0.000000 0.000000 0.000000
# 3 -0.020741 -0.007118 0.014142 0.000000 0.000000 0.000000
# 4 0.000000 0.000000 0.000000 0.033176 0.000000 0.000000
# 5 0.000000 0.000000 0.000000 0.000000 0.092891 0.000000
# 6 0.000000 0.000000 0.000000 0.000000 0.000000 0.054065
#
#
# Mechanical properties :
#
#
# Convention : Reuss Voigt Hill
#
# Bulk Modulus (GPa) = 8.14239 51.71357 29.92798
# Shear Modulus (GPa) = 7.25027 19.14026 13.19526
#
# Velocity S-wave (km/s) = 2.00022 3.24993 2.69842
# Velocity P-wave (km/s) = 3.13491 6.52837 5.12090
#
# Compressibility (1/GPa) = 0.12281409
#
# Stress axis : x y z
#
# Youngs Moduli (GPa) = 4.15487 24.47172 70.71376
#
# Poissons Ratio (x) = 1.43349 1.46669
# Poissons Ratio (y) = 0.24338 0.50332
# Poissons Ratio (z) = 0.08618 0.17418
#
# Static dielectric constant tensor:
#      x y z
#    x 1.610840 0.000000 0.000000 
#    y 0.000000 1.652470 0.000000 
#    z 0.000000 0.000000 1.617100 
# 
# From -- ./inp_files/34435.got.cif
#   From: 2010.05.17/outbox.cif.g08.bks.cpg/sg47_18_cif.got.tgz:34435.got - 2010.06.03 20:15:42.
