data_PCOD9381312
_publ_section_title
;
Structure prediction by ZEFSAII (Michael W. Deem and Ramdas Pophale) SiO2 
 PCOD9381312
Probable space group: P M M M
;
_chemical_formula_sum "Si O2"
_cell_formula_units_Z 64
_cell_length_a 32.344166
_cell_length_b 8.219257
_cell_length_c 14.847963
_cell_angle_alpha 90.000000
_cell_angle_beta 90.000000
_cell_angle_gamma 90.000000
_cell_volume 3947.256914
_symmetry_space_group_name_H-M "P M M M"
_symmetry_group_IT_number 47
_symmetry_cell_setting 'orthorhombic'
loop_
_space_group_symop_operation_xyz
x,y,z
-x,-y,z
x,-y,-z
-x,y,-z
-x,-y,-z
x,y,-z
-x,y,z
x,-y,z
loop_
_atom_site_type_symbol
_atom_site_label
_atom_site_fract_x
_atom_site_fract_y
_atom_site_fract_z
Si Si1 0.706172 0.197065 0.395816
Si Si2 0.242813 0.696063 0.100518
Si Si3 0.955311 0.804366 0.393845
Si Si4 0.866744 0.306614 0.603114
Si Si5 0.546639 0.301470 0.396154
Si Si6 0.625546 0.696604 0.286429
Si Si7 0.338722 0.698434 0.100370
Si Si8 0.787206 0.193504 0.711845
O O1 0.707653 0.249421 0.500000
O O2 0.664694 0.256117 0.347351
O O3 0.746626 0.256448 0.341673
O O4 0.706225 0.000000 0.394426
O O5 0.242505 0.500000 0.100791
O O6 0.290773 0.747275 0.114050
O O7 0.216385 0.755057 0.184417
O O8 0.230096 0.750224 0.000000
O O9 0.955365 0.758899 0.500000
O O10 0.911716 0.741267 0.358244
O O11 0.000000 0.748832 0.356375
O O12 0.954650 0.000000 0.389057
O O13 0.863096 0.240459 0.500000
O O14 0.865243 0.500000 0.597793
O O15 0.828775 0.248870 0.663050
O O16 0.554624 0.253629 0.500000
O O17 0.500000 0.250068 0.371819
O O18 0.546879 0.500000 0.394728
O O19 0.583129 0.243824 0.331380
O O20 0.623681 0.500000 0.283937
O O21 0.634417 0.754842 0.184810
O O22 0.339178 0.500000 0.100516
O O23 0.351585 0.750891 0.000000
O O24 0.785649 0.000000 0.707516
#
# Coordination Sequence:
#
# PCOD9381312 Si02
#       8
#     8   8   8   8   8   8   8   8
#     4  10  21  33  42  58  88 120 144 175 221 262
#     4   9  17  31  49  66  87 114 144 183 230 272
#     4   8  14  26  44  64  87 118 156 196 237 279
#     4  10  20  31  44  64  91 125 163 199 232 270
#     4   8  14  24  38  60  88 111 135 175 223 261
#     4  10  17  27  47  67  81 106 148 184 209 255
#     4   8  14  25  42  64  87 108 133 173 222 263
#     4  11  21  32  46  63  89 123 154 185 224 274
#
# _framework density 16.213792000000002
#
# number of rings (size 3 to 8) (size 9 to 14) (size 15 to 20)
#    0.000    2.750    1.250    3.000    0.000    3.000 
#    0.000    1.250    0.000    1.125    0.000    4.375 
#    0.000    0.500    0.000    6.375    0.000    3.875 
#
# Total GULP energy -356590.450485 kJ/mol
# GULP energy per Si atom -5571.725789 kJ/mol
# Density = 1.617689 g / cm^3
# Si number density = 16.213792 Si / 1000 Ang^3
#
#
#
# Elastic Constant Matrix: (Units=GPa)
#
#
# Indices 1 2 3 4 5 6 
#
# 1 146.7126 15.3062 87.4146 0.0000 0.0000 0.0000
# 2 15.3062 9.1502 13.3196 0.0000 0.0000 0.0000
# 3 87.4146 13.3196 123.1472 0.0000 0.0000 0.0000
# 4 0.0000 0.0000 0.0000 12.8535 0.0000 0.0000
# 5 0.0000 0.0000 0.0000 0.0000 7.4136 0.0000
# 6 0.0000 0.0000 0.0000 0.0000 0.0000 15.0921
#
#
#
# Elastic Compliance Matrix: (Units=1/GPa)
#
#
# Indices 1 2 3 4 5 6 
#
# 1 0.012466 -0.009461 -0.007825 0.000000 0.000000 0.000000
# 2 -0.009461 0.136891 -0.008090 0.000000 0.000000 0.000000
# 3 -0.007825 -0.008090 0.014550 0.000000 0.000000 0.000000
# 4 0.000000 0.000000 0.000000 0.077800 0.000000 0.000000
# 5 0.000000 0.000000 0.000000 0.000000 0.134887 0.000000
# 6 0.000000 0.000000 0.000000 0.000000 0.000000 0.066260
#
#
# Mechanical properties :
#
#
# Convention : Reuss Voigt Hill
#
# Bulk Modulus (GPa) = 8.83758 56.78786 32.81272
# Shear Modulus (GPa) = 9.41045 17.93649 13.67347
#
# Velocity S-wave (km/s) = 2.41176 3.32964 2.90715
# Velocity P-wave (km/s) = 3.63565 7.06275 5.61696
#
# Compressibility (1/GPa) = 0.11315319
#
# Stress axis : x y z
#
# Youngs Moduli (GPa) = 80.22130 7.30509 68.72847
#
# Poissons Ratio (x) = 0.06911 0.53781
# Poissons Ratio (y) = 0.75899 0.55603
# Poissons Ratio (z) = 0.62775 0.05910
#
# Static dielectric constant tensor:
#      x y z
#    x 1.544520 0.000000 0.000000 
#    y 0.000000 1.565930 0.000000 
#    z 0.000000 0.000000 1.547850 
# 
# From -- ./inp_files/8217.got.cif
#   From: 2010.05.17/outbox.cif.g08.bks.cpg/sg47_5_cif.got.tgz:8217.got - 2010.06.03 20:15:42.
