data_PCOD9381989
_publ_section_title
;
Structure prediction by ZEFSAII (Michael W. Deem and Ramdas Pophale) SiO2 
 PCOD9381989
Probable space group: P M M M
;
_chemical_formula_sum "Si O2"
_cell_formula_units_Z 52
_cell_length_a 27.085165
_cell_length_b 8.698002
_cell_length_c 12.920831
_cell_angle_alpha 90.000000
_cell_angle_beta 90.000000
_cell_angle_gamma 90.000000
_cell_volume 3043.977479
_symmetry_space_group_name_H-M "P M M M"
_symmetry_group_IT_number 47
_symmetry_cell_setting 'orthorhombic'
loop_
_space_group_symop_operation_xyz
x,y,z
-x,-y,z
x,-y,-z
-x,y,-z
-x,-y,-z
x,y,-z
-x,y,z
x,-y,z
loop_
_atom_site_type_symbol
_atom_site_label
_atom_site_fract_x
_atom_site_fract_y
_atom_site_fract_z
Si Si1 0.219974 0.185175 0.500000
Si Si2 0.669922 0.685252 0.500000
Si Si3 0.158482 0.813853 0.295606
Si Si4 0.773352 0.683581 0.879655
Si Si5 0.665924 0.815984 0.120363
Si Si6 0.603145 0.684413 0.696069
Si Si7 0.500000 0.815674 0.378771
Si Si8 0.945156 0.812877 0.379340
O O1 0.275096 0.249478 0.500000
O O2 0.189993 0.231306 0.602737
O O3 0.222218 0.000000 0.500000
O O4 0.672742 0.500000 0.500000
O O5 0.639326 0.732815 0.601778
O O6 0.184589 0.745492 0.195511
O O7 0.101985 0.762870 0.313644
O O8 0.159244 0.000000 0.289517
O O9 0.769379 0.500000 0.870887
O O10 0.720591 0.756990 0.850664
O O11 0.782852 0.722776 0.000000
O O12 0.626499 0.743720 0.197618
O O13 0.664711 0.000000 0.128183
O O14 0.657557 0.772931 0.000000
O O15 0.600787 0.500000 0.696302
O O16 0.549259 0.751328 0.673756
O O17 0.500000 0.769204 0.500000
O O18 0.500000 0.000000 0.373810
O O19 0.938270 0.769455 0.500000
O O20 0.000000 0.762174 0.346226
O O21 0.945103 0.000000 0.377746
#
# Coordination Sequence:
#
# PCOD9381989 Si02
#       8
#     4   4   8   8   8   8   4   8
#     4  10  20  30  44  73 108 136 161 203 258 313
#     4  10  22  35  49  73 106 141 174 209 254 309
#     4  10  18  30  49  75 105 134 170 215 263 314
#     4  10  21  36  53  74 102 139 181 219 261 315
#     4  10  21  38  59  83 110 139 176 223 271 318
#     4  11  22  38  59  82 111 145 181 220 263 315
#     4  11  23  39  60  85 112 145 185 223 265 314
#     4   8  13  24  45  72 102 135 170 210 260 316
#
# _framework density 17.082913000000001
#
# number of rings (size 3 to 8) (size 9 to 14) (size 15 to 20)
#    0.000    2.077    1.538    3.000    0.000    6.462 
#    0.000    0.385    0.000    3.231    0.000    4.308 
#    0.000    0.000    0.000    0.000    0.000    0.000 
#
# Total GULP energy -290275.601874 kJ/mol
# GULP energy per Si atom -5582.223113 kJ/mol
# Density = 1.704403 g / cm^3
# Si number density = 17.082913 Si / 1000 Ang^3
#
#
#
# Elastic Constant Matrix: (Units=GPa)
#
#
# Indices 1 2 3 4 5 6 
#
# 1 183.5676 40.2061 87.8477 0.0000 0.0000 0.0000
# 2 40.2061 27.4818 32.0566 0.0000 0.0000 0.0000
# 3 87.8477 32.0566 92.2121 0.0000 0.0000 0.0000
# 4 0.0000 0.0000 0.0000 20.3666 0.0000 0.0000
# 5 0.0000 0.0000 0.0000 0.0000 22.9364 0.0000
# 6 0.0000 0.0000 0.0000 0.0000 0.0000 -732.3267
#
#
#
# Elastic Compliance Matrix: (Units=1/GPa)
#
#
# Indices 1 2 3 4 5 6 
#
# 1 0.010620 -0.006284 -0.007933 0.000000 0.000000 0.000000
# 2 -0.006284 0.064926 -0.016584 0.000000 0.000000 0.000000
# 3 -0.007933 -0.016584 0.024168 0.000000 0.000000 0.000000
# 4 0.000000 0.000000 0.000000 0.049100 0.000000 0.000000
# 5 0.000000 0.000000 0.000000 0.000000 0.043599 0.000000
# 6 0.000000 0.000000 0.000000 0.000000 0.000000 -0.001366
#
#
# Mechanical properties :
#
#
# Convention : Reuss Voigt Hill
#
# Bulk Modulus (GPa) = 26.23900 69.27581 47.75741
# Shear Modulus (GPa) = 18.84270 -128.26133 -54.70931
#
# Velocity S-wave (km/s) = 3.32477 -8.67437 -5.66527
# Velocity P-wave (km/s) = 5.48926 7.72564 3.84406
#
# Compressibility (1/GPa) = 0.03811120
#
# Stress axis : x y z
#
# Youngs Moduli (GPa) = 94.15819 15.40209 41.37747
#
# Poissons Ratio (x) = 0.09679 0.32826
# Poissons Ratio (y) = 0.59168 0.68622
# Poissons Ratio (z) = 0.74698 0.25544
#
# Static dielectric constant tensor:
#      x y z
#    x 1.560980 0.000000 0.000000 
#    y 0.000000 1.574970 0.000000 
#    z 0.000000 0.000000 1.565720 
# 
# From -- ./inp_files/19887.got.cif
#   From: 2010.05.17/outbox.cif.g08.bks.cpg/sg47_10_cif.got.tgz:19887.got - 2010.06.03 20:15:42.
