data_PCOD9381177
_publ_section_title
;
Structure prediction by ZEFSAII (Michael W. Deem and Ramdas Pophale) SiO2 
 PCOD9381177
Probable space group: P M M M
;
_chemical_formula_sum "Si O2"
_cell_formula_units_Z 40
_cell_length_a 12.315616
_cell_length_b 21.316584
_cell_length_c 7.442164
_cell_angle_alpha 90.000000
_cell_angle_beta 90.000000
_cell_angle_gamma 90.000000
_cell_volume 1953.767969
_symmetry_space_group_name_H-M "P M M M"
_symmetry_group_IT_number 47
_symmetry_cell_setting 'orthorhombic'
loop_
_space_group_symop_operation_xyz
x,y,z
-x,-y,z
x,-y,-z
-x,y,-z
-x,-y,-z
x,y,-z
-x,y,z
x,-y,z
loop_
_atom_site_type_symbol
_atom_site_label
_atom_site_fract_x
_atom_site_fract_y
_atom_site_fract_z
Si Si1 0.125720 0.929076 0.780948
Si Si2 0.222562 0.802709 0.781051
Si Si3 0.759651 0.431931 0.283514
Si Si4 0.622086 0.693372 0.786094
Si Si5 0.000000 0.591154 0.705550
Si Si6 0.000000 0.264980 0.783028
O O1 0.208349 0.874768 0.722166
O O2 0.000000 0.915392 0.728858
O O3 0.151606 0.000000 0.723692
O O4 0.125557 0.928667 0.000000
O O5 0.316014 0.755491 0.716651
O O6 0.108631 0.770696 0.731265
O O7 0.228441 0.803671 0.000000
O O8 0.765030 0.431787 0.500000
O O9 0.713612 0.500000 0.227381
O O10 0.691922 0.370006 0.237749
O O11 0.883925 0.427794 0.214678
O O12 0.500000 0.686440 0.714534
O O13 0.614521 0.701891 0.000000
O O14 0.000000 0.568551 0.500000
O O15 0.000000 0.665973 0.706397
O O16 0.000000 0.269938 0.000000
#
# Coordination Sequence:
#
# PCOD9381177 Si02
#       6
#     8   8   8   8   4   4
#     4   8  12  18  32  59  93 123 149 180 223 275
#     4   9  15  25  42  64  92 122 153 191 233 274
#     4  10  21  36  53  72  95 122 150 186 235 287
#     4  10  21  35  50  68  91 123 163 202 236 270
#     4  10  19  32  50  73  99 120 144 182 231 288
#     4  10  16  25  46  71  92 121 156 190 230 278
#
# _framework density 20.473261000000001
#
# number of rings (size 3 to 8) (size 9 to 14) (size 15 to 20)
#    0.000    2.600    3.000    0.900    0.000    2.400 
#    0.000    2.000    0.000    2.400    0.000    4.200 
#    0.000    4.000    0.000    1.800    0.000    2.000 
#
# Total GULP energy -223083.083799 kJ/mol
# GULP energy per Si atom -5577.077095 kJ/mol
# Density = 2.042666 g / cm^3
# Si number density = 20.473261 Si / 1000 Ang^3
#
#
#
# Elastic Constant Matrix: (Units=GPa)
#
#
# Indices 1 2 3 4 5 6 
#
# 1 138.7612 89.5065 7.6431 0.0000 0.0000 0.0000
# 2 89.5065 211.2173 2.9417 0.0000 0.0000 0.0000
# 3 7.6431 2.9417 60.6505 0.0000 0.0000 0.0000
# 4 0.0000 0.0000 0.0000 13.3354 0.0000 0.0000
# 5 0.0000 0.0000 0.0000 0.0000 4.7444 0.0000
# 6 0.0000 0.0000 0.0000 0.0000 0.0000 22.2771
#
#
#
# Elastic Compliance Matrix: (Units=1/GPa)
#
#
# Indices 1 2 3 4 5 6 
#
# 1 0.009984 -0.004216 -0.001054 0.000000 0.000000 0.000000
# 2 -0.004216 0.006518 0.000215 0.000000 0.000000 0.000000
# 3 -0.001054 0.000215 0.016610 0.000000 0.000000 0.000000
# 4 0.000000 0.000000 0.000000 0.074988 0.000000 0.000000
# 5 0.000000 0.000000 0.000000 0.000000 0.210777 0.000000
# 6 0.000000 0.000000 0.000000 0.000000 0.000000 0.044889
#
#
# Mechanical properties :
#
#
# Convention : Reuss Voigt Hill
#
# Bulk Modulus (GPa) = 43.47243 67.86796 55.67020
# Shear Modulus (GPa) = 13.10463 28.77390 20.93926
#
# Velocity S-wave (km/s) = 2.53273 3.75298 3.20153
# Velocity P-wave (km/s) = 5.46195 7.21120 6.39665
#
# Compressibility (1/GPa) = 0.02300308
#
# Stress axis : x y z
#
# Youngs Moduli (GPa) = 100.15642 153.41634 60.20379
#
# Poissons Ratio (x) = 0.64686 0.06344
# Poissons Ratio (y) = 0.42230 -0.01296
# Poissons Ratio (z) = 0.10554 -0.03301
#
# Static dielectric constant tensor:
#      x y z
#    x 1.712870 0.000000 0.000000 
#    y 0.000000 1.741420 0.000000 
#    z 0.000000 0.000000 1.801240 
# 
# From -- ./inp_files/4109.got.cif
#   From: 2010.05.17/outbox.cif.g08.bks.cpg/sg47_3_cif.got.tgz:4109.got - 2010.06.03 20:15:42.
