data_PCOD9381436
_publ_section_title
;
Structure prediction by ZEFSAII (Michael W. Deem and Ramdas Pophale) SiO2 
 PCOD9381436
Probable space group: P M M M
;
_chemical_formula_sum "Si O2"
_cell_formula_units_Z 52
_cell_length_a 11.313145
_cell_length_b 7.502311
_cell_length_c 27.803720
_cell_angle_alpha 90.000000
_cell_angle_beta 90.000000
_cell_angle_gamma 90.000000
_cell_volume 2359.833289
_symmetry_space_group_name_H-M "P M M M"
_symmetry_group_IT_number 47
_symmetry_cell_setting 'orthorhombic'
loop_
_space_group_symop_operation_xyz
x,y,z
-x,-y,z
x,-y,-z
-x,y,-z
-x,-y,-z
x,y,-z
-x,y,z
x,-y,z
loop_
_atom_site_type_symbol
_atom_site_label
_atom_site_fract_x
_atom_site_fract_y
_atom_site_fract_z
Si Si1 0.726983 0.782575 0.554644
Si Si2 0.500000 0.296137 0.730062
Si Si3 0.131980 0.704510 0.837055
Si Si4 0.642169 0.299385 0.000000
Si Si5 0.238346 0.794522 0.260351
Si Si6 0.500000 0.215938 0.617318
Si Si7 0.868349 0.217020 0.357504
Si Si8 0.636670 0.719249 0.106836
O O1 0.727679 0.718156 0.500000
O O2 0.612390 0.731891 0.585579
O O3 0.832995 0.724652 0.589215
O O4 0.726498 0.000000 0.552147
O O5 0.500000 0.500000 0.745270
O O6 0.377991 0.215873 0.748744
O O7 0.500000 0.282729 0.671846
O O8 0.126256 0.500000 0.853929
O O9 0.160965 0.704229 0.780391
O O10 0.252885 0.779991 0.860574
O O11 0.000000 0.782272 0.845466
O O12 0.667589 0.220892 0.947732
O O13 0.692905 0.500000 0.000000
O O14 0.500000 0.313428 0.000000
O O15 0.215939 0.723960 0.314239
O O16 0.201527 0.000000 0.259865
O O17 0.500000 0.000000 0.621749
O O18 0.000000 0.270001 0.344978
O O19 0.861968 0.000000 0.358984
O O20 0.500000 0.773218 0.118638
O O21 0.633490 0.500000 0.107444
#
# Coordination Sequence:
#
# PCOD9381436 Si02
#       8
#     8   4   8   4   8   4   8   8
#     4   9  16  26  45  73 103 132 163 205 255 305
#     4  12  24  37  57  83 106 131 169 220 279 330
#     4  10  21  35  51  78 115 149 183 229 281 329
#     4   7  10  20  41  69 100 139 188 234 274 321
#     4  11  22  38  57  77 104 140 181 222 268 324
#     4  10  17  32  52  76 104 132 165 203 251 312
#     4   9  17  29  47  72 100 130 168 213 257 301
#     4   8  14  26  46  72 105 146 189 232 279 325
#
# _framework density 22.035456
#
# number of rings (size 3 to 8) (size 9 to 14) (size 15 to 20)
#    0.000    2.538    1.538    2.769    1.077    2.154 
#    0.000    1.923    0.000    3.231    0.000    0.538 
#    0.000    4.308    0.000    0.000    0.000    0.000 
#
# Total GULP energy -289954.102928 kJ/mol
# GULP energy per Si atom -5576.040441 kJ/mol
# Density = 2.198530 g / cm^3
# Si number density = 22.035456 Si / 1000 Ang^3
#
#
#
# Elastic Constant Matrix: (Units=GPa)
#
#
# Indices 1 2 3 4 5 6 
#
# 1 146.0049 -0.1723 50.2991 0.0000 0.0000 0.0000
# 2 -0.1723 56.6686 0.1407 0.0000 0.0000 0.0000
# 3 50.2991 0.1407 89.4284 0.0000 0.0000 0.0000
# 4 0.0000 0.0000 0.0000 0.8218 0.0000 0.0000
# 5 0.0000 0.0000 0.0000 0.0000 17.7419 0.0000
# 6 0.0000 0.0000 0.0000 0.0000 0.0000 -2.3498
#
#
#
# Elastic Compliance Matrix: (Units=1/GPa)
#
#
# Indices 1 2 3 4 5 6 
#
# 1 0.008495 0.000038 -0.004778 0.000000 0.000000 0.000000
# 2 0.000038 0.017647 -0.000049 0.000000 0.000000 0.000000
# 3 -0.004778 -0.000049 0.013870 0.000000 0.000000 0.000000
# 4 0.000000 0.000000 0.000000 1.216869 0.000000 0.000000
# 5 0.000000 0.000000 0.000000 0.000000 0.056364 0.000000
# 6 0.000000 0.000000 0.000000 0.000000 0.000000 -0.425566
#
#
# Mechanical properties :
#
#
# Convention : Reuss Voigt Hill
#
# Bulk Modulus (GPa) = 32.85941 43.62631 38.24286
# Shear Modulus (GPa) = 5.51024 19.36506 12.43765
#
# Velocity S-wave (km/s) = 1.58305 2.96770 2.37837
# Velocity P-wave (km/s) = 4.27619 5.61998 4.99350
#
# Compressibility (1/GPa) = 0.03043268
#
# Stress axis : x y z
#
# Youngs Moduli (GPa) = 117.71297 56.66783 72.09948
#
# Poissons Ratio (x) = -0.00214 0.34451
# Poissons Ratio (y) = -0.00444 0.00353
# Poissons Ratio (z) = 0.56246 0.00278
#
# Static dielectric constant tensor:
#      x y z
#    x 1.817570 0.000000 0.000000 
#    y 0.000000 1.885110 0.000000 
#    z 0.000000 0.000000 1.806740 
# 
# From -- ./inp_files/33654.got.cif
#   From: 2010.05.17/outbox.cif.g08.bks.cpg/sg47_17_cif.got.tgz:33654.got - 2010.06.03 20:15:42.
