data_PCOD9381749
_publ_section_title
;
Structure prediction by ZEFSAII (Michael W. Deem and Ramdas Pophale) SiO2 
 PCOD9381749
Probable space group: P M M M
;
_chemical_formula_sum "Si O2"
_cell_formula_units_Z 64
_cell_length_a 18.477592
_cell_length_b 14.211541
_cell_length_c 15.569742
_cell_angle_alpha 90.000000
_cell_angle_beta 90.000000
_cell_angle_gamma 90.000000
_cell_volume 4088.537277
_symmetry_space_group_name_H-M "P M M M"
_symmetry_group_IT_number 47
_symmetry_cell_setting 'orthorhombic'
loop_
_space_group_symop_operation_xyz
x,y,z
-x,-y,z
x,-y,-z
-x,y,-z
-x,-y,-z
x,y,-z
-x,y,z
x,-y,z
loop_
_atom_site_type_symbol
_atom_site_label
_atom_site_fract_x
_atom_site_fract_y
_atom_site_fract_z
Si Si1 0.328583 0.886798 0.902192
Si Si2 0.581888 0.886007 0.739820
Si Si3 0.918726 0.895381 0.675063
Si Si4 0.086480 0.706479 0.092085
Si Si5 0.162460 0.107971 0.146498
Si Si6 0.914122 0.612014 0.727860
Si Si7 0.705102 0.890065 0.601776
Si Si8 0.164261 0.743996 0.596450
O O1 0.384366 0.851759 0.830162
O O2 0.247220 0.872543 0.867223
O O3 0.337723 0.000000 0.906742
O O4 0.336209 0.850832 0.000000
O O5 0.500000 0.852255 0.726222
O O6 0.637084 0.866732 0.662121
O O7 0.579182 0.000000 0.744832
O O8 0.864165 0.886189 0.755050
O O9 0.900895 0.818672 0.605031
O O10 0.000000 0.883611 0.709704
O O11 0.912182 0.000000 0.639240
O O12 0.118943 0.810686 0.099358
O O13 0.105492 0.647516 0.176539
O O14 0.000000 0.713427 0.092836
O O15 0.108805 0.664556 0.000000
O O16 0.148711 0.000000 0.117902
O O17 0.908385 0.500000 0.721689
O O18 0.859876 0.664090 0.662806
O O19 0.000000 0.636319 0.712363
O O20 0.687750 0.888645 0.500000
O O21 0.766516 0.810941 0.615926
O O22 0.727524 0.000000 0.621597
O O23 0.171857 0.707506 0.500000
#
# Coordination Sequence:
#
# PCOD9381749 Si02
#       8
#     8   8   8   8   8   8   8   8
#     4   9  17  27  39  58  87 125 164 196 226 263
#     4   9  17  28  43  65  93 128 166 196 224 264
#     4  10  19  29  43  64  92 126 160 196 237 280
#     4  10  20  33  50  71  93 122 161 200 242 291
#     4  10  18  29  45  66  96 131 164 197 236 281
#     4  10  22  39  54  69  92 121 158 207 257 298
#     4   9  18  32  49  71  98 127 159 195 235 281
#     4  11  21  33  51  71  92 122 159 197 243 295
#
# _framework density 15.653521
#
# number of rings (size 3 to 8) (size 9 to 14) (size 15 to 20)
#    0.000    2.250    1.250    2.250    0.000    6.250 
#    0.000    5.625    0.000    0.000    0.000    0.000 
#    0.000    0.500    0.000    2.750    0.000    3.375 
#
# Total GULP energy -356472.110314 kJ/mol
# GULP energy per Si atom -5569.876724 kJ/mol
# Density = 1.561789 g / cm^3
# Si number density = 15.653521 Si / 1000 Ang^3
#
#
#
# Elastic Constant Matrix: (Units=GPa)
#
#
# Indices 1 2 3 4 5 6 
#
# 1 72.5361 27.2372 69.2138 0.0000 0.0000 0.0000
# 2 27.2372 55.6177 38.8623 0.0000 0.0000 0.0000
# 3 69.2138 38.8623 102.6984 0.0000 0.0000 0.0000
# 4 0.0000 0.0000 0.0000 3.1875 0.0000 0.0000
# 5 0.0000 0.0000 0.0000 0.0000 13.9309 0.0000
# 6 0.0000 0.0000 0.0000 0.0000 0.0000 8.6488
#
#
#
# Elastic Compliance Matrix: (Units=1/GPa)
#
#
# Indices 1 2 3 4 5 6 
#
# 1 0.038666 -0.000988 -0.025685 0.000000 0.000000 0.000000
# 2 -0.000988 0.024468 -0.008593 0.000000 0.000000 0.000000
# 3 -0.025685 -0.008593 0.030299 0.000000 0.000000 0.000000
# 4 0.000000 0.000000 0.000000 0.313721 0.000000 0.000000
# 5 0.000000 0.000000 0.000000 0.000000 0.071783 0.000000
# 6 0.000000 0.000000 0.000000 0.000000 0.000000 0.115623
#
#
# Mechanical properties :
#
#
# Convention : Reuss Voigt Hill
#
# Bulk Modulus (GPa) = 43.66647 55.71985 49.69316
# Shear Modulus (GPa) = 7.43244 11.52271 9.47757
#
# Velocity S-wave (km/s) = 2.18138 2.71608 2.46328
# Velocity P-wave (km/s) = 5.85668 6.74604 6.31703
#
# Compressibility (1/GPa) = 0.02290087
#
# Stress axis : x y z
#
# Youngs Moduli (GPa) = 25.86249 40.86953 33.00396
#
# Poissons Ratio (x) = 0.04040 0.84771
# Poissons Ratio (y) = 0.02556 0.28360
# Poissons Ratio (z) = 0.66428 0.35119
#
# Static dielectric constant tensor:
#      x y z
#    x 1.529420 0.000000 0.000000 
#    y 0.000000 1.503410 0.000000 
#    z 0.000000 0.000000 1.577890 
# 
# From -- ./inp_files/24123.got.cif
#   From: 2010.05.17/outbox.cif.g08.bks.cpg/sg47_13_cif.got.tgz:24123.got - 2010.06.03 20:15:42.
