data_PCOD9381898
_publ_section_title
;
Structure prediction by ZEFSAII (Michael W. Deem and Ramdas Pophale) SiO2 
 PCOD9381898
Probable space group: P M M M
;
_chemical_formula_sum "Si O2"
_cell_formula_units_Z 52
_cell_length_a 21.158141
_cell_length_b 8.586408
_cell_length_c 16.965703
_cell_angle_alpha 90.000000
_cell_angle_beta 90.000000
_cell_angle_gamma 90.000000
_cell_volume 3082.200510
_symmetry_space_group_name_H-M "P M M M"
_symmetry_group_IT_number 47
_symmetry_cell_setting 'orthorhombic'
loop_
_space_group_symop_operation_xyz
x,y,z
-x,-y,z
x,-y,-z
-x,y,-z
-x,-y,-z
x,y,-z
-x,y,z
x,-y,z
loop_
_atom_site_type_symbol
_atom_site_label
_atom_site_fract_x
_atom_site_fract_y
_atom_site_fract_z
Si Si1 0.215752 0.186322 0.500000
Si Si2 0.868936 0.814519 0.348055
Si Si3 0.366592 0.688547 0.326193
Si Si4 0.569992 0.812173 0.172428
Si Si5 0.301655 0.188471 0.910554
Si Si6 0.000000 0.313893 0.408358
Si Si7 0.763703 0.313967 0.758360
Si Si8 0.355514 0.314259 0.500000
O O1 0.174254 0.224956 0.423829
O O2 0.280988 0.277985 0.500000
O O3 0.228535 0.000000 0.500000
O O4 0.828948 0.753340 0.274253
O O5 0.937369 0.743374 0.364064
O O6 0.874805 0.000000 0.343760
O O7 0.369094 0.500000 0.324855
O O8 0.413000 0.753741 0.259888
O O9 0.295537 0.734823 0.298115
O O10 0.380000 0.744050 0.415261
O O11 0.500000 0.759162 0.148768
O O12 0.627583 0.762415 0.116168
O O13 0.570195 0.000000 0.172837
O O14 0.254754 0.255478 0.845046
O O15 0.299265 0.000000 0.907183
O O16 0.288684 0.237080 0.000000
O O17 0.000000 0.500000 0.410779
O O18 0.000000 0.256462 0.500000
O O19 0.766182 0.500000 0.756925
O O20 0.365119 0.500000 0.500000
#
# Coordination Sequence:
#
# PCOD9381898 Si02
#       8
#     4   8   8   8   8   4   8   4
#     4  10  20  29  45  71  98 130 167 209 253 294
#     4  11  21  34  50  72 103 139 177 212 252 297
#     4   9  18  30  46  67  91 123 162 206 250 293
#     4   9  18  32  49  69  95 127 161 199 245 299
#     4   9  18  33  53  77 103 128 157 199 251 306
#     4  11  23  35  49  71 104 145 184 219 253 289
#     4  10  19  32  51  74 100 130 165 207 252 300
#     4  10  18  30  46  66  92 123 166 212 251 292
#
# _framework density 16.871064000000001
#
# number of rings (size 3 to 8) (size 9 to 14) (size 15 to 20)
#    0.000    2.231    2.308    1.154    0.000    3.077 
#    0.000    1.923    0.000    2.308    0.000    4.846 
#    0.000    4.308    0.000    0.000    0.000    0.000 
#
# Total GULP energy -290034.150146 kJ/mol
# GULP energy per Si atom -5577.579811 kJ/mol
# Density = 1.683266 g / cm^3
# Si number density = 16.871064 Si / 1000 Ang^3
#
#
#
# Elastic Constant Matrix: (Units=GPa)
#
#
# Indices 1 2 3 4 5 6 
#
# 1 85.8907 19.7819 41.9457 0.0000 0.0000 0.0000
# 2 19.7819 12.6785 21.0093 0.0000 0.0000 0.0000
# 3 41.9457 21.0093 121.6353 0.0000 0.0000 0.0000
# 4 0.0000 0.0000 0.0000 21.9228 0.0000 0.0000
# 5 0.0000 0.0000 0.0000 0.0000 12.6111 0.0000
# 6 0.0000 0.0000 0.0000 0.0000 0.0000 21.8792
#
#
#
# Elastic Compliance Matrix: (Units=1/GPa)
#
#
# Indices 1 2 3 4 5 6 
#
# 1 0.018499 -0.025627 -0.001953 0.000000 0.000000 0.000000
# 2 -0.025627 0.146001 -0.016381 0.000000 0.000000 0.000000
# 3 -0.001953 -0.016381 0.011724 0.000000 0.000000 0.000000
# 4 0.000000 0.000000 0.000000 0.045615 0.000000 0.000000
# 5 0.000000 0.000000 0.000000 0.000000 0.079295 0.000000
# 6 0.000000 0.000000 0.000000 0.000000 0.000000 0.045705
#
#
# Mechanical properties :
#
#
# Convention : Reuss Voigt Hill
#
# Bulk Modulus (GPa) = 11.32452 42.85314 27.08883
# Shear Modulus (GPa) = 10.77135 20.44714 15.60925
#
# Velocity S-wave (km/s) = 2.52950 3.48511 3.04502
# Velocity P-wave (km/s) = 3.90617 6.45369 5.33424
#
# Compressibility (1/GPa) = 0.08830393
#
# Stress axis : x y z
#
# Youngs Moduli (GPa) = 54.05814 6.84925 85.29466
#
# Poissons Ratio (x) = 0.17552 0.16657
# Poissons Ratio (y) = 1.38533 1.39718
# Poissons Ratio (z) = 0.10557 0.11219
#
# Static dielectric constant tensor:
#      x y z
#    x 1.555160 0.000000 0.000000 
#    y 0.000000 1.567700 0.000000 
#    z 0.000000 0.000000 1.573280 
# 
# From -- ./inp_files/25056.got.cif
#   From: 2010.05.17/outbox.cif.g08.bks.cpg/sg47_13_cif.got.tgz:25056.got - 2010.06.03 20:15:42.
