data_PCOD9381951
_publ_section_title
;
Structure prediction by ZEFSAII (Michael W. Deem and Ramdas Pophale) SiO2 
 PCOD9381951
Probable space group: P M M M
;
_chemical_formula_sum "Si O2"
_cell_formula_units_Z 52
_cell_length_a 9.117761
_cell_length_b 28.960326
_cell_length_c 12.125972
_cell_angle_alpha 90.000000
_cell_angle_beta 90.000000
_cell_angle_gamma 90.000000
_cell_volume 3201.903298
_symmetry_space_group_name_H-M "P M M M"
_symmetry_group_IT_number 47
_symmetry_cell_setting 'orthorhombic'
loop_
_space_group_symop_operation_xyz
x,y,z
-x,-y,z
x,-y,-z
-x,y,-z
-x,-y,-z
x,y,-z
-x,y,z
x,-y,z
loop_
_atom_site_type_symbol
_atom_site_label
_atom_site_fract_x
_atom_site_fract_y
_atom_site_fract_z
Si Si1 0.336111 0.164546 0.000000
Si Si2 0.670707 0.776421 0.223372
Si Si3 0.675830 0.949119 0.229085
Si Si4 0.668598 0.593323 0.134029
Si Si5 0.172517 0.071986 0.000000
Si Si6 0.824902 0.688757 0.130250
Si Si7 0.830528 0.500000 0.865462
Si Si8 0.321167 0.139302 0.373293
O O1 0.326263 0.195416 0.108504
O O2 0.211849 0.126256 0.000000
O O3 0.500000 0.142315 0.000000
O O4 0.500000 0.764718 0.245903
O O5 0.762408 0.730396 0.203000
O O6 0.724399 0.813018 0.314570
O O7 0.500000 0.944918 0.213522
O O8 0.753205 0.946703 0.110895
O O9 0.724180 0.905798 0.303548
O O10 0.703762 0.000000 0.278767
O O11 0.500000 0.594624 0.170524
O O12 0.753586 0.640032 0.163654
O O13 0.748912 0.546594 0.170860
O O14 0.668176 0.591995 0.000000
O O15 0.000000 0.063303 0.000000
O O16 0.000000 0.686198 0.137299
O O17 0.786899 0.696947 0.000000
O O18 0.000000 0.500000 0.831800
O O19 0.828242 0.500000 0.000000
O O20 0.274258 0.136596 0.500000
O O21 0.500000 0.139437 0.371102
#
# Coordination Sequence:
#
# PCOD9381951 Si02
#       8
#     4   8   8   8   4   8   4   8
#     4  10  18  31  51  72  94 122 157 190 233 286
#     4  10  18  30  49  68  91 120 150 189 235 284
#     4  10  20  35  55  76  99 127 156 189 232 281
#     4   9  16  25  37  54  79 115 159 198 235 280
#     4  12  23  33  50  75 104 128 153 189 231 278
#     4  10  19  28  40  62  91 118 151 195 239 282
#     4   9  15  23  35  51  77 115 158 201 240 273
#     4   9  18  33  53  76  97 119 154 197 236 278
#
# _framework density 16.24034
#
# number of rings (size 3 to 8) (size 9 to 14) (size 15 to 20)
#    0.000    2.231    2.308    2.077    0.000    5.538 
#    0.000    1.538    0.000    1.846    0.000    1.077 
#    0.000    0.000    0.000    0.692    0.000   14.385 
#
# Total GULP energy -289913.745348 kJ/mol
# GULP energy per Si atom -5575.264334 kJ/mol
# Density = 1.620338 g / cm^3
# Si number density = 16.240340 Si / 1000 Ang^3
#
#
#
# Elastic Constant Matrix: (Units=GPa)
#
#
# Indices 1 2 3 4 5 6 
#
# 1 66.3967 64.2053 23.6387 0.0000 0.0000 0.0000
# 2 64.2053 164.3739 50.3806 0.0000 0.0000 0.0000
# 3 23.6387 50.3806 73.4542 0.0000 0.0000 0.0000
# 4 0.0000 0.0000 0.0000 -93.0998 0.0000 0.0000
# 5 0.0000 0.0000 0.0000 0.0000 4.4741 0.0000
# 6 0.0000 0.0000 0.0000 0.0000 0.0000 4.4197
#
#
#
# Elastic Compliance Matrix: (Units=1/GPa)
#
#
# Indices 1 2 3 4 5 6 
#
# 1 0.024362 -0.009006 -0.001663 0.000000 0.000000 0.000000
# 2 -0.009006 0.011033 -0.004669 0.000000 0.000000 0.000000
# 3 -0.001663 -0.004669 0.017351 0.000000 0.000000 0.000000
# 4 0.000000 0.000000 0.000000 -0.010741 0.000000 0.000000
# 5 0.000000 0.000000 0.000000 0.000000 0.223511 0.000000
# 6 0.000000 0.000000 0.000000 0.000000 0.000000 0.226258
#
#
# Mechanical properties :
#
#
# Convention : Reuss Voigt Hill
#
# Bulk Modulus (GPa) = 45.30995 64.51933 54.91464
# Shear Modulus (GPa) = 9.43743 -5.77452 1.83146
#
# Velocity S-wave (km/s) = 2.41324 -1.88769 1.06309
# Velocity P-wave (km/s) = 5.97705 5.92139 5.94929
#
# Compressibility (1/GPa) = 0.02207021
#
# Stress axis : x y z
#
# Youngs Moduli (GPa) = 41.04750 90.64123 57.63309
#
# Poissons Ratio (x) = 0.81634 0.09584
# Poissons Ratio (y) = 0.36968 0.26907
# Poissons Ratio (z) = 0.06826 0.42317
#
# Static dielectric constant tensor:
#      x y z
#    x 1.544460 0.000000 0.000000 
#    y 0.000000 1.556350 0.000000 
#    z 0.000000 0.000000 1.519810 
# 
# From -- ./inp_files/15587.got.cif
#   From: 2010.05.17/outbox.cif.g08.bks.cpg/sg47_8_cif.got.tgz:15587.got - 2010.06.03 20:15:42.
