data_PCOD9381969
_publ_section_title
;
Structure prediction by ZEFSAII (Michael W. Deem and Ramdas Pophale) SiO2 
 PCOD9381969
Probable space group: P M M M
;
_chemical_formula_sum "Si O2"
_cell_formula_units_Z 32
_cell_length_a 10.575765
_cell_length_b 8.656325
_cell_length_c 20.185782
_cell_angle_alpha 90.000000
_cell_angle_beta 90.000000
_cell_angle_gamma 90.000000
_cell_volume 1847.953012
_symmetry_space_group_name_H-M "P M M M"
_symmetry_group_IT_number 47
_symmetry_cell_setting 'orthorhombic'
loop_
_space_group_symop_operation_xyz
x,y,z
-x,-y,z
x,-y,-z
-x,y,-z
-x,-y,-z
x,y,-z
-x,y,z
x,-y,z
loop_
_atom_site_type_symbol
_atom_site_label
_atom_site_fract_x
_atom_site_fract_y
_atom_site_fract_z
Si Si1 0.500000 0.811579 0.575887
Si Si2 0.647456 0.315994 0.787940
Si Si3 0.347099 0.817821 0.072400
Si Si4 0.000000 0.811276 0.576826
Si Si5 0.250798 0.186682 0.655055
O O1 0.500000 0.760251 0.500000
O O2 0.625681 0.762019 0.614071
O O3 0.500000 0.000000 0.575519
O O4 0.500000 0.261945 0.780119
O O5 0.647000 0.500000 0.783247
O O6 0.693667 0.266494 0.860852
O O7 0.730905 0.246273 0.729337
O O8 0.500000 0.803570 0.071229
O O9 0.318349 0.000000 0.077524
O O10 0.301509 0.761871 0.000000
O O11 0.124930 0.762610 0.616709
O O12 0.000000 0.761078 0.500000
O O13 0.000000 0.000000 0.575545
O O14 0.250230 0.000000 0.656482
#
# Coordination Sequence:
#
# PCOD9381969 Si02
#       5
#     4   8   8   4   8
#     4   9  16  26  45  71  92 115 152 193 235 286
#     4  10  19  29  43  66  98 131 163 200 237 279
#     4   8  14  25  42  65  94 127 161 196 236 283
#     4   9  18  32  51  75  98 119 154 207 253 288
#     4  10  18  30  49  71  95 124 157 197 244 291
#
# _framework density 17.316457
#
# number of rings (size 3 to 8) (size 9 to 14) (size 15 to 20)
#    0.000    2.750    1.250    2.250    0.000    4.500 
#    0.000    3.125    0.000    4.500    0.000    0.875 
#    0.000    7.000    0.000    0.000    0.000    0.000 
#
# Total GULP energy -178290.721894 kJ/mol
# GULP energy per Si atom -5571.585059 kJ/mol
# Density = 1.727704 g / cm^3
# Si number density = 17.316457 Si / 1000 Ang^3
#
#
#
# Elastic Constant Matrix: (Units=GPa)
#
#
# Indices 1 2 3 4 5 6 
#
# 1 99.9435 18.5633 75.3008 0.0000 0.0000 0.0000
# 2 18.5633 10.0422 31.8673 0.0000 0.0000 0.0000
# 3 75.3008 31.8673 193.7451 0.0000 0.0000 0.0000
# 4 0.0000 0.0000 0.0000 -13.9030 0.0000 0.0000
# 5 0.0000 0.0000 0.0000 0.0000 19.8957 0.0000
# 6 0.0000 0.0000 0.0000 0.0000 0.0000 6.4468
#
#
#
# Elastic Compliance Matrix: (Units=1/GPa)
#
#
# Indices 1 2 3 4 5 6 
#
# 1 0.015942 -0.020515 -0.002822 0.000000 0.000000 0.000000
# 2 -0.020515 0.234707 -0.030631 0.000000 0.000000 0.000000
# 3 -0.002822 -0.030631 0.011296 0.000000 0.000000 0.000000
# 4 0.000000 0.000000 0.000000 -0.071927 0.000000 0.000000
# 5 0.000000 0.000000 0.000000 0.000000 0.050262 0.000000
# 6 0.000000 0.000000 0.000000 0.000000 0.000000 0.155115
#
#
# Mechanical properties :
#
#
# Convention : Reuss Voigt Hill
#
# Bulk Modulus (GPa) = 6.49313 61.68818 34.09066
# Shear Modulus (GPa) = 9.01438 14.35452 11.68445
#
# Velocity S-wave (km/s) = 2.28407 2.88228 2.60043
# Velocity P-wave (km/s) = 3.27319 6.83945 5.36152
#
# Compressibility (1/GPa) = 0.15400889
#
# Stress axis : x y z
#
# Youngs Moduli (GPa) = 62.72711 4.26063 88.52437
#
# Poissons Ratio (x) = 0.08741 0.24978
# Poissons Ratio (y) = 1.28688 2.71161
# Poissons Ratio (z) = 0.17699 0.13051
#
# Static dielectric constant tensor:
#      x y z
#    x 1.576970 0.000000 0.000000 
#    y 0.000000 1.575620 0.000000 
#    z 0.000000 0.000000 1.606170 
# 
# From -- ./inp_files/3598.got.cif
#   From: 2010.05.17/outbox.cif.g08.bks.cpg/sg47_2_cif.got.tgz:3598.got - 2010.06.03 20:15:42.
