data_PCOD9381099
_publ_section_title
;
Structure prediction by ZEFSAII (Michael W. Deem and Ramdas Pophale) SiO2 
 PCOD9381099
Probable space group: I M A 2
;
_chemical_formula_sum "Si O2"
_cell_formula_units_Z 28
_cell_length_a 9.000000
_cell_length_b 15.000000
_cell_length_c 21.000000
_cell_angle_alpha 90.000000
_cell_angle_beta 90.000000
_cell_angle_gamma 90.000000
_cell_volume 2835.000000
_symmetry_space_group_name_H-M "I M A 2"
_symmetry_group_IT_number 46
_symmetry_cell_setting 'orthorhombic'
loop_
_space_group_symop_operation_xyz
x,y,z
-x,-y,z
1/2-x,y,z
1/2+x,-y,z
1/2+x,1/2+y,1/2+z
1/2-x,1/2-y,1/2+z
-x,1/2+y,1/2+z
x,1/2-y,1/2+z
loop_
_atom_site_type_symbol
_atom_site_label
_atom_site_fract_x
_atom_site_fract_y
_atom_site_fract_z
Si Si1 0.929690 0.209733 0.164990
Si Si2 0.425561 0.591898 0.146161
Si Si3 0.924661 0.904283 0.276786
Si Si4 0.430107 0.092924 0.058062
Si Si5 0.070429 0.907609 0.916612
Si Si6 0.075919 0.226875 0.397290
Si Si7 0.427196 0.594186 0.993924
O O1 0.750000 0.204818 0.158189
O O2 0.971842 0.313437 0.175738
O O3 0.988358 0.147609 0.221417
O O4 0.009428 0.172220 0.101851
O O5 0.500000 0.500000 0.168020
O O6 0.250000 0.582476 0.155751
O O7 0.451363 0.601220 0.069909
O O8 0.750000 0.915396 0.259948
O O9 0.933016 0.842647 0.339267
O O10 0.000000 0.000000 0.287542
O O11 0.250000 0.089125 0.056010
O O12 0.500000 0.000000 0.084162
O O13 0.500509 0.101306 0.987720
O O14 0.250000 0.912563 0.918782
O O15 0.012988 0.817827 0.882923
O O16 0.000000 0.000000 0.890732
O O17 0.250000 0.247072 0.409525
O O18 0.002936 0.175603 0.457023
O O19 0.500000 0.500000 0.973315
O O20 0.250000 0.593264 0.982043
#
# Coordination Sequence:
#
# PCOD9381099 Si02
#       7
#     8   8   8   8   8   8   8
#     4  11  22  38  59  84 115 152 195 239 288 342
#     4   9  20  36  56  83 114 147 183 228 278 334
#     4  11  25  43  62  85 114 149 191 238 286 340
#     4  11  21  35  57  86 120 155 191 234 287 343
#     4  11  22  38  60  87 119 152 190 236 287 343
#     4  11  23  39  59  84 114 151 195 239 288 345
#     4  10  19  33  55  85 119 152 188 232 286 345
#
# _framework density 9.8765429999999999
#
# number of rings (size 3 to 8) (size 9 to 14) (size 15 to 20)
#    0.000    1.429    0.000    6.857    0.000    6.286 
#    0.000    0.714    0.000    1.714    0.000    0.000 
#    0.000    0.000    0.000    0.000    0.000    0.000 
#
# Total GULP energy -156540.629271 kJ/mol
# GULP energy per Si atom -5590.736760 kJ/mol
# Density = 0.985406 g / cm^3
# Si number density = 9.876543 Si / 1000 Ang^3
#
#
#
# Elastic Constant Matrix: (Units=GPa)
#
#
# Indices 1 2 3 4 5 6 
#
# 1 158.3914 69.7693 22.1557 0.0000 0.0000 0.0000
# 2 69.7693 177.8414 20.4115 0.0000 0.0000 0.0000
# 3 22.1557 20.4115 19.0616 0.0000 0.0000 0.0000
# 4 0.0000 0.0000 0.0000 28.1150 0.0000 0.0000
# 5 0.0000 0.0000 0.0000 0.0000 22.1761 0.0000
# 6 0.0000 0.0000 0.0000 0.0000 0.0000 42.7204
#
#
#
# Elastic Compliance Matrix: (Units=1/GPa)
#
#
# Indices 1 2 3 4 5 6 
#
# 1 0.008400 -0.002480 -0.007108 0.000000 0.000000 0.000000
# 2 -0.002480 0.007143 -0.004767 0.000000 0.000000 0.000000
# 3 -0.007108 -0.004767 0.065828 0.000000 0.000000 0.000000
# 4 0.000000 0.000000 0.000000 0.035568 0.000000 0.000000
# 5 0.000000 0.000000 0.000000 0.000000 0.045094 0.000000
# 6 0.000000 0.000000 0.000000 0.000000 0.000000 0.023408
#
#
# Mechanical properties :
#
#
# Convention : Reuss Voigt Hill
#
# Bulk Modulus (GPa) = 18.98915 64.44083 41.71499
# Shear Modulus (GPa) = 21.57932 34.79952 28.18942
#
# Velocity S-wave (km/s) = 3.30881 4.20184 3.78178
# Velocity P-wave (km/s) = 4.92258 7.49898 6.34297
#
# Compressibility (1/GPa) = 0.05266164
#
# Stress axis : x y z
#
# Youngs Moduli (GPa) = 119.04763 140.00044 15.19114
#
# Poissons Ratio (x) = 0.34714 0.10798
# Poissons Ratio (y) = 0.29519 0.07241
# Poissons Ratio (z) = 0.84623 0.66733
#
# Static dielectric constant tensor:
#      x y z
#    x 1.660010 0.000000 0.000000 
#    y 0.000000 1.715850 0.000000 
#    z 0.000000 0.000000 1.707630 
# 
# From -- ./inp_files/21101.got.cif
#   From: 2010.05.17/outbox.ucp.g08.bks.cvg/sg46_11_cif.got.tgz:21101.got - 2010.06.11 16:34:52.
