data_PCOD9381329
_publ_section_title
;
Structure prediction by ZEFSAII (Michael W. Deem and Ramdas Pophale) SiO2 
 PCOD9381329
Probable space group: P M M M
;
_chemical_formula_sum "Si O2"
_cell_formula_units_Z 52
_cell_length_a 15.783676
_cell_length_b 19.058480
_cell_length_c 12.145457
_cell_angle_alpha 90.000000
_cell_angle_beta 90.000000
_cell_angle_gamma 90.000000
_cell_volume 3653.509819
_symmetry_space_group_name_H-M "P M M M"
_symmetry_group_IT_number 47
_symmetry_cell_setting 'orthorhombic'
loop_
_space_group_symop_operation_xyz
x,y,z
-x,-y,z
x,-y,-z
-x,y,-z
-x,-y,-z
x,y,-z
-x,y,z
x,-y,z
loop_
_atom_site_type_symbol
_atom_site_label
_atom_site_fract_x
_atom_site_fract_y
_atom_site_fract_z
Si Si1 0.102764 0.420060 0.721001
Si Si2 0.594919 0.084666 0.735051
Si Si3 0.150958 0.175218 0.500000
Si Si4 0.102269 0.666510 0.500000
Si Si5 0.102492 0.701772 0.124636
Si Si6 0.902757 0.156383 0.254118
Si Si7 0.245304 0.084298 0.874529
Si Si8 0.678729 0.916339 0.500000
O O1 0.133839 0.500000 0.722948
O O2 0.121274 0.379583 0.607578
O O3 0.132454 0.370663 0.820751
O O4 0.000000 0.423109 0.726932
O O5 0.500000 0.111550 0.755451
O O6 0.668489 0.110493 0.816608
O O7 0.624792 0.097089 0.609994
O O8 0.591819 0.000000 0.747542
O O9 0.151616 0.260047 0.500000
O O10 0.105583 0.155221 0.614256
O O11 0.239871 0.133953 0.500000
O O12 0.000000 0.682428 0.500000
O O13 0.119820 0.766554 0.206066
O O14 0.000000 0.698029 0.119673
O O15 0.133169 0.713082 0.000000
O O16 0.835172 0.105721 0.197882
O O17 0.000000 0.141115 0.222734
O O18 0.249564 0.000000 0.876960
O O19 0.237044 0.109615 0.000000
O O20 0.702493 0.000000 0.500000
#
# Coordination Sequence:
#
# PCOD9381329 Si02
#       8
#     8   8   4   4   8   8   8   4
#     4   9  16  25  39  58  79 104 138 185 232 265
#     4   9  17  31  51  71  90 112 138 176 229 282
#     4  12  20  30  50  66  84 115 150 192 234 267
#     4  10  17  28  41  58  82 111 148 186 223 266
#     4   9  17  28  41  57  79 110 148 184 219 265
#     4  11  21  33  47  63  86 119 157 195 232 266
#     4  10  21  35  49  67  90 116 151 191 226 267
#     4  10  19  32  49  69  92 114 142 185 233 275
#
# _framework density 14.232889
#
# number of rings (size 3 to 8) (size 9 to 14) (size 15 to 20)
#    0.000    2.154    3.077    1.615    0.000    3.692 
#    0.000    3.846    0.000    2.538    0.000    0.000 
#    0.000    0.000    0.000    0.000    0.000   31.538 
#
# Total GULP energy -289634.272112 kJ/mol
# GULP energy per Si atom -5569.889848 kJ/mol
# Density = 1.420049 g / cm^3
# Si number density = 14.232889 Si / 1000 Ang^3
#
#
#
# Elastic Constant Matrix: (Units=GPa)
#
#
# Indices 1 2 3 4 5 6 
#
# 1 73.3303 25.5758 34.0357 0.0000 0.0000 0.0000
# 2 25.5758 39.9339 21.6257 0.0000 0.0000 0.0000
# 3 34.0357 21.6257 110.1542 0.0000 0.0000 0.0000
# 4 0.0000 0.0000 0.0000 15.9043 0.0000 0.0000
# 5 0.0000 0.0000 0.0000 0.0000 8.9108 0.0000
# 6 0.0000 0.0000 0.0000 0.0000 0.0000 1.4995
#
#
#
# Elastic Compliance Matrix: (Units=1/GPa)
#
#
# Indices 1 2 3 4 5 6 
#
# 1 0.018935 -0.010025 -0.003883 0.000000 0.000000 0.000000
# 2 -0.010025 0.033328 -0.003445 0.000000 0.000000 0.000000
# 3 -0.003883 -0.003445 0.010954 0.000000 0.000000 0.000000
# 4 0.000000 0.000000 0.000000 0.062876 0.000000 0.000000
# 5 0.000000 0.000000 0.000000 0.000000 0.112224 0.000000
# 6 0.000000 0.000000 0.000000 0.000000 0.000000 0.666894
#
#
# Mechanical properties :
#
#
# Convention : Reuss Voigt Hill
#
# Bulk Modulus (GPa) = 35.07334 42.87696 38.97515
# Shear Modulus (GPa) = 5.26637 14.74166 10.00402
#
# Velocity S-wave (km/s) = 1.92566 3.22179 2.65407
# Velocity P-wave (km/s) = 5.44428 6.63556 6.06922
#
# Compressibility (1/GPa) = 0.02851169
#
# Stress axis : x y z
#
# Youngs Moduli (GPa) = 52.81126 30.00520 91.28856
#
# Poissons Ratio (x) = 0.30079 0.35444
# Poissons Ratio (y) = 0.52941 0.31453
# Poissons Ratio (z) = 0.20505 0.10338
#
# Static dielectric constant tensor:
#      x y z
#    x 1.451190 0.000000 0.000000 
#    y 0.000000 1.471750 0.000000 
#    z 0.000000 0.000000 1.492740 
# 
# From -- ./inp_files/17827.got.cif
#   From: 2010.05.17/outbox.cif.g08.bks.cpg/sg47_9_cif.got.tgz:17827.got - 2010.06.03 20:15:42.
