data_PCOD9381548
_publ_section_title
;
Structure prediction by ZEFSAII (Michael W. Deem and Ramdas Pophale) SiO2 
 PCOD9381548
Probable space group: P M M M
;
_chemical_formula_sum "Si O2"
_cell_formula_units_Z 64
_cell_length_a 14.042852
_cell_length_b 9.195374
_cell_length_c 35.279557
_cell_angle_alpha 90.000000
_cell_angle_beta 90.000000
_cell_angle_gamma 90.000000
_cell_volume 4555.623659
_symmetry_space_group_name_H-M "P M M M"
_symmetry_group_IT_number 47
_symmetry_cell_setting 'orthorhombic'
loop_
_space_group_symop_operation_xyz
x,y,z
-x,-y,z
x,-y,-z
-x,y,-z
-x,-y,-z
x,y,-z
-x,y,z
x,-y,z
loop_
_atom_site_type_symbol
_atom_site_label
_atom_site_fract_x
_atom_site_fract_y
_atom_site_fract_z
Si Si1 0.285503 0.175052 0.118321
Si Si2 0.390055 0.326385 0.187389
Si Si3 0.110281 0.673549 0.845123
Si Si4 0.112463 0.826616 0.305360
Si Si5 0.791516 0.672494 0.235106
Si Si6 0.390032 0.823238 0.042442
Si Si7 0.884138 0.333187 0.617319
Si Si8 0.884282 0.169836 0.457917
O O1 0.355492 0.239130 0.150507
O O2 0.182248 0.239302 0.128224
O O3 0.323719 0.221888 0.077115
O O4 0.284718 0.000000 0.120304
O O5 0.500000 0.296164 0.196220
O O6 0.380097 0.500000 0.179777
O O7 0.315456 0.293026 0.220948
O O8 0.122427 0.500000 0.851113
O O9 0.142677 0.702055 0.801756
O O10 0.000000 0.710765 0.850456
O O11 0.172115 0.761092 0.270870
O O12 0.142553 0.757160 0.345432
O O13 0.000000 0.791291 0.299565
O O14 0.121163 0.000000 0.306968
O O15 0.797487 0.500000 0.243221
O O16 0.500000 0.779000 0.048981
O O17 0.389600 0.000000 0.042243
O O18 0.361852 0.775613 0.000000
O O19 0.853665 0.500000 0.620514
O O20 0.850762 0.261700 0.577991
O O21 0.000000 0.331427 0.616190
O O22 0.853525 0.219135 0.500000
O O23 0.000000 0.175888 0.457832
O O24 0.859032 0.000000 0.453470
#
# Coordination Sequence:
#
# PCOD9381548 Si02
#       8
#     8   8   8   8   8   8   8   8
#     4  10  18  27  44  69  90 107 133 170 206 237
#     4   9  18  32  47  62  84 113 138 160 193 240
#     4   9  18  32  47  61  81 111 141 167 200 243
#     4  10  19  28  38  53  75 102 130 163 203 242
#     4   9  17  29  44  60  76  98 131 165 195 230
#     4   8  14  25  41  62  88 114 136 160 196 242
#     4   9  16  24  34  48  66  91 125 163 199 235
#     4   8  13  21  32  45  63  88 118 155 199 242
#
# _framework density 14.048571000000001
#
# number of rings (size 3 to 8) (size 9 to 14) (size 15 to 20)
#    0.000    3.000    0.000    3.375    0.000    6.000 
#    0.000    1.250    0.000    1.875    0.000    7.000 
#    0.000    0.000    0.000    0.000    0.000    0.625 
#
# Total GULP energy -356364.641742 kJ/mol
# GULP energy per Si atom -5568.197527 kJ/mol
# Density = 1.401660 g / cm^3
# Si number density = 14.048571 Si / 1000 Ang^3
#
#
#
# Elastic Constant Matrix: (Units=GPa)
#
#
# Indices 1 2 3 4 5 6 
#
# 1 79.1051 36.8228 59.2936 0.0000 0.0000 0.0000
# 2 36.8228 47.1471 60.3510 0.0000 0.0000 0.0000
# 3 59.2936 60.3510 138.2598 0.0000 0.0000 0.0000
# 4 0.0000 0.0000 0.0000 -30.2233 0.0000 0.0000
# 5 0.0000 0.0000 0.0000 0.0000 12.1997 0.0000
# 6 0.0000 0.0000 0.0000 0.0000 0.0000 16.2693
#
#
#
# Elastic Compliance Matrix: (Units=1/GPa)
#
#
# Indices 1 2 3 4 5 6 
#
# 1 0.020867 -0.010974 -0.004159 0.000000 0.000000 0.000000
# 2 -0.010974 0.053840 -0.018795 0.000000 0.000000 0.000000
# 3 -0.004159 -0.018795 0.017220 0.000000 0.000000 0.000000
# 4 0.000000 0.000000 0.000000 -0.033087 0.000000 0.000000
# 5 0.000000 0.000000 0.000000 0.000000 0.081969 0.000000
# 6 0.000000 0.000000 0.000000 0.000000 0.000000 0.061465
#
#
# Mechanical properties :
#
#
# Convention : Reuss Voigt Hill
#
# Bulk Modulus (GPa) = 41.54292 64.16075 52.85183
# Shear Modulus (GPa) = 17.97565 6.85212 12.41389
#
# Velocity S-wave (km/s) = 3.58094 2.21089 2.97583
# Velocity P-wave (km/s) = 6.83613 7.23099 7.03633
#
# Compressibility (1/GPa) = 0.02407149
#
# Stress axis : x y z
#
# Youngs Moduli (GPa) = 47.92269 18.57361 58.07104
#
# Poissons Ratio (x) = 0.20383 0.24150
# Poissons Ratio (y) = 0.52591 1.09144
# Poissons Ratio (z) = 0.19929 0.34909
#
# Static dielectric constant tensor:
#      x y z
#    x 1.446300 0.000000 0.000000 
#    y 0.000000 1.469590 0.000000 
#    z 0.000000 0.000000 1.459380 
# 
# From -- ./inp_files/22188.got.cif
#   From: 2010.05.17/outbox.cif.g08.bks.cpg/sg47_12_cif.got.tgz:22188.got - 2010.06.03 20:15:42.
