data_PCOD9381946
_publ_section_title
;
Structure prediction by ZEFSAII (Michael W. Deem and Ramdas Pophale) SiO2 
 PCOD9381946
Probable space group: P M M M
;
_chemical_formula_sum "Si O2"
_cell_formula_units_Z 48
_cell_length_a 13.997320
_cell_length_b 15.233108
_cell_length_c 13.102878
_cell_angle_alpha 90.000000
_cell_angle_beta 90.000000
_cell_angle_gamma 90.000000
_cell_volume 2793.830858
_symmetry_space_group_name_H-M "P M M M"
_symmetry_group_IT_number 47
_symmetry_cell_setting 'orthorhombic'
loop_
_space_group_symop_operation_xyz
x,y,z
-x,-y,z
x,-y,-z
-x,y,-z
-x,-y,-z
x,y,-z
-x,y,z
x,-y,z
loop_
_atom_site_type_symbol
_atom_site_label
_atom_site_fract_x
_atom_site_fract_y
_atom_site_fract_z
Si Si1 0.769353 0.164524 0.619370
Si Si2 0.390585 0.606408 0.500000
Si Si3 0.106484 0.000000 0.375957
Si Si4 0.294317 0.399953 0.713691
Si Si5 0.112944 0.655372 0.380311
Si Si6 0.387127 0.103111 0.228406
Si Si7 0.613368 0.276532 0.116904
O O1 0.746799 0.155753 0.500000
O O2 0.836666 0.085389 0.654365
O O3 0.835199 0.250254 0.629957
O O4 0.673399 0.149354 0.682348
O O5 0.389105 0.500000 0.500000
O O6 0.500000 0.636227 0.500000
O O7 0.339048 0.632406 0.394911
O O8 0.102477 0.000000 0.500000
O O9 0.000000 0.000000 0.336199
O O10 0.327675 0.500000 0.732310
O O11 0.180770 0.401109 0.692541
O O12 0.327632 0.335416 0.803134
O O13 0.121555 0.627962 0.500000
O O14 0.000000 0.657540 0.357082
O O15 0.500000 0.103872 0.251822
O O16 0.371918 0.172206 0.136317
O O17 0.360741 0.000000 0.212995
O O18 0.500000 0.293375 0.133775
O O19 0.636594 0.298317 0.000000
#
# Coordination Sequence:
#
# PCOD9381946 Si02
#       7
#     8   4   4   8   8   8   8
#     4  10  18  30  48  75 111 148 184 224 270 330
#     4   9  18  32  51  79 114 148 178 215 269 334
#     4   9  16  26  43  69 102 141 183 225 267 315
#     4  11  21  35  56  84 115 147 186 230 278 334
#     4  10  20  34  53  79 114 153 191 230 275 329
#     4  10  20  34  54  81 111 144 181 222 273 334
#     4  10  22  40  60  82 110 146 189 234 278 327
#
# _framework density 17.180710999999999
#
# number of rings (size 3 to 8) (size 9 to 14) (size 15 to 20)
#    0.000    2.000    3.333    1.000    0.000    4.333 
#    0.000    4.167    0.000    0.500    0.000    1.167 
#    0.000    2.000    0.000    0.000    0.000    0.000 
#
# Total GULP energy -267399.171043 kJ/mol
# GULP energy per Si atom -5570.816063 kJ/mol
# Density = 1.714161 g / cm^3
# Si number density = 17.180711 Si / 1000 Ang^3
#
#
#
# Elastic Constant Matrix: (Units=GPa)
#
#
# Indices 1 2 3 4 5 6 
#
# 1 90.2865 32.5430 53.0184 0.0000 0.0000 0.0000
# 2 32.5430 85.8960 44.0524 0.0000 0.0000 0.0000
# 3 53.0184 44.0524 93.6094 0.0000 0.0000 0.0000
# 4 0.0000 0.0000 0.0000 17.2103 0.0000 0.0000
# 5 0.0000 0.0000 0.0000 0.0000 14.8488 0.0000
# 6 0.0000 0.0000 0.0000 0.0000 0.0000 2.2641
#
#
#
# Elastic Compliance Matrix: (Units=1/GPa)
#
#
# Indices 1 2 3 4 5 6 
#
# 1 0.016843 -0.001962 -0.008616 0.000000 0.000000 0.000000
# 2 -0.001962 0.015574 -0.006218 0.000000 0.000000 0.000000
# 3 -0.008616 -0.006218 0.018489 0.000000 0.000000 0.000000
# 4 0.000000 0.000000 0.000000 0.058105 0.000000 0.000000
# 5 0.000000 0.000000 0.000000 0.000000 0.067346 0.000000
# 6 0.000000 0.000000 0.000000 0.000000 0.000000 0.441671
#
#
# Mechanical properties :
#
#
# Convention : Reuss Voigt Hill
#
# Bulk Modulus (GPa) = 57.75830 58.77994 58.26912
# Shear Modulus (GPa) = 7.60584 16.20984 11.90784
#
# Velocity S-wave (km/s) = 2.10632 3.07496 2.63552
# Velocity P-wave (km/s) = 6.29337 6.84793 6.57650
#
# Compressibility (1/GPa) = 0.01731353
#
# Stress axis : x y z
#
# Youngs Moduli (GPa) = 59.37332 64.20838 54.08751
#
# Poissons Ratio (x) = 0.12600 0.46601
# Poissons Ratio (y) = 0.11651 0.33630
# Poissons Ratio (z) = 0.51155 0.39923
#
# Static dielectric constant tensor:
#      x y z
#    x 1.592540 0.000000 0.000000 
#    y 0.000000 1.518510 0.000000 
#    z 0.000000 0.000000 1.556580 
# 
# From -- ./inp_files/17563.got.cif
#   From: 2010.05.17/outbox.cif.g08.bks.cpg/sg47_9_cif.got.tgz:17563.got - 2010.06.03 20:15:42.
