data_PCOD9381165
_publ_section_title
;
Structure prediction by ZEFSAII (Michael W. Deem and Ramdas Pophale) SiO2 
 PCOD9381165
Probable space group: P M M M
;
_chemical_formula_sum "Si O2"
_cell_formula_units_Z 34
_cell_length_a 7.582852
_cell_length_b 18.013433
_cell_length_c 12.458914
_cell_angle_alpha 90.000000
_cell_angle_beta 90.000000
_cell_angle_gamma 90.000000
_cell_volume 1701.802888
_symmetry_space_group_name_H-M "P M M M"
_symmetry_group_IT_number 47
_symmetry_cell_setting 'orthorhombic'
loop_
_space_group_symop_operation_xyz
x,y,z
-x,-y,z
x,-y,-z
-x,y,-z
-x,-y,-z
x,y,-z
-x,y,z
x,-y,z
loop_
_atom_site_type_symbol
_atom_site_label
_atom_site_fract_x
_atom_site_fract_y
_atom_site_fract_z
Si Si1 0.288557 0.917623 0.877840
Si Si2 0.216433 0.354558 0.622967
Si Si3 0.741882 0.500000 0.000000
Si Si4 0.202991 0.500000 0.254836
Si Si5 0.781652 0.668294 0.000000
Si Si6 0.209985 0.238666 0.209708
O O1 0.500000 0.920968 0.883391
O O2 0.246302 0.847994 0.804039
O O3 0.225767 0.000000 0.845363
O O4 0.223693 0.903130 0.000000
O O5 0.273404 0.360069 0.500000
O O6 0.277485 0.424938 0.693746
O O7 0.275357 0.280291 0.684364
O O8 0.000000 0.354228 0.622188
O O9 0.801859 0.500000 0.874019
O O10 0.692517 0.587722 0.000000
O O11 0.000000 0.500000 0.290008
O O12 0.731158 0.715773 0.895640
O O13 0.000000 0.656071 0.000000
O O14 0.000000 0.246649 0.209023
#
# Coordination Sequence:
#
# PCOD9381165 Si02
#       6
#     8   8   2   4   4   8
#     4   9  18  32  49  70  96 123 148 179 229 291
#     4   9  17  27  39  59  90 127 163 197 231 267
#     4  12  17  22  36  60  99 136 157 184 235 282
#     4  10  16  22  35  57  90 129 162 192 229 273
#     4  10  17  24  36  62  96 125 154 188 230 270
#     4  10  18  28  45  69  96 123 154 194 233 272
#
# _framework density 19.978812000000001
#
# number of rings (size 3 to 8) (size 9 to 14) (size 15 to 20)
#    0.000    2.353    3.529    2.118    0.000    1.882 
#    0.000    1.176    0.000    1.412    0.000    9.059 
#    0.000    1.882    0.000    0.000    0.000    0.000 
#
# Total GULP energy -189335.934328 kJ/mol
# GULP energy per Si atom -5568.703951 kJ/mol
# Density = 1.993334 g / cm^3
# Si number density = 19.978812 Si / 1000 Ang^3
#
#
#
# Elastic Constant Matrix: (Units=GPa)
#
#
# Indices 1 2 3 4 5 6 
#
# 1 38.5650 1.4323 10.6218 0.0000 0.0000 0.0000
# 2 1.4323 187.1031 81.5399 0.0000 0.0000 0.0000
# 3 10.6218 81.5399 128.4329 0.0000 0.0000 0.0000
# 4 0.0000 0.0000 0.0000 13.4549 0.0000 0.0000
# 5 0.0000 0.0000 0.0000 0.0000 1.2629 0.0000
# 6 0.0000 0.0000 0.0000 0.0000 0.0000 30.5386
#
#
#
# Elastic Compliance Matrix: (Units=1/GPa)
#
#
# Indices 1 2 3 4 5 6 
#
# 1 0.026682 0.001047 -0.002872 0.000000 0.000000 0.000000
# 2 0.001047 0.007430 -0.004804 0.000000 0.000000 0.000000
# 3 -0.002872 -0.004804 0.011074 0.000000 0.000000 0.000000
# 4 0.000000 0.000000 0.000000 0.074323 0.000000 0.000000
# 5 0.000000 0.000000 0.000000 0.000000 0.791814 0.000000
# 6 0.000000 0.000000 0.000000 0.000000 0.000000 0.032745
#
#
# Mechanical properties :
#
#
# Convention : Reuss Voigt Hill
#
# Bulk Modulus (GPa) = 31.31906 60.14323 45.73114
# Shear Modulus (GPa) = 5.16546 26.41842 15.79194
#
# Velocity S-wave (km/s) = 1.60968 3.64032 2.81452
# Velocity P-wave (km/s) = 4.37778 6.91651 5.78805
#
# Compressibility (1/GPa) = 0.03192944
#
# Stress axis : x y z
#
# Youngs Moduli (GPa) = 37.47812 134.58623 90.30516
#
# Poissons Ratio (x) = -0.14093 0.25931
# Poissons Ratio (y) = -0.03925 0.43382
# Poissons Ratio (z) = 0.10762 0.64654
#
# Static dielectric constant tensor:
#      x y z
#    x 1.796020 0.000000 0.000000 
#    y 0.000000 1.718160 0.000000 
#    z 0.000000 0.000000 1.670850 
# 
# From -- ./inp_files/16071.got.cif
#   From: 2010.05.17/outbox.cif.g08.bks.cpg/sg47_9_cif.got.tgz:16071.got - 2010.06.03 20:15:42.
