data_PCOD9381227
_publ_section_title
;
Structure prediction by ZEFSAII (Michael W. Deem and Ramdas Pophale) SiO2 
 PCOD9381227
Probable space group: P M M M
;
_chemical_formula_sum "Si O2"
_cell_formula_units_Z 64
_cell_length_a 15.236627
_cell_length_b 14.417434
_cell_length_c 20.804554
_cell_angle_alpha 90.000000
_cell_angle_beta 90.000000
_cell_angle_gamma 90.000000
_cell_volume 4570.200126
_symmetry_space_group_name_H-M "P M M M"
_symmetry_group_IT_number 47
_symmetry_cell_setting 'orthorhombic'
loop_
_space_group_symop_operation_xyz
x,y,z
-x,-y,z
x,-y,-z
-x,y,-z
-x,-y,-z
x,y,-z
-x,y,z
x,-y,z
loop_
_atom_site_type_symbol
_atom_site_label
_atom_site_fract_x
_atom_site_fract_y
_atom_site_fract_z
Si Si1 0.101551 0.603602 0.259313
Si Si2 0.159519 0.893363 0.332685
Si Si3 0.773570 0.393668 0.616905
Si Si4 0.599318 0.304837 0.576081
Si Si5 0.094392 0.750872 0.430863
Si Si6 0.893608 0.891767 0.928942
Si Si7 0.672020 0.896484 0.574594
Si Si8 0.895246 0.801618 0.796278
O O1 0.110022 0.500000 0.230863
O O2 0.172847 0.611115 0.316068
O O3 0.114017 0.691361 0.213404
O O4 0.000000 0.610341 0.283680
O O5 0.100403 0.824113 0.374095
O O6 0.251011 0.889646 0.372408
O O7 0.156857 0.853809 0.260552
O O8 0.130256 0.000000 0.332426
O O9 0.775881 0.500000 0.594939
O O10 0.674287 0.356734 0.616305
O O11 0.828005 0.322314 0.573765
O O12 0.612827 0.325998 0.500000
O O13 0.500000 0.330743 0.593123
O O14 0.611941 0.193682 0.582988
O O15 0.099447 0.799235 0.500000
O O16 0.000000 0.702340 0.427253
O O17 0.865944 0.834733 0.866540
O O18 0.000000 0.888113 0.929832
O O19 0.869690 0.000000 0.921195
O O20 0.863533 0.860559 0.000000
O O21 0.705074 0.891276 0.500000
O O22 0.632070 0.000000 0.581020
O O23 0.000000 0.823647 0.788687
#
# Coordination Sequence:
#
# PCOD9381227 Si02
#       8
#     8   8   8   8   8   8   8   8
#     4   9  17  29  46  65  83 107 140 175 210 249
#     4  11  20  29  43  62  84 109 138 171 209 254
#     4  11  21  34  49  61  79 105 135 176 222 260
#     4  10  20  33  48  64  80  99 130 174 222 267
#     4  11  22  33  44  59  81 109 140 173 212 256
#     4   8  14  24  37  55  80 109 140 172 207 245
#     4   9  17  30  47  63  81 107 136 168 210 259
#     4  10  17  26  41  59  81 108 140 178 212 242
#
# _framework density 14.003762999999999
#
# number of rings (size 3 to 8) (size 9 to 14) (size 15 to 20)
#    0.000    2.125    2.500    2.250    0.000    4.500 
#    0.000    3.125    0.000    0.375    0.000    2.625 
#    0.000    0.000    0.000    0.000    0.000   10.000 
#
# Total GULP energy -356294.633737 kJ/mol
# GULP energy per Si atom -5567.103652 kJ/mol
# Density = 1.397189 g / cm^3
# Si number density = 14.003763 Si / 1000 Ang^3
#
#
#
# Elastic Constant Matrix: (Units=GPa)
#
#
# Indices 1 2 3 4 5 6 
#
# 1 66.2298 27.2944 19.1468 0.0000 0.0000 0.0000
# 2 27.2944 85.4240 45.8760 0.0000 0.0000 0.0000
# 3 19.1468 45.8760 100.0436 0.0000 0.0000 0.0000
# 4 0.0000 0.0000 0.0000 14.3869 0.0000 0.0000
# 5 0.0000 0.0000 0.0000 0.0000 6.7244 0.0000
# 6 0.0000 0.0000 0.0000 0.0000 0.0000 7.4894
#
#
#
# Elastic Compliance Matrix: (Units=1/GPa)
#
#
# Indices 1 2 3 4 5 6 
#
# 1 0.017470 -0.005023 -0.001040 0.000000 0.000000 0.000000
# 2 -0.005023 0.016976 -0.006823 0.000000 0.000000 0.000000
# 3 -0.001040 -0.006823 0.013323 0.000000 0.000000 0.000000
# 4 0.000000 0.000000 0.000000 0.069508 0.000000 0.000000
# 5 0.000000 0.000000 0.000000 0.000000 0.148712 0.000000
# 6 0.000000 0.000000 0.000000 0.000000 0.000000 0.133522
#
#
# Mechanical properties :
#
#
# Convention : Reuss Voigt Hill
#
# Bulk Modulus (GPa) = 45.46226 48.48130 46.97178
# Shear Modulus (GPa) = 11.55760 16.34547 13.95154
#
# Velocity S-wave (km/s) = 2.87596 3.42017 3.15980
# Velocity P-wave (km/s) = 6.60022 7.09169 6.85037
#
# Compressibility (1/GPa) = 0.02199627
#
# Stress axis : x y z
#
# Youngs Moduli (GPa) = 57.24157 58.90826 75.05603
#
# Poissons Ratio (x) = 0.29592 0.07805
# Poissons Ratio (y) = 0.28755 0.51210
# Poissons Ratio (z) = 0.05953 0.40193
#
# Static dielectric constant tensor:
#      x y z
#    x 1.465190 0.000000 0.000000 
#    y 0.000000 1.486970 0.000000 
#    z 0.000000 0.000000 1.455370 
# 
# From -- ./inp_files/28357.got.cif
#   From: 2010.05.17/outbox.cif.g08.bks.cpg/sg47_15_cif.got.tgz:28357.got - 2010.06.03 20:15:42.
