data_PCOD9381609
_publ_section_title
;
Structure prediction by ZEFSAII (Michael W. Deem and Ramdas Pophale) SiO2 
 PCOD9381609
Probable space group: P M M M
;
_chemical_formula_sum "Si O2"
_cell_formula_units_Z 56
_cell_length_a 18.647055
_cell_length_b 21.559359
_cell_length_c 9.212467
_cell_angle_alpha 90.000000
_cell_angle_beta 90.000000
_cell_angle_gamma 90.000000
_cell_volume 3703.582653
_symmetry_space_group_name_H-M "P M M M"
_symmetry_group_IT_number 47
_symmetry_cell_setting 'orthorhombic'
loop_
_space_group_symop_operation_xyz
x,y,z
-x,-y,z
x,-y,-z
-x,y,-z
-x,-y,-z
x,y,-z
-x,y,z
x,-y,z
loop_
_atom_site_type_symbol
_atom_site_label
_atom_site_fract_x
_atom_site_fract_y
_atom_site_fract_z
Si Si1 0.584858 0.427994 0.327481
Si Si2 0.582088 0.808893 0.173992
Si Si3 0.333740 0.318006 0.826440
Si Si4 0.084269 0.811169 0.171643
Si Si5 0.850394 0.929858 0.325101
Si Si6 0.705335 0.127314 0.665454
Si Si7 0.793805 0.257171 0.332904
O O1 0.596270 0.418183 0.500000
O O2 0.500000 0.418854 0.299423
O O3 0.601584 0.500000 0.295328
O O4 0.630493 0.379607 0.236306
O O5 0.500000 0.813805 0.224564
O O6 0.614840 0.740996 0.209690
O O7 0.635303 0.859958 0.240410
O O8 0.583026 0.814079 0.000000
O O9 0.257381 0.304380 0.751933
O O10 0.326650 0.320387 0.000000
O O11 0.105164 0.877302 0.242765
O O12 0.133257 0.759905 0.250378
O O13 0.000000 0.799855 0.190870
O O14 0.100743 0.812577 0.000000
O O15 0.855087 0.919423 0.500000
O O16 0.766265 0.920862 0.285430
O O17 0.873692 0.000000 0.294441
O O18 0.684839 0.112953 0.500000
O O19 0.749263 0.192354 0.665770
O O20 0.805688 0.275256 0.500000
#
# Coordination Sequence:
#
# PCOD9381609 Si02
#       7
#     8   8   8   8   8   8   8
#     4   9  18  31  44  60  88 127 166 200 232 265
#     4   9  17  27  39  58  83 108 135 172 219 266
#     4  10  18  28  44  65  89 116 149 189 229 268
#     4  10  20  32  46  67  95 120 141 172 215 260
#     4   9  18  32  48  64  83 111 147 181 212 255
#     4   8  15  27  42  60  79 101 134 176 217 254
#     4   9  17  30  47  65  86 114 147 180 216 261
#
# _framework density 15.120493
#
# number of rings (size 3 to 8) (size 9 to 14) (size 15 to 20)
#    0.000    2.857    0.000    3.000    0.000    7.143 
#    0.000    2.143    0.000    0.429    0.000    3.000 
#    0.000    0.571    0.000    6.000    0.000    2.571 
#
# Total GULP energy -311960.349450 kJ/mol
# GULP energy per Si atom -5570.720526 kJ/mol
# Density = 1.508608 g / cm^3
# Si number density = 15.120493 Si / 1000 Ang^3
#
#
#
# Elastic Constant Matrix: (Units=GPa)
#
#
# Indices 1 2 3 4 5 6 
#
# 1 90.3702 23.2895 52.7307 0.0000 0.0000 0.0000
# 2 23.2895 37.5076 28.6785 0.0000 0.0000 0.0000
# 3 52.7307 28.6785 63.1360 0.0000 0.0000 0.0000
# 4 0.0000 0.0000 0.0000 19.3348 0.0000 0.0000
# 5 0.0000 0.0000 0.0000 0.0000 26.7415 0.0000
# 6 0.0000 0.0000 0.0000 0.0000 0.0000 18.2560
#
#
#
# Elastic Compliance Matrix: (Units=1/GPa)
#
#
# Indices 1 2 3 4 5 6 
#
# 1 0.021593 0.000584 -0.018299 0.000000 0.000000 0.000000
# 2 0.000584 0.040864 -0.019050 0.000000 0.000000 0.000000
# 3 -0.018299 -0.019050 0.039775 0.000000 0.000000 0.000000
# 4 0.000000 0.000000 0.000000 0.051720 0.000000 0.000000
# 5 0.000000 0.000000 0.000000 0.000000 0.037395 0.000000
# 6 0.000000 0.000000 0.000000 0.000000 0.000000 0.054777
#
#
# Mechanical properties :
#
#
# Convention : Reuss Voigt Hill
#
# Bulk Modulus (GPa) = 34.84046 44.49013 39.66529
# Shear Modulus (GPa) = 15.18735 18.62081 16.90408
#
# Velocity S-wave (km/s) = 3.17270 3.51307 3.34722
# Velocity P-wave (km/s) = 6.04262 6.77814 6.42092
#
# Compressibility (1/GPa) = 0.02870226
#
# Stress axis : x y z
#
# Youngs Moduli (GPa) = 46.31203 24.47140 25.14111
#
# Poissons Ratio (x) = -0.01430 0.46007
# Poissons Ratio (y) = -0.02706 0.47894
# Poissons Ratio (z) = 0.84749 0.46618
#
# Static dielectric constant tensor:
#      x y z
#    x 1.500230 0.000000 0.000000 
#    y 0.000000 1.486770 0.000000 
#    z 0.000000 0.000000 1.508360 
# 
# From -- ./inp_files/9794.got.cif
#   From: 2010.05.17/outbox.cif.g08.bks.cpg/sg47_5_cif.got.tgz:9794.got - 2010.06.03 20:15:42.
