data_PCOD9381153
_publ_section_title
;
Structure prediction by ZEFSAII (Michael W. Deem and Ramdas Pophale) SiO2 
 PCOD9381153
Probable space group: I M A 2
;
_chemical_formula_sum "Si O2"
_cell_formula_units_Z 18
_cell_length_a 21.000000
_cell_length_b 9.000000
_cell_length_c 9.000000
_cell_angle_alpha 90.000000
_cell_angle_beta 90.000000
_cell_angle_gamma 90.000000
_cell_volume 1701.000000
_symmetry_space_group_name_H-M "I M A 2"
_symmetry_group_IT_number 46
_symmetry_cell_setting 'orthorhombic'
loop_
_space_group_symop_operation_xyz
x,y,z
-x,-y,z
1/2-x,y,z
1/2+x,-y,z
1/2+x,1/2+y,1/2+z
1/2-x,1/2-y,1/2+z
-x,1/2+y,1/2+z
x,1/2-y,1/2+z
loop_
_atom_site_type_symbol
_atom_site_label
_atom_site_fract_x
_atom_site_fract_y
_atom_site_fract_z
Si Si1 0.101557 0.755633 0.340680
Si Si2 0.390259 0.071227 0.675243
Si Si3 0.500000 0.500000 0.964771
Si Si4 0.176111 0.274750 0.451965
Si Si5 0.176210 0.593829 0.599336
O O1 0.101314 0.599203 0.240831
O O2 0.129791 0.688311 0.492293
O O3 0.152863 0.862251 0.262034
O O4 0.041420 0.870839 0.374634
O O5 0.454022 0.090424 0.577632
O O6 0.339862 0.126992 0.547959
O O7 0.371030 0.177093 0.815585
O O8 0.250000 0.268818 0.399203
O O9 0.170664 0.419408 0.560370
O O10 0.250000 0.634981 0.575292
#
# Coordination Sequence:
#
# PCOD9381153 Si02
#       5
#     8   8   4   8   8
#     4  11  24  47  71 108 146 201 251 306 378 442
#     4  11  26  46  74 106 149 202 245 314 372 449
#     4  12  28  46  72 108 154 204 258 306 360 466
#     4  10  24  45  73 109 146 188 253 319 382 441
#     4  10  22  43  70 107 147 190 248 313 380 443
#
# _framework density 10.582011
#
# number of rings (size 3 to 8) (size 9 to 14) (size 15 to 20)
#    0.000    1.333    2.222    1.333    6.222    2.667 
#    0.000    0.000    0.000    0.000    0.000    0.000 
#    0.000    0.000    0.000    0.000    0.000    0.000 
#
# Total GULP energy -100217.438868 kJ/mol
# GULP energy per Si atom -5567.635493 kJ/mol
# Density = 1.055793 g / cm^3
# Si number density = 10.582011 Si / 1000 Ang^3
#
#
#
# Elastic Constant Matrix: (Units=GPa)
#
#
# Indices 1 2 3 4 5 6 
#
# 1 98.5890 55.0918 20.5134 0.0000 0.0000 0.0000
# 2 55.0918 102.0330 53.6294 0.0000 0.0000 0.0000
# 3 20.5134 53.6294 74.9160 0.0000 0.0000 0.0000
# 4 0.0000 0.0000 0.0000 54.1884 0.0000 0.0000
# 5 0.0000 0.0000 0.0000 0.0000 50.2791 0.0000
# 6 0.0000 0.0000 0.0000 0.0000 0.0000 48.9384
#
#
#
# Elastic Compliance Matrix: (Units=1/GPa)
#
#
# Indices 1 2 3 4 5 6 
#
# 1 0.014855 -0.009432 0.002684 0.000000 0.000000 0.000000
# 2 -0.009432 0.021701 -0.012952 0.000000 0.000000 0.000000
# 3 0.002684 -0.012952 0.021885 0.000000 0.000000 0.000000
# 4 0.000000 0.000000 0.000000 0.018454 0.000000 0.000000
# 5 0.000000 0.000000 0.000000 0.000000 0.019889 0.000000
# 6 0.000000 0.000000 0.000000 0.000000 0.000000 0.020434
#
#
# Mechanical properties :
#
#
# Convention : Reuss Voigt Hill
#
# Bulk Modulus (GPa) = 52.51607 59.33414 55.92511
# Shear Modulus (GPa) = 30.68125 40.43473 35.55799
#
# Velocity S-wave (km/s) = 3.81161 4.37572 4.10337
# Velocity P-wave (km/s) = 6.65123 7.32294 6.99515
#
# Compressibility (1/GPa) = 0.01904179
#
# Stress axis : x y z
#
# Youngs Moduli (GPa) = 67.31700 46.08034 45.69248
#
# Poissons Ratio (x) = 0.43462 -0.12265
# Poissons Ratio (y) = 0.63491 0.59183
# Poissons Ratio (z) = -0.18069 0.59685
#
# Static dielectric constant tensor:
#      x y z
#    x 1.796420 0.000000 0.000000 
#    y 0.000000 1.780310 0.000000 
#    z 0.000000 0.000000 1.809350 
# 
# From -- ./inp_files/7169.got.cif
#   From: 2010.05.17/outbox.ucp.g08.bks.cvg/sg46_4_cif.got.tgz:7169.got - 2010.06.11 16:34:52.
