data_PCOD9381854
_publ_section_title
;
Structure prediction by ZEFSAII (Michael W. Deem and Ramdas Pophale) SiO2 
 PCOD9381854
Probable space group: P M M M
;
_chemical_formula_sum "Si O2"
_cell_formula_units_Z 52
_cell_length_a 19.928326
_cell_length_b 8.000605
_cell_length_c 17.495291
_cell_angle_alpha 90.000000
_cell_angle_beta 90.000000
_cell_angle_gamma 90.000000
_cell_volume 2789.425834
_symmetry_space_group_name_H-M "P M M M"
_symmetry_group_IT_number 47
_symmetry_cell_setting 'orthorhombic'
loop_
_space_group_symop_operation_xyz
x,y,z
-x,-y,z
x,-y,-z
-x,y,-z
-x,-y,-z
x,y,-z
-x,y,z
x,-y,z
loop_
_atom_site_type_symbol
_atom_site_label
_atom_site_fract_x
_atom_site_fract_y
_atom_site_fract_z
Si Si1 0.663067 0.316702 0.301729
Si Si2 0.807001 0.803617 0.299719
Si Si3 0.815783 0.202298 0.876036
Si Si4 0.076288 0.702070 0.411870
Si Si5 0.667497 0.687096 0.884223
Si Si6 0.923225 0.204079 0.000000
Si Si7 0.577035 0.000000 0.301454
Si Si8 0.422405 0.000000 0.885215
O O1 0.638757 0.500000 0.324369
O O2 0.739893 0.289508 0.326384
O O3 0.665416 0.310226 0.208804
O O4 0.616355 0.165220 0.327004
O O5 0.823724 0.750432 0.212844
O O6 0.869051 0.774018 0.354967
O O7 0.790028 0.000000 0.296226
O O8 0.744709 0.273794 0.904473
O O9 0.878894 0.254855 0.926854
O O10 0.810652 0.000000 0.880384
O O11 0.089065 0.750671 0.500000
O O12 0.079021 0.500000 0.408369
O O13 0.000000 0.752779 0.392462
O O14 0.648775 0.500000 0.908603
O O15 0.618165 0.834670 0.909625
O O16 0.000000 0.263158 0.000000
O O17 0.925447 0.000000 0.000000
O O18 0.500000 0.000000 0.325528
O O19 0.577908 0.000000 0.208120
O O20 0.500000 0.000000 0.908964
#
# Coordination Sequence:
#
# PCOD9381854 Si02
#       8
#     8   8   8   8   8   4   4   4
#     4   9  16  27  43  65  96 132 170 211 253 298
#     4  10  18  29  49  74 100 132 172 216 256 301
#     4   9  17  31  50  71  99 133 171 214 258 304
#     4   9  19  35  51  69  98 134 170 210 256 307
#     4   9  16  27  45  67  94 130 169 207 250 302
#     4   9  18  32  51  75 101 131 169 214 263 312
#     4   9  16  26  40  64  99 133 167 208 254 305
#     4   9  16  26  42  67 100 130 161 205 253 302
#
# _framework density 18.641831
#
# number of rings (size 3 to 8) (size 9 to 14) (size 15 to 20)
#    0.000    2.846    1.538    0.923    0.000    2.462 
#    0.000    5.769    0.000    0.923    0.000    1.077 
#    0.000    2.462    0.000    3.385    0.000    3.077 
#
# Total GULP energy -290071.291450 kJ/mol
# GULP energy per Si atom -5578.294066 kJ/mol
# Density = 1.859940 g / cm^3
# Si number density = 18.641831 Si / 1000 Ang^3
#
#
#
# Elastic Constant Matrix: (Units=GPa)
#
#
# Indices 1 2 3 4 5 6 
#
# 1 160.0447 71.9956 41.3070 0.0000 0.0000 0.0000
# 2 71.9956 103.4736 19.6049 0.0000 0.0000 0.0000
# 3 41.3070 19.6049 37.5651 0.0000 0.0000 0.0000
# 4 0.0000 0.0000 0.0000 -26.3937 0.0000 0.0000
# 5 0.0000 0.0000 0.0000 0.0000 -48.8766 0.0000
# 6 0.0000 0.0000 0.0000 0.0000 0.0000 7.8601
#
#
#
# Elastic Compliance Matrix: (Units=1/GPa)
#
#
# Indices 1 2 3 4 5 6 
#
# 1 0.011450 -0.006193 -0.009358 0.000000 0.000000 0.000000
# 2 -0.006193 0.014075 -0.000535 0.000000 0.000000 0.000000
# 3 -0.009358 -0.000535 0.037190 0.000000 0.000000 0.000000
# 4 0.000000 0.000000 0.000000 -0.037888 0.000000 0.000000
# 5 0.000000 0.000000 0.000000 0.000000 -0.020460 0.000000
# 6 0.000000 0.000000 0.000000 0.000000 0.000000 0.127224
#
#
# Mechanical properties :
#
#
# Convention : Reuss Voigt Hill
#
# Bulk Modulus (GPa) = 32.74249 62.98871 47.86560
# Shear Modulus (GPa) = 28.74485 -2.27029 13.23728
#
# Velocity S-wave (km/s) = 3.93103 -1.10476 2.66763
# Velocity P-wave (km/s) = 6.18111 5.67758 5.93469
#
# Compressibility (1/GPa) = 0.03054135
#
# Stress axis : x y z
#
# Youngs Moduli (GPa) = 87.33960 71.04776 26.88923
#
# Poissons Ratio (x) = 0.44003 0.25162
# Poissons Ratio (y) = 0.54094 0.01439
# Poissons Ratio (z) = 0.81730 0.03803
#
# Static dielectric constant tensor:
#      x y z
#    x 1.612590 0.000000 0.000000 
#    y 0.000000 1.668460 0.000000 
#    z 0.000000 0.000000 1.635060 
# 
# From -- ./inp_files/28553.got.cif
#   From: 2010.05.17/outbox.cif.g08.bks.cpg/sg47_15_cif.got.tgz:28553.got - 2010.06.03 20:15:42.
