data_PCOD9381168
_publ_section_title
;
Structure prediction by ZEFSAII (Michael W. Deem and Ramdas Pophale) SiO2 
 PCOD9381168
Probable space group: P M M M
;
_chemical_formula_sum "Si O2"
_cell_formula_units_Z 64
_cell_length_a 7.358149
_cell_length_b 19.497480
_cell_length_c 22.366436
_cell_angle_alpha 90.000000
_cell_angle_beta 90.000000
_cell_angle_gamma 90.000000
_cell_volume 3208.808859
_symmetry_space_group_name_H-M "P M M M"
_symmetry_group_IT_number 47
_symmetry_cell_setting 'orthorhombic'
loop_
_space_group_symop_operation_xyz
x,y,z
-x,-y,z
x,-y,-z
-x,y,-z
-x,-y,-z
x,y,-z
-x,y,z
x,-y,z
loop_
_atom_site_type_symbol
_atom_site_label
_atom_site_fract_x
_atom_site_fract_y
_atom_site_fract_z
Si Si1 0.221475 0.076915 0.930389
Si Si2 0.718809 0.075921 0.261041
Si Si3 0.215586 0.774411 0.390586
Si Si4 0.203438 0.184466 0.836281
Si Si5 0.282944 0.074545 0.600448
Si Si6 0.221217 0.574583 0.308039
Si Si7 0.777329 0.721561 0.262345
Si Si8 0.778350 0.372468 0.435336
O O1 0.287922 0.139170 0.889117
O O2 0.000000 0.076955 0.926331
O O3 0.280713 0.000000 0.911973
O O4 0.268397 0.085856 0.000000
O O5 0.500000 0.084397 0.260034
O O6 0.805979 0.130882 0.218581
O O7 0.776753 0.078309 0.330128
O O8 0.761624 0.000000 0.238482
O O9 0.245694 0.848246 0.421121
O O10 0.282291 0.764958 0.321526
O O11 0.278903 0.706883 0.425547
O O12 0.000000 0.767564 0.386297
O O13 0.287784 0.248278 0.800803
O O14 0.000000 0.204161 0.856039
O O15 0.500000 0.069756 0.599141
O O16 0.216655 0.000000 0.576235
O O17 0.280923 0.500000 0.286320
O O18 0.277134 0.643127 0.273493
O O19 0.277365 0.585884 0.376966
O O20 0.000000 0.575095 0.307213
O O21 0.000000 0.724528 0.261117
O O22 0.718304 0.397566 0.500000
O O23 0.000000 0.373473 0.435317
#
# Coordination Sequence:
#
# PCOD9381168 Si02
#       8
#     8   8   8   8   8   8   8   8
#     4   8  14  23  33  48  71  97 127 162 195 223
#     4   9  17  26  34  49  75 100 120 149 189 227
#     4   9  15  25  39  54  75  98 119 151 191 223
#     4  10  16  23  38  55  72  96 126 159 190 222
#     4   9  17  27  37  51  73  98 122 152 190 227
#     4   8  13  21  33  50  78 110 126 139 175 224
#     4   8  14  22  32  52  76  94 119 153 184 216
#     4   8  14  23  36  55  76  98 125 154 182 213
#
# _framework density 19.945094999999998
#
# number of rings (size 3 to 8) (size 9 to 14) (size 15 to 20)
#    0.000    3.375    1.250    3.000    0.000    1.250 
#    0.000    2.500    0.000    1.125    0.000    4.375 
#    0.000   13.000    0.000   11.500    0.000    5.000 
#
# Total GULP energy -356561.267959 kJ/mol
# GULP energy per Si atom -5571.269812 kJ/mol
# Density = 1.989970 g / cm^3
# Si number density = 19.945095 Si / 1000 Ang^3
#
#
#
# Elastic Constant Matrix: (Units=GPa)
#
#
# Indices 1 2 3 4 5 6 
#
# 1 70.1503 0.8566 0.8912 0.0000 0.0000 0.0000
# 2 0.8566 142.6844 38.0536 0.0000 0.0000 0.0000
# 3 0.8912 38.0536 80.2827 0.0000 0.0000 0.0000
# 4 0.0000 0.0000 0.0000 9.3809 0.0000 0.0000
# 5 0.0000 0.0000 0.0000 0.0000 1.0149 0.0000
# 6 0.0000 0.0000 0.0000 0.0000 0.0000 18.0549
#
#
#
# Elastic Compliance Matrix: (Units=1/GPa)
#
#
# Indices 1 2 3 4 5 6 
#
# 1 0.014257 -0.000050 -0.000135 0.000000 0.000000 0.000000
# 2 -0.000050 0.008023 -0.003802 0.000000 0.000000 0.000000
# 3 -0.000135 -0.003802 0.014260 0.000000 0.000000 0.000000
# 4 0.000000 0.000000 0.000000 0.106600 0.000000 0.000000
# 5 0.000000 0.000000 0.000000 0.000000 0.985296 0.000000
# 6 0.000000 0.000000 0.000000 0.000000 0.000000 0.055387
#
#
# Mechanical properties :
#
#
# Convention : Reuss Voigt Hill
#
# Bulk Modulus (GPa) = 35.00578 41.41338 38.20958
# Shear Modulus (GPa) = 4.16209 22.57787 13.36998
#
# Velocity S-wave (km/s) = 1.44613 3.36817 2.59190
# Velocity P-wave (km/s) = 4.51415 5.99457 5.30624
#
# Compressibility (1/GPa) = 0.02856671
#
# Stress axis : x y z
#
# Youngs Moduli (GPa) = 70.13890 124.64448 70.12764
#
# Poissons Ratio (x) = 0.00619 0.00945
# Poissons Ratio (y) = 0.00348 0.26664
# Poissons Ratio (z) = 0.00945 0.47393
#
# Static dielectric constant tensor:
#      x y z
#    x 1.753820 0.000000 0.000000 
#    y 0.000000 1.765870 0.000000 
#    z 0.000000 0.000000 1.700380 
# 
# From -- ./inp_files/32258.got.cif
#   From: 2010.05.17/outbox.cif.g08.bks.cpg/sg47_17_cif.got.tgz:32258.got - 2010.06.03 20:15:42.
