data_PCOD9381320
_publ_section_title
;
Structure prediction by ZEFSAII (Michael W. Deem and Ramdas Pophale) SiO2 
 PCOD9381320
Probable space group: P M M M
;
_chemical_formula_sum "Si O2"
_cell_formula_units_Z 52
_cell_length_a 28.040727
_cell_length_b 8.446129
_cell_length_c 12.494768
_cell_angle_alpha 90.000000
_cell_angle_beta 90.000000
_cell_angle_gamma 90.000000
_cell_volume 2959.205845
_symmetry_space_group_name_H-M "P M M M"
_symmetry_group_IT_number 47
_symmetry_cell_setting 'orthorhombic'
loop_
_space_group_symop_operation_xyz
x,y,z
-x,-y,z
x,-y,-z
-x,y,-z
-x,-y,-z
x,y,-z
-x,y,z
x,-y,z
loop_
_atom_site_type_symbol
_atom_site_label
_atom_site_fract_x
_atom_site_fract_y
_atom_site_fract_z
Si Si1 0.325999 0.811525 0.123966
Si Si2 0.944838 0.807148 0.000000
Si Si3 0.052380 0.192952 0.622493
Si Si4 0.122164 0.191609 0.198306
Si Si5 0.500000 0.810223 0.123850
Si Si6 0.221963 0.688071 0.875255
Si Si7 0.444091 0.307097 0.500000
Si Si8 0.411880 0.689429 0.735120
O O1 0.271784 0.769041 0.154447
O O2 0.362992 0.739599 0.207860
O O3 0.332127 0.000000 0.123153
O O4 0.333726 0.754971 0.000000
O O5 0.913445 0.759845 0.897592
O O6 0.000000 0.752548 0.000000
O O7 0.946878 0.000000 0.000000
O O8 0.056237 0.243644 0.500000
O O9 0.095798 0.245643 0.694576
O O10 0.000000 0.240178 0.664603
O O11 0.052737 0.000000 0.623526
O O12 0.175014 0.257217 0.185910
O O13 0.124915 0.000000 0.196058
O O14 0.545912 0.752831 0.189316
O O15 0.500000 0.000000 0.121525
O O16 0.500000 0.754128 0.000000
O O17 0.227875 0.500000 0.866476
O O18 0.213220 0.728784 0.000000
O O19 0.443124 0.500000 0.500000
O O20 0.500000 0.260305 0.500000
O O21 0.419959 0.255021 0.387982
O O22 0.414825 0.500000 0.733311
#
# Coordination Sequence:
#
# PCOD9381320 Si02
#       8
#     8   4   8   8   4   8   4   8
#     4  10  21  37  57  81 110 138 170 218 272 317
#     4   9  16  24  39  69 103 131 163 202 249 306
#     4   8  14  25  43  69  98 127 162 204 249 297
#     4  10  17  27  47  72  99 130 165 208 255 300
#     4  11  23  36  51  78 118 153 182 221 268 309
#     4  10  20  34  52  74 101 134 172 211 256 315
#     4   9  18  36  58  82 112 148 184 218 257 304
#     4  11  21  36  59  83 110 145 184 221 261 313
#
# _framework density 17.572282999999999
#
# number of rings (size 3 to 8) (size 9 to 14) (size 15 to 20)
#    0.000    2.231    1.538    3.000    0.000    5.846 
#    0.000    1.923    1.692    2.769    0.000    1.077 
#    0.000    0.000    0.000    0.000    0.000    0.000 
#
# Total GULP energy -290030.072343 kJ/mol
# GULP energy per Si atom -5577.501391 kJ/mol
# Density = 1.753229 g / cm^3
# Si number density = 17.572283 Si / 1000 Ang^3
#
#
#
# Elastic Constant Matrix: (Units=GPa)
#
#
# Indices 1 2 3 4 5 6 
#
# 1 130.7981 23.5963 82.0894 0.0000 0.0000 0.0000
# 2 23.5963 21.2583 23.9780 0.0000 0.0000 0.0000
# 3 82.0894 23.9780 121.9335 0.0000 0.0000 0.0000
# 4 0.0000 0.0000 0.0000 11.2425 0.0000 0.0000
# 5 0.0000 0.0000 0.0000 0.0000 26.0222 0.0000
# 6 0.0000 0.0000 0.0000 0.0000 0.0000 46.2943
#
#
#
# Elastic Compliance Matrix: (Units=1/GPa)
#
#
# Indices 1 2 3 4 5 6 
#
# 1 0.013855 -0.006243 -0.008100 0.000000 0.000000 0.000000
# 2 -0.006243 0.063261 -0.008237 0.000000 0.000000 0.000000
# 3 -0.008100 -0.008237 0.015274 0.000000 0.000000 0.000000
# 4 0.000000 0.000000 0.000000 0.088948 0.000000 0.000000
# 5 0.000000 0.000000 0.000000 0.000000 0.038429 0.000000
# 6 0.000000 0.000000 0.000000 0.000000 0.000000 0.021601
#
#
# Mechanical properties :
#
#
# Convention : Reuss Voigt Hill
#
# Bulk Modulus (GPa) = 21.17289 59.25748 40.21518
# Shear Modulus (GPa) = 16.54135 26.33354 21.43744
#
# Velocity S-wave (km/s) = 3.07144 3.87535 3.49658
# Velocity P-wave (km/s) = 4.96523 7.33620 6.26392
#
# Compressibility (1/GPa) = 0.04723022
#
# Stress axis : x y z
#
# Youngs Moduli (GPa) = 72.17475 15.80749 65.46915
#
# Poissons Ratio (x) = 0.09868 0.53031
# Poissons Ratio (y) = 0.45056 0.53930
# Poissons Ratio (z) = 0.58463 0.13021
#
# Static dielectric constant tensor:
#      x y z
#    x 1.581180 0.000000 0.000000 
#    y 0.000000 1.611590 0.000000 
#    z 0.000000 0.000000 1.606210 
# 
# From -- ./inp_files/19892.got.cif
#   From: 2010.05.17/outbox.cif.g08.bks.cpg/sg47_10_cif.got.tgz:19892.got - 2010.06.03 20:15:42.
