data_PCOD9381007
_publ_section_title
;
Structure prediction by ZEFSAII (Michael W. Deem and Ramdas Pophale) SiO2 
 PCOD9381007
Probable space group: I M A 2
;
_chemical_formula_sum "Si O2"
_cell_formula_units_Z 36
_cell_length_a 14.186580
_cell_length_b 6.916161
_cell_length_c 12.913645
_cell_angle_alpha 90.000000
_cell_angle_beta 90.000000
_cell_angle_gamma 90.000000
_cell_volume 1267.043862
_symmetry_space_group_name_H-M "I M A 2"
_symmetry_group_IT_number 46
_symmetry_cell_setting 'orthorhombic'
loop_
_space_group_symop_operation_xyz
x,y,z
-x,-y,z
1/2-x,y,z
1/2+x,-y,z
1/2+x,1/2+y,1/2+z
1/2-x,1/2-y,1/2+z
-x,1/2+y,1/2+z
x,1/2-y,1/2+z
loop_
_atom_site_type_symbol
_atom_site_label
_atom_site_fract_x
_atom_site_fract_y
_atom_site_fract_z
Si Si1 0.143648 0.990883 0.002830
Si Si2 0.500000 0.500000 0.130541
Si Si3 0.143446 0.956752 0.445786
Si Si4 0.862526 0.583672 0.280992
Si Si5 0.362770 0.624219 0.725665
O O1 0.250000 0.061644 0.019096
O O2 0.100816 0.952419 0.115480
O O3 0.149434 0.775353 0.956867
O O4 0.107415 0.105140 0.902012
O O5 0.551855 0.654655 0.208966
O O6 0.582741 0.512125 0.043421
O O7 0.250000 0.029698 0.454487
O O8 0.106745 0.984805 0.329560
O O9 0.750000 0.635457 0.270335
O O10 0.867314 0.357383 0.240618
O O11 0.250000 0.591120 0.722189
#
# Coordination Sequence:
#
# PCOD9381007 Si02
#       5
#     8   4   8   8   8
#     4   8  13  26  45  61  81 110 140 178 216 249
#     4  12  18  24  38  66  96 114 130 172 224 260
#     4   9  17  26  40  64  90 111 138 173 215 256
#     4   9  17  26  40  64  90 111 138 173 215 256
#     4   8  13  26  45  61  81 110 140 178 216 249
#
# _framework density 28.412590000000002
#
# number of rings (size 3 to 8) (size 9 to 14) (size 15 to 20)
#    0.000    3.111    2.222    3.333    0.000    0.000 
#    0.000    1.111    0.000    0.000    0.000   24.889 
#    0.000    0.000    0.000    0.000    0.000    0.000 
#
# Total GULP energy -100312.291756 kJ/mol
# GULP energy per Si atom -5572.905098 kJ/mol
# Density = 2.834792 g / cm^3
# Si number density = 28.412590 Si / 1000 Ang^3
#
#
#
# Elastic Constant Matrix: (Units=GPa)
#
#
# Indices 1 2 3 4 5 6 
#
# 1 162.7272 -7.6839 52.0140 0.0000 0.0000 0.0000
# 2 -7.6839 90.4903 38.2295 0.0000 0.0000 0.0000
# 3 52.0140 38.2295 270.5546 0.0000 0.0000 0.0000
# 4 0.0000 0.0000 0.0000 24.8625 0.0000 0.0000
# 5 0.0000 0.0000 0.0000 0.0000 258.6254 0.0000
# 6 0.0000 0.0000 0.0000 0.0000 0.0000 -4.5859
#
#
#
# Elastic Compliance Matrix: (Units=1/GPa)
#
#
# Indices 1 2 3 4 5 6 
#
# 1 0.006663 0.001177 -0.001447 0.000000 0.000000 0.000000
# 2 0.001177 0.011960 -0.001916 0.000000 0.000000 0.000000
# 3 -0.001447 -0.001916 0.004245 0.000000 0.000000 0.000000
# 4 0.000000 0.000000 0.000000 0.040221 0.000000 0.000000
# 5 0.000000 0.000000 0.000000 0.000000 0.003867 0.000000
# 6 0.000000 0.000000 0.000000 0.000000 0.000000 -0.218059
#
#
# Mechanical properties :
#
#
# Convention : Reuss Voigt Hill
#
# Bulk Modulus (GPa) = 54.06507 76.54347 65.30427
# Shear Modulus (GPa) = -35.57114 85.19456 24.81171
#
# Velocity S-wave (km/s) = -3.54213 5.48178 2.95831
# Velocity P-wave (km/s) = 1.53002 8.18932 5.89092
#
# Compressibility (1/GPa) = 0.01849623
#
# Stress axis : x y z
#
# Youngs Moduli (GPa) = 150.07144 83.60860 235.56249
#
# Poissons Ratio (x) = -0.09843 0.34095
# Poissons Ratio (y) = -0.17668 0.45142
# Poissons Ratio (z) = 0.21721 0.16022
#
# Static dielectric constant tensor:
#      x y z
#    x 2.432020 0.000000 0.000000 
#    y 0.000000 2.447050 0.000000 
#    z 0.000000 0.000000 2.234960 
# 
# From -- ./inp_files/14988.got.cif
#   From: 2010.05.17/outbox.cif.g08.bks.cpg/sg46_8_cif.got.tgz:14988.got - 2010.06.03 19:58:25.
