data_PCOD9381656
_publ_section_title
;
Structure prediction by ZEFSAII (Michael W. Deem and Ramdas Pophale) SiO2 
 PCOD9381656
Probable space group: P M M M
;
_chemical_formula_sum "Si O2"
_cell_formula_units_Z 52
_cell_length_a 12.116478
_cell_length_b 7.706244
_cell_length_c 31.452532
_cell_angle_alpha 90.000000
_cell_angle_beta 90.000000
_cell_angle_gamma 90.000000
_cell_volume 2936.802673
_symmetry_space_group_name_H-M "P M M M"
_symmetry_group_IT_number 47
_symmetry_cell_setting 'orthorhombic'
loop_
_space_group_symop_operation_xyz
x,y,z
-x,-y,z
x,-y,-z
-x,y,-z
-x,-y,-z
x,y,-z
-x,y,z
x,-y,z
loop_
_atom_site_type_symbol
_atom_site_label
_atom_site_fract_x
_atom_site_fract_y
_atom_site_fract_z
Si Si1 0.500000 0.211217 0.661110
Si Si2 0.634715 0.000000 0.048876
Si Si3 0.872978 0.787294 0.630221
Si Si4 0.276473 0.791796 0.706711
Si Si5 0.634078 0.698906 0.888124
Si Si6 0.500000 0.699549 0.436610
Si Si7 0.747429 0.796018 0.454097
Si Si8 0.374324 0.292466 0.793520
O O1 0.608841 0.267455 0.685651
O O2 0.500000 0.283695 0.614092
O O3 0.500000 0.000000 0.658130
O O4 0.669961 0.830268 0.075283
O O5 0.500000 0.000000 0.048715
O O6 0.670825 0.000000 0.000000
O O7 0.819155 0.729515 0.674926
O O8 0.802817 0.726594 0.589125
O O9 0.000000 0.735607 0.626458
O O10 0.869049 0.000000 0.630246
O O11 0.288852 0.746335 0.756052
O O12 0.274080 0.000000 0.704829
O O13 0.500000 0.694198 0.888752
O O14 0.672198 0.500000 0.893822
O O15 0.661020 0.765732 0.840594
O O16 0.500000 0.500000 0.449663
O O17 0.615086 0.780767 0.451257
O O18 0.782646 0.721273 0.500000
O O19 0.775151 0.000000 0.454759
O O20 0.500000 0.225829 0.784066
O O21 0.383306 0.500000 0.796590
#
# Coordination Sequence:
#
# PCOD9381656 Si02
#       8
#     4   4   8   8   8   4   8   8
#     4  10  18  31  47  70  96 117 146 183 225 278
#     4   9  16  24  36  54  76 114 163 205 238 275
#     4   9  18  33  51  71  94 117 149 192 227 266
#     4  10  18  28  46  68  89 115 145 181 229 277
#     4   8  15  26  36  52  80 113 149 196 245 283
#     4  12  23  33  50  73 100 124 142 176 227 277
#     4  10  20  35  55  74  93 119 148 182 227 276
#     4   9  17  27  40  61  89 116 145 185 234 282
#
# _framework density 17.706330000000001
#
# number of rings (size 3 to 8) (size 9 to 14) (size 15 to 20)
#    0.000    2.538    2.308    1.846    1.077    2.462 
#    0.000    3.077    0.000    1.846    0.000    1.077 
#    0.000    0.000    0.000    0.000    0.000    1.538 
#
# Total GULP energy -289793.363060 kJ/mol
# GULP energy per Si atom -5572.949290 kJ/mol
# Density = 1.766603 g / cm^3
# Si number density = 17.706330 Si / 1000 Ang^3
#
#
#
# Elastic Constant Matrix: (Units=GPa)
#
#
# Indices 1 2 3 4 5 6 
#
# 1 66.4637 7.6622 45.9312 0.0000 0.0000 0.0000
# 2 7.6622 41.4363 34.8412 0.0000 0.0000 0.0000
# 3 45.9312 34.8412 182.8507 0.0000 0.0000 0.0000
# 4 0.0000 0.0000 0.0000 98.0912 0.0000 0.0000
# 5 0.0000 0.0000 0.0000 0.0000 3.9514 0.0000
# 6 0.0000 0.0000 0.0000 0.0000 0.0000 -0.7718
#
#
#
# Elastic Compliance Matrix: (Units=1/GPa)
#
#
# Indices 1 2 3 4 5 6 
#
# 1 0.018218 0.000571 -0.004685 0.000000 0.000000 0.000000
# 2 0.000571 0.028756 -0.005623 0.000000 0.000000 0.000000
# 3 -0.004685 -0.005623 0.007717 0.000000 0.000000 0.000000
# 4 0.000000 0.000000 0.000000 0.010195 0.000000 0.000000
# 5 0.000000 0.000000 0.000000 0.000000 0.253078 0.000000
# 6 0.000000 0.000000 0.000000 0.000000 0.000000 -1.295605
#
#
# Mechanical properties :
#
#
# Convention : Reuss Voigt Hill
#
# Bulk Modulus (GPa) = 28.39575 51.95777 40.17676
# Shear Modulus (GPa) = -5.28301 33.74188 14.22943
#
# Velocity S-wave (km/s) = -1.72921 4.37010 2.83792
# Velocity P-wave (km/s) = 3.47635 7.40753 5.78604
#
# Compressibility (1/GPa) = 0.03521653
#
# Stress axis : x y z
#
# Youngs Moduli (GPa) = 54.89185 34.77584 129.58221
#
# Poissons Ratio (x) = -0.01984 0.60708
# Poissons Ratio (y) = -0.03132 0.72858
# Poissons Ratio (z) = 0.25716 0.19553
#
# Static dielectric constant tensor:
#      x y z
#    x 1.573510 0.000000 0.000000 
#    y 0.000000 1.664590 0.000000 
#    z 0.000000 0.000000 1.639100 
# 
# From -- ./inp_files/33662.got.cif
#   From: 2010.05.17/outbox.cif.g08.bks.cpg/sg47_17_cif.got.tgz:33662.got - 2010.06.03 20:15:42.
