data_PCOD9381889
_publ_section_title
;
Structure prediction by ZEFSAII (Michael W. Deem and Ramdas Pophale) SiO2 
 PCOD9381889
Probable space group: P M M M
;
_chemical_formula_sum "Si O2"
_cell_formula_units_Z 64
_cell_length_a 21.063070
_cell_length_b 20.546497
_cell_length_c 7.859958
_cell_angle_alpha 90.000000
_cell_angle_beta 90.000000
_cell_angle_gamma 90.000000
_cell_volume 3401.572137
_symmetry_space_group_name_H-M "P M M M"
_symmetry_group_IT_number 47
_symmetry_cell_setting 'orthorhombic'
loop_
_space_group_symop_operation_xyz
x,y,z
-x,-y,z
x,-y,-z
-x,y,-z
-x,-y,-z
x,y,-z
-x,y,z
x,-y,z
loop_
_atom_site_type_symbol
_atom_site_label
_atom_site_fract_x
_atom_site_fract_y
_atom_site_fract_z
Si Si1 0.791619 0.070620 0.794836
Si Si2 0.931424 0.609909 0.799194
Si Si3 0.792525 0.426901 0.793856
Si Si4 0.932134 0.103233 0.202052
Si Si5 0.571503 0.427442 0.203302
Si Si6 0.896326 0.246298 0.705498
Si Si7 0.681478 0.330475 0.697735
Si Si8 0.754042 0.788618 0.295705
O O1 0.864611 0.077945 0.730114
O O2 0.753307 0.135123 0.746065
O O3 0.766904 0.000000 0.739240
O O4 0.794568 0.070818 0.000000
O O5 0.864957 0.582175 0.731554
O O6 0.925147 0.687588 0.776542
O O7 0.000000 0.588961 0.727701
O O8 0.932175 0.594036 0.000000
O O9 0.770994 0.500000 0.753964
O O10 0.744527 0.374334 0.720363
O O11 0.792157 0.419729 0.000000
O O12 0.929134 0.180761 0.230542
O O13 0.000000 0.079414 0.271272
O O14 0.932073 0.089474 0.000000
O O15 0.500000 0.413502 0.267300
O O16 0.590468 0.500000 0.266744
O O17 0.622713 0.372014 0.236134
O O18 0.567606 0.432224 0.000000
O O19 0.899567 0.248219 0.500000
O O20 0.822799 0.238718 0.761124
O O21 0.668683 0.321156 0.500000
O O22 0.699783 0.259669 0.772145
O O23 0.754226 0.783646 0.500000
#
# Coordination Sequence:
#
# PCOD9381889 Si02
#       8
#     8   8   8   8   8   8   8   8
#     4   9  18  31  47  68  92 120 157 201 249 301
#     4  10  20  32  46  63  84 113 153 204 260 312
#     4  10  21  35  50  68  91 123 163 206 256 310
#     4   9  17  28  42  61  86 115 148 189 242 304
#     4   9  19  36  56  80 113 149 179 205 239 289
#     4  10  18  30  45  62  86 115 150 196 247 298
#     4  11  21  34  53  78 105 133 170 212 247 286
#     4   9  19  33  48  68  95 126 161 200 244 292
#
# _framework density 18.814829
#
# number of rings (size 3 to 8) (size 9 to 14) (size 15 to 20)
#    0.000    2.375    1.250    1.875    0.000    6.500 
#    0.000    3.125    0.000    0.000    0.000    5.250 
#    0.000    0.500    0.000    5.500    0.000    4.000 
#
# Total GULP energy -356954.687909 kJ/mol
# GULP energy per Si atom -5577.416999 kJ/mol
# Density = 1.877201 g / cm^3
# Si number density = 18.814829 Si / 1000 Ang^3
#
#
#
# Elastic Constant Matrix: (Units=GPa)
#
#
# Indices 1 2 3 4 5 6 
#
# 1 97.5232 58.6600 8.8990 0.0000 0.0000 0.0000
# 2 58.6600 118.8438 -1.2862 0.0000 0.0000 0.0000
# 3 8.8990 -1.2862 19.8094 0.0000 0.0000 0.0000
# 4 0.0000 0.0000 0.0000 19.5447 0.0000 0.0000
# 5 0.0000 0.0000 0.0000 0.0000 -61.2521 0.0000
# 6 0.0000 0.0000 0.0000 0.0000 0.0000 -42.2681
#
#
#
# Elastic Compliance Matrix: (Units=1/GPa)
#
#
# Indices 1 2 3 4 5 6 
#
# 1 0.015630 -0.007797 -0.007528 0.000000 0.000000 0.000000
# 2 -0.007797 0.012309 0.004302 0.000000 0.000000 0.000000
# 3 -0.007528 0.004302 0.054142 0.000000 0.000000 0.000000
# 4 0.000000 0.000000 0.000000 0.051165 0.000000 0.000000
# 5 0.000000 0.000000 0.000000 0.000000 -0.016326 0.000000
# 6 0.000000 0.000000 0.000000 0.000000 0.000000 -0.023658
#
#
# Mechanical properties :
#
#
# Convention : Reuss Voigt Hill
#
# Bulk Modulus (GPa) = 16.65656 40.96910 28.81283
# Shear Modulus (GPa) = 36.94948 -5.46820 15.74064
#
# Velocity S-wave (km/s) = 4.43634 -1.70664 2.89556
# Velocity P-wave (km/s) = 5.92567 4.23541 5.15035
#
# Compressibility (1/GPa) = 0.06003640
#
# Stress axis : x y z
#
# Youngs Moduli (GPa) = 63.97759 81.23982 18.46988
#
# Poissons Ratio (x) = 0.63339 0.13904
# Poissons Ratio (y) = 0.49880 -0.07945
# Poissons Ratio (z) = 0.48162 -0.34947
#
# Static dielectric constant tensor:
#      x y z
#    x 1.663650 0.000000 0.000000 
#    y 0.000000 1.679690 0.000000 
#    z 0.000000 0.000000 1.681360 
# 
# From -- ./inp_files/10022.got.cif
#   From: 2010.05.17/outbox.cif.g08.bks.cpg/sg47_6_cif.got.tgz:10022.got - 2010.06.03 20:15:42.
