data_PCOD9381422
_publ_section_title
;
Structure prediction by ZEFSAII (Michael W. Deem and Ramdas Pophale) SiO2 
 PCOD9381422
Probable space group: P M M M
;
_chemical_formula_sum "Si O2"
_cell_formula_units_Z 40
_cell_length_a 7.764546
_cell_length_b 20.915497
_cell_length_c 12.411866
_cell_angle_alpha 90.000000
_cell_angle_beta 90.000000
_cell_angle_gamma 90.000000
_cell_volume 2015.678829
_symmetry_space_group_name_H-M "P M M M"
_symmetry_group_IT_number 47
_symmetry_cell_setting 'orthorhombic'
loop_
_space_group_symop_operation_xyz
x,y,z
-x,-y,z
x,-y,-z
-x,y,-z
-x,-y,-z
x,y,-z
-x,y,z
x,-y,z
loop_
_atom_site_type_symbol
_atom_site_label
_atom_site_fract_x
_atom_site_fract_y
_atom_site_fract_z
Si Si1 0.291107 0.870713 0.500000
Si Si2 0.295047 0.813267 0.878806
Si Si3 0.203257 0.692326 0.734485
Si Si4 0.710835 0.927799 0.270955
Si Si5 0.708076 0.427260 0.122449
Si Si6 0.796938 0.721917 0.500000
O O1 0.500000 0.867640 0.500000
O O2 0.237598 0.906592 0.608797
O O3 0.224248 0.798407 0.500000
O O4 0.500000 0.822694 0.887702
O O5 0.271264 0.749439 0.809135
O O6 0.227367 0.874434 0.813153
O O7 0.224862 0.807051 0.000000
O O8 0.233891 0.625171 0.792739
O O9 0.276573 0.696416 0.613184
O O10 0.000000 0.703325 0.726641
O O11 0.500000 0.927344 0.269730
O O12 0.765977 0.000000 0.246982
O O13 0.500000 0.427036 0.121750
O O14 0.764233 0.500000 0.146034
O O15 0.764441 0.411163 0.000000
O O16 0.000000 0.705792 0.500000
#
# Coordination Sequence:
#
# PCOD9381422 Si02
#       6
#     4   8   8   8   8   4
#     4  10  17  30  54  77  97 129 176 224 267 314
#     4  10  20  33  51  76 105 138 176 217 263 316
#     4  11  22  36  55  78 106 140 178 218 260 307
#     4   9  17  29  48  76 105 131 168 221 272 315
#     4   9  19  37  60  85 113 142 171 208 254 302
#     4  10  22  37  52  74 106 140 174 217 264 308
#
# _framework density 19.844432000000001
#
# number of rings (size 3 to 8) (size 9 to 14) (size 15 to 20)
#    0.000    2.200    2.000    2.100    0.000    6.000 
#    0.000    3.500    0.000    6.000    0.000    1.400 
#    0.000    0.000    0.000    0.000    0.000    0.000 
#
# Total GULP energy -223308.774437 kJ/mol
# GULP energy per Si atom -5582.719361 kJ/mol
# Density = 1.979927 g / cm^3
# Si number density = 19.844432 Si / 1000 Ang^3
#
#
#
# Elastic Constant Matrix: (Units=GPa)
#
#
# Indices 1 2 3 4 5 6 
#
# 1 22.0338 -11.2217 8.3781 0.0000 0.0000 0.0000
# 2 -11.2217 130.3078 104.8094 0.0000 0.0000 0.0000
# 3 8.3781 104.8094 202.2454 0.0000 0.0000 0.0000
# 4 0.0000 0.0000 0.0000 264.1939 0.0000 0.0000
# 5 0.0000 0.0000 0.0000 0.0000 13.7090 0.0000
# 6 0.0000 0.0000 0.0000 0.0000 0.0000 -391.9345
#
#
#
# Elastic Compliance Matrix: (Units=1/GPa)
#
#
# Indices 1 2 3 4 5 6 
#
# 1 0.054056 0.011071 -0.007977 0.000000 0.000000 0.000000
# 2 0.011071 0.015427 -0.008453 0.000000 0.000000 0.000000
# 3 -0.007977 -0.008453 0.009656 0.000000 0.000000 0.000000
# 4 0.000000 0.000000 0.000000 0.003785 0.000000 0.000000
# 5 0.000000 0.000000 0.000000 0.000000 0.072945 0.000000
# 6 0.000000 0.000000 0.000000 0.000000 0.000000 -0.002551
#
#
# Mechanical properties :
#
#
# Convention : Reuss Voigt Hill
#
# Bulk Modulus (GPa) = 14.61547 62.05763 38.33655
# Shear Modulus (GPa) = 26.76072 -5.96489 10.39792
#
# Velocity S-wave (km/s) = 3.67621 -1.73561 2.29153
# Velocity P-wave (km/s) = 5.03988 5.22719 5.13439
#
# Compressibility (1/GPa) = 0.06842064
#
# Stress axis : x y z
#
# Youngs Moduli (GPa) = 18.49930 64.82343 103.56737
#
# Poissons Ratio (x) = -0.71765 0.82611
# Poissons Ratio (y) = -0.20480 0.87546
# Poissons Ratio (z) = 0.14756 0.54796
#
# Static dielectric constant tensor:
#      x y z
#    x 1.745380 0.000000 0.000000 
#    y 0.000000 1.652000 0.000000 
#    z 0.000000 0.000000 1.714700 
# 
# From -- ./inp_files/4133.got.cif
#   From: 2010.05.17/outbox.cif.g08.bks.cpg/sg47_3_cif.got.tgz:4133.got - 2010.06.03 20:15:42.
