data_PCOD9381746
_publ_section_title
;
Structure prediction by ZEFSAII (Michael W. Deem and Ramdas Pophale) SiO2 
 PCOD9381746
Probable space group: P M M M
;
_chemical_formula_sum "Si O2"
_cell_formula_units_Z 64
_cell_length_a 20.570787
_cell_length_b 21.229894
_cell_length_c 7.713177
_cell_angle_alpha 90.000000
_cell_angle_beta 90.000000
_cell_angle_gamma 90.000000
_cell_volume 3368.464934
_symmetry_space_group_name_H-M "P M M M"
_symmetry_group_IT_number 47
_symmetry_cell_setting 'orthorhombic'
loop_
_space_group_symop_operation_xyz
x,y,z
-x,-y,z
x,-y,-z
-x,y,-z
-x,-y,-z
x,y,-z
-x,y,z
x,-y,z
loop_
_atom_site_type_symbol
_atom_site_label
_atom_site_fract_x
_atom_site_fract_y
_atom_site_fract_z
Si Si1 0.790189 0.889263 0.212749
Si Si2 0.343977 0.311394 0.703157
Si Si3 0.929687 0.096361 0.201193
Si Si4 0.648663 0.068624 0.787924
Si Si5 0.929812 0.242311 0.293270
Si Si6 0.572580 0.190360 0.794169
Si Si7 0.425469 0.428501 0.711628
Si Si8 0.209978 0.743498 0.204704
O O1 0.858439 0.919358 0.274060
O O2 0.723903 0.922837 0.263511
O O3 0.784832 0.815986 0.270443
O O4 0.793276 0.889261 0.000000
O O5 0.642949 0.312151 0.500000
O O6 0.381655 0.250495 0.772312
O O7 0.375307 0.375644 0.774533
O O8 0.267472 0.300170 0.727934
O O9 0.928333 0.172871 0.208219
O O10 0.000000 0.077448 0.278280
O O11 0.930676 0.076653 0.000000
O O12 0.606997 0.127607 0.723818
O O13 0.624281 0.000000 0.734547
O O14 0.648280 0.070363 0.000000
O O15 0.928527 0.232677 0.500000
O O16 0.863781 0.277042 0.242832
O O17 0.000000 0.271185 0.247346
O O18 0.500000 0.200707 0.723667
O O19 0.566894 0.180608 0.000000
O O20 0.423954 0.429726 0.500000
O O21 0.500000 0.412509 0.760604
O O22 0.411562 0.500000 0.769245
O O23 0.219020 0.747177 0.000000
#
# Coordination Sequence:
#
# PCOD9381746 Si02
#       8
#     8   8   8   8   8   8   8   8
#     4   8  13  23  39  57  79 108 143 185 229 273
#     4  11  20  30  49  75  99 123 155 194 235 278
#     4   8  13  21  35  55  79 111 147 180 223 281
#     4   9  16  27  44  64  84 110 151 199 242 284
#     4   9  16  25  38  61  93 123 155 196 236 274
#     4  10  20  33  48  67  91 118 151 194 245 294
#     4   8  15  29  48  70  97 128 160 192 227 273
#     4  10  18  29  45  64  93 128 159 192 234 282
#
# _framework density 18.999753999999999
#
# number of rings (size 3 to 8) (size 9 to 14) (size 15 to 20)
#    0.000    2.875    1.250    2.625    0.000    1.750 
#    0.000    1.250    0.000    2.250    0.000    7.875 
#    0.000    0.500    0.000   21.500    0.000   16.500 
#
# Total GULP energy -356677.347133 kJ/mol
# GULP energy per Si atom -5573.083549 kJ/mol
# Density = 1.895651 g / cm^3
# Si number density = 18.999754 Si / 1000 Ang^3
#
#
#
# Elastic Constant Matrix: (Units=GPa)
#
#
# Indices 1 2 3 4 5 6 
#
# 1 132.5591 60.9982 -6.7098 0.0000 0.0000 0.0000
# 2 60.9982 93.9485 2.0741 0.0000 0.0000 0.0000
# 3 -6.7098 2.0741 28.7610 0.0000 0.0000 0.0000
# 4 0.0000 0.0000 0.0000 1.8225 0.0000 0.0000
# 5 0.0000 0.0000 0.0000 0.0000 13.3504 0.0000
# 6 0.0000 0.0000 0.0000 0.0000 0.0000 108.2556
#
#
#
# Elastic Compliance Matrix: (Units=1/GPa)
#
#
# Indices 1 2 3 4 5 6 
#
# 1 0.011026 -0.007227 0.003094 0.000000 0.000000 0.000000
# 2 -0.007227 0.015398 -0.002797 0.000000 0.000000 0.000000
# 3 0.003094 -0.002797 0.035693 0.000000 0.000000 0.000000
# 4 0.000000 0.000000 0.000000 0.548694 0.000000 0.000000
# 5 0.000000 0.000000 0.000000 0.000000 0.074904 0.000000
# 6 0.000000 0.000000 0.000000 0.000000 0.000000 0.009237
#
#
# Mechanical properties :
#
#
# Convention : Reuss Voigt Hill
#
# Bulk Modulus (GPa) = 20.72255 40.88818 30.80536
# Shear Modulus (GPa) = 6.89752 37.94612 22.42182
#
# Velocity S-wave (km/s) = 1.90741 4.47384 3.43900
# Velocity P-wave (km/s) = 3.97258 6.94652 5.65842
#
# Compressibility (1/GPa) = 0.04825662
#
# Stress axis : x y z
#
# Youngs Moduli (GPa) = 90.69431 64.94227 28.01693
#
# Poissons Ratio (x) = 0.46935 -0.08667
# Poissons Ratio (y) = 0.65547 0.07835
# Poissons Ratio (z) = -0.28056 0.18161
#
# Static dielectric constant tensor:
#      x y z
#    x 1.731430 0.000000 0.000000 
#    y 0.000000 1.647020 0.000000 
#    z 0.000000 0.000000 1.715640 
# 
# From -- ./inp_files/11667.got.cif
#   From: 2010.05.17/outbox.cif.g08.bks.cpg/sg47_6_cif.got.tgz:11667.got - 2010.06.03 20:15:42.
