data_PCOD9381473
_publ_section_title
;
Structure prediction by ZEFSAII (Michael W. Deem and Ramdas Pophale) SiO2 
 PCOD9381473
Probable space group: P M M M
;
_chemical_formula_sum "Si O2"
_cell_formula_units_Z 44
_cell_length_a 22.346435
_cell_length_b 7.586707
_cell_length_c 14.265085
_cell_angle_alpha 90.000000
_cell_angle_beta 90.000000
_cell_angle_gamma 90.000000
_cell_volume 2418.443380
_symmetry_space_group_name_H-M "P M M M"
_symmetry_group_IT_number 47
_symmetry_cell_setting 'orthorhombic'
loop_
_space_group_symop_operation_xyz
x,y,z
-x,-y,z
x,-y,-z
-x,y,-z
-x,-y,-z
x,y,-z
-x,y,z
x,-y,z
loop_
_atom_site_type_symbol
_atom_site_label
_atom_site_fract_x
_atom_site_fract_y
_atom_site_fract_z
Si Si1 0.934659 0.285895 0.110900
Si Si2 0.000000 0.701076 0.613690
Si Si3 0.133513 0.794782 0.606053
Si Si4 0.435623 0.711919 0.887436
Si Si5 0.814529 0.704475 0.794784
Si Si6 0.305218 0.284389 0.109718
O O1 0.935198 0.500000 0.120993
O O2 0.874962 0.217010 0.160218
O O3 0.000000 0.223771 0.145726
O O4 0.931269 0.248769 0.000000
O O5 0.935729 0.778434 0.639044
O O6 0.000000 0.500000 0.646312
O O7 0.000000 0.707272 0.500000
O O8 0.137467 0.721386 0.500000
O O9 0.175817 0.711592 0.683662
O O10 0.147847 0.000000 0.601831
O O11 0.500000 0.780472 0.852042
O O12 0.436342 0.500000 0.873274
O O13 0.370612 0.777129 0.854947
O O14 0.435143 0.739349 0.000000
O O15 0.813899 0.500000 0.824533
O O16 0.752062 0.778688 0.832085
O O17 0.307018 0.500000 0.112887
O O18 0.298008 0.237239 0.000000
#
# Coordination Sequence:
#
# PCOD9381473 Si02
#       6
#     8   4   8   8   8   8
#     4   8  14  24  37  55  79 104 132 165 197 232
#     4   9  17  31  51  69  80  93 122 167 213 254
#     4  10  21  35  47  60  82 110 136 166 211 263
#     4   7   9  14  26  46  76 114 146 167 194 237
#     4  10  18  26  42  64  83 106 139 176 210 243
#     4   8  13  21  34  56  86 115 143 174 205 241
#
# _framework density 18.193521
#
# number of rings (size 3 to 8) (size 9 to 14) (size 15 to 20)
#    0.000    3.364    0.000    3.545    1.273    4.364 
#    0.000    0.000    0.000    2.182    0.000    1.273 
#    0.000    1.455    0.000   13.636    0.000    5.455 
#
# Total GULP energy -245034.804918 kJ/mol
# GULP energy per Si atom -5568.972839 kJ/mol
# Density = 1.815211 g / cm^3
# Si number density = 18.193521 Si / 1000 Ang^3
#
#
#
# Elastic Constant Matrix: (Units=GPa)
#
#
# Indices 1 2 3 4 5 6 
#
# 1 207.2545 8.4114 72.3263 0.0000 0.0000 0.0000
# 2 8.4114 35.6786 -5.9174 0.0000 0.0000 0.0000
# 3 72.3263 -5.9174 54.2910 0.0000 0.0000 0.0000
# 4 0.0000 0.0000 0.0000 84.5293 0.0000 0.0000
# 5 0.0000 0.0000 0.0000 0.0000 12.7357 0.0000
# 6 0.0000 0.0000 0.0000 0.0000 0.0000 -14.4787
#
#
#
# Elastic Compliance Matrix: (Units=1/GPa)
#
#
# Indices 1 2 3 4 5 6 
#
# 1 0.009678 -0.004502 -0.013384 0.000000 0.000000 0.000000
# 2 -0.004502 0.030638 0.009336 0.000000 0.000000 0.000000
# 3 -0.013384 0.009336 0.037267 0.000000 0.000000 0.000000
# 4 0.000000 0.000000 0.000000 0.011830 0.000000 0.000000
# 5 0.000000 0.000000 0.000000 0.000000 0.078520 0.000000
# 6 0.000000 0.000000 0.000000 0.000000 0.000000 -0.069067
#
#
# Mechanical properties :
#
#
# Convention : Reuss Voigt Hill
#
# Bulk Modulus (GPa) = 16.53320 49.65163 33.09241
# Shear Modulus (GPa) = 36.73051 31.38416 34.05734
#
# Velocity S-wave (km/s) = 4.49807 4.15784 4.33130
# Velocity P-wave (km/s) = 6.00699 7.09931 6.57587
#
# Compressibility (1/GPa) = 0.06048437
#
# Stress axis : x y z
#
# Youngs Moduli (GPa) = 103.32296 32.63953 26.83328
#
# Poissons Ratio (x) = 0.14693 0.35914
# Poissons Ratio (y) = 0.46511 -0.25052
# Poissons Ratio (z) = 1.38289 -0.30473
#
# Static dielectric constant tensor:
#      x y z
#    x 1.683090 0.000000 0.000000 
#    y 0.000000 1.675120 0.000000 
#    z 0.000000 0.000000 1.625180 
# 
# From -- ./inp_files/12428.got.cif
#   From: 2010.05.17/outbox.cif.g08.bks.cpg/sg47_7_cif.got.tgz:12428.got - 2010.06.03 20:15:42.
