data_PCOD9381193
_publ_section_title
;
Structure prediction by ZEFSAII (Michael W. Deem and Ramdas Pophale) SiO2 
 PCOD9381193
Probable space group: P M M M
;
_chemical_formula_sum "Si O2"
_cell_formula_units_Z 64
_cell_length_a 21.993736
_cell_length_b 7.372635
_cell_length_c 19.552438
_cell_angle_alpha 90.000000
_cell_angle_beta 90.000000
_cell_angle_gamma 90.000000
_cell_volume 3170.462778
_symmetry_space_group_name_H-M "P M M M"
_symmetry_group_IT_number 47
_symmetry_cell_setting 'orthorhombic'
loop_
_space_group_symop_operation_xyz
x,y,z
-x,-y,z
x,-y,-z
-x,y,-z
-x,-y,-z
x,y,-z
-x,y,z
x,-y,z
loop_
_atom_site_type_symbol
_atom_site_label
_atom_site_fract_x
_atom_site_fract_y
_atom_site_fract_z
Si Si1 0.933835 0.219905 0.125532
Si Si2 0.570845 0.278986 0.576766
Si Si3 0.767335 0.279209 0.222272
Si Si4 0.665914 0.297762 0.315195
Si Si5 0.094733 0.219894 0.424997
Si Si6 0.803429 0.289610 0.926263
Si Si7 0.238287 0.782726 0.425090
Si Si8 0.099437 0.787303 0.723887
O O1 0.876223 0.283157 0.083087
O O2 0.926053 0.284524 0.204368
O O3 0.000000 0.273645 0.099689
O O4 0.931065 0.000000 0.126353
O O5 0.589259 0.219365 0.500000
O O6 0.500000 0.232864 0.585751
O O7 0.575276 0.500000 0.576819
O O8 0.612435 0.212898 0.639310
O O9 0.766830 0.500000 0.222955
O O10 0.702885 0.214098 0.252083
O O11 0.778257 0.213510 0.144977
O O12 0.827027 0.226379 0.266682
O O13 0.645525 0.500000 0.294716
O O14 0.721303 0.309400 0.368937
O O15 0.071644 0.282290 0.500000
O O16 0.166948 0.258655 0.424260
O O17 0.076001 0.285388 0.349254
O O18 0.087000 0.000000 0.425297
O O19 0.784879 0.500000 0.927278
O O20 0.787084 0.209495 0.000000
O O21 0.261696 0.733678 0.500000
O O22 0.243332 0.000000 0.416364
O O23 0.084180 0.000000 0.722719
#
# Coordination Sequence:
#
# PCOD9381193 Si02
#       8
#     8   8   8   8   8   8   8   8
#     4   9  18  30  44  64  85 104 130 164 197 226
#     4   8  14  24  36  51  75 108 141 167 193 228
#     4   9  17  27  39  59  82  98 120 160 201 232
#     4  10  17  24  38  58  78  99 128 169 206 231
#     4   8  13  21  34  52  72  96 127 157 184 222
#     4   9  18  32  47  61  81 108 131 151 184 237
#     4   9  16  24  34  51  76 103 129 157 191 232
#     4   9  15  26  43  56  74 106 134 156 191 239
#
# _framework density 20.186328
#
# number of rings (size 3 to 8) (size 9 to 14) (size 15 to 20)
#    0.000    3.125    1.250    1.500    0.000    1.500 
#    0.000    1.250    0.000    1.125    0.000    4.375 
#    0.000    0.500    0.000   13.250    0.000    6.500 
#
# Total GULP energy -356684.471543 kJ/mol
# GULP energy per Si atom -5573.194868 kJ/mol
# Density = 2.014038 g / cm^3
# Si number density = 20.186328 Si / 1000 Ang^3
#
#
#
# Elastic Constant Matrix: (Units=GPa)
#
#
# Indices 1 2 3 4 5 6 
#
# 1 84.3747 -4.5220 32.6408 0.0000 0.0000 0.0000
# 2 -4.5220 67.9430 1.3731 0.0000 0.0000 0.0000
# 3 32.6408 1.3731 147.2142 0.0000 0.0000 0.0000
# 4 0.0000 0.0000 0.0000 3.1641 0.0000 0.0000
# 5 0.0000 0.0000 0.0000 0.0000 -2.7702 0.0000
# 6 0.0000 0.0000 0.0000 0.0000 0.0000 -0.4486
#
#
#
# Elastic Compliance Matrix: (Units=1/GPa)
#
#
# Indices 1 2 3 4 5 6 
#
# 1 0.013022 0.000925 -0.002896 0.000000 0.000000 0.000000
# 2 0.000925 0.014787 -0.000343 0.000000 0.000000 0.000000
# 3 -0.002896 -0.000343 0.007438 0.000000 0.000000 0.000000
# 4 0.000000 0.000000 0.000000 0.316050 0.000000 0.000000
# 5 0.000000 0.000000 0.000000 0.000000 -0.360989 0.000000
# 6 0.000000 0.000000 0.000000 0.000000 0.000000 -2.229289
#
#
# Mechanical properties :
#
#
# Convention : Reuss Voigt Hill
#
# Bulk Modulus (GPa) = 32.65927 39.83507 36.24717
# Shear Modulus (GPa) = -2.24805 17.99173 7.87184
#
# Velocity S-wave (km/s) = -1.05644 2.98867 1.97688
# Velocity P-wave (km/s) = 3.83744 5.62904 4.81726
#
# Compressibility (1/GPa) = 0.03061918
#
# Stress axis : x y z
#
# Youngs Moduli (GPa) = 76.79451 67.62817 134.44294
#
# Poissons Ratio (x) = -0.06257 0.38933
# Poissons Ratio (y) = -0.07105 0.04612
# Poissons Ratio (z) = 0.22239 0.02320
#
# Static dielectric constant tensor:
#      x y z
#    x 1.707630 0.000000 0.000000 
#    y 0.000000 1.798870 0.000000 
#    z 0.000000 0.000000 1.780310 
# 
# From -- ./inp_files/12930.got.cif
#   From: 2010.05.17/outbox.cif.g08.bks.cpg/sg47_7_cif.got.tgz:12930.got - 2010.06.03 20:15:42.
