data_PCOD9381686
_publ_section_title
;
Structure prediction by ZEFSAII (Michael W. Deem and Ramdas Pophale) SiO2 
 PCOD9381686
Probable space group: P M M M
;
_chemical_formula_sum "Si O2"
_cell_formula_units_Z 64
_cell_length_a 14.156254
_cell_length_b 28.986416
_cell_length_c 9.232707
_cell_angle_alpha 90.000000
_cell_angle_beta 90.000000
_cell_angle_gamma 90.000000
_cell_volume 3788.540380
_symmetry_space_group_name_H-M "P M M M"
_symmetry_group_IT_number 47
_symmetry_cell_setting 'orthorhombic'
loop_
_space_group_symop_operation_xyz
x,y,z
-x,-y,z
x,-y,-z
-x,y,-z
-x,-y,-z
x,y,-z
-x,y,z
x,-y,z
loop_
_atom_site_type_symbol
_atom_site_label
_atom_site_fract_x
_atom_site_fract_y
_atom_site_fract_z
Si Si1 0.107590 0.554992 0.672261
Si Si2 0.609124 0.302797 0.175998
Si Si3 0.892618 0.945593 0.326246
Si Si4 0.609651 0.802142 0.823870
Si Si5 0.112905 0.699522 0.660124
Si Si6 0.887202 0.783183 0.841728
Si Si7 0.233324 0.873162 0.168302
Si Si8 0.226939 0.371360 0.828451
O O1 0.112761 0.564219 0.500000
O O2 0.115305 0.500000 0.693496
O O3 0.190923 0.582242 0.751721
O O4 0.000000 0.568638 0.718639
O O5 0.500000 0.310171 0.218886
O O6 0.636644 0.250352 0.221418
O O7 0.678412 0.344153 0.222124
O O8 0.611919 0.302476 0.000000
O O9 0.888801 0.940170 0.500000
O O10 0.810106 0.915806 0.254268
O O11 0.000000 0.931766 0.280047
O O12 0.882492 0.000000 0.293941
O O13 0.500000 0.808900 0.785475
O O14 0.675992 0.844258 0.774793
O O15 0.616284 0.802223 0.000000
O O16 0.149404 0.687718 0.500000
O O17 0.142871 0.750020 0.712690
O O18 0.146525 0.664706 0.781953
O O19 0.000000 0.698606 0.654000
O O20 0.847025 0.833866 0.828289
O O21 0.000000 0.784131 0.842302
O O22 0.854736 0.764893 0.000000
O O23 0.250366 0.885958 0.000000
O O24 0.232550 0.378222 0.000000
#
# Coordination Sequence:
#
# PCOD9381686 Si02
#       8
#     8   8   8   8   8   8   8   8
#     4   9  19  36  54  70  93 128 165 197 233 283
#     4   8  15  29  48  70  97 128 159 190 229 280
#     4   9  19  35  51  67  91 124 159 193 232 283
#     4   8  14  26  45  69  97 127 157 190 230 277
#     4  10  20  31  42  60  91 130 164 188 218 272
#     4   9  17  28  41  61  91 121 150 189 233 274
#     4  10  18  28  47  73  95 117 152 197 241 281
#     4  11  20  29  48  75  97 119 153 199 245 282
#
# _framework density 16.893051
#
# number of rings (size 3 to 8) (size 9 to 14) (size 15 to 20)
#    0.000    2.750    0.000    3.750    0.000    6.250 
#    0.000    2.500    0.000    2.625    0.000    8.750 
#    0.000    0.000    0.000    0.000    0.000    0.000 
#
# Total GULP energy -356312.948635 kJ/mol
# GULP energy per Si atom -5567.389822 kJ/mol
# Density = 1.685460 g / cm^3
# Si number density = 16.893051 Si / 1000 Ang^3
#
#
#
# Elastic Constant Matrix: (Units=GPa)
#
#
# Indices 1 2 3 4 5 6 
#
# 1 103.9908 58.2449 30.6240 0.0000 0.0000 0.0000
# 2 58.2449 80.3140 29.3173 0.0000 0.0000 0.0000
# 3 30.6240 29.3173 19.6194 0.0000 0.0000 0.0000
# 4 0.0000 0.0000 0.0000 59.9082 0.0000 0.0000
# 5 0.0000 0.0000 0.0000 0.0000 11.5518 0.0000
# 6 0.0000 0.0000 0.0000 0.0000 0.0000 34.4341
#
#
#
# Elastic Compliance Matrix: (Units=1/GPa)
#
#
# Indices 1 2 3 4 5 6 
#
# 1 0.019260 -0.006586 -0.020221 0.000000 0.000000 0.000000
# 2 -0.006586 0.029646 -0.034019 0.000000 0.000000 0.000000
# 3 -0.020221 -0.034019 0.133368 0.000000 0.000000 0.000000
# 4 0.000000 0.000000 0.000000 0.016692 0.000000 0.000000
# 5 0.000000 0.000000 0.000000 0.000000 0.086566 0.000000
# 6 0.000000 0.000000 0.000000 0.000000 0.000000 0.029041
#
#
# Mechanical properties :
#
#
# Convention : Reuss Voigt Hill
#
# Bulk Modulus (GPa) = 16.49599 48.92185 32.70892
# Shear Modulus (GPa) = 10.95449 26.89469 18.92459
#
# Velocity S-wave (km/s) = 2.54925 3.99439 3.35066
# Velocity P-wave (km/s) = 4.29547 7.09198 5.86290
#
# Compressibility (1/GPa) = 0.06062078
#
# Stress axis : x y z
#
# Youngs Moduli (GPa) = 51.92075 33.73182 7.49803
#
# Poissons Ratio (x) = 0.22216 0.15162
# Poissons Ratio (y) = 0.34196 0.25508
# Poissons Ratio (z) = 1.04991 1.14752
#
# Static dielectric constant tensor:
#      x y z
#    x 1.593000 0.000000 0.000000 
#    y 0.000000 1.578510 0.000000 
#    z 0.000000 0.000000 1.589430 
# 
# From -- ./inp_files/8237.got.cif
#   From: 2010.05.17/outbox.cif.g08.bks.cpg/sg47_5_cif.got.tgz:8237.got - 2010.06.03 20:15:42.
