data_PCOD9381090
_publ_section_title
;
Structure prediction by ZEFSAII (Michael W. Deem and Ramdas Pophale) SiO2 
 PCOD9381090
Probable space group: I M A 2
;
_chemical_formula_sum "Si O2"
_cell_formula_units_Z 28
_cell_length_a 15.000000
_cell_length_b 21.000000
_cell_length_c 9.000000
_cell_angle_alpha 90.000000
_cell_angle_beta 90.000000
_cell_angle_gamma 90.000000
_cell_volume 2835.000000
_symmetry_space_group_name_H-M "I M A 2"
_symmetry_group_IT_number 46
_symmetry_cell_setting 'orthorhombic'
loop_
_space_group_symop_operation_xyz
x,y,z
-x,-y,z
1/2-x,y,z
1/2+x,-y,z
1/2+x,1/2+y,1/2+z
1/2-x,1/2-y,1/2+z
-x,1/2+y,1/2+z
x,1/2-y,1/2+z
loop_
_atom_site_type_symbol
_atom_site_label
_atom_site_fract_x
_atom_site_fract_y
_atom_site_fract_z
Si Si1 0.519387 0.864855 0.922880
Si Si2 0.348575 0.716250 0.105420
Si Si3 0.146079 0.061344 0.693873
Si Si4 0.652096 0.802566 0.133739
Si Si5 0.111222 0.171120 0.468949
Si Si6 0.645661 0.083629 0.778129
Si Si7 0.051112 0.727145 0.838339
O O1 0.582611 0.903849 0.811458
O O2 0.424610 0.901644 0.910743
O O3 0.500133 0.793649 0.863237
O O4 0.577245 0.850330 0.069588
O O5 0.250000 0.733429 0.151126
O O6 0.365147 0.644868 0.168319
O O7 0.419699 0.766941 0.169474
O O8 0.358843 0.723004 0.930923
O O9 0.250000 0.067898 0.734725
O O10 0.133924 0.103629 0.543575
O O11 0.126881 0.984966 0.699980
O O12 0.750000 0.817992 0.071539
O O13 0.655197 0.810838 0.311146
O O14 0.631448 0.729545 0.082946
O O15 0.008648 0.174241 0.416357
O O16 0.750000 0.083093 0.824197
#
# Coordination Sequence:
#
# PCOD9381090 Si02
#       7
#     8   8   8   8   8   8   8
#     4  10  20  35  55  81 113 149 190 239 286 340
#     4  10  19  34  55  80 108 141 186 242 291 338
#     4  11  21  36  60  87 114 153 197 237 285 349
#     4  11  21  34  54  85 122 159 195 238 294 357
#     4  11  21  34  54  84 125 160 191 237 294 359
#     4   9  20  37  60  85 110 146 196 241 284 343
#     4  10  19  32  50  78 109 144 183 226 286 346
#
# _framework density 9.8765429999999999
#
# number of rings (size 3 to 8) (size 9 to 14) (size 15 to 20)
#    0.000    1.714    0.000    7.714    0.000    0.571 
#    0.000    0.000    0.000   12.000    0.000   22.000 
#    0.000    0.000    0.000    0.000    0.000    0.000 
#
# Total GULP energy -155881.358137 kJ/mol
# GULP energy per Si atom -5567.191362 kJ/mol
# Density = 0.985406 g / cm^3
# Si number density = 9.876543 Si / 1000 Ang^3
#
#
#
# Elastic Constant Matrix: (Units=GPa)
#
#
# Indices 1 2 3 4 5 6 
#
# 1 119.9940 62.2981 44.5124 0.0000 0.0000 0.0000
# 2 62.2981 21.0623 9.3442 0.0000 0.0000 0.0000
# 3 44.5124 9.3442 75.4308 0.0000 0.0000 0.0000
# 4 0.0000 0.0000 0.0000 27.3271 0.0000 0.0000
# 5 0.0000 0.0000 0.0000 0.0000 28.5816 0.0000
# 6 0.0000 0.0000 0.0000 0.0000 0.0000 30.9074
#
#
#
# Elastic Compliance Matrix: (Units=1/GPa)
#
#
# Indices 1 2 3 4 5 6 
#
# 1 -0.014649 0.041789 0.003467 0.000000 0.000000 0.000000
# 2 0.041789 -0.068977 -0.016116 0.000000 0.000000 0.000000
# 3 0.003467 -0.016116 0.013207 0.000000 0.000000 0.000000
# 4 0.000000 0.000000 0.000000 0.036594 0.000000 0.000000
# 5 0.000000 0.000000 0.000000 0.000000 0.034988 0.000000
# 6 0.000000 0.000000 0.000000 0.000000 0.000000 0.032355
#
#
# Mechanical properties :
#
#
# Convention : Reuss Voigt Hill
#
# Bulk Modulus (GPa) = -82.40311 49.86625 -16.26843
# Shear Modulus (GPa) = -173.55521 24.05204 -74.75158
#
# Velocity S-wave (km/s) = -9.38366 3.49325 -6.15834
# Velocity P-wave (km/s) = 12.61789 6.44748 7.66946
#
# Compressibility (1/GPa) = -0.01213546
#
# Stress axis : x y z
#
# Youngs Moduli (GPa) = -68.26623 -14.49767 75.71544
#
# Poissons Ratio (x) = 0.60585 -0.26254
# Poissons Ratio (y) = 2.85279 1.22020
# Poissons Ratio (z) = 0.23671 -0.23364
#
# Static dielectric constant tensor:
#      x y z
#    x 1.818730 0.000000 0.000000 
#    y 0.000000 1.659210 0.000000 
#    z 0.000000 0.000000 1.720380 
# 
# From -- ./inp_files/5911.got.cif
#   From: 2010.05.17/outbox.ucp.g08.bks.cvg/sg46_3_cif.got.tgz:5911.got - 2010.06.11 16:34:52.
