data_PCOD9381022
_publ_section_title
;
Structure prediction by ZEFSAII (Michael W. Deem and Ramdas Pophale) SiO2 
 PCOD9381022
Probable space group: I M A 2
;
_chemical_formula_sum "Si O2"
_cell_formula_units_Z 36
_cell_length_a 31.928412
_cell_length_b 4.577784
_cell_length_c 8.712693
_cell_angle_alpha 90.000000
_cell_angle_beta 90.000000
_cell_angle_gamma 90.000000
_cell_volume 1273.459177
_symmetry_space_group_name_H-M "I M A 2"
_symmetry_group_IT_number 46
_symmetry_cell_setting 'orthorhombic'
loop_
_space_group_symop_operation_xyz
x,y,z
-x,-y,z
1/2-x,y,z
1/2+x,-y,z
1/2+x,1/2+y,1/2+z
1/2-x,1/2-y,1/2+z
-x,1/2+y,1/2+z
x,1/2-y,1/2+z
loop_
_atom_site_type_symbol
_atom_site_label
_atom_site_fract_x
_atom_site_fract_y
_atom_site_fract_z
Si Si1 0.750000 0.292172 0.323360
Si Si2 0.113575 0.581264 0.227467
Si Si3 0.250000 0.354556 0.560688
Si Si4 0.000000 0.500000 0.404635
Si Si5 0.945873 0.578423 0.689652
Si Si6 0.670920 0.058703 0.999229
O O1 0.750000 0.644003 0.366317
O O2 0.750000 0.169865 0.155924
O O3 0.794329 0.244091 0.406133
O O4 0.145301 0.752637 0.118619
O O5 0.138943 0.454246 0.370684
O O6 0.979666 0.744207 0.293516
O O7 0.078808 0.821665 0.274882
O O8 0.200332 0.309210 0.578992
O O9 0.035792 0.556481 0.533255
O O10 0.088376 0.322595 0.147945
#
# Coordination Sequence:
#
# PCOD9381022 Si02
#       6
#     4   8   4   4   8   8
#     4   8  14  30  58  96 130 204 224 293 342 429
#     4  12  23  43  66 110 133 192 229 322 348 447
#     4   8  14  30  58  96 130 204 224 293 342 429
#     4  12  28  56  72 114 140 202 236 322 362 512
#     4  12  29  46  80 101 149 182 253 293 404 428
#     4   9  18  34  66  94 150 176 252 282 367 410
#
# _framework density 28.269454
#
# number of rings (size 3 to 8) (size 9 to 14) (size 15 to 20)
#    1.333    0.000    2.222    4.000    0.000    6.222 
#    0.000    0.000    0.000   32.000    0.000    0.000 
#    0.000    0.000    0.000    0.000    0.000    0.000 
#
# Total GULP energy -100275.046105 kJ/mol
# GULP energy per Si atom -5570.835895 kJ/mol
# Density = 2.820511 g / cm^3
# Si number density = 28.269454 Si / 1000 Ang^3
#
#
#
# Elastic Constant Matrix: (Units=GPa)
#
#
# Indices 1 2 3 4 5 6 
#
# 1 202.1988 59.4446 76.9653 0.0000 0.0000 0.0000
# 2 59.4446 68.6514 12.3498 0.0000 0.0000 0.0000
# 3 76.9653 12.3498 127.2509 0.0000 0.0000 0.0000
# 4 0.0000 0.0000 0.0000 37.7976 0.0000 0.0000
# 5 0.0000 0.0000 0.0000 0.0000 65.5479 0.0000
# 6 0.0000 0.0000 0.0000 0.0000 0.0000 34.2603
#
#
#
# Elastic Compliance Matrix: (Units=1/GPa)
#
#
# Indices 1 2 3 4 5 6 
#
# 1 0.008651 -0.006666 -0.004585 0.000000 0.000000 0.000000
# 2 -0.006666 0.019961 0.002094 0.000000 0.000000 0.000000
# 3 -0.004585 0.002094 0.010429 0.000000 0.000000 0.000000
# 4 0.000000 0.000000 0.000000 0.026457 0.000000 0.000000
# 5 0.000000 0.000000 0.000000 0.000000 0.015256 0.000000
# 6 0.000000 0.000000 0.000000 0.000000 0.000000 0.029188
#
#
# Mechanical properties :
#
#
# Convention : Reuss Voigt Hill
#
# Bulk Modulus (GPa) = 48.24550 77.29116 62.76833
# Shear Modulus (GPa) = 36.99218 44.14391 40.56805
#
# Velocity S-wave (km/s) = 3.62132 3.95592 3.79231
# Velocity P-wave (km/s) = 5.88121 6.94737 6.43641
#
# Compressibility (1/GPa) = 0.02072732
#
# Stress axis : x y z
#
# Youngs Moduli (GPa) = 115.59899 50.09693 95.89080
#
# Poissons Ratio (x) = 0.33393 0.43968
# Poissons Ratio (y) = 0.77054 -0.20083
# Poissons Ratio (z) = 0.53005 -0.10492
#
# Static dielectric constant tensor:
#      x y z
#    x 2.275210 0.000000 0.000000 
#    y 0.000000 2.449410 0.000000 
#    z 0.000000 0.000000 2.159170 
# 
# From -- ./inp_files/8086.got.cif
#   From: 2010.05.17/outbox.cif.g08.bks.cpg/sg46_5_cif.got.tgz:8086.got - 2010.06.03 19:58:25.
