data_PCOD9381208
_publ_section_title
;
Structure prediction by ZEFSAII (Michael W. Deem and Ramdas Pophale) SiO2 
 PCOD9381208
Probable space group: P M M M
;
_chemical_formula_sum "Si O2"
_cell_formula_units_Z 64
_cell_length_a 20.525131
_cell_length_b 7.491618
_cell_length_c 21.240465
_cell_angle_alpha 90.000000
_cell_angle_beta 90.000000
_cell_angle_gamma 90.000000
_cell_volume 3266.070705
_symmetry_space_group_name_H-M "P M M M"
_symmetry_group_IT_number 47
_symmetry_cell_setting 'orthorhombic'
loop_
_space_group_symop_operation_xyz
x,y,z
-x,-y,z
x,-y,-z
-x,y,-z
-x,-y,-z
x,y,-z
-x,y,z
x,-y,z
loop_
_atom_site_type_symbol
_atom_site_label
_atom_site_fract_x
_atom_site_fract_y
_atom_site_fract_z
Si Si1 0.711823 0.295451 0.400382
Si Si2 0.144334 0.206117 0.567839
Si Si3 0.430124 0.285481 0.251745
Si Si4 0.925107 0.781809 0.307219
Si Si5 0.925754 0.782254 0.928017
Si Si6 0.288155 0.793092 0.745564
Si Si7 0.429585 0.717090 0.599223
Si Si8 0.159922 0.217837 0.812626
O O1 0.715034 0.500000 0.421328
O O2 0.777804 0.207051 0.423227
O O3 0.712393 0.294046 0.323742
O O4 0.641657 0.220349 0.422346
O O5 0.128340 0.287711 0.500000
O O6 0.111060 0.283475 0.629928
O O7 0.123048 0.000000 0.565757
O O8 0.500000 0.223487 0.225390
O O9 0.429016 0.500000 0.247938
O O10 0.360975 0.220044 0.226946
O O11 0.430628 0.240234 0.326213
O O12 0.886447 0.727714 0.245042
O O13 0.000000 0.727262 0.306028
O O14 0.923386 0.000000 0.307210
O O15 0.872549 0.721035 0.877589
O O16 0.000000 0.729813 0.910663
O O17 0.925306 0.000000 0.927658
O O18 0.913474 0.726349 0.000000
O O19 0.232480 0.725063 0.792447
O O20 0.273322 0.000000 0.732374
O O21 0.500000 0.776841 0.573427
O O22 0.428667 0.500000 0.593424
O O23 0.160605 0.000000 0.815509
#
# Coordination Sequence:
#
# PCOD9381208 Si02
#       8
#     8   8   8   8   8   8   8   8
#     4  10  18  29  46  64  84 113 147 180 219 269
#     4  10  20  33  47  64  86 110 140 183 231 274
#     4   8  14  25  39  57  85 119 152 183 217 261
#     4   9  16  27  44  64  84 108 140 178 221 267
#     4   8  13  21  34  55  86 123 157 185 217 262
#     4  10  17  25  40  63  92 119 146 182 225 268
#     4   7  11  21  38  59  79 100 130 168 205 242
#     4   9  15  23  37  60  90 119 146 180 221 264
#
# _framework density 19.595410999999999
#
# number of rings (size 3 to 8) (size 9 to 14) (size 15 to 20)
#    0.000    3.125    1.250    3.000    0.000    2.250 
#    0.000    1.250    0.000    1.875    0.000    3.500 
#    0.000    2.500    0.000   11.750    0.000    6.125 
#
# Total GULP energy -356732.472429 kJ/mol
# GULP energy per Si atom -5573.944882 kJ/mol
# Density = 1.955081 g / cm^3
# Si number density = 19.595411 Si / 1000 Ang^3
#
#
#
# Elastic Constant Matrix: (Units=GPa)
#
#
# Indices 1 2 3 4 5 6 
#
# 1 159.7165 -1.7156 72.3805 0.0000 0.0000 0.0000
# 2 -1.7156 52.1367 1.6614 0.0000 0.0000 0.0000
# 3 72.3805 1.6614 99.4846 0.0000 0.0000 0.0000
# 4 0.0000 0.0000 0.0000 40.7292 0.0000 0.0000
# 5 0.0000 0.0000 0.0000 0.0000 87.9904 0.0000
# 6 0.0000 0.0000 0.0000 0.0000 0.0000 20.8106
#
#
#
# Elastic Compliance Matrix: (Units=1/GPa)
#
#
# Indices 1 2 3 4 5 6 
#
# 1 0.009355 0.000525 -0.006815 0.000000 0.000000 0.000000
# 2 0.000525 0.019220 -0.000703 0.000000 0.000000 0.000000
# 3 -0.006815 -0.000703 0.015022 0.000000 0.000000 0.000000
# 4 0.000000 0.000000 0.000000 0.024552 0.000000 0.000000
# 5 0.000000 0.000000 0.000000 0.000000 0.011365 0.000000
# 6 0.000000 0.000000 0.000000 0.000000 0.000000 0.048052
#
#
# Mechanical properties :
#
#
# Convention : Reuss Voigt Hill
#
# Bulk Modulus (GPa) = 33.77128 50.66561 42.21844
# Shear Modulus (GPa) = 33.01993 45.84014 39.43004
#
# Velocity S-wave (km/s) = 4.10943 4.84191 4.49063
# Velocity P-wave (km/s) = 6.30779 7.56114 6.96272
#
# Compressibility (1/GPa) = 0.02961096
#
# Stress axis : x y z
#
# Youngs Moduli (GPa) = 106.89156 52.02903 66.56894
#
# Poissons Ratio (x) = -0.02732 0.45368
# Poissons Ratio (y) = -0.05612 0.04679
# Poissons Ratio (z) = 0.72849 0.03657
#
# Static dielectric constant tensor:
#      x y z
#    x 1.726060 0.000000 0.000000 
#    y 0.000000 1.766870 0.000000 
#    z 0.000000 0.000000 1.668370 
# 
# From -- ./inp_files/31496.got.cif
#   From: 2010.05.17/outbox.cif.g08.bks.cpg/sg47_16_cif.got.tgz:31496.got - 2010.06.03 20:15:42.
