data_PCOD9381594
_publ_section_title
;
Structure prediction by ZEFSAII (Michael W. Deem and Ramdas Pophale) SiO2 
 PCOD9381594
Probable space group: P M M M
;
_chemical_formula_sum "Si O2"
_cell_formula_units_Z 64
_cell_length_a 21.308313
_cell_length_b 7.383335
_cell_length_c 20.627909
_cell_angle_alpha 90.000000
_cell_angle_beta 90.000000
_cell_angle_gamma 90.000000
_cell_volume 3245.314934
_symmetry_space_group_name_H-M "P M M M"
_symmetry_group_IT_number 47
_symmetry_cell_setting 'orthorhombic'
loop_
_space_group_symop_operation_xyz
x,y,z
-x,-y,z
x,-y,-z
-x,y,-z
-x,-y,-z
x,y,-z
-x,y,z
x,-y,z
loop_
_atom_site_type_symbol
_atom_site_label
_atom_site_fract_x
_atom_site_fract_y
_atom_site_fract_z
Si Si1 0.246208 0.717946 0.290753
Si Si2 0.071546 0.279364 0.074004
Si Si3 0.811925 0.278566 0.842084
Si Si4 0.308347 0.721277 0.925359
Si Si5 0.255377 0.280763 0.430702
Si Si6 0.432580 0.290293 0.854949
Si Si7 0.395754 0.213662 0.288409
Si Si8 0.404408 0.211754 0.570346
O O1 0.242261 0.500000 0.290240
O O2 0.205439 0.783078 0.230332
O O3 0.227084 0.781816 0.362621
O O4 0.320314 0.760246 0.283200
O O5 0.071880 0.500000 0.074390
O O6 0.123081 0.219016 0.125694
O O7 0.000000 0.222664 0.087418
O O8 0.087753 0.225739 0.000000
O O9 0.812991 0.500000 0.841106
O O10 0.754177 0.223189 0.887840
O O11 0.308189 0.500000 0.923657
O O12 0.370498 0.786492 0.888214
O O13 0.308231 0.776161 0.000000
O O14 0.228375 0.221001 0.500000
O O15 0.254894 0.500000 0.430169
O O16 0.328458 0.223790 0.430113
O O17 0.500000 0.208417 0.871969
O O18 0.434361 0.500000 0.875291
O O19 0.424616 0.287671 0.777350
O O20 0.419922 0.286607 0.358135
O O21 0.408223 0.000000 0.288948
O O22 0.424977 0.287607 0.500000
O O23 0.422202 0.000000 0.570244
#
# Coordination Sequence:
#
# PCOD9381594 Si02
#       8
#     8   8   8   8   8   8   8   8
#     4   9  15  24  39  58  82 108 135 167 203 241
#     4   8  13  20  30  49  81 115 139 162 199 244
#     4   9  14  21  36  57  81 108 135 164 199 240
#     4   9  16  26  42  63  81  98 127 167 206 242
#     4   8  13  20  31  50  76 104 131 160 196 237
#     4  10  20  33  47  62  81 105 133 168 209 249
#     4  10  18  28  44  63  83 107 135 167 204 247
#     4   8  14  24  38  57  79 102 129 161 197 237
#
# _framework density 19.720735999999999
#
# number of rings (size 3 to 8) (size 9 to 14) (size 15 to 20)
#    0.000    3.125    1.250    1.125    0.000    2.500 
#    0.000    1.250    0.000    0.750    0.000    3.500 
#    0.000    1.000    0.000    8.375    0.000    1.250 
#
# Total GULP energy -356779.987319 kJ/mol
# GULP energy per Si atom -5574.687302 kJ/mol
# Density = 1.967585 g / cm^3
# Si number density = 19.720736 Si / 1000 Ang^3
#
#
#
# Elastic Constant Matrix: (Units=GPa)
#
#
# Indices 1 2 3 4 5 6 
#
# 1 100.8510 2.1428 74.2979 0.0000 0.0000 0.0000
# 2 2.1428 71.8319 0.8812 0.0000 0.0000 0.0000
# 3 74.2979 0.8812 165.9228 0.0000 0.0000 0.0000
# 4 0.0000 0.0000 0.0000 77.7316 0.0000 0.0000
# 5 0.0000 0.0000 0.0000 0.0000 310.9699 0.0000
# 6 0.0000 0.0000 0.0000 0.0000 0.0000 -6.7812
#
#
#
# Elastic Compliance Matrix: (Units=1/GPa)
#
#
# Indices 1 2 3 4 5 6 
#
# 1 0.014806 -0.000360 -0.006628 0.000000 0.000000 0.000000
# 2 -0.000360 0.013931 0.000087 0.000000 0.000000 0.000000
# 3 -0.006628 0.000087 0.008994 0.000000 0.000000 0.000000
# 4 0.000000 0.000000 0.000000 0.012865 0.000000 0.000000
# 5 0.000000 0.000000 0.000000 0.000000 0.003216 0.000000
# 6 0.000000 0.000000 0.000000 0.000000 0.000000 -0.147466
#
#
# Mechanical properties :
#
#
# Convention : Reuss Voigt Hill
#
# Bulk Modulus (GPa) = 41.78937 54.80549 48.29743
# Shear Modulus (GPa) = -69.56488 93.80297 12.11904
#
# Velocity S-wave (km/s) = -5.94572 6.90427 2.48167
# Velocity P-wave (km/s) = 5.08909 9.56084 5.72323
#
# Compressibility (1/GPa) = 0.02392953
#
# Stress axis : x y z
#
# Youngs Moduli (GPa) = 67.53886 71.78198 111.18000
#
# Poissons Ratio (x) = 0.02587 0.73692
# Poissons Ratio (y) = 0.02434 -0.00972
# Poissons Ratio (z) = 0.44766 -0.00627
#
# Static dielectric constant tensor:
#      x y z
#    x 1.658100 0.000000 0.000000 
#    y 0.000000 1.759390 0.000000 
#    z 0.000000 0.000000 1.738020 
# 
# From -- ./inp_files/11785.got.cif
#   From: 2010.05.17/outbox.cif.g08.bks.cpg/sg47_6_cif.got.tgz:11785.got - 2010.06.03 20:15:42.
