data_PCOD9381374
_publ_section_title
;
Structure prediction by ZEFSAII (Michael W. Deem and Ramdas Pophale) SiO2 
 PCOD9381374
Probable space group: P M M M
;
_chemical_formula_sum "Si O2"
_cell_formula_units_Z 52
_cell_length_a 13.036928
_cell_length_b 7.746946
_cell_length_c 28.633397
_cell_angle_alpha 90.000000
_cell_angle_beta 90.000000
_cell_angle_gamma 90.000000
_cell_volume 2891.869365
_symmetry_space_group_name_H-M "P M M M"
_symmetry_group_IT_number 47
_symmetry_cell_setting 'orthorhombic'
loop_
_space_group_symop_operation_xyz
x,y,z
-x,-y,z
x,-y,-z
-x,y,-z
-x,-y,-z
x,y,-z
-x,y,z
x,-y,z
loop_
_atom_site_type_symbol
_atom_site_label
_atom_site_fract_x
_atom_site_fract_y
_atom_site_fract_z
Si Si1 0.880537 0.789155 0.051986
Si Si2 0.381878 0.209105 0.321258
Si Si3 0.000000 0.294388 0.795316
Si Si4 0.123590 0.000000 0.554494
Si Si5 0.204179 0.205042 0.851774
Si Si6 0.000000 0.204629 0.313681
Si Si7 0.383428 0.788995 0.214217
Si Si8 0.813769 0.307623 0.379020
O O1 0.816026 0.725854 0.096161
O O2 0.000000 0.739912 0.058339
O O3 0.878808 0.000000 0.052495
O O4 0.847803 0.734491 0.000000
O O5 0.500000 0.256612 0.331657
O O6 0.359692 0.261906 0.267619
O O7 0.297168 0.283064 0.355617
O O8 0.375286 0.000000 0.323123
O O9 0.899091 0.228859 0.821876
O O10 0.000000 0.238250 0.741429
O O11 0.000000 0.500000 0.797174
O O12 0.165873 0.166033 0.581631
O O13 0.150624 0.000000 0.500000
O O14 0.000000 0.000000 0.558444
O O15 0.299710 0.275395 0.822382
O O16 0.221550 0.000000 0.856700
O O17 0.100714 0.279053 0.338771
O O18 0.000000 0.000000 0.321705
O O19 0.500000 0.736835 0.203386
O O20 0.381496 0.000000 0.214112
O O21 0.825106 0.500000 0.397808
#
# Coordination Sequence:
#
# PCOD9381374 Si02
#       8
#     8   8   4   4   8   4   8   8
#     4   8  13  22  39  63  89 119 167 221 260 314
#     4   9  17  32  54  79 111 151 190 227 276 338
#     4  12  24  32  43  73 109 133 163 212 270 327
#     4  11  24  44  65  89 121 157 196 235 279 332
#     4  10  17  29  48  67  92 132 173 208 264 330
#     4  12  22  38  56  77 113 152 186 221 269 332
#     4   8  15  27  46  73 100 131 173 217 258 313
#     4  12  22  37  61  89 119 149 189 237 284 329
#
# _framework density 17.981448
#
# number of rings (size 3 to 8) (size 9 to 14) (size 15 to 20)
#    0.000    2.077    3.077    3.692    0.000    1.846 
#    0.000    0.769    0.000    3.692    0.000    4.308 
#    0.000    0.000    0.000    1.385    0.000    1.538 
#
# Total GULP energy -290300.670629 kJ/mol
# GULP energy per Si atom -5582.705204 kJ/mol
# Density = 1.794052 g / cm^3
# Si number density = 17.981448 Si / 1000 Ang^3
#
#
#
# Elastic Constant Matrix: (Units=GPa)
#
#
# Indices 1 2 3 4 5 6 
#
# 1 100.0328 18.5846 75.1499 0.0000 0.0000 0.0000
# 2 18.5846 67.1336 32.0323 0.0000 0.0000 0.0000
# 3 75.1499 32.0323 154.7792 0.0000 0.0000 0.0000
# 4 0.0000 0.0000 0.0000 -6.4699 0.0000 0.0000
# 5 0.0000 0.0000 0.0000 0.0000 30.7623 0.0000
# 6 0.0000 0.0000 0.0000 0.0000 0.0000 -12.0655
#
#
#
# Elastic Compliance Matrix: (Units=1/GPa)
#
#
# Indices 1 2 3 4 5 6 
#
# 1 0.015775 -0.000790 -0.007495 0.000000 0.000000 0.000000
# 2 -0.000790 0.016567 -0.003045 0.000000 0.000000 0.000000
# 3 -0.007495 -0.003045 0.010730 0.000000 0.000000 0.000000
# 4 0.000000 0.000000 0.000000 -0.154562 0.000000 0.000000
# 5 0.000000 0.000000 0.000000 0.000000 0.032507 0.000000
# 6 0.000000 0.000000 0.000000 0.000000 0.000000 -0.082881
#
#
# Mechanical properties :
#
#
# Convention : Reuss Voigt Hill
#
# Bulk Modulus (GPa) = 48.99434 63.71991 56.35712
# Shear Modulus (GPa) = -37.76483 15.52397 -11.12043
#
# Velocity S-wave (km/s) = -4.58778 2.94144 -2.48954
# Velocity P-wave (km/s) = 0.87022 6.85926 4.81104
#
# Compressibility (1/GPa) = 0.02041052
#
# Stress axis : x y z
#
# Youngs Moduli (GPa) = 63.39331 60.35975 93.19478
#
# Poissons Ratio (x) = 0.04771 0.69853
# Poissons Ratio (y) = 0.05011 0.28377
# Poissons Ratio (z) = 0.47516 0.18379
#
# Static dielectric constant tensor:
#      x y z
#    x 1.577190 0.000000 0.000000 
#    y 0.000000 1.673000 0.000000 
#    z 0.000000 0.000000 1.609870 
# 
# From -- ./inp_files/33642.got.cif
#   From: 2010.05.17/outbox.cif.g08.bks.cpg/sg47_17_cif.got.tgz:33642.got - 2010.06.03 20:15:42.
