data_PCOD9381023
_publ_section_title
;
Structure prediction by ZEFSAII (Michael W. Deem and Ramdas Pophale) SiO2 
 PCOD9381023
Probable space group: I M A 2
;
_chemical_formula_sum "Si O2"
_cell_formula_units_Z 32
_cell_length_a 21.035682
_cell_length_b 7.441353
_cell_length_c 9.443226
_cell_angle_alpha 90.000000
_cell_angle_beta 90.000000
_cell_angle_gamma 90.000000
_cell_volume 1478.185328
_symmetry_space_group_name_H-M "I M A 2"
_symmetry_group_IT_number 46
_symmetry_cell_setting 'orthorhombic'
loop_
_space_group_symop_operation_xyz
x,y,z
-x,-y,z
1/2-x,y,z
1/2+x,-y,z
1/2+x,1/2+y,1/2+z
1/2-x,1/2-y,1/2+z
-x,1/2+y,1/2+z
x,1/2-y,1/2+z
loop_
_atom_site_type_symbol
_atom_site_label
_atom_site_fract_x
_atom_site_fract_y
_atom_site_fract_z
Si Si1 0.484331 0.207549 0.628200
Si Si2 0.401089 0.261445 0.882075
Si Si3 0.675426 0.437452 0.476502
Si Si4 0.389063 0.850784 0.273277
O O1 0.421401 0.214462 0.723673
O O2 0.462496 0.285342 0.478387
O O3 0.636080 0.313095 0.367413
O O4 0.541778 0.309010 0.705453
O O5 0.390412 0.474648 0.874627
O O6 0.344058 0.141527 0.938946
O O7 0.750000 0.407491 0.458390
O O8 0.654674 0.391105 0.636791
O O9 0.500000 0.000000 0.609109
#
# Coordination Sequence:
#
# PCOD9381023 Si02
#       4
#     8   8   8   8
#     4  12  23  43  72 107 146 178 238 302 366 420
#     4  12  26  45  70 109 142 188 232 301 364 422
#     4  12  28  49  72 105 148 197 245 287 351 437
#     4  12  26  48  75 107 144 189 245 301 361 422
#
# _framework density 21.648167000000001
#
# number of rings (size 3 to 8) (size 9 to 14) (size 15 to 20)
#    0.000    0.000    5.000    6.000    0.000    2.000 
#    0.000    0.000    0.000    0.000    0.000    0.000 
#    0.000    0.000    0.000    0.000    0.000    0.000 
#
# Total GULP energy -89557.174645 kJ/mol
# GULP energy per Si atom -5597.323415 kJ/mol
# Density = 2.159889 g / cm^3
# Si number density = 21.648167 Si / 1000 Ang^3
#
#
#
# Elastic Constant Matrix: (Units=GPa)
#
#
# Indices 1 2 3 4 5 6 
#
# 1 82.8982 18.9064 31.8480 0.0000 0.0000 0.0000
# 2 18.9064 85.5703 40.4879 0.0000 0.0000 0.0000
# 3 31.8480 40.4879 86.4919 0.0000 0.0000 0.0000
# 4 0.0000 0.0000 0.0000 33.9083 0.0000 0.0000
# 5 0.0000 0.0000 0.0000 0.0000 21.3108 0.0000
# 6 0.0000 0.0000 0.0000 0.0000 0.0000 -6.3084
#
#
#
# Elastic Compliance Matrix: (Units=1/GPa)
#
#
# Indices 1 2 3 4 5 6 
#
# 1 0.014098 -0.000846 -0.004795 0.000000 0.000000 0.000000
# 2 -0.000846 0.015062 -0.006739 0.000000 0.000000 0.000000
# 3 -0.004795 -0.006739 0.016482 0.000000 0.000000 0.000000
# 4 0.000000 0.000000 0.000000 0.029491 0.000000 0.000000
# 5 0.000000 0.000000 0.000000 0.000000 0.046925 0.000000
# 6 0.000000 0.000000 0.000000 0.000000 0.000000 -0.158519
#
#
# Mechanical properties :
#
#
# Convention : Reuss Voigt Hill
#
# Bulk Modulus (GPa) = 47.88936 48.60498 48.24717
# Shear Modulus (GPa) = -1054.96840 20.69667 -517.13586
#
# Velocity S-wave (km/s) = -22.09938 3.09536 -15.47258
# Velocity P-wave (km/s) = 25.08001 5.93936 17.22979
#
# Compressibility (1/GPa) = 0.02088146
#
# Stress axis : x y z
#
# Youngs Moduli (GPa) = 70.93122 66.39286 60.67188
#
# Poissons Ratio (x) = 0.05617 0.29093
# Poissons Ratio (y) = 0.06001 0.40887
# Poissons Ratio (z) = 0.34013 0.44743
#
# Static dielectric constant tensor:
#      x y z
#    x 1.756300 0.000000 0.000000 
#    y 0.000000 1.871990 0.000000 
#    z 0.000000 0.000000 1.750450 
# 
# From -- ./inp_files/10835.got.cif
#   From: 2010.05.17/outbox.cif.g08.bks.cpg/sg46_6_cif.got.tgz:10835.got - 2010.06.03 19:58:25.
