data_PCOD9381041
_publ_section_title
;
Structure prediction by ZEFSAII (Michael W. Deem and Ramdas Pophale) SiO2 
 PCOD9381041
Probable space group: I M A 2
;
_chemical_formula_sum "Si O2"
_cell_formula_units_Z 32
_cell_length_a 16.318473
_cell_length_b 9.494932
_cell_length_c 8.363483
_cell_angle_alpha 90.000000
_cell_angle_beta 90.000000
_cell_angle_gamma 90.000000
_cell_volume 1295.861403
_symmetry_space_group_name_H-M "I M A 2"
_symmetry_group_IT_number 46
_symmetry_cell_setting 'orthorhombic'
loop_
_space_group_symop_operation_xyz
x,y,z
-x,-y,z
1/2-x,y,z
1/2+x,-y,z
1/2+x,1/2+y,1/2+z
1/2-x,1/2-y,1/2+z
-x,1/2+y,1/2+z
x,1/2-y,1/2+z
loop_
_atom_site_type_symbol
_atom_site_label
_atom_site_fract_x
_atom_site_fract_y
_atom_site_fract_z
Si Si1 0.344316 0.206042 0.507900
Si Si2 0.592922 0.547294 0.695083
Si Si3 0.344316 0.706043 0.507902
Si Si4 0.407079 0.547295 0.195086
O O1 0.250000 0.251072 0.498497
O O2 0.399549 0.839971 0.551161
O O3 0.355544 0.089620 0.646709
O O4 0.372039 0.127825 0.347832
O O5 0.500000 0.500000 0.718554
O O6 0.644457 0.410379 0.646710
O O7 0.600453 0.660028 0.551158
O O8 0.250000 0.751077 0.498500
O O9 0.372037 0.627826 0.347834
O O10 0.500000 0.500000 0.218561
#
# Coordination Sequence:
#
# PCOD9381041 Si02
#       4
#     8   8   8   8
#     4  12  25  47  75 108 145 191 243 300 361 431
#     4  12  27  47  73 108 147 191 241 300 363 431
#     4  12  25  47  75 108 145 191 243 300 361 431
#     4  12  27  47  73 108 147 191 241 300 363 431
#
# _framework density 24.693999000000002
#
# number of rings (size 3 to 8) (size 9 to 14) (size 15 to 20)
#    0.000    0.000    0.000   10.500    0.000    4.000 
#    0.000    2.500    0.000    0.000    0.000    0.000 
#    0.000    0.000    0.000    0.000    0.000    0.000 
#
# Total GULP energy -89900.499351 kJ/mol
# GULP energy per Si atom -5618.781209 kJ/mol
# Density = 2.463779 g / cm^3
# Si number density = 24.693999 Si / 1000 Ang^3
#
#
#
# Elastic Constant Matrix: (Units=GPa)
#
#
# Indices 1 2 3 4 5 6 
#
# 1 110.5970 2.5657 18.3498 0.0000 0.0000 0.0000
# 2 2.5657 118.8545 10.2813 0.0000 0.0000 0.0000
# 3 18.3498 10.2813 76.4445 0.0000 0.0000 0.0000
# 4 0.0000 0.0000 0.0000 35.6343 0.0000 0.0000
# 5 0.0000 0.0000 0.0000 0.0000 40.5081 0.0000
# 6 0.0000 0.0000 0.0000 0.0000 0.0000 0.1012
#
#
#
# Elastic Compliance Matrix: (Units=1/GPa)
#
#
# Indices 1 2 3 4 5 6 
#
# 1 0.009417 -0.000008 -0.002259 0.000000 0.000000 0.000000
# 2 -0.000008 0.008513 -0.001143 0.000000 0.000000 0.000000
# 3 -0.002259 -0.001143 0.013777 0.000000 0.000000 0.000000
# 4 0.000000 0.000000 0.000000 0.028063 0.000000 0.000000
# 5 0.000000 0.000000 0.000000 0.000000 0.024686 0.000000
# 6 0.000000 0.000000 0.000000 0.000000 0.000000 9.880670
#
#
# Mechanical properties :
#
#
# Convention : Reuss Voigt Hill
#
# Bulk Modulus (GPa) = 40.18235 40.92107 40.55171
# Shear Modulus (GPa) = 0.50099 33.56201 17.03150
#
# Velocity S-wave (km/s) = 0.45091 3.69062 2.62907
# Velocity P-wave (km/s) = 4.07167 5.89645 5.06689
#
# Compressibility (1/GPa) = 0.02488655
#
# Stress axis : x y z
#
# Youngs Moduli (GPa) = 106.19226 117.47158 72.58234
#
# Poissons Ratio (x) = 0.00092 0.16399
# Poissons Ratio (y) = 0.00083 0.08296
# Poissons Ratio (z) = 0.23993 0.13427
#
# Static dielectric constant tensor:
#      x y z
#    x 1.845740 0.000000 0.000000 
#    y 0.000000 1.917330 0.000000 
#    z 0.000000 0.000000 2.038700 
# 
# From -- ./inp_files/10794.got.cif
#   From: 2010.05.17/outbox.cif.g08.bks.cpg/sg46_6_cif.got.tgz:10794.got - 2010.06.03 19:58:25.
