data_PCOD9381728
_publ_section_title
;
Structure prediction by ZEFSAII (Michael W. Deem and Ramdas Pophale) SiO2 
 PCOD9381728
Probable space group: P M M M
;
_chemical_formula_sum "Si O2"
_cell_formula_units_Z 64
_cell_length_a 21.040123
_cell_length_b 7.370057
_cell_length_c 20.492459
_cell_angle_alpha 90.000000
_cell_angle_beta 90.000000
_cell_angle_gamma 90.000000
_cell_volume 3177.702209
_symmetry_space_group_name_H-M "P M M M"
_symmetry_group_IT_number 47
_symmetry_cell_setting 'orthorhombic'
loop_
_space_group_symop_operation_xyz
x,y,z
-x,-y,z
x,-y,-z
-x,y,-z
-x,-y,-z
x,y,-z
-x,y,z
x,-y,z
loop_
_atom_site_type_symbol
_atom_site_label
_atom_site_fract_x
_atom_site_fract_y
_atom_site_fract_z
Si Si1 0.738128 0.218348 0.384694
Si Si2 0.122480 0.218971 0.571550
Si Si3 0.430400 0.277831 0.284963
Si Si4 0.931078 0.712236 0.289554
Si Si5 0.928574 0.720639 0.924831
Si Si6 0.297918 0.709058 0.763133
Si Si7 0.400457 0.289079 0.570197
Si Si8 0.169122 0.277525 0.814649
O O1 0.804832 0.277427 0.414960
O O2 0.729826 0.286092 0.310714
O O3 0.675986 0.279297 0.423665
O O4 0.737518 0.000000 0.383303
O O5 0.101367 0.280860 0.500000
O O6 0.081674 0.274464 0.633664
O O7 0.122286 0.000000 0.571063
O O8 0.500000 0.228350 0.259829
O O9 0.426643 0.500000 0.286735
O O10 0.368807 0.213095 0.245072
O O11 0.424316 0.215275 0.360476
O O12 0.933865 0.500000 0.272409
O O13 0.871972 0.783916 0.248146
O O14 0.000000 0.791450 0.273454
O O15 0.928634 0.500000 0.923802
O O16 0.872463 0.778373 0.876887
O O17 0.000000 0.776300 0.903922
O O18 0.919553 0.776038 0.000000
O O19 0.306361 0.500000 0.783000
O O20 0.241630 0.787005 0.807559
O O21 0.419568 0.210335 0.500000
O O22 0.419546 0.500000 0.569443
O O23 0.172255 0.500000 0.814303
#
# Coordination Sequence:
#
# PCOD9381728 Si02
#       8
#     8   8   8   8   8   8   8   8
#     4  10  18  29  44  60  79 102 132 171 214 257
#     4  10  21  34  45  57  76 104 136 173 218 260
#     4   8  14  24  38  57  80 103 130 168 210 251
#     4  10  20  32  46  63  81 103 133 171 215 255
#     4   8  13  21  35  59  92 125 148 165 197 248
#     4   9  16  27  44  63  82 105 135 170 210 245
#     4   9  17  27  40  58  77  99 129 165 210 261
#     4   9  15  25  42  62  86 112 139 172 205 242
#
# _framework density 20.140339000000001
#
# number of rings (size 3 to 8) (size 9 to 14) (size 15 to 20)
#    0.000    2.875    1.250    2.250    0.000    3.750 
#    0.000    2.500    0.000    6.000    0.000    3.500 
#    0.000    2.500    0.000   13.875    0.000    6.250 
#
# Total GULP energy -357046.786510 kJ/mol
# GULP energy per Si atom -5578.856039 kJ/mol
# Density = 2.009450 g / cm^3
# Si number density = 20.140339 Si / 1000 Ang^3
#
#
#
# Elastic Constant Matrix: (Units=GPa)
#
#
# Indices 1 2 3 4 5 6 
#
# 1 175.3812 5.3509 62.1901 0.0000 0.0000 0.0000
# 2 5.3509 75.0801 -5.2822 0.0000 0.0000 0.0000
# 3 62.1901 -5.2822 76.0919 0.0000 0.0000 0.0000
# 4 0.0000 0.0000 0.0000 44.4737 0.0000 0.0000
# 5 0.0000 0.0000 0.0000 0.0000 -1.8585 0.0000
# 6 0.0000 0.0000 0.0000 0.0000 0.0000 44.3232
#
#
#
# Elastic Compliance Matrix: (Units=1/GPa)
#
#
# Indices 1 2 3 4 5 6 
#
# 1 0.008110 -0.001049 -0.006701 0.000000 0.000000 0.000000
# 2 -0.001049 0.013520 0.001796 0.000000 0.000000 0.000000
# 3 -0.006701 0.001796 0.018744 0.000000 0.000000 0.000000
# 4 0.000000 0.000000 0.000000 0.022485 0.000000 0.000000
# 5 0.000000 0.000000 0.000000 0.000000 -0.538081 0.000000
# 6 0.000000 0.000000 0.000000 0.000000 0.000000 0.022562
#
#
# Mechanical properties :
#
#
# Convention : Reuss Voigt Hill
#
# Bulk Modulus (GPa) = 35.13068 50.11899 42.62484
# Shear Modulus (GPa) = -11.59386 35.00731 11.70673
#
# Velocity S-wave (km/s) = -2.40188 4.17366 2.41354
# Velocity P-wave (km/s) = 3.12870 6.94009 5.38301
#
# Compressibility (1/GPa) = 0.02846515
#
# Stress axis : x y z
#
# Youngs Moduli (GPa) = 123.30203 73.96297 53.35132
#
# Poissons Ratio (x) = 0.07762 0.35752
# Poissons Ratio (y) = 0.12940 -0.09583
# Poissons Ratio (z) = 0.82628 -0.13286
#
# Static dielectric constant tensor:
#      x y z
#    x 1.743770 0.000000 0.000000 
#    y 0.000000 1.786320 0.000000 
#    z 0.000000 0.000000 1.681900 
# 
# From -- ./inp_files/31499.got.cif
#   From: 2010.05.17/outbox.cif.g08.bks.cpg/sg47_16_cif.got.tgz:31499.got - 2010.06.03 20:15:42.
