data_PCOD9381878
_publ_section_title
;
Structure prediction by ZEFSAII (Michael W. Deem and Ramdas Pophale) SiO2 
 PCOD9381878
Probable space group: P M M M
;
_chemical_formula_sum "Si O2"
_cell_formula_units_Z 40
_cell_length_a 8.272233
_cell_length_b 21.088146
_cell_length_c 12.217551
_cell_angle_alpha 90.000000
_cell_angle_beta 90.000000
_cell_angle_gamma 90.000000
_cell_volume 2131.303601
_symmetry_space_group_name_H-M "P M M M"
_symmetry_group_IT_number 47
_symmetry_cell_setting 'orthorhombic'
loop_
_space_group_symop_operation_xyz
x,y,z
-x,-y,z
x,-y,-z
-x,y,-z
-x,-y,-z
x,y,-z
-x,y,z
x,-y,z
loop_
_atom_site_type_symbol
_atom_site_label
_atom_site_fract_x
_atom_site_fract_y
_atom_site_fract_z
Si Si1 0.303785 0.199212 0.727676
Si Si2 0.692346 0.569220 0.730959
Si Si3 0.312845 0.744544 0.500000
Si Si4 0.813595 0.607818 0.500000
Si Si5 0.696762 0.928227 0.626322
Si Si6 0.806846 0.311917 0.875130
O O1 0.500000 0.201762 0.732293
O O2 0.244506 0.230281 0.613521
O O3 0.254289 0.125808 0.712388
O O4 0.241083 0.244273 0.823149
O O5 0.500000 0.572426 0.713969
O O6 0.730722 0.500000 0.781424
O O7 0.776026 0.572527 0.612503
O O8 0.741872 0.629813 0.802449
O O9 0.500000 0.765140 0.500000
O O10 0.298271 0.669608 0.500000
O O11 0.000000 0.628112 0.500000
O O12 0.744040 0.912622 0.500000
O O13 0.500000 0.928566 0.625882
O O14 0.750786 0.000000 0.650150
O O15 0.000000 0.316324 0.874541
O O16 0.747927 0.316935 0.000000
#
# Coordination Sequence:
#
# PCOD9381878 Si02
#       6
#     8   8   4   4   8   8
#     4  10  18  31  55  83 112 145 181 223 272 326
#     4  11  24  41  61  84 111 143 179 222 272 328
#     4  10  18  29  50  82 114 144 179 222 270 324
#     4  12  23  35  56  86 119 150 179 214 265 326
#     4   8  13  23  44  79 118 148 174 210 263 324
#     4  11  25  42  58  78 105 140 185 235 283 330
#
# _framework density 18.767856999999999
#
# number of rings (size 3 to 8) (size 9 to 14) (size 15 to 20)
#    0.000    1.800    3.000    3.000    0.000    4.800 
#    0.000    2.000    0.000    1.200    0.000    5.600 
#    0.000    0.000    0.000    0.000    0.000    0.000 
#
# Total GULP energy -223096.938856 kJ/mol
# GULP energy per Si atom -5577.423471 kJ/mol
# Density = 1.872514 g / cm^3
# Si number density = 18.767857 Si / 1000 Ang^3
#
#
#
# Elastic Constant Matrix: (Units=GPa)
#
#
# Indices 1 2 3 4 5 6 
#
# 1 23.6373 3.3680 17.0751 0.0000 0.0000 0.0000
# 2 3.3680 132.2891 56.3621 0.0000 0.0000 0.0000
# 3 17.0751 56.3621 109.2040 0.0000 0.0000 0.0000
# 4 0.0000 0.0000 0.0000 -7.3687 0.0000 0.0000
# 5 0.0000 0.0000 0.0000 0.0000 22.5635 0.0000
# 6 0.0000 0.0000 0.0000 0.0000 0.0000 -13.2391
#
#
#
# Elastic Compliance Matrix: (Units=1/GPa)
#
#
# Indices 1 2 3 4 5 6 
#
# 1 0.048356 0.002551 -0.008878 0.000000 0.000000 0.000000
# 2 0.002551 0.009825 -0.005470 0.000000 0.000000 0.000000
# 3 -0.008878 -0.005470 0.013368 0.000000 0.000000 0.000000
# 4 0.000000 0.000000 0.000000 -0.135710 0.000000 0.000000
# 5 0.000000 0.000000 0.000000 0.000000 0.044319 0.000000
# 6 0.000000 0.000000 0.000000 0.000000 0.000000 -0.075534
#
#
# Mechanical properties :
#
#
# Convention : Reuss Voigt Hill
#
# Bulk Modulus (GPa) = 20.85223 46.52673 33.68948
# Shear Modulus (GPa) = -89.60723 12.94618 -38.33053
#
# Velocity S-wave (km/s) = -6.91728 2.62926 -4.52414
# Velocity P-wave (km/s) = 7.25696 5.83625 3.04973
#
# Compressibility (1/GPa) = 0.04795651
#
# Stress axis : x y z
#
# Youngs Moduli (GPa) = 20.68017 101.78576 74.80450
#
# Poissons Ratio (x) = -0.25968 0.66408
# Poissons Ratio (y) = -0.05276 0.40915
# Poissons Ratio (z) = 0.18359 0.55672
#
# Static dielectric constant tensor:
#      x y z
#    x 1.660000 0.000000 0.000000 
#    y 0.000000 1.680650 0.000000 
#    z 0.000000 0.000000 1.636580 
# 
# From -- ./inp_files/21263.got.cif
#   From: 2010.05.17/outbox.cif.g08.bks.cpg/sg47_11_cif.got.tgz:21263.got - 2010.06.03 20:15:42.
