data_PCOD9381738
_publ_section_title
;
Structure prediction by ZEFSAII (Michael W. Deem and Ramdas Pophale) SiO2 
 PCOD9381738
Probable space group: P M M M
;
_chemical_formula_sum "Si O2"
_cell_formula_units_Z 56
_cell_length_a 7.534456
_cell_length_b 32.689231
_cell_length_c 12.338659
_cell_angle_alpha 90.000000
_cell_angle_beta 90.000000
_cell_angle_gamma 90.000000
_cell_volume 3038.957084
_symmetry_space_group_name_H-M "P M M M"
_symmetry_group_IT_number 47
_symmetry_cell_setting 'orthorhombic'
loop_
_space_group_symop_operation_xyz
x,y,z
-x,-y,z
x,-y,-z
-x,y,-z
-x,-y,-z
x,y,-z
-x,y,z
x,-y,z
loop_
_atom_site_type_symbol
_atom_site_label
_atom_site_fract_x
_atom_site_fract_y
_atom_site_fract_z
Si Si1 0.212366 0.043976 0.625166
Si Si2 0.782650 0.377864 0.375652
Si Si3 0.210419 0.699155 0.764742
Si Si4 0.216822 0.546102 0.230385
Si Si5 0.713855 0.221443 0.625281
Si Si6 0.287990 0.132009 0.375890
Si Si7 0.783074 0.322576 0.000000
Si Si8 0.783888 0.418087 0.000000
O O1 0.279147 0.045355 0.500000
O O2 0.251779 0.088003 0.677233
O O3 0.000000 0.042191 0.620357
O O4 0.273989 0.000000 0.671360
O O5 0.725205 0.375749 0.500000
O O6 0.720550 0.338647 0.307068
O O7 0.727653 0.419444 0.315751
O O8 0.000000 0.377376 0.375943
O O9 0.234843 0.741504 0.702188
O O10 0.279333 0.697509 0.887729
O O11 0.000000 0.692050 0.773047
O O12 0.274401 0.500000 0.254850
O O13 0.273329 0.559823 0.110040
O O14 0.000000 0.546144 0.230203
O O15 0.774411 0.227191 0.500000
O O16 0.500000 0.221184 0.621832
O O17 0.774047 0.176309 0.665421
O O18 0.218982 0.129690 0.500000
O O19 0.500000 0.134567 0.381330
O O20 0.732833 0.370464 0.000000
O O21 0.000000 0.321092 0.000000
O O22 0.000000 0.418774 0.000000
#
# Coordination Sequence:
#
# PCOD9381738 Si02
#       8
#     8   8   8   8   8   8   4   4
#     4   8  13  20  30  47  73 104 138 176 212 241
#     4   9  16  24  34  51  76 104 134 167 202 244
#     4  10  18  29  45  63  81 106 141 175 210 255
#     4   9  15  21  31  48  72 104 137 165 198 245
#     4   9  18  31  44  60  85 113 140 176 219 256
#     4   8  14  24  36  50  71 102 138 172 207 247
#     4   9  16  27  43  60  81 106 133 173 218 251
#     4   9  13  22  35  49  71 102 136 167 201 243
#
# _framework density 18.427375999999999
#
# number of rings (size 3 to 8) (size 9 to 14) (size 15 to 20)
#    0.000    3.143    1.429    1.929    0.000    2.857 
#    0.000    4.643    0.000    0.000    0.000    0.000 
#    0.000    0.571    0.000    4.929    0.000   17.143 
#
# Total GULP energy -311889.578931 kJ/mol
# GULP energy per Si atom -5569.456767 kJ/mol
# Density = 1.838543 g / cm^3
# Si number density = 18.427376 Si / 1000 Ang^3
#
#
#
# Elastic Constant Matrix: (Units=GPa)
#
#
# Indices 1 2 3 4 5 6 
#
# 1 41.3437 0.9781 7.3295 0.0000 0.0000 0.0000
# 2 0.9781 207.2997 90.1777 0.0000 0.0000 0.0000
# 3 7.3295 90.1777 117.7455 0.0000 0.0000 0.0000
# 4 0.0000 0.0000 0.0000 2.5912 0.0000 0.0000
# 5 0.0000 0.0000 0.0000 0.0000 -3.1264 0.0000
# 6 0.0000 0.0000 0.0000 0.0000 0.0000 27.9350
#
#
#
# Elastic Compliance Matrix: (Units=1/GPa)
#
#
# Indices 1 2 3 4 5 6 
#
# 1 0.024551 0.000823 -0.002159 0.000000 0.000000 0.000000
# 2 0.000823 0.007262 -0.005613 0.000000 0.000000 0.000000
# 3 -0.002159 -0.005613 0.012926 0.000000 0.000000 0.000000
# 4 0.000000 0.000000 0.000000 0.385915 0.000000 0.000000
# 5 0.000000 0.000000 0.000000 0.000000 -0.319853 0.000000
# 6 0.000000 0.000000 0.000000 0.000000 0.000000 0.035797
#
#
# Mechanical properties :
#
#
# Convention : Reuss Voigt Hill
#
# Bulk Modulus (GPa) = 32.42353 62.59549 47.50951
# Shear Modulus (GPa) = 29.27844 23.34020 26.30932
#
# Velocity S-wave (km/s) = 3.99037 3.56280 3.78263
# Velocity P-wave (km/s) = 6.23412 7.13913 6.70192
#
# Compressibility (1/GPa) = 0.03084180
#
# Stress axis : x y z
#
# Youngs Moduli (GPa) = 40.73204 137.70987 77.36421
#
# Poissons Ratio (x) = -0.11337 0.16701
# Poissons Ratio (y) = -0.03353 0.43422
# Poissons Ratio (z) = 0.08793 0.77293
#
# Static dielectric constant tensor:
#      x y z
#    x 1.711760 0.000000 0.000000 
#    y 0.000000 1.680700 0.000000 
#    z 0.000000 0.000000 1.601150 
# 
# From -- ./inp_files/16769.got.cif
#   From: 2010.05.17/outbox.cif.g08.bks.cpg/sg47_9_cif.got.tgz:16769.got - 2010.06.03 20:15:42.
