data_PCOD9381482
_publ_section_title
;
Structure prediction by ZEFSAII (Michael W. Deem and Ramdas Pophale) SiO2 
 PCOD9381482
Probable space group: P M M M
;
_chemical_formula_sum "Si O2"
_cell_formula_units_Z 52
_cell_length_a 12.755680
_cell_length_b 16.835347
_cell_length_c 14.575716
_cell_angle_alpha 90.000000
_cell_angle_beta 90.000000
_cell_angle_gamma 90.000000
_cell_volume 3130.081067
_symmetry_space_group_name_H-M "P M M M"
_symmetry_group_IT_number 47
_symmetry_cell_setting 'orthorhombic'
loop_
_space_group_symop_operation_xyz
x,y,z
-x,-y,z
x,-y,-z
-x,y,-z
-x,-y,-z
x,y,-z
-x,y,z
x,-y,z
loop_
_atom_site_type_symbol
_atom_site_label
_atom_site_fract_x
_atom_site_fract_y
_atom_site_fract_z
Si Si1 0.121198 0.641281 0.704565
Si Si2 0.319397 0.413357 0.608923
Si Si3 0.380448 0.237135 0.609745
Si Si4 0.877047 0.595466 0.902413
Si Si5 0.126006 0.094343 0.106260
Si Si6 0.818692 0.822443 0.710927
Si Si7 0.000000 0.093975 0.602778
O O1 0.196931 0.598939 0.632776
O O2 0.166496 0.623089 0.806004
O O3 0.129588 0.735765 0.697287
O O4 0.000000 0.615601 0.698206
O O5 0.335580 0.415786 0.500000
O O6 0.353761 0.500000 0.645776
O O7 0.370896 0.330223 0.639498
O O8 0.356570 0.233917 0.500000
O O9 0.500000 0.211133 0.622800
O O10 0.295612 0.186817 0.665942
O O11 0.874459 0.500000 0.902238
O O12 0.000000 0.619349 0.901809
O O13 0.831668 0.623357 0.000000
O O14 0.179911 0.148027 0.183823
O O15 0.000000 0.105361 0.115840
O O16 0.146660 0.000000 0.120821
O O17 0.152842 0.113202 0.000000
O O18 0.896089 0.880140 0.656287
O O19 0.000000 0.128734 0.500000
O O20 0.000000 0.000000 0.597194
#
# Coordination Sequence:
#
# PCOD9381482 Si02
#       7
#     8   8   8   8   8   8   4
#     4  10  18  27  39  63  95 129 159 194 245 299
#     4   9  18  30  44  65  91 123 165 208 248 291
#     4   9  19  35  53  72  96 130 172 218 262 298
#     4   8  14  24  37  53  79 119 161 195 227 270
#     4   9  17  30  50  76 106 137 165 195 236 292
#     4  11  19  32  50  75 102 131 167 206 250 298
#     4  11  22  34  51  75 102 133 163 193 237 298
#
# _framework density 16.612988999999999
#
# number of rings (size 3 to 8) (size 9 to 14) (size 15 to 20)
#    0.000    2.538    1.538    2.308    0.000    2.769 
#    0.000    3.846    0.000    2.308    0.000    6.462 
#    0.000    0.000    0.000   16.308    0.000    0.923 
#
# Total GULP energy -289485.154413 kJ/mol
# GULP energy per Si atom -5567.022200 kJ/mol
# Density = 1.657518 g / cm^3
# Si number density = 16.612989 Si / 1000 Ang^3
#
#
#
# Elastic Constant Matrix: (Units=GPa)
#
#
# Indices 1 2 3 4 5 6 
#
# 1 74.2179 19.2243 29.6708 0.0000 0.0000 0.0000
# 2 19.2243 51.7859 22.8294 0.0000 0.0000 0.0000
# 3 29.6708 22.8294 54.5154 0.0000 0.0000 0.0000
# 4 0.0000 0.0000 0.0000 27.2734 0.0000 0.0000
# 5 0.0000 0.0000 0.0000 0.0000 8.6652 0.0000
# 6 0.0000 0.0000 0.0000 0.0000 0.0000 -527.9109
#
#
#
# Elastic Compliance Matrix: (Units=1/GPa)
#
#
# Indices 1 2 3 4 5 6 
#
# 1 0.017552 -0.002826 -0.008369 0.000000 0.000000 0.000000
# 2 -0.002826 0.024137 -0.008570 0.000000 0.000000 0.000000
# 3 -0.008369 -0.008570 0.026487 0.000000 0.000000 0.000000
# 4 0.000000 0.000000 0.000000 0.036666 0.000000 0.000000
# 5 0.000000 0.000000 0.000000 0.000000 0.115404 0.000000
# 6 0.000000 0.000000 0.000000 0.000000 0.000000 -0.001894
#
#
# Mechanical properties :
#
#
# Convention : Reuss Voigt Hill
#
# Bulk Modulus (GPa) = 34.90898 35.99646 35.45272
# Shear Modulus (GPa) = 18.69642 -91.14148 -36.22253
#
# Velocity S-wave (km/s) = 3.35835 -7.41490 -4.67451
# Velocity P-wave (km/s) = 6.00805 7.18282 2.78354
#
# Compressibility (1/GPa) = 0.02864593
#
# Stress axis : x y z
#
# Youngs Moduli (GPa) = 56.97431 41.42954 37.75395
#
# Poissons Ratio (x) = 0.11709 0.31597
# Poissons Ratio (y) = 0.16102 0.32354
# Poissons Ratio (z) = 0.47683 0.35504
#
# Static dielectric constant tensor:
#      x y z
#    x 1.548980 0.000000 0.000000 
#    y 0.000000 1.579060 0.000000 
#    z 0.000000 0.000000 1.601500 
# 
# From -- ./inp_files/22793.got.cif
#   From: 2010.05.17/outbox.cif.g08.bks.cpg/sg47_12_cif.got.tgz:22793.got - 2010.06.03 20:15:42.
