data_PCOD9381215
_publ_section_title
;
Structure prediction by ZEFSAII (Michael W. Deem and Ramdas Pophale) SiO2 
 PCOD9381215
Probable space group: P M M M
;
_chemical_formula_sum "Si O2"
_cell_formula_units_Z 64
_cell_length_a 7.725936
_cell_length_b 22.463881
_cell_length_c 19.275658
_cell_angle_alpha 90.000000
_cell_angle_beta 90.000000
_cell_angle_gamma 90.000000
_cell_volume 3345.377320
_symmetry_space_group_name_H-M "P M M M"
_symmetry_group_IT_number 47
_symmetry_cell_setting 'orthorhombic'
loop_
_space_group_symop_operation_xyz
x,y,z
-x,-y,z
x,-y,-z
-x,y,-z
-x,-y,-z
x,y,-z
-x,y,z
x,-y,z
loop_
_atom_site_type_symbol
_atom_site_label
_atom_site_fract_x
_atom_site_fract_y
_atom_site_fract_z
Si Si1 0.703696 0.278244 0.577233
Si Si2 0.294526 0.174342 0.327009
Si Si3 0.801065 0.412917 0.575783
Si Si4 0.711434 0.068250 0.578890
Si Si5 0.799239 0.265019 0.774484
Si Si6 0.209526 0.435044 0.876177
Si Si7 0.212074 0.393632 0.723855
Si Si8 0.702422 0.306473 0.924819
O O1 0.711648 0.252804 0.500000
O O2 0.500000 0.290414 0.591629
O O3 0.776425 0.229225 0.627998
O O4 0.798060 0.341020 0.577307
O O5 0.500000 0.172727 0.339040
O O6 0.228484 0.113249 0.360713
O O7 0.270607 0.201098 0.250326
O O8 0.723723 0.429717 0.500000
O O9 0.725993 0.424526 0.652515
O O10 0.000000 0.433268 0.575008
O O11 0.761450 0.086454 0.500000
O O12 0.500000 0.067645 0.579430
O O13 0.767510 0.000000 0.589730
O O14 0.726299 0.324852 0.735876
O O15 0.779844 0.277285 0.856068
O O16 0.000000 0.264717 0.758069
O O17 0.265633 0.500000 0.901044
O O18 0.256698 0.426903 0.794942
O O19 0.277881 0.377598 0.915622
O O20 0.000000 0.432440 0.880009
O O21 0.000000 0.392610 0.720040
O O22 0.500000 0.292118 0.924095
O O23 0.775941 0.289369 0.000000
#
# Coordination Sequence:
#
# PCOD9381215 Si02
#       8
#     8   8   8   8   8   8   8   8
#     4   9  16  23  32  52  82 111 141 181 228 272
#     4  10  17  25  41  64  90 120 158 204 244 276
#     4   9  15  23  36  53  76 107 143 182 223 267
#     4   8  14  25  41  62  91 131 178 220 252 282
#     4  10  19  31  47  67  92 122 153 184 226 283
#     4   9  18  32  50  70  92 123 160 192 222 265
#     4   8  14  26  41  58  82 112 146 185 226 266
#     4  10  21  36  53  73  98 123 145 179 228 276
#
# _framework density 19.130876000000001
#
# number of rings (size 3 to 8) (size 9 to 14) (size 15 to 20)
#    0.000    2.875    1.250    2.250    0.000    3.000 
#    0.000    1.250    0.000    1.875    0.000    3.500 
#    0.000    0.500    0.000   12.125    0.000    9.125 
#
# Total GULP energy -356502.206502 kJ/mol
# GULP energy per Si atom -5570.346977 kJ/mol
# Density = 1.908733 g / cm^3
# Si number density = 19.130876 Si / 1000 Ang^3
#
#
#
# Elastic Constant Matrix: (Units=GPa)
#
#
# Indices 1 2 3 4 5 6 
#
# 1 34.4402 6.1650 4.9352 0.0000 0.0000 0.0000
# 2 6.1650 100.2567 34.2748 0.0000 0.0000 0.0000
# 3 4.9352 34.2748 112.5391 0.0000 0.0000 0.0000
# 4 0.0000 0.0000 0.0000 -1.0267 0.0000 0.0000
# 5 0.0000 0.0000 0.0000 0.0000 9.4958 0.0000
# 6 0.0000 0.0000 0.0000 0.0000 0.0000 -35.0498
#
#
#
# Elastic Compliance Matrix: (Units=1/GPa)
#
#
# Indices 1 2 3 4 5 6 
#
# 1 0.029428 -0.001527 -0.000825 0.000000 0.000000 0.000000
# 2 -0.001527 0.011213 -0.003348 0.000000 0.000000 0.000000
# 3 -0.000825 -0.003348 0.009942 0.000000 0.000000 0.000000
# 4 0.000000 0.000000 0.000000 -0.974032 0.000000 0.000000
# 5 0.000000 0.000000 0.000000 0.000000 0.105310 0.000000
# 6 0.000000 0.000000 0.000000 0.000000 0.000000 -0.028531
#
#
# Mechanical properties :
#
#
# Convention : Reuss Voigt Hill
#
# Bulk Modulus (GPa) = 25.52282 37.55400 31.53841
# Shear Modulus (GPa) = -6.08117 8.14127 1.03005
#
# Velocity S-wave (km/s) = -1.78483 2.06514 0.73457
# Velocity P-wave (km/s) = 3.02037 5.03578 4.15221
#
# Compressibility (1/GPa) = 0.03918063
#
# Stress axis : x y z
#
# Youngs Moduli (GPa) = 33.98179 89.18295 100.58681
#
# Poissons Ratio (x) = 0.13622 0.08301
# Poissons Ratio (y) = 0.05190 0.33677
# Poissons Ratio (z) = 0.02805 0.29859
#
# Static dielectric constant tensor:
#      x y z
#    x 1.724680 0.000000 0.000000 
#    y 0.000000 1.673450 0.000000 
#    z 0.000000 0.000000 1.749880 
# 
# From -- ./inp_files/30215.got.cif
#   From: 2010.05.17/outbox.cif.g08.bks.cpg/sg47_16_cif.got.tgz:30215.got - 2010.06.03 20:15:42.
