data_PCOD9381009
_publ_section_title
;
Structure prediction by ZEFSAII (Michael W. Deem and Ramdas Pophale) SiO2 
 PCOD9381009
Probable space group: I M A 2
;
_chemical_formula_sum "Si O2"
_cell_formula_units_Z 32
_cell_length_a 20.785991
_cell_length_b 10.586903
_cell_length_c 5.251606
_cell_angle_alpha 90.000000
_cell_angle_beta 90.000000
_cell_angle_gamma 90.000000
_cell_volume 1155.664585
_symmetry_space_group_name_H-M "I M A 2"
_symmetry_group_IT_number 46
_symmetry_cell_setting 'orthorhombic'
loop_
_space_group_symop_operation_xyz
x,y,z
-x,-y,z
1/2-x,y,z
1/2+x,-y,z
1/2+x,1/2+y,1/2+z
1/2-x,1/2-y,1/2+z
-x,1/2+y,1/2+z
x,1/2-y,1/2+z
loop_
_atom_site_type_symbol
_atom_site_label
_atom_site_fract_x
_atom_site_fract_y
_atom_site_fract_z
Si Si1 0.599359 0.107569 0.015110
Si Si2 0.030082 0.122442 0.193593
Si Si3 0.174856 0.571887 0.036271
Si Si4 0.350164 0.205653 0.755304
O O1 0.643998 0.093771 0.261795
O O2 0.533781 0.183021 0.074792
O O3 0.568985 0.965092 0.991229
O O4 0.637691 0.143461 0.763934
O O5 0.080582 0.220470 0.308915
O O6 0.000000 0.000000 0.355981
O O7 0.250000 0.601197 0.036461
O O8 0.162473 0.427699 0.120662
O O9 0.321057 0.203441 0.036960
#
# Coordination Sequence:
#
# PCOD9381009 Si02
#       4
#     8   8   8   8
#     4   9  21  37  53  75 102 157 179 218 257 303
#     4   8  18  36  54  67 106 144 184 226 249 310
#     4  12  22  36  53  80 118 146 174 206 264 337
#     4  12  20  34  50  79 107 143 178 217 264 311
#
# _framework density 27.689696000000001
#
# number of rings (size 3 to 8) (size 9 to 14) (size 15 to 20)
#    1.500    0.000    5.000    0.750    0.000    7.000 
#    0.000    0.000    0.000    0.000    0.000    0.000 
#    0.000   20.000    0.000    0.000    0.000    0.000 
#
# Total GULP energy -89283.715176 kJ/mol
# GULP energy per Si atom -5580.232198 kJ/mol
# Density = 2.762667 g / cm^3
# Si number density = 27.689696 Si / 1000 Ang^3
#
#
#
# Elastic Constant Matrix: (Units=GPa)
#
#
# Indices 1 2 3 4 5 6 
#
# 1 263.2830 13.5452 70.3311 0.0000 0.0000 0.0000
# 2 13.5452 115.8988 -8.7833 0.0000 0.0000 0.0000
# 3 70.3311 -8.7833 183.3092 0.0000 0.0000 0.0000
# 4 0.0000 0.0000 0.0000 -29.7766 0.0000 0.0000
# 5 0.0000 0.0000 0.0000 0.0000 2.5486 0.0000
# 6 0.0000 0.0000 0.0000 0.0000 0.0000 17.3363
#
#
#
# Elastic Compliance Matrix: (Units=1/GPa)
#
#
# Indices 1 2 3 4 5 6 
#
# 1 0.004277 -0.000626 -0.001671 0.000000 0.000000 0.000000
# 2 -0.000626 0.008751 0.000660 0.000000 0.000000 0.000000
# 3 -0.001671 0.000660 0.006128 0.000000 0.000000 0.000000
# 4 0.000000 0.000000 0.000000 -0.033583 0.000000 0.000000
# 5 0.000000 0.000000 0.000000 0.000000 0.392369 0.000000
# 6 0.000000 0.000000 0.000000 0.000000 0.000000 0.057682
#
#
# Mechanical properties :
#
#
# Convention : Reuss Voigt Hill
#
# Bulk Modulus (GPa) = 62.96916 79.18633 71.07774
# Shear Modulus (GPa) = 11.25637 30.51487 20.88562
#
# Velocity S-wave (km/s) = 2.01842 3.32328 2.74938
# Velocity P-wave (km/s) = 5.31247 6.58677 5.98364
#
# Compressibility (1/GPa) = 0.01588079
#
# Stress axis : x y z
#
# Youngs Moduli (GPa) = 233.82105 114.26708 163.18650
#
# Poissons Ratio (x) = 0.07158 0.27267
# Poissons Ratio (y) = 0.14648 -0.10765
# Poissons Ratio (z) = 0.39069 -0.07538
#
# Static dielectric constant tensor:
#      x y z
#    x 2.264660 0.000000 0.000000 
#    y 0.000000 2.344030 0.000000 
#    z 0.000000 0.000000 2.227760 
# 
# From -- ./inp_files/1970.got.cif
#   From: 2010.05.17/outbox.cif.g08.bks.cpg/sg46_1_cif.got.tgz:1970.got - 2010.06.03 19:58:25.
