data_PCOD9381574
_publ_section_title
;
Structure prediction by ZEFSAII (Michael W. Deem and Ramdas Pophale) SiO2 
 PCOD9381574
Probable space group: P M M M
;
_chemical_formula_sum "Si O2"
_cell_formula_units_Z 48
_cell_length_a 17.256859
_cell_length_b 9.258670
_cell_length_c 24.047793
_cell_angle_alpha 90.000000
_cell_angle_beta 90.000000
_cell_angle_gamma 90.000000
_cell_volume 3842.249659
_symmetry_space_group_name_H-M "P M M M"
_symmetry_group_IT_number 47
_symmetry_cell_setting 'orthorhombic'
loop_
_space_group_symop_operation_xyz
x,y,z
-x,-y,z
x,-y,-z
-x,y,-z
-x,-y,-z
x,y,-z
-x,y,z
x,-y,z
loop_
_atom_site_type_symbol
_atom_site_label
_atom_site_fract_x
_atom_site_fract_y
_atom_site_fract_z
Si Si1 0.810499 0.825547 0.893030
Si Si2 0.911946 0.175238 0.000000
Si Si3 0.500000 0.833486 0.067455
Si Si4 0.341924 0.328035 0.066745
Si Si5 0.909540 0.173019 0.784155
Si Si6 0.905700 0.334345 0.328655
Si Si7 0.094165 0.831402 0.561684
O O1 0.865392 0.783609 0.944845
O O2 0.729654 0.744940 0.901702
O O3 0.855236 0.790249 0.836148
O O4 0.799167 0.000000 0.895157
O O5 0.000000 0.228977 0.000000
O O6 0.915251 0.000000 0.000000
O O7 0.577718 0.748418 0.083517
O O8 0.500000 0.000000 0.086493
O O9 0.500000 0.836080 0.000000
O O10 0.345409 0.500000 0.075660
O O11 0.331233 0.304168 0.000000
O O12 0.884474 0.249187 0.727187
O O13 0.000000 0.211077 0.795674
O O14 0.907189 0.000000 0.776606
O O15 0.880864 0.500000 0.326031
O O16 0.878435 0.259062 0.385493
O O17 0.000000 0.331933 0.330250
O O18 0.119084 0.781666 0.500000
O O19 0.000000 0.825385 0.561869
O O20 0.114809 0.000000 0.567888
#
# Coordination Sequence:
#
# PCOD9381574 Si02
#       7
#     8   4   4   8   8   8   8
#     4  10  18  28  43  59  74  94 124 159 192 227
#     4   9  16  26  41  58  73  90 119 161 200 229
#     4   9  17  29  47  65  79  95 117 141 170 213
#     4  10  19  30  43  60  82 101 116 139 180 229
#     4   9  17  28  40  53  69  93 127 163 196 227
#     4   9  16  24  34  48  66  89 116 148 186 225
#     4   8  13  21  33  48  65  85 109 140 180 222
#
# _framework density 12.492682
#
# number of rings (size 3 to 8) (size 9 to 14) (size 15 to 20)
#    0.000    2.833    0.833    2.250    0.000    6.667 
#    0.000    1.667    0.000    2.000    0.000    0.000 
#    0.000    0.000    0.000    0.000    0.000    0.000 
#
# Total GULP energy -267276.510851 kJ/mol
# GULP energy per Si atom -5568.260643 kJ/mol
# Density = 1.246425 g / cm^3
# Si number density = 12.492682 Si / 1000 Ang^3
#
#
#
# Elastic Constant Matrix: (Units=GPa)
#
#
# Indices 1 2 3 4 5 6 
#
# 1 77.1070 40.4755 45.4542 0.0000 0.0000 0.0000
# 2 40.4755 55.6932 54.7120 0.0000 0.0000 0.0000
# 3 45.4542 54.7120 112.5420 0.0000 0.0000 0.0000
# 4 0.0000 0.0000 0.0000 10.8153 0.0000 0.0000
# 5 0.0000 0.0000 0.0000 0.0000 1.7449 0.0000
# 6 0.0000 0.0000 0.0000 0.0000 0.0000 10.9746
#
#
#
# Elastic Compliance Matrix: (Units=1/GPa)
#
#
# Indices 1 2 3 4 5 6 
#
# 1 0.021213 -0.013400 -0.002054 0.000000 0.000000 0.000000
# 2 -0.013400 0.042834 -0.015412 0.000000 0.000000 0.000000
# 3 -0.002054 -0.015412 0.017207 0.000000 0.000000 0.000000
# 4 0.000000 0.000000 0.000000 0.092461 0.000000 0.000000
# 5 0.000000 0.000000 0.000000 0.000000 0.573106 0.000000
# 6 0.000000 0.000000 0.000000 0.000000 0.000000 0.091120
#
#
# Mechanical properties :
#
#
# Convention : Reuss Voigt Hill
#
# Bulk Modulus (GPa) = 51.21667 58.51396 54.86532
# Shear Modulus (GPa) = 5.51767 11.68698 8.60232
#
# Velocity S-wave (km/s) = 2.10388 3.06192 2.62694
# Velocity P-wave (km/s) = 6.85479 7.70978 7.29482
#
# Compressibility (1/GPa) = 0.01952489
#
# Stress axis : x y z
#
# Youngs Moduli (GPa) = 47.13999 23.34595 58.11460
#
# Poissons Ratio (x) = 0.31283 0.11935
# Poissons Ratio (y) = 0.63166 0.89565
# Poissons Ratio (z) = 0.09681 0.35980
#
# Static dielectric constant tensor:
#      x y z
#    x 1.378770 0.000000 0.000000 
#    y 0.000000 1.414770 0.000000 
#    z 0.000000 0.000000 1.402010 
# 
# From -- ./inp_files/31254.got.cif
#   From: 2010.05.17/outbox.cif.g08.bks.cpg/sg47_16_cif.got.tgz:31254.got - 2010.06.03 20:15:42.
