data_PCOD9381113
_publ_section_title
;
Structure prediction by ZEFSAII (Michael W. Deem and Ramdas Pophale) SiO2 
 PCOD9381113
Probable space group: I M A 2
;
_chemical_formula_sum "Si O2"
_cell_formula_units_Z 24
_cell_length_a 9.000000
_cell_length_b 24.000000
_cell_length_c 12.000000
_cell_angle_alpha 90.000000
_cell_angle_beta 90.000000
_cell_angle_gamma 90.000000
_cell_volume 2592.000000
_symmetry_space_group_name_H-M "I M A 2"
_symmetry_group_IT_number 46
_symmetry_cell_setting 'orthorhombic'
loop_
_space_group_symop_operation_xyz
x,y,z
-x,-y,z
1/2-x,y,z
1/2+x,-y,z
1/2+x,1/2+y,1/2+z
1/2-x,1/2-y,1/2+z
-x,1/2+y,1/2+z
x,1/2-y,1/2+z
loop_
_atom_site_type_symbol
_atom_site_label
_atom_site_fract_x
_atom_site_fract_y
_atom_site_fract_z
Si Si1 0.416000 0.666523 0.855230
Si Si2 0.417675 0.842457 0.755012
Si Si3 0.582092 0.729697 0.433136
Si Si4 0.591709 0.268583 0.625514
Si Si5 0.924368 0.944404 0.652613
Si Si6 0.073121 0.056760 0.391099
O O1 0.250000 0.658919 0.902604
O O2 0.518469 0.707866 0.925757
O O3 0.401798 0.698083 0.739068
O O4 0.497101 0.609048 0.835435
O O5 0.250000 0.861875 0.772614
O O6 0.481396 0.810203 0.860101
O O7 0.416610 0.795695 0.659485
O O8 0.521741 0.892071 0.720371
O O9 0.750000 0.727503 0.396076
O O10 0.552374 0.713229 0.559327
O O11 0.750000 0.277501 0.564072
O O12 0.750000 0.950805 0.657119
O O13 0.965689 0.937275 0.522576
O O14 0.000000 0.000000 0.695356
O O15 0.250000 0.056002 0.379746
O O16 0.000000 0.000000 0.350784
#
# Coordination Sequence:
#
# PCOD9381113 Si02
#       6
#     8   8   8   8   8   8
#     4  10  20  34  52  73 100 133 167 204 246 293
#     4  10  20  34  52  73 100 133 166 203 246 293
#     4  11  21  32  50  75 102 131 164 204 248 295
#     4   9  19  34  51  72  99 132 166 201 246 295
#     4  10  20  33  50  74 102 132 166 203 245 292
#     4  10  20  33  51  75 103 133 165 203 245 292
#
# _framework density 9.2592590000000001
#
# number of rings (size 3 to 8) (size 9 to 14) (size 15 to 20)
#    0.000    2.000    0.000    5.500    0.000    8.667 
#    0.000    0.000    0.000    1.000    0.000    2.333 
#    0.000    0.000    0.000    0.000    0.000    0.000 
#
# Total GULP energy -133664.946900 kJ/mol
# GULP energy per Si atom -5569.372788 kJ/mol
# Density = 0.923818 g / cm^3
# Si number density = 9.259259 Si / 1000 Ang^3
#
#
#
# Elastic Constant Matrix: (Units=GPa)
#
#
# Indices 1 2 3 4 5 6 
#
# 1 -36.3619 -11.9996 17.8943 0.0001 0.0000 0.0000
# 2 -11.9996 90.2278 15.4391 0.0000 0.0000 0.0000
# 3 17.8943 15.4391 27.1427 0.0000 0.0000 -0.0001
# 4 0.0001 0.0000 0.0000 -29.3640 0.0000 0.0001
# 5 0.0000 0.0000 0.0000 0.0000 18.6514 0.0000
# 6 0.0000 0.0000 -0.0001 0.0001 0.0000 -17.4596
#
#
#
# Elastic Compliance Matrix: (Units=1/GPa)
#
#
# Indices 1 2 3 4 5 6 
#
# 1 -0.018451 -0.005024 0.015022 0.000000 0.000000 0.000000
# 2 -0.005024 0.010910 -0.002893 0.000000 0.000000 0.000000
# 3 0.015022 -0.002893 0.028585 0.000000 0.000000 0.000000
# 4 0.000000 0.000000 0.000000 -0.034055 0.000000 0.000000
# 5 0.000000 0.000000 0.000000 0.000000 0.053615 0.000000
# 6 0.000000 0.000000 0.000000 0.000000 0.000000 -0.057275
#
#
# Mechanical properties :
#
#
# Convention : Reuss Voigt Hill
#
# Bulk Modulus (GPa) = 28.36694 13.74180 21.05437
# Shear Modulus (GPa) = -261.38342 -1.65611 -131.51976
#
# Velocity S-wave (km/s) = -11.89342 -0.94670 -8.43652
# Velocity P-wave (km/s) = 13.16257 2.49834 9.13815
#
# Compressibility (1/GPa) = 0.03525231
#
# Stress axis : x y z
#
# Youngs Moduli (GPa) = -54.19829 91.65932 34.98376
#
# Poissons Ratio (x) = 0.46052 -0.52552
# Poissons Ratio (y) = -0.27231 0.10122
# Poissons Ratio (z) = 0.81416 0.26521
#
# Static dielectric constant tensor:
#      x y z
#    x 1.654680 0.000000 0.000000 
#    y 0.000000 1.587350 0.000000 
#    z 0.000000 0.000000 1.690980 
# 
# From -- ./inp_files/9284.got.cif
#   From: 2010.05.17/outbox.ucp.g08.bks.cvg/sg46_5_cif.got.tgz:9284.got - 2010.06.11 16:34:52.
