data_PCOD9381689
_publ_section_title
;
Structure prediction by ZEFSAII (Michael W. Deem and Ramdas Pophale) SiO2 
 PCOD9381689
Probable space group: P M M M
;
_chemical_formula_sum "Si O2"
_cell_formula_units_Z 40
_cell_length_a 8.751290
_cell_length_b 12.947468
_cell_length_c 20.503747
_cell_angle_alpha 90.000000
_cell_angle_beta 90.000000
_cell_angle_gamma 90.000000
_cell_volume 2323.219030
_symmetry_space_group_name_H-M "P M M M"
_symmetry_group_IT_number 47
_symmetry_cell_setting 'orthorhombic'
loop_
_space_group_symop_operation_xyz
x,y,z
-x,-y,z
x,-y,-z
-x,y,-z
-x,-y,-z
x,y,-z
-x,y,z
x,-y,z
loop_
_atom_site_type_symbol
_atom_site_label
_atom_site_fract_x
_atom_site_fract_y
_atom_site_fract_z
Si Si1 0.815845 0.786903 0.257242
Si Si2 0.676596 0.625327 0.500000
Si Si3 0.317126 0.380807 0.000000
Si Si4 0.184340 0.227099 0.895856
Si Si5 0.184015 0.381245 0.362972
Si Si6 0.183931 0.000000 0.103601
Si Si7 0.318355 0.000000 0.750854
O O1 0.776887 0.766971 0.181119
O O2 0.770412 0.692809 0.303786
O O3 0.000000 0.799380 0.259767
O O4 0.737846 0.893127 0.280157
O O5 0.686213 0.500000 0.500000
O O6 0.500000 0.655220 0.500000
O O7 0.755310 0.657759 0.432658
O O8 0.256772 0.317718 0.062341
O O9 0.265039 0.500000 0.000000
O O10 0.500000 0.379810 0.000000
O O11 0.233860 0.112654 0.921199
O O12 0.000000 0.232651 0.901685
O O13 0.235767 0.500000 0.353235
O O14 0.000000 0.382407 0.365523
O O15 0.234696 0.000000 0.178863
O O16 0.000000 0.000000 0.099639
O O17 0.500000 0.000000 0.758740
#
# Coordination Sequence:
#
# PCOD9381689 Si02
#       7
#     8   4   4   8   8   4   4
#     4   9  18  33  53  76 101 128 161 204 249 289
#     4   9  17  29  45  68 101 136 165 197 241 291
#     4  11  25  40  49  64  98 139 170 199 242 293
#     4   9  18  34  56  77  96 123 161 204 247 293
#     4   9  17  30  50  75 100 128 164 204 245 290
#     4   8  16  33  55  78 100 119 149 200 255 295
#     4  10  18  28  47  74 103 134 164 194 236 292
#
# _framework density 17.217489
#
# number of rings (size 3 to 8) (size 9 to 14) (size 15 to 20)
#    0.000    2.800    0.000    2.700    0.000    7.200 
#    0.000    4.000    0.000    3.000    0.000    4.200 
#    0.000    0.000    0.000    0.000    0.000    0.000 
#
# Total GULP energy -222839.334828 kJ/mol
# GULP energy per Si atom -5570.983371 kJ/mol
# Density = 1.717830 g / cm^3
# Si number density = 17.217489 Si / 1000 Ang^3
#
#
#
# Elastic Constant Matrix: (Units=GPa)
#
#
# Indices 1 2 3 4 5 6 
#
# 1 -46.6768 20.5083 15.0740 0.0000 0.0000 0.0000
# 2 20.5083 149.3640 75.2385 0.0000 0.0000 0.0000
# 3 15.0740 75.2385 106.5154 0.0000 0.0000 0.0000
# 4 0.0000 0.0000 0.0000 -48.1750 0.0000 0.0000
# 5 0.0000 0.0000 0.0000 0.0000 -19.6498 0.0000
# 6 0.0000 0.0000 0.0000 0.0000 0.0000 17.8966
#
#
#
# Elastic Compliance Matrix: (Units=1/GPa)
#
#
# Indices 1 2 3 4 5 6 
#
# 1 -0.020072 0.002057 0.001388 0.000000 0.000000 0.000000
# 2 0.002057 0.010182 -0.007483 0.000000 0.000000 0.000000
# 3 0.001388 -0.007483 0.014478 0.000000 0.000000 0.000000
# 4 0.000000 0.000000 0.000000 -0.020758 0.000000 0.000000
# 5 0.000000 0.000000 0.000000 0.000000 -0.050891 0.000000
# 6 0.000000 0.000000 0.000000 0.000000 0.000000 0.055876
#
#
# Mechanical properties :
#
#
# Convention : Reuss Voigt Hill
#
# Bulk Modulus (GPa) = -286.57204 47.87160 -119.35022
# Shear Modulus (GPa) = -1171.08759 -3.42686 -587.25722
#
# Velocity S-wave (km/s) = -26.10843 -1.41232 -18.48844
# Velocity P-wave (km/s) = 32.79741 5.02045 22.91796
#
# Compressibility (1/GPa) = -0.00348952
#
# Stress axis : x y z
#
# Youngs Moduli (GPa) = -49.82058 98.21045 69.07051
#
# Poissons Ratio (x) = -0.20202 -0.09584
# Poissons Ratio (y) = 0.10248 0.51689
# Poissons Ratio (z) = 0.06913 0.73495
#
# Static dielectric constant tensor:
#      x y z
#    x 1.574960 0.000000 0.000000 
#    y 0.000000 1.607920 0.000000 
#    z 0.000000 0.000000 1.597600 
# 
# From -- ./inp_files/4147.got.cif
#   From: 2010.05.17/outbox.cif.g08.bks.cpg/sg47_3_cif.got.tgz:4147.got - 2010.06.03 20:15:42.
