data_PCOD9381319
_publ_section_title
;
Structure prediction by ZEFSAII (Michael W. Deem and Ramdas Pophale) SiO2 
 PCOD9381319
Probable space group: P M M M
;
_chemical_formula_sum "Si O2"
_cell_formula_units_Z 52
_cell_length_a 12.727995
_cell_length_b 7.373270
_cell_length_c 26.133626
_cell_angle_alpha 90.000000
_cell_angle_beta 90.000000
_cell_angle_gamma 90.000000
_cell_volume 2452.560928
_symmetry_space_group_name_H-M "P M M M"
_symmetry_group_IT_number 47
_symmetry_cell_setting 'orthorhombic'
loop_
_space_group_symop_operation_xyz
x,y,z
-x,-y,z
x,-y,-z
-x,y,-z
-x,-y,-z
x,y,-z
-x,y,z
x,-y,z
loop_
_atom_site_type_symbol
_atom_site_label
_atom_site_fract_x
_atom_site_fract_y
_atom_site_fract_z
Si Si1 0.500000 0.779151 0.249824
Si Si2 0.877209 0.222093 0.500000
Si Si3 0.278719 0.205640 0.588676
Si Si4 0.114127 0.718875 0.790517
Si Si5 0.115527 0.281180 0.671563
Si Si6 0.373877 0.787217 0.055025
Si Si7 0.334368 0.207058 0.166374
Si Si8 0.500000 0.776956 0.369117
O O1 0.599291 0.720241 0.214768
O O2 0.500000 0.718985 0.309127
O O3 0.500000 0.000000 0.253421
O O4 0.805819 0.282449 0.451737
O O5 0.000000 0.281757 0.500000
O O6 0.882406 0.000000 0.500000
O O7 0.212808 0.204767 0.640939
O O8 0.393497 0.283094 0.601817
O O9 0.298744 0.000000 0.570942
O O10 0.118523 0.500000 0.792259
O O11 0.120837 0.770151 0.730866
O O12 0.213230 0.792210 0.819607
O O13 0.000000 0.775840 0.810105
O O14 0.120002 0.500000 0.668586
O O15 0.000000 0.225057 0.651283
O O16 0.500000 0.781515 0.053818
O O17 0.345566 0.707328 0.110277
O O18 0.341822 0.000000 0.055391
O O19 0.336639 0.711809 0.000000
O O20 0.373205 0.000000 0.160871
O O21 0.500000 0.000000 0.368739
#
# Coordination Sequence:
#
# PCOD9381319 Si02
#       8
#     4   4   8   8   8   8   8   4
#     4   9  16  26  41  69 103 123 143 188 239 272
#     4   9  18  31  48  72  97 119 154 205 246 272
#     4  10  19  32  50  71  96 127 158 191 233 279
#     4   9  19  34  48  64  92 128 159 192 238 285
#     4   9  18  33  51  70  93 121 155 196 240 284
#     4   8  13  23  41  67  97 126 155 187 233 288
#     4  10  17  27  47  72  96 123 156 195 234 275
#     4   9  18  29  43  67  98 129 157 184 221 276
#
# _framework density 21.202327
#
# number of rings (size 3 to 8) (size 9 to 14) (size 15 to 20)
#    0.000    2.846    0.769    2.769    0.000    3.385 
#    0.000    4.231    0.000    5.077    0.000    5.385 
#    0.000    0.000    0.000    0.000    0.000    0.000 
#
# Total GULP energy -289853.427191 kJ/mol
# GULP energy per Si atom -5574.104369 kJ/mol
# Density = 2.115407 g / cm^3
# Si number density = 21.202327 Si / 1000 Ang^3
#
#
#
# Elastic Constant Matrix: (Units=GPa)
#
#
# Indices 1 2 3 4 5 6 
#
# 1 179.9502 6.3095 81.8273 0.0000 0.0000 0.0000
# 2 6.3095 72.1028 8.1222 0.0000 0.0000 0.0000
# 3 81.8273 8.1222 119.7726 0.0000 0.0000 0.0000
# 4 0.0000 0.0000 0.0000 -2.0781 0.0000 0.0000
# 5 0.0000 0.0000 0.0000 0.0000 19.8496 0.0000
# 6 0.0000 0.0000 0.0000 0.0000 0.0000 14.0284
#
#
#
# Elastic Compliance Matrix: (Units=1/GPa)
#
#
# Indices 1 2 3 4 5 6 
#
# 1 0.008062 -0.000086 -0.005502 0.000000 0.000000 0.000000
# 2 -0.000086 0.013977 -0.000889 0.000000 0.000000 0.000000
# 3 -0.005502 -0.000889 0.012168 0.000000 0.000000 0.000000
# 4 0.000000 0.000000 0.000000 -0.481202 0.000000 0.000000
# 5 0.000000 0.000000 0.000000 0.000000 0.050379 0.000000
# 6 0.000000 0.000000 0.000000 0.000000 0.000000 0.071284
#
#
# Mechanical properties :
#
#
# Convention : Reuss Voigt Hill
#
# Bulk Modulus (GPa) = 47.05190 62.70483 54.87836
# Shear Modulus (GPa) = -16.37771 24.73108 4.17669
#
# Velocity S-wave (km/s) = -2.78231 3.41901 1.40506
# Velocity P-wave (km/s) = 3.45230 6.72495 5.34524
#
# Compressibility (1/GPa) = 0.02125313
#
# Stress axis : x y z
#
# Youngs Moduli (GPa) = 124.03869 71.54739 82.18007
#
# Poissons Ratio (x) = 0.00613 0.45216
# Poissons Ratio (y) = 0.01063 0.07308
# Poissons Ratio (z) = 0.68247 0.06362
#
# Static dielectric constant tensor:
#      x y z
#    x 1.736750 0.000000 0.000000 
#    y 0.000000 1.829650 0.000000 
#    z 0.000000 0.000000 1.791160 
# 
# From -- ./inp_files/33610.got.cif
#   From: 2010.05.17/outbox.cif.g08.bks.cpg/sg47_17_cif.got.tgz:33610.got - 2010.06.03 20:15:42.
