data_PCOD9381587
_publ_section_title
;
Structure prediction by ZEFSAII (Michael W. Deem and Ramdas Pophale) SiO2 
 PCOD9381587
Probable space group: P M M M
;
_chemical_formula_sum "Si O2"
_cell_formula_units_Z 48
_cell_length_a 26.282516
_cell_length_b 12.384978
_cell_length_c 7.368064
_cell_angle_alpha 90.000000
_cell_angle_beta 90.000000
_cell_angle_gamma 90.000000
_cell_volume 2398.366594
_symmetry_space_group_name_H-M "P M M M"
_symmetry_group_IT_number 47
_symmetry_cell_setting 'orthorhombic'
loop_
_space_group_symop_operation_xyz
x,y,z
-x,-y,z
x,-y,-z
-x,y,-z
-x,-y,-z
x,y,-z
-x,y,z
x,-y,z
loop_
_atom_site_type_symbol
_atom_site_label
_atom_site_fract_x
_atom_site_fract_y
_atom_site_fract_z
Si Si1 0.660903 0.217267 0.781973
Si Si2 0.836167 0.000000 0.706228
Si Si3 0.250303 0.622230 0.714232
Si Si4 0.557243 0.874745 0.778965
Si Si5 0.281429 0.000000 0.779545
Si Si6 0.846182 0.238730 0.722851
Si Si7 0.056445 0.624626 0.720720
O O1 0.695254 0.319651 0.733941
O O2 0.602776 0.203055 0.718580
O O3 0.690000 0.108613 0.722262
O O4 0.659501 0.214755 0.000000
O O5 0.775081 0.000000 0.705221
O O6 0.850122 0.884447 0.787593
O O7 0.856173 0.000000 0.500000
O O8 0.240531 0.613597 0.500000
O O9 0.249062 0.500000 0.787851
O O10 0.205374 0.700625 0.784287
O O11 0.500000 0.847308 0.719631
O O12 0.567771 0.000000 0.727923
O O13 0.556931 0.873853 0.000000
O O14 0.279248 0.000000 0.000000
O O15 0.844382 0.235253 0.500000
O O16 0.895791 0.305171 0.778599
O O17 0.056762 0.625630 0.500000
O O18 0.062696 0.500000 0.775848
O O19 0.000000 0.661410 0.777596
#
# Coordination Sequence:
#
# PCOD9381587 Si02
#       7
#     8   4   8   8   4   8   8
#     4  10  18  29  47  70  95 118 145 183 224 265
#     4  10  18  28  43  63  89 121 150 175 218 272
#     4  10  20  32  46  64  88 121 156 187 222 264
#     4   8  13  23  42  68  94 117 142 175 218 267
#     4  10  18  28  43  67  95 121 146 175 218 268
#     4   9  16  26  40  60  86 114 147 183 218 264
#     4   8  13  22  37  56  80 113 149 182 219 262
#
# _framework density 20.01362
#
# number of rings (size 3 to 8) (size 9 to 14) (size 15 to 20)
#    0.000    2.833    2.500    1.500    0.000    2.333 
#    0.000    0.417    0.000    3.500    0.000    4.667 
#    0.000    3.333    0.000    9.167    0.000    8.333 
#
# Total GULP energy -267755.675890 kJ/mol
# GULP energy per Si atom -5578.243248 kJ/mol
# Density = 1.996807 g / cm^3
# Si number density = 20.013620 Si / 1000 Ang^3
#
#
#
# Elastic Constant Matrix: (Units=GPa)
#
#
# Indices 1 2 3 4 5 6 
#
# 1 162.8349 89.8780 -1.4456 0.0000 0.0000 0.0000
# 2 89.8780 150.5661 5.3700 0.0000 0.0000 0.0000
# 3 -1.4456 5.3700 70.8112 0.0000 0.0000 0.0000
# 4 0.0000 0.0000 0.0000 3.7973 0.0000 0.0000
# 5 0.0000 0.0000 0.0000 0.0000 10.5553 0.0000
# 6 0.0000 0.0000 0.0000 0.0000 0.0000 18.2290
#
#
#
# Elastic Compliance Matrix: (Units=1/GPa)
#
#
# Indices 1 2 3 4 5 6 
#
# 1 0.009185 -0.005504 0.000605 0.000000 0.000000 0.000000
# 2 -0.005504 0.009958 -0.000868 0.000000 0.000000 0.000000
# 3 0.000605 -0.000868 0.014200 0.000000 0.000000 0.000000
# 4 0.000000 0.000000 0.000000 0.263346 0.000000 0.000000
# 5 0.000000 0.000000 0.000000 0.000000 0.094739 0.000000
# 6 0.000000 0.000000 0.000000 0.000000 0.000000 0.054858
#
#
# Mechanical properties :
#
#
# Convention : Reuss Voigt Hill
#
# Bulk Modulus (GPa) = 45.85188 63.53523 54.69355
# Shear Modulus (GPa) = 10.75061 25.87697 18.31379
#
# Velocity S-wave (km/s) = 2.32020 3.59969 3.02829
# Velocity P-wave (km/s) = 5.48979 7.00656 6.29403
#
# Compressibility (1/GPa) = 0.02180936
#
# Stress axis : x y z
#
# Youngs Moduli (GPa) = 108.87742 100.41996 70.42158
#
# Poissons Ratio (x) = 0.55273 -0.04260
# Poissons Ratio (y) = 0.59928 0.06109
# Poissons Ratio (z) = -0.06586 0.08712
#
# Static dielectric constant tensor:
#      x y z
#    x 1.696090 0.000000 0.000000 
#    y 0.000000 1.692790 0.000000 
#    z 0.000000 0.000000 1.815430 
# 
# From -- ./inp_files/16462.got.cif
#   From: 2010.05.17/outbox.cif.g08.bks.cpg/sg47_9_cif.got.tgz:16462.got - 2010.06.03 20:15:42.
