data_PCOD9381775
_publ_section_title
;
Structure prediction by ZEFSAII (Michael W. Deem and Ramdas Pophale) SiO2 
 PCOD9381775
Probable space group: P M M M
;
_chemical_formula_sum "Si O2"
_cell_formula_units_Z 36
_cell_length_a 9.381880
_cell_length_b 12.044114
_cell_length_c 21.215158
_cell_angle_alpha 90.000000
_cell_angle_beta 90.000000
_cell_angle_gamma 90.000000
_cell_volume 2397.237164
_symmetry_space_group_name_H-M "P M M M"
_symmetry_group_IT_number 47
_symmetry_cell_setting 'orthorhombic'
loop_
_space_group_symop_operation_xyz
x,y,z
-x,-y,z
x,-y,-z
-x,y,-z
-x,-y,-z
x,y,-z
-x,y,z
x,-y,z
loop_
_atom_site_type_symbol
_atom_site_label
_atom_site_fract_x
_atom_site_fract_y
_atom_site_fract_z
Si Si1 0.673118 0.000000 0.926742
Si Si2 0.163456 0.634865 0.377769
Si Si3 0.672857 0.374137 0.000000
Si Si4 0.672588 0.761206 0.874953
Si Si5 0.663473 0.364461 0.500000
Si Si6 0.172030 0.368954 0.235184
O O1 0.714009 0.112044 0.890459
O O2 0.500000 0.000000 0.929723
O O3 0.721781 0.000000 0.000000
O O4 0.162494 0.500000 0.378773
O O5 0.258131 0.672542 0.436243
O O6 0.211163 0.663867 0.307045
O O7 0.000000 0.670938 0.386515
O O8 0.713357 0.309461 0.063062
O O9 0.725926 0.500000 0.000000
O O10 0.500000 0.376894 0.000000
O O11 0.500000 0.756134 0.867879
O O12 0.748676 0.706653 0.815324
O O13 0.667533 0.500000 0.500000
O O14 0.500000 0.330259 0.500000
O O15 0.207469 0.500000 0.225953
O O16 0.000000 0.359793 0.229971
#
# Coordination Sequence:
#
# PCOD9381775 Si02
#       6
#     4   8   4   8   4   8
#     4   9  16  30  49  67  85 110 145 184 227 269
#     4   8  14  25  39  53  76 115 152 174 202 253
#     4   9  16  25  40  64  87 107 138 177 214 258
#     4  10  18  29  47  66  85 111 146 186 223 264
#     4   9  15  21  33  57  85 110 141 182 215 239
#     4   9  18  31  44  61  89 121 149 180 221 266
#
# _framework density 15.017286
#
# number of rings (size 3 to 8) (size 9 to 14) (size 15 to 20)
#    0.000    3.000    1.111    2.333    0.000    3.556 
#    0.000    3.333    0.000    2.667    0.000    0.000 
#    0.000    0.889    0.000   10.000    0.000    7.556 
#
# Total GULP energy -200418.398043 kJ/mol
# GULP energy per Si atom -5567.177723 kJ/mol
# Density = 1.498311 g / cm^3
# Si number density = 15.017286 Si / 1000 Ang^3
#
#
#
# Elastic Constant Matrix: (Units=GPa)
#
#
# Indices 1 2 3 4 5 6 
#
# 1 40.5923 30.8225 67.9515 0.0000 0.0000 0.0000
# 2 30.8225 89.6040 68.0781 0.0000 0.0000 0.0000
# 3 67.9515 68.0781 176.3368 0.0000 0.0000 0.0000
# 4 0.0000 0.0000 0.0000 0.3901 0.0000 0.0000
# 5 0.0000 0.0000 0.0000 0.0000 31.1669 0.0000
# 6 0.0000 0.0000 0.0000 0.0000 0.0000 12.1622
#
#
#
# Elastic Compliance Matrix: (Units=1/GPa)
#
#
# Indices 1 2 3 4 5 6 
#
# 1 0.071050 -0.005149 -0.025391 0.000000 0.000000 0.000000
# 2 -0.005149 0.016166 -0.004257 0.000000 0.000000 0.000000
# 3 -0.025391 -0.004257 0.017099 0.000000 0.000000 0.000000
# 4 0.000000 0.000000 0.000000 2.563182 0.000000 0.000000
# 5 0.000000 0.000000 0.000000 0.000000 0.032085 0.000000
# 6 0.000000 0.000000 0.000000 0.000000 0.000000 0.082222
#
#
# Mechanical properties :
#
#
# Convention : Reuss Voigt Hill
#
# Bulk Modulus (GPa) = 28.80149 71.13747 49.96948
# Shear Modulus (GPa) = 1.74644 18.05591 9.90117
#
# Velocity S-wave (km/s) = 1.07957 3.47124 2.57051
# Velocity P-wave (km/s) = 4.55790 7.97115 6.49283
#
# Compressibility (1/GPa) = 0.03472043
#
# Stress axis : x y z
#
# Youngs Moduli (GPa) = 14.07468 61.85971 58.48287
#
# Poissons Ratio (x) = 0.31849 1.48496
# Poissons Ratio (y) = 0.07246 0.24896
# Poissons Ratio (z) = 0.35737 0.26334
#
# Static dielectric constant tensor:
#      x y z
#    x 1.499670 0.000000 0.000000 
#    y 0.000000 1.479740 0.000000 
#    z 0.000000 0.000000 1.497990 
# 
# From -- ./inp_files/15209.got.cif
#   From: 2010.05.17/outbox.cif.g08.bks.cpg/sg47_8_cif.got.tgz:15209.got - 2010.06.03 20:15:42.
