data_PCOD9381169
_publ_section_title
;
Structure prediction by ZEFSAII (Michael W. Deem and Ramdas Pophale) SiO2 
 PCOD9381169
Probable space group: P M M M
;
_chemical_formula_sum "Si O2"
_cell_formula_units_Z 52
_cell_length_a 17.191246
_cell_length_b 7.444412
_cell_length_c 21.271950
_cell_angle_alpha 90.000000
_cell_angle_beta 90.000000
_cell_angle_gamma 90.000000
_cell_volume 2722.356891
_symmetry_space_group_name_H-M "P M M M"
_symmetry_group_IT_number 47
_symmetry_cell_setting 'orthorhombic'
loop_
_space_group_symop_operation_xyz
x,y,z
-x,-y,z
x,-y,-z
-x,y,-z
-x,-y,-z
x,y,-z
-x,y,z
x,-y,z
loop_
_atom_site_type_symbol
_atom_site_label
_atom_site_fract_x
_atom_site_fract_y
_atom_site_fract_z
Si Si1 0.500000 0.782630 0.217978
Si Si2 0.913975 0.787879 0.697283
Si Si3 0.500000 0.706263 0.363853
Si Si4 0.409068 0.219596 0.000000
Si Si5 0.329581 0.715276 0.367620
Si Si6 0.241501 0.784617 0.760491
Si Si7 0.351374 0.781016 0.134775
Si Si8 0.170996 0.282859 0.569946
O O1 0.500000 0.706453 0.287816
O O2 0.424978 0.730661 0.177670
O O3 0.500000 0.000000 0.224195
O O4 0.841887 0.712737 0.737726
O O5 0.888003 0.770322 0.624748
O O6 0.000000 0.712176 0.707589
O O7 0.917634 0.000000 0.710960
O O8 0.500000 0.500000 0.386549
O O9 0.415987 0.786623 0.381684
O O10 0.366705 0.278674 0.936211
O O11 0.500000 0.273429 0.000000
O O12 0.409548 0.000000 0.000000
O O13 0.333420 0.500000 0.374719
O O14 0.302832 0.750394 0.295883
O O15 0.257512 0.779982 0.409845
O O16 0.276015 0.719661 0.826447
O O17 0.234992 0.000000 0.764697
O O18 0.349849 0.000000 0.133159
O O19 0.150912 0.221760 0.500000
O O20 0.172827 0.500000 0.569774
#
# Coordination Sequence:
#
# PCOD9381169 Si02
#       8
#     4   8   4   4   8   8   8   8
#     4  10  16  23  38  59  81 105 137 174 206 236
#     4   9  18  31  46  65  86 105 128 163 207 251
#     4  10  18  26  38  59  83 108 137 170 206 238
#     4   9  14  20  30  52  87 115 133 166 208 234
#     4   9  17  28  41  59  82 107 136 169 203 237
#     4   9  16  27  43  61  80 104 136 170 203 242
#     4   9  15  22  35  57  83 110 138 167 202 238
#     4   9  18  32  47  62  83 110 136 163 198 242
#
# _framework density 19.101095999999998
#
# number of rings (size 3 to 8) (size 9 to 14) (size 15 to 20)
#    0.000    2.846    2.308    0.000    0.000    0.923 
#    0.000    1.923    0.000    2.308    0.000    3.231 
#    0.000    9.846    0.000    0.000    0.000   13.615 
#
# Total GULP energy -289966.566986 kJ/mol
# GULP energy per Si atom -5576.280134 kJ/mol
# Density = 1.905762 g / cm^3
# Si number density = 19.101096 Si / 1000 Ang^3
#
#
#
# Elastic Constant Matrix: (Units=GPa)
#
#
# Indices 1 2 3 4 5 6 
#
# 1 146.1146 5.4899 34.4005 0.0000 0.0000 0.0000
# 2 5.4899 60.2515 -4.3293 0.0000 0.0000 0.0000
# 3 34.4005 -4.3293 67.6520 0.0000 0.0000 0.0000
# 4 0.0000 0.0000 0.0000 14.6864 0.0000 0.0000
# 5 0.0000 0.0000 0.0000 0.0000 12.0264 0.0000
# 6 0.0000 0.0000 0.0000 0.0000 0.0000 -19.0227
#
#
#
# Elastic Compliance Matrix: (Units=1/GPa)
#
#
# Indices 1 2 3 4 5 6 
#
# 1 0.007835 -0.001005 -0.004048 0.000000 0.000000 0.000000
# 2 -0.001005 0.016803 0.001586 0.000000 0.000000 0.000000
# 3 -0.004048 0.001586 0.016942 0.000000 0.000000 0.000000
# 4 0.000000 0.000000 0.000000 0.068090 0.000000 0.000000
# 5 0.000000 0.000000 0.000000 0.000000 0.083150 0.000000
# 6 0.000000 0.000000 0.000000 0.000000 0.000000 -0.052569
#
#
# Mechanical properties :
#
#
# Convention : Reuss Voigt Hill
#
# Bulk Modulus (GPa) = 28.86398 38.34896 33.60647
# Shear Modulus (GPa) = 31.49952 17.43516 24.46734
#
# Velocity S-wave (km/s) = 4.06531 3.02451 3.58290
# Velocity P-wave (km/s) = 6.09751 5.68483 5.89478
#
# Compressibility (1/GPa) = 0.03464526
#
# Stress axis : x y z
#
# Youngs Moduli (GPa) = 127.63587 59.51457 59.02660
#
# Poissons Ratio (x) = 0.05980 0.23895
# Poissons Ratio (y) = 0.12824 -0.09363
# Poissons Ratio (z) = 0.51670 -0.09440
#
# Static dielectric constant tensor:
#      x y z
#    x 1.691620 0.000000 0.000000 
#    y 0.000000 1.748470 0.000000 
#    z 0.000000 0.000000 1.642810 
# 
# From -- ./inp_files/31153.got.cif
#   From: 2010.05.17/outbox.cif.g08.bks.cpg/sg47_16_cif.got.tgz:31153.got - 2010.06.03 20:15:42.
