data_PCOD9381809
_publ_section_title
;
Structure prediction by ZEFSAII (Michael W. Deem and Ramdas Pophale) SiO2 
 PCOD9381809
Probable space group: P M M M
;
_chemical_formula_sum "Si O2"
_cell_formula_units_Z 64
_cell_length_a 8.428571
_cell_length_b 14.776589
_cell_length_c 32.333054
_cell_angle_alpha 90.000000
_cell_angle_beta 90.000000
_cell_angle_gamma 90.000000
_cell_volume 4026.937332
_symmetry_space_group_name_H-M "P M M M"
_symmetry_group_IT_number 47
_symmetry_cell_setting 'orthorhombic'
loop_
_space_group_symop_operation_xyz
x,y,z
-x,-y,z
x,-y,-z
-x,y,-z
-x,-y,-z
x,y,-z
-x,y,z
x,-y,z
loop_
_atom_site_type_symbol
_atom_site_label
_atom_site_fract_x
_atom_site_fract_y
_atom_site_fract_z
Si Si1 0.690228 0.104761 0.793619
Si Si2 0.808093 0.601027 0.837130
Si Si3 0.690268 0.107604 0.455162
Si Si4 0.806534 0.895465 0.953442
Si Si5 0.309986 0.398113 0.743245
Si Si6 0.190024 0.212344 0.713296
Si Si7 0.190875 0.895551 0.632680
Si Si8 0.191900 0.787626 0.873702
O O1 0.500000 0.107102 0.795182
O O2 0.745902 0.159303 0.753312
O O3 0.756121 0.152050 0.834770
O O4 0.742312 0.000000 0.791287
O O5 0.758317 0.500000 0.850439
O O6 0.746675 0.615417 0.790539
O O7 0.754902 0.684740 0.865179
O O8 0.000000 0.602420 0.835670
O O9 0.745237 0.144055 0.500000
O O10 0.500000 0.116045 0.453840
O O11 0.759220 0.142269 0.412095
O O12 0.727555 0.000000 0.455423
O O13 0.750753 0.831399 0.916518
O O14 0.000000 0.893775 0.953308
O O15 0.760342 0.000000 0.945789
O O16 0.755920 0.870318 0.000000
O O17 0.500000 0.394038 0.742506
O O18 0.260072 0.500000 0.730914
O O19 0.241907 0.316382 0.716581
O O20 0.246863 0.163446 0.671442
O O21 0.000000 0.207827 0.714507
O O22 0.000000 0.898007 0.633856
O O23 0.248052 0.000000 0.636594
O O24 0.000000 0.787521 0.874698
#
# Coordination Sequence:
#
# PCOD9381809 Si02
#       8
#     8   8   8   8   8   8   8   8
#     4  11  23  34  44  63  92 123 153 188 228 269
#     4   9  17  29  45  66  90 115 146 184 227 272
#     4   8  14  25  41  61  85 115 153 194 232 269
#     4   8  14  25  42  65  90 114 146 189 230 269
#     4  10  20  33  49  68  90 117 151 191 232 273
#     4  11  21  33  48  66  91 124 158 191 227 271
#     4   9  18  30  43  62  89 122 158 192 226 266
#     4  10  18  29  48  69  87 115 152 189 227 270
#
# _framework density 15.892972
#
# number of rings (size 3 to 8) (size 9 to 14) (size 15 to 20)
#    0.000    2.500    1.250    2.625    0.000    4.000 
#    0.000    2.500    0.000    0.750    0.000    4.375 
#    0.000    0.500    0.000    9.750    0.000    8.875 
#
# Total GULP energy -356692.755181 kJ/mol
# GULP energy per Si atom -5573.324300 kJ/mol
# Density = 1.585680 g / cm^3
# Si number density = 15.892972 Si / 1000 Ang^3
#
#
#
# Elastic Constant Matrix: (Units=GPa)
#
#
# Indices 1 2 3 4 5 6 
#
# 1 6.8265 15.5899 13.7267 0.0000 0.0000 0.0000
# 2 15.5899 112.4228 76.8898 0.0000 0.0000 0.0000
# 3 13.7267 76.8898 144.1770 0.0000 0.0000 0.0000
# 4 0.0000 0.0000 0.0000 7.4582 0.0000 0.0000
# 5 0.0000 0.0000 0.0000 0.0000 424.9863 0.0000
# 6 0.0000 0.0000 0.0000 0.0000 0.0000 17.3105
#
#
#
# Elastic Compliance Matrix: (Units=1/GPa)
#
#
# Indices 1 2 3 4 5 6 
#
# 1 0.219199 -0.025381 -0.007333 0.000000 0.000000 0.000000
# 2 -0.025381 0.016941 -0.006618 0.000000 0.000000 0.000000
# 3 -0.007333 -0.006618 0.011164 0.000000 0.000000 0.000000
# 4 0.000000 0.000000 0.000000 0.134081 0.000000 0.000000
# 5 0.000000 0.000000 0.000000 0.000000 0.002353 0.000000
# 6 0.000000 0.000000 0.000000 0.000000 0.000000 0.057769
#
#
# Mechanical properties :
#
#
# Convention : Reuss Voigt Hill
#
# Bulk Modulus (GPa) = 5.92988 52.87100 29.40044
# Shear Modulus (GPa) = 8.67477 100.43230 54.55354
#
# Velocity S-wave (km/s) = 2.33882 7.95802 5.86516
# Velocity P-wave (km/s) = 3.32155 10.85261 8.02533
#
# Compressibility (1/GPa) = 0.16863757
#
# Stress axis : x y z
#
# Youngs Moduli (GPa) = 4.56207 59.02803 89.57658
#
# Poissons Ratio (x) = 1.49820 0.65690
# Poissons Ratio (y) = 0.11579 0.59284
# Poissons Ratio (z) = 0.03346 0.39066
#
# Static dielectric constant tensor:
#      x y z
#    x 1.544880 0.000000 0.000000 
#    y 0.000000 1.538420 0.000000 
#    z 0.000000 0.000000 1.539740 
# 
# From -- ./inp_files/34413.got.cif
#   From: 2010.05.17/outbox.cif.g08.bks.cpg/sg47_18_cif.got.tgz:34413.got - 2010.06.03 20:15:42.
