data_PCOD9381417
_publ_section_title
;
Structure prediction by ZEFSAII (Michael W. Deem and Ramdas Pophale) SiO2 
 PCOD9381417
Probable space group: P M M M
;
_chemical_formula_sum "Si O2"
_cell_formula_units_Z 64
_cell_length_a 24.619759
_cell_length_b 7.409587
_cell_length_c 16.061980
_cell_angle_alpha 90.000000
_cell_angle_beta 90.000000
_cell_angle_gamma 90.000000
_cell_volume 2930.062470
_symmetry_space_group_name_H-M "P M M M"
_symmetry_group_IT_number 47
_symmetry_cell_setting 'orthorhombic'
loop_
_space_group_symop_operation_xyz
x,y,z
-x,-y,z
x,-y,-z
-x,y,-z
-x,-y,-z
x,y,-z
-x,y,z
x,-y,z
loop_
_atom_site_type_symbol
_atom_site_label
_atom_site_fract_x
_atom_site_fract_y
_atom_site_fract_z
Si Si1 0.562396 0.720522 0.752550
Si Si2 0.250899 0.719895 0.654641
Si Si3 0.364147 0.279772 0.092266
Si Si4 0.873525 0.790394 0.091241
Si Si5 0.631046 0.279691 0.407080
Si Si6 0.060829 0.711141 0.256324
Si Si7 0.134082 0.720656 0.592193
Si Si8 0.753674 0.281997 0.847534
O O1 0.500000 0.777578 0.756791
O O2 0.562965 0.500000 0.752799
O O3 0.597303 0.778810 0.832493
O O4 0.591726 0.777979 0.667412
O O5 0.251578 0.500000 0.654052
O O6 0.307390 0.777315 0.613891
O O7 0.196240 0.776760 0.608444
O O8 0.247573 0.775472 0.751115
O O9 0.364253 0.500000 0.093689
O O10 0.302044 0.223270 0.109198
O O11 0.381608 0.223606 0.000000
O O12 0.906475 0.718847 0.169979
O O13 0.809316 0.775000 0.109353
O O14 0.887530 0.000000 0.087981
O O15 0.885356 0.710651 0.000000
O O16 0.615419 0.222492 0.500000
O O17 0.630836 0.500000 0.406482
O O18 0.055369 0.500000 0.275637
O O19 0.096571 0.786405 0.332267
O O20 0.000000 0.786919 0.249307
O O21 0.115987 0.774870 0.500000
O O22 0.134438 0.500000 0.594151
O O23 0.753946 0.500000 0.848170
#
# Coordination Sequence:
#
# PCOD9381417 Si02
#       8
#     8   8   8   8   8   8   8   8
#     4   9  16  24  32  47  79 123 166 203 239 287
#     4   9  14  23  42  67  94 122 155 200 251 296
#     4   9  16  25  39  60  84 114 154 200 250 299
#     4  11  24  39  55  77 105 136 169 208 258 311
#     4   9  15  22  33  52  82 120 160 199 240 291
#     4  10  21  37  57  81 107 137 175 214 248 287
#     4   9  16  27  47  77 108 132 158 201 254 299
#     4  10  17  30  53  76  99 127 162 207 256 306
#
# _framework density 21.842538999999999
#
# number of rings (size 3 to 8) (size 9 to 14) (size 15 to 20)
#    0.000    2.500    2.500    1.125    0.000    4.250 
#    0.000    5.000    0.000    0.375    0.000    0.875 
#    0.000    0.500    0.000    2.625    0.000    4.000 
#
# Total GULP energy -357523.819921 kJ/mol
# GULP energy per Si atom -5586.309686 kJ/mol
# Density = 2.179282 g / cm^3
# Si number density = 21.842539 Si / 1000 Ang^3
#
#
#
# Elastic Constant Matrix: (Units=GPa)
#
#
# Indices 1 2 3 4 5 6 
#
# 1 168.8121 -1.9810 96.5516 0.0000 0.0000 0.0000
# 2 -1.9810 68.8639 -1.2719 0.0000 0.0000 0.0000
# 3 96.5516 -1.2719 211.4370 0.0000 0.0000 0.0000
# 4 0.0000 0.0000 0.0000 5.9936 0.0000 0.0000
# 5 0.0000 0.0000 0.0000 0.0000 -0.8387 0.0000
# 6 0.0000 0.0000 0.0000 0.0000 0.0000 -48.8036
#
#
#
# Elastic Compliance Matrix: (Units=1/GPa)
#
#
# Indices 1 2 3 4 5 6 
#
# 1 0.008020 0.000163 -0.003661 0.000000 0.000000 0.000000
# 2 0.000163 0.014526 0.000013 0.000000 0.000000 0.000000
# 3 -0.003661 0.000013 0.006401 0.000000 0.000000 0.000000
# 4 0.000000 0.000000 0.000000 0.166845 0.000000 0.000000
# 5 0.000000 0.000000 0.000000 0.000000 -1.192364 0.000000
# 6 0.000000 0.000000 0.000000 0.000000 0.000000 -0.020490
#
#
# Mechanical properties :
#
#
# Convention : Reuss Voigt Hill
#
# Bulk Modulus (GPa) = 45.50183 70.63446 58.06814
# Shear Modulus (GPa) = -4.98621 14.99122 5.00250
#
# Velocity S-wave (km/s) = -1.51253 2.62263 1.51500
# Velocity P-wave (km/s) = 4.22216 6.44819 5.45004
#
# Compressibility (1/GPa) = 0.02197714
#
# Stress axis : x y z
#
# Youngs Moduli (GPa) = 124.69383 68.84048 156.21428
#
# Poissons Ratio (x) = -0.01123 0.57192
# Poissons Ratio (y) = -0.02033 -0.00202
# Poissons Ratio (z) = 0.45652 -0.00089
#
# Static dielectric constant tensor:
#      x y z
#    x 1.746550 0.000000 0.000000 
#    y 0.000000 1.845900 0.000000 
#    z 0.000000 0.000000 1.778720 
# 
# From -- ./inp_files/21882.got.cif
#   From: 2010.05.17/outbox.cif.g08.bks.cpg/sg47_11_cif.got.tgz:21882.got - 2010.06.03 20:15:42.
