data_PCOD9381100
_publ_section_title
;
Structure prediction by ZEFSAII (Michael W. Deem and Ramdas Pophale) SiO2 
 PCOD9381100
Probable space group: I M A 2
;
_chemical_formula_sum "Si O2"
_cell_formula_units_Z 24
_cell_length_a 18.000000
_cell_length_b 9.000000
_cell_length_c 15.000000
_cell_angle_alpha 90.000000
_cell_angle_beta 90.000000
_cell_angle_gamma 90.000000
_cell_volume 2430.000000
_symmetry_space_group_name_H-M "I M A 2"
_symmetry_group_IT_number 46
_symmetry_cell_setting 'orthorhombic'
loop_
_space_group_symop_operation_xyz
x,y,z
-x,-y,z
1/2-x,y,z
1/2+x,-y,z
1/2+x,1/2+y,1/2+z
1/2-x,1/2-y,1/2+z
-x,1/2+y,1/2+z
x,1/2-y,1/2+z
loop_
_atom_site_type_symbol
_atom_site_label
_atom_site_fract_x
_atom_site_fract_y
_atom_site_fract_z
Si Si1 0.836502 0.730761 0.123650
Si Si2 0.085411 0.329195 0.787099
Si Si3 0.662204 0.428431 0.569664
Si Si4 0.662680 0.248116 0.400754
Si Si5 0.580721 0.177569 0.233507
Si Si6 0.914667 0.951664 0.474990
O O1 0.750000 0.699028 0.110022
O O2 0.855851 0.739664 0.228446
O O3 0.852340 0.898318 0.087974
O O4 0.884387 0.617434 0.065787
O O5 0.091084 0.504962 0.763516
O O6 0.091401 0.331530 0.893796
O O7 0.004808 0.284192 0.749368
O O8 0.750000 0.402624 0.589558
O O9 0.647887 0.381572 0.468713
O O10 0.612165 0.325991 0.634131
O O11 0.750000 0.228198 0.390796
O O12 0.627478 0.270431 0.304121
O O13 0.630242 0.098332 0.445468
O O14 0.000000 0.000000 0.481079
#
# Coordination Sequence:
#
# PCOD9381100 Si02
#       6
#     8   8   8   8   8   8
#     4  10  22  38  60  87 115 153 196 245 299 350
#     4   9  18  34  56  81 110 146 196 235 285 348
#     4   9  19  34  54  82 112 146 190 236 287 346
#     4  10  19  33  56  82 112 149 192 240 291 348
#     4   9  16  31  53  80 108 145 189 235 278 342
#     4  11  21  38  58  87 116 153 196 245 296 354
#
# _framework density 9.8765429999999999
#
# number of rings (size 3 to 8) (size 9 to 14) (size 15 to 20)
#    0.000    2.333    3.333    1.000    2.333    4.667 
#    0.000    1.667    0.000    4.000    0.000    0.000 
#    0.000    0.000    0.000    0.000    0.000    0.000 
#
# Total GULP energy -133850.989691 kJ/mol
# GULP energy per Si atom -5577.124570 kJ/mol
# Density = 0.985406 g / cm^3
# Si number density = 9.876543 Si / 1000 Ang^3
#
#
#
# Elastic Constant Matrix: (Units=GPa)
#
#
# Indices 1 2 3 4 5 6 
#
# 1 32.3080 9.0110 26.1810 0.0000 0.0000 0.0000
# 2 9.0110 9.6048 7.7348 0.0000 0.0000 0.0000
# 3 26.1810 7.7348 57.0406 0.0000 0.0000 0.0000
# 4 0.0000 0.0000 0.0000 28.1198 0.0000 0.0000
# 5 0.0000 0.0000 0.0000 0.0000 25.3725 0.0000
# 6 0.0000 0.0000 0.0000 0.0000 0.0000 10.6795
#
#
#
# Elastic Compliance Matrix: (Units=1/GPa)
#
#
# Indices 1 2 3 4 5 6 
#
# 1 0.059503 -0.037977 -0.022161 0.000000 0.000000 0.000000
# 2 -0.037977 0.141116 -0.001705 0.000000 0.000000 0.000000
# 3 -0.022161 -0.001705 0.027934 0.000000 0.000000 0.000000
# 4 0.000000 0.000000 0.000000 0.035562 0.000000 0.000000
# 5 0.000000 0.000000 0.000000 0.000000 0.039413 0.000000
# 6 0.000000 0.000000 0.000000 0.000000 0.000000 0.093637
#
#
# Mechanical properties :
#
#
# Convention : Reuss Voigt Hill
#
# Bulk Modulus (GPa) = 9.53586 20.53412 15.03499
# Shear Modulus (GPa) = 8.99592 16.56948 12.78270
#
# Velocity S-wave (km/s) = 2.13637 2.89940 2.54662
# Velocity P-wave (km/s) = 3.30506 4.65045 4.03423
#
# Compressibility (1/GPa) = 0.10486734
#
# Stress axis : x y z
#
# Youngs Moduli (GPa) = 16.80595 7.08635 35.79827
#
# Poissons Ratio (x) = 0.26912 0.79334
# Poissons Ratio (y) = 0.63824 0.06102
# Poissons Ratio (z) = 0.37244 0.01208
#
# Static dielectric constant tensor:
#      x y z
#    x 1.706640 0.000000 0.000000 
#    y 0.000000 1.673280 0.000000 
#    z 0.000000 0.000000 1.712890 
# 
# From -- ./inp_files/16547.got.cif
#   From: 2010.05.17/outbox.ucp.g08.bks.cvg/sg46_9_cif.got.tgz:16547.got - 2010.06.11 16:34:52.
