data_PCOD9381415
_publ_section_title
;
Structure prediction by ZEFSAII (Michael W. Deem and Ramdas Pophale) SiO2 
 PCOD9381415
Probable space group: P M M M
;
_chemical_formula_sum "Si O2"
_cell_formula_units_Z 52
_cell_length_a 12.308778
_cell_length_b 26.053176
_cell_length_c 7.473598
_cell_angle_alpha 90.000000
_cell_angle_beta 90.000000
_cell_angle_gamma 90.000000
_cell_volume 2396.654031
_symmetry_space_group_name_H-M "P M M M"
_symmetry_group_IT_number 47
_symmetry_cell_setting 'orthorhombic'
loop_
_space_group_symop_operation_xyz
x,y,z
-x,-y,z
x,-y,-z
-x,y,-z
-x,-y,-z
x,y,-z
-x,y,z
x,-y,z
loop_
_atom_site_type_symbol
_atom_site_label
_atom_site_fract_x
_atom_site_fract_y
_atom_site_fract_z
Si Si1 0.375711 0.347604 0.719722
Si Si2 0.234426 0.942292 0.781087
Si Si3 0.375965 0.845932 0.783684
Si Si4 0.761917 0.441855 0.710964
Si Si5 0.000000 0.904866 0.211503
Si Si6 0.769055 0.253489 0.289294
Si Si7 0.000000 0.216474 0.283089
Si Si8 0.000000 0.558772 0.212974
O O1 0.375153 0.347358 0.500000
O O2 0.500000 0.340554 0.775129
O O3 0.325256 0.401617 0.780916
O O4 0.298618 0.301502 0.782679
O O5 0.317627 0.898230 0.723197
O O6 0.112736 0.927973 0.718857
O O7 0.263063 0.000000 0.726900
O O8 0.233613 0.941212 0.000000
O O9 0.500000 0.841336 0.720734
O O10 0.302996 0.797575 0.730429
O O11 0.378012 0.846810 0.000000
O O12 0.741986 0.446454 0.500000
O O13 0.759496 0.500000 0.786630
O O14 0.883981 0.419359 0.730832
O O15 0.000000 0.843639 0.235240
O O16 0.000000 0.916043 0.000000
O O17 0.783350 0.263473 0.500000
O O18 0.889222 0.242549 0.216205
O O19 0.000000 0.218473 0.500000
O O20 0.000000 0.500000 0.284221
O O21 0.000000 0.557216 0.000000
#
# Coordination Sequence:
#
# PCOD9381415 Si02
#       8
#     8   8   8   8   4   8   4   4
#     4   9  18  32  51  76 103 132 168 208 250 299
#     4   9  17  29  48  75 102 128 162 203 248 299
#     4  10  20  33  51  75 101 131 168 209 250 291
#     4   9  17  30  51  78 105 134 170 212 255 298
#     4  10  17  30  53  75  97 127 162 200 246 300
#     4  10  20  35  54  74  99 132 169 206 250 304
#     4  10  20  32  50  76 100 124 160 206 249 292
#     4   9  17  30  49  73 103 137 170 206 249 299
#
# _framework density 21.696916000000002
#
# number of rings (size 3 to 8) (size 9 to 14) (size 15 to 20)
#    0.000    2.538    1.538    0.923    0.000    4.000 
#    0.000    6.154    0.000    4.615    0.000    3.231 
#    0.000    0.000    0.000    0.000    0.000    0.000 
#
# Total GULP energy -290366.053375 kJ/mol
# GULP energy per Si atom -5583.962565 kJ/mol
# Density = 2.164753 g / cm^3
# Si number density = 21.696916 Si / 1000 Ang^3
#
#
#
# Elastic Constant Matrix: (Units=GPa)
#
#
# Indices 1 2 3 4 5 6 
#
# 1 156.2793 73.8546 -13.4648 0.0000 0.0000 0.0000
# 2 73.8546 131.6822 -9.2785 0.0000 0.0000 0.0000
# 3 -13.4648 -9.2785 56.6754 0.0000 0.0000 0.0000
# 4 0.0000 0.0000 0.0000 15.1089 0.0000 0.0000
# 5 0.0000 0.0000 0.0000 0.0000 -8.3581 0.0000
# 6 0.0000 0.0000 0.0000 0.0000 0.0000 21.6563
#
#
#
# Elastic Compliance Matrix: (Units=1/GPa)
#
#
# Indices 1 2 3 4 5 6 
#
# 1 0.008800 -0.004844 0.001298 0.000000 0.000000 0.000000
# 2 -0.004844 0.010349 0.000543 0.000000 0.000000 0.000000
# 3 0.001298 0.000543 0.018042 0.000000 0.000000 0.000000
# 4 0.000000 0.000000 0.000000 0.066186 0.000000 0.000000
# 5 0.000000 0.000000 0.000000 0.000000 -0.119645 0.000000
# 6 0.000000 0.000000 0.000000 0.000000 0.000000 0.046176
#
#
# Mechanical properties :
#
#
# Convention : Reuss Voigt Hill
#
# Bulk Modulus (GPa) = 32.06704 49.65107 40.85905
# Shear Modulus (GPa) = 107.97200 25.24979 66.61090
#
# Velocity S-wave (km/s) = 7.06200 3.41508 5.54683
# Velocity P-wave (km/s) = 9.01706 6.20354 7.73923
#
# Compressibility (1/GPa) = 0.03118467
#
# Stress axis : x y z
#
# Youngs Moduli (GPa) = 113.63941 96.62680 55.42746
#
# Poissons Ratio (x) = 0.46806 -0.07192
# Poissons Ratio (y) = 0.55046 -0.03012
# Poissons Ratio (z) = -0.14746 -0.05251
#
# Static dielectric constant tensor:
#      x y z
#    x 1.771770 0.000000 0.000000 
#    y 0.000000 1.756720 0.000000 
#    z 0.000000 0.000000 1.862700 
# 
# From -- ./inp_files/4685.got.cif
#   From: 2010.05.17/outbox.cif.g08.bks.cpg/sg47_3_cif.got.tgz:4685.got - 2010.06.03 20:15:42.
