data_PCOD9381888
_publ_section_title
;
Structure prediction by ZEFSAII (Michael W. Deem and Ramdas Pophale) SiO2 
 PCOD9381888
Probable space group: P M M M
;
_chemical_formula_sum "Si O2"
_cell_formula_units_Z 56
_cell_length_a 24.049788
_cell_length_b 16.989351
_cell_length_c 8.673071
_cell_angle_alpha 90.000000
_cell_angle_beta 90.000000
_cell_angle_gamma 90.000000
_cell_volume 3543.732593
_symmetry_space_group_name_H-M "P M M M"
_symmetry_group_IT_number 47
_symmetry_cell_setting 'orthorhombic'
loop_
_space_group_symop_operation_xyz
x,y,z
-x,-y,z
x,-y,-z
-x,y,-z
-x,-y,-z
x,y,-z
-x,y,z
x,-y,z
loop_
_atom_site_type_symbol
_atom_site_label
_atom_site_fract_x
_atom_site_fract_y
_atom_site_fract_z
Si Si1 0.327360 0.157334 0.315918
Si Si2 0.739409 0.000000 0.685834
Si Si3 0.938212 0.676177 0.685872
Si Si4 0.863465 0.000000 0.185837
Si Si5 0.436553 0.091164 0.185832
Si Si6 0.766622 0.738649 0.184155
Si Si7 0.173538 0.589702 0.686533
Si Si8 0.880356 0.173393 0.813885
O O1 0.328220 0.161214 0.500000
O O2 0.294732 0.077522 0.269034
O O3 0.389563 0.147120 0.253870
O O4 0.290618 0.228246 0.250678
O O5 0.799432 0.000000 0.762859
O O6 0.254265 0.000000 0.500000
O O7 0.938123 0.676488 0.500000
O O8 0.888206 0.618710 0.735154
O O9 0.922090 0.763052 0.743894
O O10 0.000000 0.653726 0.738612
O O11 0.888819 0.916629 0.237798
O O12 0.865424 0.000000 0.000000
O O13 0.500000 0.110816 0.230433
O O14 0.426199 0.000000 0.234225
O O15 0.433590 0.092879 0.000000
O O16 0.783880 0.653281 0.246450
O O17 0.818051 0.796801 0.229287
O O18 0.764193 0.737693 0.000000
O O19 0.175727 0.593133 0.500000
O O20 0.183530 0.500000 0.734411
O O21 0.884130 0.176515 0.000000
#
# Coordination Sequence:
#
# PCOD9381888 Si02
#       8
#     8   4   8   4   8   8   8   8
#     4  11  20  30  44  67  96 126 163 201 240 281
#     4  10  20  28  39  64  93 121 154 196 238 277
#     4   9  18  32  49  68  90 117 149 184 223 272
#     4  10  18  30  45  62  85 115 156 196 232 275
#     4   9  18  31  45  62  89 129 173 211 244 276
#     4  10  19  31  48  69  93 122 153 190 233 279
#     4   9  18  33  52  73  97 121 144 179 229 283
#     4   9  18  30  45  64  86 115 150 190 233 273
#
# _framework density 15.802548
#
# number of rings (size 3 to 8) (size 9 to 14) (size 15 to 20)
#    0.000    2.429    2.143    1.286    0.000    2.857 
#    0.000    2.500    0.000    2.143    0.000    4.000 
#    0.000    0.571    0.000    6.000    0.000    2.571 
#
# Total GULP energy -312239.567388 kJ/mol
# GULP energy per Si atom -5575.706560 kJ/mol
# Density = 1.576658 g / cm^3
# Si number density = 15.802548 Si / 1000 Ang^3
#
#
#
# Elastic Constant Matrix: (Units=GPa)
#
#
# Indices 1 2 3 4 5 6 
#
# 1 99.8174 49.4457 23.5989 0.0000 0.0000 0.0000
# 2 49.4457 116.1740 23.7794 0.0000 0.0000 0.0000
# 3 23.5989 23.7794 12.1339 0.0000 0.0000 0.0000
# 4 0.0000 0.0000 0.0000 20.2689 0.0000 0.0000
# 5 0.0000 0.0000 0.0000 0.0000 22.6677 0.0000
# 6 0.0000 0.0000 0.0000 0.0000 0.0000 14.4510
#
#
#
# Elastic Compliance Matrix: (Units=1/GPa)
#
#
# Indices 1 2 3 4 5 6 
#
# 1 0.018597 -0.000855 -0.034493 0.000000 0.000000 0.000000
# 2 -0.000855 0.014413 -0.026583 0.000000 0.000000 0.000000
# 3 -0.034493 -0.026583 0.201595 0.000000 0.000000 0.000000
# 4 0.000000 0.000000 0.000000 0.049337 0.000000 0.000000
# 5 0.000000 0.000000 0.000000 0.000000 0.044116 0.000000
# 6 0.000000 0.000000 0.000000 0.000000 0.000000 0.069200
#
#
# Mechanical properties :
#
#
# Convention : Reuss Voigt Hill
#
# Bulk Modulus (GPa) = 9.02994 46.86371 27.94682
# Shear Modulus (GPa) = 8.96005 20.23094 14.59549
#
# Velocity S-wave (km/s) = 2.38376 3.58192 3.04240
# Velocity P-wave (km/s) = 3.64733 6.84303 5.48316
#
# Compressibility (1/GPa) = 0.11074265
#
# Stress axis : x y z
#
# Youngs Moduli (GPa) = 53.77340 69.38257 4.96043
#
# Poissons Ratio (x) = 0.05930 0.17110
# Poissons Ratio (y) = 0.04596 0.13186
# Poissons Ratio (z) = 1.85481 1.84442
#
# Static dielectric constant tensor:
#      x y z
#    x 1.522320 0.000000 0.000000 
#    y 0.000000 1.522830 0.000000 
#    z 0.000000 0.000000 1.530530 
# 
# From -- ./inp_files/11322.got.cif
#   From: 2010.05.17/outbox.cif.g08.bks.cpg/sg47_6_cif.got.tgz:11322.got - 2010.06.03 20:15:42.
