data_PCOD9381937
_publ_section_title
;
Structure prediction by ZEFSAII (Michael W. Deem and Ramdas Pophale) SiO2 
 PCOD9381937
Probable space group: P M M M
;
_chemical_formula_sum "Si O2"
_cell_formula_units_Z 64
_cell_length_a 7.844744
_cell_length_b 25.267805
_cell_length_c 15.234474
_cell_angle_alpha 90.000000
_cell_angle_beta 90.000000
_cell_angle_gamma 90.000000
_cell_volume 3019.769235
_symmetry_space_group_name_H-M "P M M M"
_symmetry_group_IT_number 47
_symmetry_cell_setting 'orthorhombic'
loop_
_space_group_symop_operation_xyz
x,y,z
-x,-y,z
x,-y,-z
-x,y,-z
-x,-y,-z
x,y,-z
-x,y,z
x,-y,z
loop_
_atom_site_type_symbol
_atom_site_label
_atom_site_fract_x
_atom_site_fract_y
_atom_site_fract_z
Si Si1 0.792967 0.327881 0.352051
Si Si2 0.208817 0.789809 0.401917
Si Si3 0.191533 0.146797 0.761268
Si Si4 0.295961 0.443073 0.838545
Si Si5 0.200556 0.442507 0.365828
Si Si6 0.704000 0.059975 0.098299
Si Si7 0.200101 0.330742 0.144659
Si Si8 0.304653 0.220607 0.904720
O O1 0.734342 0.271260 0.388148
O O2 0.730488 0.384251 0.391357
O O3 0.754427 0.328298 0.248176
O O4 0.000000 0.329086 0.360964
O O5 0.252763 0.806645 0.500000
O O6 0.273891 0.830153 0.327518
O O7 0.000000 0.788259 0.394639
O O8 0.258480 0.099811 0.822611
O O9 0.196735 0.197210 0.826124
O O10 0.000000 0.131563 0.738251
O O11 0.500000 0.440796 0.828352
O O12 0.251445 0.500000 0.878815
O O13 0.216676 0.442401 0.740444
O O14 0.237898 0.390044 0.885812
O O15 0.272874 0.500000 0.394468
O O16 0.000000 0.443045 0.388820
O O17 0.500000 0.057775 0.092630
O O18 0.766326 0.000000 0.114896
O O19 0.765822 0.075966 0.000000
O O20 0.298490 0.283657 0.099044
O O21 0.000000 0.320202 0.135239
O O22 0.500000 0.202368 0.893856
O O23 0.243142 0.202916 0.000000
#
# Coordination Sequence:
#
# PCOD9381937 Si02
#       8
#     8   8   8   8   8   8   8   8
#     4   8  13  24  42  64  91 125 166 212 265 319
#     4   9  17  30  49  74 105 142 184 228 274 321
#     4  11  21  34  55  84 113 144 186 230 268 305
#     4   9  16  25  39  62  91 123 162 206 257 321
#     4   8  13  21  36  59  86 118 160 212 266 320
#     4   9  19  37  60  86 118 155 188 216 258 320
#     4  10  18  30  48  69  95 127 168 217 267 317
#     4  11  23  36  51  74 106 143 176 209 262 327
#
# _framework density 21.193671999999999
#
# number of rings (size 3 to 8) (size 9 to 14) (size 15 to 20)
#    0.000    2.625    1.250    3.000    0.000    3.750 
#    0.000    0.625    0.000    2.625    0.000    7.875 
#    0.000    0.000    0.000   15.750    0.000   14.750 
#
# Total GULP energy -356786.596975 kJ/mol
# GULP energy per Si atom -5574.790578 kJ/mol
# Density = 2.114543 g / cm^3
# Si number density = 21.193672 Si / 1000 Ang^3
#
#
#
# Elastic Constant Matrix: (Units=GPa)
#
#
# Indices 1 2 3 4 5 6 
#
# 1 25.8466 5.8469 12.4700 0.0000 0.0000 0.0000
# 2 5.8469 163.0392 67.8714 0.0000 0.0000 0.0000
# 3 12.4700 67.8714 108.6117 0.0000 0.0000 0.0000
# 4 0.0000 0.0000 0.0000 -11.3988 0.0000 0.0000
# 5 0.0000 0.0000 0.0000 0.0000 7.0989 0.0000
# 6 0.0000 0.0000 0.0000 0.0000 0.0000 23.7688
#
#
#
# Elastic Compliance Matrix: (Units=1/GPa)
#
#
# Indices 1 2 3 4 5 6 
#
# 1 0.041011 0.000661 -0.005122 0.000000 0.000000 0.000000
# 2 0.000661 0.008301 -0.005263 0.000000 0.000000 0.000000
# 3 -0.005122 -0.005263 0.013084 0.000000 0.000000 0.000000
# 4 0.000000 0.000000 0.000000 -0.087729 0.000000 0.000000
# 5 0.000000 0.000000 0.000000 0.000000 0.140868 0.000000
# 6 0.000000 0.000000 0.000000 0.000000 0.000000 0.042072
#
#
# Mechanical properties :
#
#
# Convention : Reuss Voigt Hill
#
# Bulk Modulus (GPa) = 23.28345 52.20824 37.74584
# Shear Modulus (GPa) = 26.12735 17.98105 22.05420
#
# Velocity S-wave (km/s) = 3.51492 2.91592 3.22934
# Velocity P-wave (km/s) = 5.24240 6.00201 5.63502
#
# Compressibility (1/GPa) = 0.04294897
#
# Stress axis : x y z
#
# Youngs Moduli (GPa) = 24.38353 120.47131 76.42881
#
# Poissons Ratio (x) = -0.07969 0.39147
# Poissons Ratio (y) = -0.01613 0.40225
# Poissons Ratio (z) = 0.12489 0.63405
#
# Static dielectric constant tensor:
#      x y z
#    x 1.770850 0.000000 0.000000 
#    y 0.000000 1.810740 0.000000 
#    z 0.000000 0.000000 1.766400 
# 
# From -- ./inp_files/21878.got.cif
#   From: 2010.05.17/outbox.cif.g08.bks.cpg/sg47_11_cif.got.tgz:21878.got - 2010.06.03 20:15:42.
