data_PCOD9381267
_publ_section_title
;
Structure prediction by ZEFSAII (Michael W. Deem and Ramdas Pophale) SiO2 
 PCOD9381267
Probable space group: P M M M
;
_chemical_formula_sum "Si O2"
_cell_formula_units_Z 40
_cell_length_a 18.998643
_cell_length_b 7.762972
_cell_length_c 19.167023
_cell_angle_alpha 90.000000
_cell_angle_beta 90.000000
_cell_angle_gamma 90.000000
_cell_volume 2826.866282
_symmetry_space_group_name_H-M "P M M M"
_symmetry_group_IT_number 47
_symmetry_cell_setting 'orthorhombic'
loop_
_space_group_symop_operation_xyz
x,y,z
-x,-y,z
x,-y,-z
-x,y,-z
-x,-y,-z
x,y,-z
-x,y,z
x,-y,z
loop_
_atom_site_type_symbol
_atom_site_label
_atom_site_fract_x
_atom_site_fract_y
_atom_site_fract_z
Si Si1 0.363025 0.290426 0.332616
Si Si2 0.585413 0.500000 0.920570
Si Si3 0.770419 0.294778 0.579906
Si Si4 0.583295 0.803036 0.816950
Si Si5 0.500000 0.710094 0.420073
Si Si6 0.924195 0.207395 0.581508
O O1 0.362913 0.500000 0.329646
O O2 0.291960 0.230497 0.370773
O O3 0.374730 0.225006 0.254534
O O4 0.430106 0.236726 0.379018
O O5 0.500000 0.500000 0.923801
O O6 0.605465 0.667865 0.875947
O O7 0.611462 0.500000 0.000000
O O8 0.766387 0.225340 0.500000
O O9 0.760751 0.500000 0.574651
O O10 0.848756 0.264440 0.609539
O O11 0.500000 0.770621 0.801381
O O12 0.589866 0.000000 0.840447
O O13 0.500000 0.500000 0.421104
O O14 0.500000 0.768581 0.500000
O O15 0.923698 0.262129 0.500000
O O16 0.000000 0.265886 0.611213
O O17 0.924401 0.000000 0.582699
#
# Coordination Sequence:
#
# PCOD9381267 Si02
#       6
#     8   4   8   8   4   8
#     4  10  17  27  42  56  80 112 143 177 217 257
#     4   9  18  32  50  68  86 106 131 168 213 253
#     4   9  17  26  37  57  80 102 137 183 221 254
#     4  10  19  30  46  65  85 110 141 172 209 256
#     4   9  16  24  39  57  71 103 149 184 217 252
#     4   8  14  25  39  52  68  95 130 168 216 267
#
# _framework density 14.149945000000001
#
# number of rings (size 3 to 8) (size 9 to 14) (size 15 to 20)
#    0.000    2.800    2.000    1.200    0.000    4.000 
#    0.000    4.000    0.000    2.400    0.000    0.000 
#    0.000    0.000    0.000    0.000    0.000    2.000 
#
# Total GULP energy -222784.826539 kJ/mol
# GULP energy per Si atom -5569.620663 kJ/mol
# Density = 1.411774 g / cm^3
# Si number density = 14.149945 Si / 1000 Ang^3
#
#
#
# Elastic Constant Matrix: (Units=GPa)
#
#
# Indices 1 2 3 4 5 6 
#
# 1 107.6225 20.9222 44.6445 0.0000 0.0000 0.0000
# 2 20.9222 43.6413 29.8322 0.0000 0.0000 0.0000
# 3 44.6445 29.8322 93.7244 0.0000 0.0000 0.0000
# 4 0.0000 0.0000 0.0000 1.4234 0.0000 0.0000
# 5 0.0000 0.0000 0.0000 0.0000 3.4800 0.0000
# 6 0.0000 0.0000 0.0000 0.0000 0.0000 4.1233
#
#
#
# Elastic Compliance Matrix: (Units=1/GPa)
#
#
# Indices 1 2 3 4 5 6 
#
# 1 0.011760 -0.002312 -0.004866 0.000000 0.000000 0.000000
# 2 -0.002312 0.029741 -0.008365 0.000000 0.000000 0.000000
# 3 -0.004866 -0.008365 0.015650 0.000000 0.000000 0.000000
# 4 0.000000 0.000000 0.000000 0.702527 0.000000 0.000000
# 5 0.000000 0.000000 0.000000 0.000000 0.287355 0.000000
# 6 0.000000 0.000000 0.000000 0.000000 0.000000 0.242527
#
#
# Mechanical properties :
#
#
# Convention : Reuss Voigt Hill
#
# Bulk Modulus (GPa) = 38.36571 48.42068 43.39320
# Shear Modulus (GPa) = 3.76129 11.77795 7.76962
#
# Velocity S-wave (km/s) = 1.63216 2.88821 2.34581
# Velocity P-wave (km/s) = 5.54296 6.73916 6.17012
#
# Compressibility (1/GPa) = 0.02606494
#
# Stress axis : x y z
#
# Youngs Moduli (GPa) = 85.03725 33.62407 63.89781
#
# Poissons Ratio (x) = 0.07772 0.31091
# Poissons Ratio (y) = 0.19657 0.53452
# Poissons Ratio (z) = 0.41377 0.28127
#
# Static dielectric constant tensor:
#      x y z
#    x 1.484420 0.000000 0.000000 
#    y 0.000000 1.516550 0.000000 
#    z 0.000000 0.000000 1.434690 
# 
# From -- ./inp_files/9347.got.cif
#   From: 2010.05.17/outbox.cif.g08.bks.cpg/sg47_5_cif.got.tgz:9347.got - 2010.06.03 20:15:42.
