data_PCOD9381110
_publ_section_title
;
Structure prediction by ZEFSAII (Michael W. Deem and Ramdas Pophale) SiO2 
 PCOD9381110
Probable space group: I M A 2
;
_chemical_formula_sum "Si O2"
_cell_formula_units_Z 32
_cell_length_a 9.000000
_cell_length_b 21.000000
_cell_length_c 21.000000
_cell_angle_alpha 90.000000
_cell_angle_beta 90.000000
_cell_angle_gamma 90.000000
_cell_volume 3969.000000
_symmetry_space_group_name_H-M "I M A 2"
_symmetry_group_IT_number 46
_symmetry_cell_setting 'orthorhombic'
loop_
_space_group_symop_operation_xyz
x,y,z
-x,-y,z
1/2-x,y,z
1/2+x,-y,z
1/2+x,1/2+y,1/2+z
1/2-x,1/2-y,1/2+z
-x,1/2+y,1/2+z
x,1/2-y,1/2+z
loop_
_atom_site_type_symbol
_atom_site_label
_atom_site_fract_x
_atom_site_fract_y
_atom_site_fract_z
Si Si1 0.918811 0.770585 0.705570
Si Si2 0.416079 0.738081 0.512220
Si Si3 0.419882 0.061905 0.511539
Si Si4 0.421521 0.821968 0.291924
Si Si5 0.581314 0.356616 0.112130
Si Si6 0.073483 0.432966 0.714007
Si Si7 0.416275 0.182621 0.418233
Si Si8 0.080743 0.345407 0.602360
O O1 0.750000 0.780516 0.725945
O O2 0.917781 0.713242 0.653193
O O3 0.019050 0.743241 0.761559
O O4 0.986466 0.831657 0.671200
O O5 0.250000 0.733453 0.485532
O O6 0.414310 0.796479 0.563059
O O7 0.540955 0.758153 0.462341
O O8 0.465623 0.675238 0.549140
O O9 0.250000 0.047132 0.526912
O O10 0.505228 0.086661 0.573737
O O11 0.421029 0.119726 0.461669
O O12 0.500000 0.000000 0.484831
O O13 0.250000 0.830044 0.277182
O O14 0.511857 0.879879 0.261305
O O15 0.458643 0.822335 0.365584
O O16 0.750000 0.371419 0.129721
O O17 0.250000 0.436334 0.720140
O O18 0.039303 0.406944 0.643216
O O19 0.000000 0.500000 0.726547
O O20 0.250000 0.188306 0.391050
O O21 0.250000 0.351101 0.578596
#
# Coordination Sequence:
#
# PCOD9381110 Si02
#       8
#     8   8   8   8   8   8   8   8
#     4   9  16  28  45  64  86 111 142 179 222 267
#     4   9  16  26  43  65  85 107 139 179 222 265
#     4  10  20  32  46  63  86 118 153 188 224 263
#     4  11  21  32  46  64  88 118 153 189 224 262
#     4   9  16  27  44  65  87 110 140 179 223 267
#     4  10  20  33  47  64  88 119 154 188 223 262
#     4  10  20  33  46  61  86 119 153 187 224 264
#     4   8  15  27  43  62  84 110 139 175 220 266
#
# _framework density 8.0624839999999995
#
# number of rings (size 3 to 8) (size 9 to 14) (size 15 to 20)
#    0.000    2.500    0.000    4.125    0.000    8.500 
#    0.000    1.250    0.000    0.000    0.000    0.000 
#    0.000    1.000    0.000    8.500    0.000    6.500 
#
# Total GULP energy -178190.731589 kJ/mol
# GULP energy per Si atom -5568.460362 kJ/mol
# Density = 0.804413 g / cm^3
# Si number density = 8.062484 Si / 1000 Ang^3
#
#
#
# Elastic Constant Matrix: (Units=GPa)
#
#
# Indices 1 2 3 4 5 6 
#
# 1 37.5432 0.5452 22.3658 0.0000 0.0000 0.0000
# 2 0.5452 -20.1936 24.0111 0.0000 0.0000 0.0000
# 3 22.3658 24.0111 24.2486 0.0000 0.0000 0.0000
# 4 0.0000 0.0000 0.0000 3.0907 0.0000 0.0000
# 5 0.0000 0.0000 0.0000 0.0000 71.9468 0.0000
# 6 0.0000 0.0000 0.0000 0.0000 0.0000 17.3557
#
#
#
# Elastic Compliance Matrix: (Units=1/GPa)
#
#
# Indices 1 2 3 4 5 6 
#
# 1 0.036329 -0.017848 -0.015835 0.000000 0.000000 0.000000
# 2 -0.017848 -0.013975 0.030300 0.000000 0.000000 0.000000
# 3 -0.015835 0.030300 0.025842 0.000000 0.000000 0.000000
# 4 0.000000 0.000000 0.000000 0.323546 0.000000 0.000000
# 5 0.000000 0.000000 0.000000 0.000000 0.013899 0.000000
# 6 0.000000 0.000000 0.000000 0.000000 0.000000 0.057618
#
#
# Mechanical properties :
#
#
# Convention : Reuss Voigt Hill
#
# Bulk Modulus (GPa) = 24.13705 15.04916 19.59310
# Shear Modulus (GPa) = 10.77969 18.12373 14.45171
#
# Velocity S-wave (km/s) = 2.58836 3.35618 2.99696
# Velocity P-wave (km/s) = 4.89224 4.93677 4.91456
#
# Compressibility (1/GPa) = 0.04143009
#
# Stress axis : x y z
#
# Youngs Moduli (GPa) = 27.52646 -71.55763 38.69662
#
# Poissons Ratio (x) = -1.27714 0.61276
# Poissons Ratio (y) = 0.49128 -1.17250
# Poissons Ratio (z) = 0.43588 2.16818
#
# Static dielectric constant tensor:
#      x y z
#    x 1.386530 0.000000 0.000000 
#    y 0.000000 1.514600 0.000000 
#    z 0.000000 0.000000 1.555490 
# 
# From -- ./inp_files/21420.got.cif
#   From: 2010.05.17/outbox.ucp.g08.bks.cvg/sg46_11_cif.got.tgz:21420.got - 2010.06.11 16:34:52.
