data_PCOD9381671
_publ_section_title
;
Structure prediction by ZEFSAII (Michael W. Deem and Ramdas Pophale) SiO2 
 PCOD9381671
Probable space group: P M M M
;
_chemical_formula_sum "Si O2"
_cell_formula_units_Z 52
_cell_length_a 24.833664
_cell_length_b 7.605729
_cell_length_c 14.102782
_cell_angle_alpha 90.000000
_cell_angle_beta 90.000000
_cell_angle_gamma 90.000000
_cell_volume 2663.706929
_symmetry_space_group_name_H-M "P M M M"
_symmetry_group_IT_number 47
_symmetry_cell_setting 'orthorhombic'
loop_
_space_group_symop_operation_xyz
x,y,z
-x,-y,z
x,-y,-z
-x,y,-z
-x,-y,-z
x,y,-z
-x,y,z
x,-y,z
loop_
_atom_site_type_symbol
_atom_site_label
_atom_site_fract_x
_atom_site_fract_y
_atom_site_fract_z
Si Si1 0.223982 0.795107 0.897128
Si Si2 0.560281 0.714293 0.109948
Si Si3 0.331119 0.291971 0.201507
Si Si4 0.728256 0.787706 0.395559
Si Si5 0.937875 0.709696 0.000000
Si Si6 0.166975 0.215746 0.707939
Si Si7 0.060807 0.208377 0.789890
O O1 0.286733 0.786553 0.869428
O O2 0.193444 0.720826 0.806573
O O3 0.208769 0.000000 0.901641
O O4 0.213476 0.715006 0.000000
O O5 0.500000 0.773446 0.136389
O O6 0.559455 0.500000 0.112421
O O7 0.609317 0.773662 0.175980
O O8 0.570166 0.763499 0.000000
O O9 0.330272 0.500000 0.184683
O O10 0.310448 0.261559 0.308472
O O11 0.712292 0.724939 0.500000
O O12 0.789575 0.730393 0.370607
O O13 0.728802 0.000000 0.396712
O O14 0.916858 0.768792 0.102338
O O15 0.937220 0.500000 0.000000
O O16 0.000000 0.774015 0.000000
O O17 0.105097 0.274469 0.715080
O O18 0.166618 0.000000 0.706569
O O19 0.000000 0.283418 0.785159
O O20 0.056295 0.000000 0.775360
#
# Coordination Sequence:
#
# PCOD9381671 Si02
#       7
#     8   8   8   8   4   8   8
#     4   9  17  28  42  60  87 125 158 181 212 260
#     4   8  14  25  42  66  97 131 159 178 204 250
#     4  10  18  28  46  71  95 116 145 189 233 264
#     4   9  18  34  53  67  82 112 151 186 227 282
#     4   9  17  27  37  53  81 115 147 175 204 243
#     4   8  15  27  44  64  83 107 144 182 216 261
#     4   9  16  26  42  61  81 109 145 181 214 254
#
# _framework density 19.521667000000001
#
# number of rings (size 3 to 8) (size 9 to 14) (size 15 to 20)
#    0.000    3.154    0.000    2.538    1.077    2.154 
#    0.000    3.077    0.000    2.769    0.000   11.846 
#    0.000    0.000    0.000    9.385    0.000   10.154 
#
# Total GULP energy -289667.253889 kJ/mol
# GULP energy per Si atom -5570.524113 kJ/mol
# Density = 1.947724 g / cm^3
# Si number density = 19.521667 Si / 1000 Ang^3
#
#
#
# Elastic Constant Matrix: (Units=GPa)
#
#
# Indices 1 2 3 4 5 6 
#
# 1 116.3856 -2.4081 24.5562 0.0000 0.0000 0.0000
# 2 -2.4081 43.7563 -2.9622 0.0000 0.0000 0.0000
# 3 24.5562 -2.9622 59.6750 0.0000 0.0000 0.0000
# 4 0.0000 0.0000 0.0000 3.3958 0.0000 0.0000
# 5 0.0000 0.0000 0.0000 0.0000 19.5967 0.0000
# 6 0.0000 0.0000 0.0000 0.0000 0.0000 13.0281
#
#
#
# Elastic Compliance Matrix: (Units=1/GPa)
#
#
# Indices 1 2 3 4 5 6 
#
# 1 0.009412 0.000257 -0.003860 0.000000 0.000000 0.000000
# 2 0.000257 0.022938 0.001033 0.000000 0.000000 0.000000
# 3 -0.003860 0.001033 0.018397 0.000000 0.000000 0.000000
# 4 0.000000 0.000000 0.000000 0.294485 0.000000 0.000000
# 5 0.000000 0.000000 0.000000 0.000000 0.051029 0.000000
# 6 0.000000 0.000000 0.000000 0.000000 0.000000 0.076757
#
#
# Mechanical properties :
#
#
# Convention : Reuss Voigt Hill
#
# Bulk Modulus (GPa) = 21.92706 28.68766 25.30736
# Shear Modulus (GPa) = 10.13457 20.57952 15.35704
#
# Velocity S-wave (km/s) = 2.28095 3.25035 2.80780
# Velocity P-wave (km/s) = 4.26538 5.36783 4.84804
#
# Compressibility (1/GPa) = 0.04560575
#
# Stress axis : x y z
#
# Youngs Moduli (GPa) = 106.24832 43.59600 54.35607
#
# Poissons Ratio (x) = -0.01119 0.20983
# Poissons Ratio (y) = -0.02727 -0.05615
# Poissons Ratio (z) = 0.41015 -0.04503
#
# Static dielectric constant tensor:
#      x y z
#    x 1.733640 0.000000 0.000000 
#    y 0.000000 1.748190 0.000000 
#    z 0.000000 0.000000 1.679770 
# 
# From -- ./inp_files/25460.got.cif
#   From: 2010.05.17/outbox.cif.g08.bks.cpg/sg47_13_cif.got.tgz:25460.got - 2010.06.03 20:15:42.
