data_PCOD9381506
_publ_section_title
;
Structure prediction by ZEFSAII (Michael W. Deem and Ramdas Pophale) SiO2 
 PCOD9381506
Probable space group: P M M M
;
_chemical_formula_sum "Si O2"
_cell_formula_units_Z 32
_cell_length_a 7.662051
_cell_length_b 27.228615
_cell_length_c 7.310993
_cell_angle_alpha 90.000000
_cell_angle_beta 90.000000
_cell_angle_gamma 90.000000
_cell_volume 1525.270806
_symmetry_space_group_name_H-M "P M M M"
_symmetry_group_IT_number 47
_symmetry_cell_setting 'orthorhombic'
loop_
_space_group_symop_operation_xyz
x,y,z
-x,-y,z
x,-y,-z
-x,y,-z
-x,-y,-z
x,y,-z
-x,y,z
x,-y,z
loop_
_atom_site_type_symbol
_atom_site_label
_atom_site_fract_x
_atom_site_fract_y
_atom_site_fract_z
Si Si1 0.500000 0.426796 0.715916
Si Si2 0.800359 0.239904 0.777209
Si Si3 0.500000 0.688637 0.780890
Si Si4 0.500000 0.056277 0.776519
Si Si5 0.800060 0.129400 0.222491
Si Si6 0.201997 0.500000 0.723131
O O1 0.500000 0.436002 0.500000
O O2 0.500000 0.368851 0.742624
O O3 0.322885 0.453706 0.781997
O O4 0.669499 0.281862 0.714265
O O5 0.746200 0.184650 0.722826
O O6 0.000000 0.247739 0.719984
O O7 0.799906 0.240168 0.000000
O O8 0.500000 0.693209 0.000000
O O9 0.331422 0.087335 0.717948
O O10 0.500000 0.000000 0.716708
O O11 0.500000 0.055783 0.000000
O O12 0.000000 0.121539 0.279337
O O13 0.798759 0.129182 0.000000
O O14 0.193246 0.500000 0.500000
O O15 0.000000 0.500000 0.785124
#
# Coordination Sequence:
#
# PCOD9381506 Si02
#       6
#     4   8   4   4   8   4
#     4   9  18  31  47  68  88 107 137 170 198 234
#     4   8  14  24  37  53  73  99 131 163 196 238
#     4  10  18  27  42  63  87 110 131 165 208 240
#     4   9  15  19  24  37  56  80 116 162 205 238
#     4   8  13  21  31  41  57  85 120 156 192 231
#     4   8  15  31  52  66  80 110 146 170 190 228
#
# _framework density 20.979880000000001
#
# number of rings (size 3 to 8) (size 9 to 14) (size 15 to 20)
#    0.000    3.500    0.000    3.000    0.000    4.500 
#    0.000    3.750    0.000    0.750    0.000    0.000 
#    0.000    0.000    0.000    0.000    0.000   10.000 
#
# Total GULP energy -178515.383273 kJ/mol
# GULP energy per Si atom -5578.605727 kJ/mol
# Density = 2.093213 g / cm^3
# Si number density = 20.979880 Si / 1000 Ang^3
#
#
#
# Elastic Constant Matrix: (Units=GPa)
#
#
# Indices 1 2 3 4 5 6 
#
# 1 182.6198 148.3618 5.1906 0.0000 0.0000 0.0000
# 2 148.3618 235.7137 0.9292 0.0000 0.0000 0.0000
# 3 5.1906 0.9292 82.8868 0.0000 0.0000 0.0000
# 4 0.0000 0.0000 0.0000 26.0580 0.0000 0.0000
# 5 0.0000 0.0000 0.0000 0.0000 -14.5952 0.0000
# 6 0.0000 0.0000 0.0000 0.0000 0.0000 -29.7542
#
#
#
# Elastic Compliance Matrix: (Units=1/GPa)
#
#
# Indices 1 2 3 4 5 6 
#
# 1 0.011238 -0.007071 -0.000624 0.000000 0.000000 0.000000
# 2 -0.007071 0.008692 0.000345 0.000000 0.000000 0.000000
# 3 -0.000624 0.000345 0.012100 0.000000 0.000000 0.000000
# 4 0.000000 0.000000 0.000000 0.038376 0.000000 0.000000
# 5 0.000000 0.000000 0.000000 0.000000 -0.068515 0.000000
# 6 0.000000 0.000000 0.000000 0.000000 0.000000 -0.033609
#
#
# Mechanical properties :
#
#
# Convention : Reuss Voigt Hill
#
# Bulk Modulus (GPa) = 57.70526 90.02040 73.86283
# Shear Modulus (GPa) = -444.76632 19.45763 -212.65435
#
# Velocity S-wave (km/s) = -14.57590 3.04870 -10.07875
# Velocity P-wave (km/s) = 15.99097 7.44271 10.00793
#
# Compressibility (1/GPa) = 0.01732944
#
# Stress axis : x y z
#
# Youngs Moduli (GPa) = 88.98261 115.05268 82.64544
#
# Poissons Ratio (x) = 0.81354 0.05161
# Poissons Ratio (y) = 0.62920 -0.02854
# Poissons Ratio (z) = 0.05557 -0.03974
#
# Static dielectric constant tensor:
#      x y z
#    x 1.732440 0.000000 0.000000 
#    y 0.000000 1.716760 0.000000 
#    z 0.000000 0.000000 1.838920 
# 
# From -- ./inp_files/14837.got.cif
#   From: 2010.05.17/outbox.cif.g08.bks.cpg/sg47_8_cif.got.tgz:14837.got - 2010.06.03 20:15:42.
