data_PCOD9381529
_publ_section_title
;
Structure prediction by ZEFSAII (Michael W. Deem and Ramdas Pophale) SiO2 
 PCOD9381529
Probable space group: P M M M
;
_chemical_formula_sum "Si O2"
_cell_formula_units_Z 64
_cell_length_a 29.683309
_cell_length_b 14.577880
_cell_length_c 7.264028
_cell_angle_alpha 90.000000
_cell_angle_beta 90.000000
_cell_angle_gamma 90.000000
_cell_volume 3143.288138
_symmetry_space_group_name_H-M "P M M M"
_symmetry_group_IT_number 47
_symmetry_cell_setting 'orthorhombic'
loop_
_space_group_symop_operation_xyz
x,y,z
-x,-y,z
x,-y,-z
-x,y,-z
-x,-y,-z
x,y,-z
-x,y,z
x,-y,z
loop_
_atom_site_type_symbol
_atom_site_label
_atom_site_fract_x
_atom_site_fract_y
_atom_site_fract_z
Si Si1 0.865818 0.776691 0.276333
Si Si2 0.192560 0.605183 0.275603
Si Si3 0.623132 0.752216 0.291074
Si Si4 0.780772 0.896740 0.723364
Si Si5 0.051719 0.895719 0.275995
Si Si6 0.550333 0.106628 0.275931
Si Si7 0.277298 0.274870 0.723779
Si Si8 0.450422 0.606199 0.777945
O O1 0.866782 0.773788 0.500000
O O2 0.846357 0.677556 0.218405
O O3 0.828145 0.851497 0.223329
O O4 0.913577 0.817383 0.215304
O O5 0.192354 0.604982 0.500000
O O6 0.186890 0.500000 0.216408
O O7 0.240708 0.648910 0.217677
O O8 0.633230 0.782909 0.500000
O O9 0.591625 0.831742 0.208211
O O10 0.671225 0.722601 0.211810
O O11 0.590002 0.665965 0.294685
O O12 0.780633 0.899111 0.500000
O O13 0.742854 0.823957 0.776645
O O14 0.774818 0.000000 0.788547
O O15 0.052265 0.895457 0.500000
O O16 0.000000 0.880608 0.219568
O O17 0.064977 0.000000 0.221687
O O18 0.550184 0.112264 0.500000
O O19 0.500000 0.136211 0.216090
O O20 0.555776 0.000000 0.227706
O O21 0.277111 0.281379 0.500000
O O22 0.500000 0.639182 0.718530
O O23 0.446363 0.500000 0.726059
O O24 0.449232 0.610732 0.000000
#
# Coordination Sequence:
#
# PCOD9381529 Si02
#       8
#     8   8   8   8   8   8   8   8
#     4   8  12  17  25  36  48  68 103 137 164 207
#     4   8  13  21  30  37  51  78 105 128 161 208
#     4  10  18  27  43  66  86 103 127 160 194 226
#     4   8  12  18  28  41  61  89 114 135 164 209
#     4   8  12  16  22  33  48  64  85 123 176 220
#     4   8  14  24  37  55  80 106 127 147 176 216
#     4   8  15  23  30  48  73  90 108 137 174 213
#     4   9  19  35  50  62  79 104 130 155 190 237
#
# _framework density 20.360842999999999
#
# number of rings (size 3 to 8) (size 9 to 14) (size 15 to 20)
#    0.000    3.625    0.000    3.375    0.000    3.500 
#    0.000    4.375    0.000    0.750    0.000    4.375 
#    0.000    0.000    0.000    0.000    0.000    0.000 
#
# Total GULP energy -356814.610646 kJ/mol
# GULP energy per Si atom -5575.228291 kJ/mol
# Density = 2.031450 g / cm^3
# Si number density = 20.360843 Si / 1000 Ang^3
#
#
#
# Elastic Constant Matrix: (Units=GPa)
#
#
# Indices 1 2 3 4 5 6 
#
# 1 175.6681 102.1745 4.1742 0.0000 0.0000 0.0000
# 2 102.1745 164.8672 1.8468 0.0000 0.0000 0.0000
# 3 4.1742 1.8468 88.3843 0.0000 0.0000 0.0000
# 4 0.0000 0.0000 0.0000 1.4816 0.0000 0.0000
# 5 0.0000 0.0000 0.0000 0.0000 -4.2984 0.0000
# 6 0.0000 0.0000 0.0000 0.0000 0.0000 40.0090
#
#
#
# Elastic Compliance Matrix: (Units=1/GPa)
#
#
# Indices 1 2 3 4 5 6 
#
# 1 0.008909 -0.005518 -0.000305 0.000000 0.000000 0.000000
# 2 -0.005518 0.009484 0.000062 0.000000 0.000000 0.000000
# 3 -0.000305 0.000062 0.011327 0.000000 0.000000 0.000000
# 4 0.000000 0.000000 0.000000 0.674924 0.000000 0.000000
# 5 0.000000 0.000000 0.000000 0.000000 -0.232644 0.000000
# 6 0.000000 0.000000 0.000000 0.000000 0.000000 0.024994
#
#
# Mechanical properties :
#
#
# Convention : Reuss Voigt Hill
#
# Bulk Modulus (GPa) = 54.94794 71.70118 63.32456
# Shear Modulus (GPa) = 9.71660 28.82005 19.26832
#
# Velocity S-wave (km/s) = 2.18691 3.76635 3.07960
# Velocity P-wave (km/s) = 5.78121 7.36244 6.61921
#
# Compressibility (1/GPa) = 0.01819905
#
# Stress axis : x y z
#
# Youngs Moduli (GPa) = 112.24274 105.43523 88.28189
#
# Poissons Ratio (x) = 0.58179 0.02697
# Poissons Ratio (y) = 0.61935 -0.00551
# Poissons Ratio (z) = 0.03429 -0.00658
#
# Static dielectric constant tensor:
#      x y z
#    x 1.706630 0.000000 0.000000 
#    y 0.000000 1.696010 0.000000 
#    z 0.000000 0.000000 1.807510 
# 
# From -- ./inp_files/14308.got.cif
#   From: 2010.05.17/outbox.cif.g08.bks.cpg/sg47_8_cif.got.tgz:14308.got - 2010.06.03 20:15:42.
