data_PCOD9381241
_publ_section_title
;
Structure prediction by ZEFSAII (Michael W. Deem and Ramdas Pophale) SiO2 
 PCOD9381241
Probable space group: P M M M
;
_chemical_formula_sum "Si O2"
_cell_formula_units_Z 52
_cell_length_a 7.477837
_cell_length_b 28.912532
_cell_length_c 12.484375
_cell_angle_alpha 90.000000
_cell_angle_beta 90.000000
_cell_angle_gamma 90.000000
_cell_volume 2699.161844
_symmetry_space_group_name_H-M "P M M M"
_symmetry_group_IT_number 47
_symmetry_cell_setting 'orthorhombic'
loop_
_space_group_symop_operation_xyz
x,y,z
-x,-y,z
x,-y,-z
-x,y,-z
-x,-y,-z
x,y,-z
-x,y,z
x,-y,z
loop_
_atom_site_type_symbol
_atom_site_label
_atom_site_fract_x
_atom_site_fract_y
_atom_site_fract_z
Si Si1 0.209047 0.639565 0.234294
Si Si2 0.780861 0.725925 0.377059
Si Si3 0.705532 0.000000 0.869983
Si Si4 0.786240 0.350937 0.000000
Si Si5 0.786585 0.196304 0.218201
Si Si6 0.285249 0.899291 0.122678
Si Si7 0.716030 0.551939 0.377164
Si Si8 0.785085 0.758652 0.000000
O O1 0.280487 0.682661 0.303896
O O2 0.285696 0.632861 0.115030
O O3 0.221996 0.592790 0.301406
O O4 0.000000 0.651355 0.218581
O O5 0.721632 0.722095 0.500000
O O6 0.723904 0.773558 0.319032
O O7 0.000000 0.724745 0.379493
O O8 0.784564 0.050115 0.842673
O O9 0.500000 0.000000 0.830943
O O10 0.701110 0.000000 0.000000
O O11 0.758641 0.295860 0.000000
O O12 0.000000 0.361380 0.000000
O O13 0.753718 0.141985 0.204110
O O14 0.714167 0.218917 0.108519
O O15 0.000000 0.202464 0.217716
O O16 0.500000 0.903267 0.115452
O O17 0.221809 0.888677 0.000000
O O18 0.773532 0.560089 0.500000
O O19 0.500000 0.552314 0.376590
O O20 0.773407 0.500000 0.346048
O O21 0.000000 0.765995 0.000000
#
# Coordination Sequence:
#
# PCOD9381241 Si02
#       8
#     8   8   4   4   8   8   8   4
#     4  10  18  30  51  75  96 120 154 192 225 264
#     4   9  17  28  44  68  94 119 149 184 222 264
#     4   7  12  24  39  55  80 115 146 172 215 270
#     4   9  16  28  46  70  98 127 152 181 224 271
#     4  10  17  26  43  64  88 118 149 179 215 262
#     4   9  16  26  41  61  86 115 146 180 218 263
#     4   9  19  36  54  70  92 123 155 189 234 280
#     4   9  14  24  41  61  87 121 151 171 208 265
#
# _framework density 19.265239000000001
#
# number of rings (size 3 to 8) (size 9 to 14) (size 15 to 20)
#    0.000    2.846    2.308    1.846    0.000    1.231 
#    0.000    2.692    0.000    6.000    0.000    0.538 
#    0.000    4.308    0.000    0.000    0.000    0.000 
#
# Total GULP energy -289821.468870 kJ/mol
# GULP energy per Si atom -5573.489786 kJ/mol
# Density = 1.922139 g / cm^3
# Si number density = 19.265239 Si / 1000 Ang^3
#
#
#
# Elastic Constant Matrix: (Units=GPa)
#
#
# Indices 1 2 3 4 5 6 
#
# 1 52.4381 -4.0297 7.3571 0.0000 0.0000 0.0000
# 2 -4.0297 122.1924 92.2411 0.0000 0.0000 0.0000
# 3 7.3571 92.2411 141.8464 0.0000 0.0000 0.0000
# 4 0.0000 0.0000 0.0000 16.3997 0.0000 0.0000
# 5 0.0000 0.0000 0.0000 0.0000 1.5852 0.0000
# 6 0.0000 0.0000 0.0000 0.0000 0.0000 17.6510
#
#
#
# Elastic Compliance Matrix: (Units=1/GPa)
#
#
# Indices 1 2 3 4 5 6 
#
# 1 0.019682 0.002789 -0.002834 0.000000 0.000000 0.000000
# 2 0.002789 0.016470 -0.010855 0.000000 0.000000 0.000000
# 3 -0.002834 -0.010855 0.014256 0.000000 0.000000 0.000000
# 4 0.000000 0.000000 0.000000 0.060977 0.000000 0.000000
# 5 0.000000 0.000000 0.000000 0.000000 0.630855 0.000000
# 6 0.000000 0.000000 0.000000 0.000000 0.000000 0.056654
#
#
# Mechanical properties :
#
#
# Convention : Reuss Voigt Hill
#
# Bulk Modulus (GPa) = 34.95684 56.40153 45.67919
# Shear Modulus (GPa) = 6.02243 21.85440 13.93842
#
# Velocity S-wave (km/s) = 1.76999 3.37173 2.69272
# Velocity P-wave (km/s) = 4.72880 6.67068 5.78185
#
# Compressibility (1/GPa) = 0.02860670
#
# Stress axis : x y z
#
# Youngs Moduli (GPa) = 50.80770 60.71664 70.14750
#
# Poissons Ratio (x) = -0.16932 0.19882
# Poissons Ratio (y) = -0.14168 0.76144
# Poissons Ratio (z) = 0.14400 0.65907
#
# Static dielectric constant tensor:
#      x y z
#    x 1.747610 0.000000 0.000000 
#    y 0.000000 1.684360 0.000000 
#    z 0.000000 0.000000 1.664380 
# 
# From -- ./inp_files/15714.got.cif
#   From: 2010.05.17/outbox.cif.g08.bks.cpg/sg47_8_cif.got.tgz:15714.got - 2010.06.03 20:15:42.
