data_PCOD9381626
_publ_section_title
;
Structure prediction by ZEFSAII (Michael W. Deem and Ramdas Pophale) SiO2 
 PCOD9381626
Probable space group: P M M M
;
_chemical_formula_sum "Si O2"
_cell_formula_units_Z 56
_cell_length_a 7.559417
_cell_length_b 19.422184
_cell_length_c 19.641385
_cell_angle_alpha 90.000000
_cell_angle_beta 90.000000
_cell_angle_gamma 90.000000
_cell_volume 2883.755765
_symmetry_space_group_name_H-M "P M M M"
_symmetry_group_IT_number 47
_symmetry_cell_setting 'orthorhombic'
loop_
_space_group_symop_operation_xyz
x,y,z
-x,-y,z
x,-y,-z
-x,y,-z
-x,-y,-z
x,y,-z
-x,y,z
x,-y,z
loop_
_atom_site_type_symbol
_atom_site_label
_atom_site_fract_x
_atom_site_fract_y
_atom_site_fract_z
Si Si1 0.285560 0.922133 0.332649
Si Si2 0.787102 0.580834 0.072611
Si Si3 0.291052 0.421976 0.777893
Si Si4 0.216066 0.920989 0.921833
Si Si5 0.707068 0.292987 0.702075
Si Si6 0.283557 0.204053 0.576998
Si Si7 0.795027 0.832259 0.796748
O O1 0.500000 0.921299 0.329589
O O2 0.232827 0.870358 0.392848
O O3 0.220078 0.890320 0.261763
O O4 0.226397 0.000000 0.342335
O O5 0.735284 0.500000 0.072235
O O6 0.725898 0.607116 0.145245
O O7 0.000000 0.583523 0.073004
O O8 0.726389 0.610915 0.000000
O O9 0.500000 0.427821 0.764737
O O10 0.216772 0.500000 0.775029
O O11 0.214571 0.365020 0.727292
O O12 0.278570 0.865995 0.865894
O O13 0.000000 0.920561 0.919781
O O14 0.269815 0.000000 0.905649
O O15 0.267637 0.906204 0.000000
O O16 0.500000 0.304882 0.688819
O O17 0.780126 0.258741 0.633378
O O18 0.716386 0.235886 0.762008
O O19 0.224411 0.215343 0.500000
O O20 0.500000 0.205841 0.576890
O O21 0.000000 0.815998 0.808998
#
# Coordination Sequence:
#
# PCOD9381626 Si02
#       7
#     8   8   8   8   8   8   8
#     4   9  17  28  43  65  92 119 145 177 217 255
#     4   8  14  25  41  62  88 114 139 172 213 252
#     4   9  17  29  46  66  87 114 147 182 221 267
#     4   8  14  25  41  61  84 110 143 183 219 246
#     4   9  18  32  47  64  88 114 141 177 220 264
#     4   8  14  26  45  66  86 113 148 178 206 250
#     4  10  18  28  45  66  87 114 149 184 218 260
#
# _framework density 19.419119999999999
#
# number of rings (size 3 to 8) (size 9 to 14) (size 15 to 20)
#    0.000    3.286    0.000    2.571    0.000    2.000 
#    0.000    3.571    0.000   11.571    0.000   12.000 
#    0.000    0.000    0.000    8.714    0.000    9.429 
#
# Total GULP energy -311915.017987 kJ/mol
# GULP energy per Si atom -5569.911035 kJ/mol
# Density = 1.937492 g / cm^3
# Si number density = 19.419120 Si / 1000 Ang^3
#
#
#
# Elastic Constant Matrix: (Units=GPa)
#
#
# Indices 1 2 3 4 5 6 
#
# 1 41.6577 -1.4042 -4.5476 0.0000 0.0000 0.0000
# 2 -1.4042 99.9448 68.9564 0.0000 0.0000 0.0000
# 3 -4.5476 68.9564 126.4899 0.0000 0.0000 0.0000
# 4 0.0000 0.0000 0.0000 14.8204 0.0000 0.0000
# 5 0.0000 0.0000 0.0000 0.0000 51.4318 0.0000
# 6 0.0000 0.0000 0.0000 0.0000 0.0000 2.8900
#
#
#
# Elastic Compliance Matrix: (Units=1/GPa)
#
#
# Indices 1 2 3 4 5 6 
#
# 1 0.024111 -0.000416 0.001093 0.000000 0.000000 0.000000
# 2 -0.000416 0.016045 -0.008762 0.000000 0.000000 0.000000
# 3 0.001093 -0.008762 0.012722 0.000000 0.000000 0.000000
# 4 0.000000 0.000000 0.000000 0.067475 0.000000 0.000000
# 5 0.000000 0.000000 0.000000 0.000000 0.019443 0.000000
# 6 0.000000 0.000000 0.000000 0.000000 0.000000 0.346025
#
#
# Mechanical properties :
#
#
# Convention : Reuss Voigt Hill
#
# Bulk Modulus (GPa) = 27.24139 43.78907 35.51523
# Shear Modulus (GPa) = 9.72337 27.50095 18.61216
#
# Velocity S-wave (km/s) = 2.24009 3.76730 3.09924
# Velocity P-wave (km/s) = 4.55513 6.44374 5.57992
#
# Compressibility (1/GPa) = 0.03670885
#
# Stress axis : x y z
#
# Youngs Moduli (GPa) = 41.47567 62.32510 78.60619
#
# Poissons Ratio (x) = 0.02591 -0.08595
# Poissons Ratio (y) = 0.01724 0.68874
# Poissons Ratio (z) = -0.04535 0.54608
#
# Static dielectric constant tensor:
#      x y z
#    x 1.728710 0.000000 0.000000 
#    y 0.000000 1.684370 0.000000 
#    z 0.000000 0.000000 1.687650 
# 
# From -- ./inp_files/26952.got.cif
#   From: 2010.05.17/outbox.cif.g08.bks.cpg/sg47_14_cif.got.tgz:26952.got - 2010.06.03 20:15:42.
