data_PCOD9381044
_publ_section_title
;
Structure prediction by ZEFSAII (Michael W. Deem and Ramdas Pophale) SiO2 
 PCOD9381044
Probable space group: I M A 2
;
_chemical_formula_sum "Si O2"
_cell_formula_units_Z 32
_cell_length_a 10.329616
_cell_length_b 15.923003
_cell_length_c 7.729938
_cell_angle_alpha 90.000000
_cell_angle_beta 90.000000
_cell_angle_gamma 90.000000
_cell_volume 1271.408658
_symmetry_space_group_name_H-M "I M A 2"
_symmetry_group_IT_number 46
_symmetry_cell_setting 'orthorhombic'
loop_
_space_group_symop_operation_xyz
x,y,z
-x,-y,z
1/2-x,y,z
1/2+x,-y,z
1/2+x,1/2+y,1/2+z
1/2-x,1/2-y,1/2+z
-x,1/2+y,1/2+z
x,1/2-y,1/2+z
loop_
_atom_site_type_symbol
_atom_site_label
_atom_site_fract_x
_atom_site_fract_y
_atom_site_fract_z
Si Si1 0.250000 0.917053 0.447060
Si Si2 0.750000 0.575967 0.690128
Si Si3 0.750000 0.965063 0.771067
Si Si4 0.394034 0.836016 0.922282
Si Si5 0.987982 0.326352 0.798637
Si Si6 0.000000 0.500000 0.277100
O O1 0.387372 0.869154 0.431987
O O2 0.250000 0.988529 0.297212
O O3 0.250000 0.953923 0.638482
O O4 0.750000 0.562113 0.478610
O O5 0.620985 0.625897 0.752880
O O6 0.607921 0.937721 0.701504
O O7 0.250000 0.810964 0.864654
O O8 0.499281 0.770888 0.850282
O O9 0.416677 0.934680 0.888164
O O10 0.404358 0.827466 0.125379
#
# Coordination Sequence:
#
# PCOD9381044 Si02
#       6
#     4   4   4   8   8   4
#     4  12  28  51  82 122 165 229 282 347 425 538
#     4  12  28  53  76 128 169 221 282 369 429 510
#     4  12  28  46  82 118 164 212 284 334 430 508
#     4  12  25  48  79 116 164 222 285 351 429 524
#     4  12  28  48  81 117 174 218 289 354 436 510
#     4  12  26  46  82 114 158 222 278 348 424 522
#
# _framework density 25.168932000000002
#
# number of rings (size 3 to 8) (size 9 to 14) (size 15 to 20)
#    0.000    0.000    6.250    2.250    7.000    2.000 
#    0.000    0.000    0.000    0.000    0.000    0.000 
#    0.000    0.000    0.000    0.000    0.000    0.000 
#
# Total GULP energy -89070.809634 kJ/mol
# GULP energy per Si atom -5566.925602 kJ/mol
# Density = 2.511165 g / cm^3
# Si number density = 25.168932 Si / 1000 Ang^3
#
#
#
# Elastic Constant Matrix: (Units=GPa)
#
#
# Indices 1 2 3 4 5 6 
#
# 1 200.0398 44.4785 12.6365 0.0000 0.0000 0.0000
# 2 44.4785 142.1232 33.1951 0.0000 0.0000 0.0000
# 3 12.6365 33.1951 89.9639 -0.0001 0.0001 -0.0004
# 4 0.0000 0.0000 -0.0001 29.2498 0.0000 -0.0001
# 5 0.0000 0.0000 0.0001 0.0000 -10.7036 0.0002
# 6 0.0000 0.0000 -0.0004 -0.0001 0.0002 86.2710
#
#
#
# Elastic Compliance Matrix: (Units=1/GPa)
#
#
# Indices 1 2 3 4 5 6 
#
# 1 0.005375 -0.001648 -0.000147 0.000000 0.000000 0.000000
# 2 -0.001648 0.008205 -0.002796 0.000000 0.000000 0.000000
# 3 -0.000147 -0.002796 0.012168 0.000000 0.000000 0.000000
# 4 0.000000 0.000000 0.000000 0.034188 0.000000 0.000000
# 5 0.000000 0.000000 0.000000 0.000000 -0.093427 0.000000
# 6 0.000000 0.000000 0.000000 0.000000 0.000000 0.011591
#
#
# Mechanical properties :
#
#
# Convention : Reuss Voigt Hill
#
# Bulk Modulus (GPa) = 60.36444 68.08302 64.22373
# Shear Modulus (GPa) = -694.78305 43.75123 -325.51591
#
# Velocity S-wave (km/s) = -16.63271 4.17382 -11.38478
# Velocity P-wave (km/s) = 18.56952 7.09485 12.13446
#
# Compressibility (1/GPa) = 0.01656605
#
# Stress axis : x y z
#
# Youngs Moduli (GPa) = 186.05847 121.87891 82.18354
#
# Poissons Ratio (x) = 0.20082 0.01208
# Poissons Ratio (y) = 0.30657 0.22979
# Poissons Ratio (z) = 0.02734 0.34077
#
# Static dielectric constant tensor:
#      x y z
#    x 5.194730 0.000000 0.000000 
#    y 0.000000 2.070770 0.000000 
#    z 0.000000 0.000000 1.964700 
# 
# From -- ./inp_files/4315.got.cif
#   From: 2010.05.17/outbox.cif.g08.bks.cpg/sg46_3_cif.got.tgz:4315.got - 2010.06.03 19:58:25.
