data_PCOD9381792
_publ_section_title
;
Structure prediction by ZEFSAII (Michael W. Deem and Ramdas Pophale) SiO2 
 PCOD9381792
Probable space group: P M M M
;
_chemical_formula_sum "Si O2"
_cell_formula_units_Z 52
_cell_length_a 28.912657
_cell_length_b 8.889594
_cell_length_c 12.157375
_cell_angle_alpha 90.000000
_cell_angle_beta 90.000000
_cell_angle_gamma 90.000000
_cell_volume 3124.710189
_symmetry_space_group_name_H-M "P M M M"
_symmetry_group_IT_number 47
_symmetry_cell_setting 'orthorhombic'
loop_
_space_group_symop_operation_xyz
x,y,z
-x,-y,z
x,-y,-z
-x,y,-z
-x,-y,-z
x,y,-z
-x,y,z
x,-y,z
loop_
_atom_site_type_symbol
_atom_site_label
_atom_site_fract_x
_atom_site_fract_y
_atom_site_fract_z
Si Si1 0.403386 0.679528 0.371318
Si Si2 0.686273 0.176541 0.277418
Si Si3 0.158624 0.323664 0.500000
Si Si4 0.254536 0.171141 0.500000
Si Si5 0.769754 0.183466 0.873202
Si Si6 0.500000 0.172822 0.633467
Si Si7 0.139918 0.182261 0.732578
Si Si8 0.948361 0.183082 0.872961
O O1 0.395648 0.726898 0.500000
O O2 0.405449 0.500000 0.370120
O O3 0.361253 0.737192 0.297466
O O4 0.452568 0.746048 0.334032
O O5 0.714795 0.186595 0.391466
O O6 0.721634 0.231241 0.183405
O O7 0.676238 0.000000 0.258174
O O8 0.149624 0.500000 0.500000
O O9 0.213371 0.288632 0.500000
O O10 0.140034 0.248072 0.610864
O O11 0.234734 0.000000 0.500000
O O12 0.813779 0.228826 0.799222
O O13 0.769567 0.000000 0.871872
O O14 0.774134 0.231072 0.000000
O O15 0.500000 0.175520 0.500000
O O16 0.500000 0.000000 0.669326
O O17 0.094228 0.231527 0.798338
O O18 0.140502 0.000000 0.727201
O O19 0.000000 0.230811 0.837861
O O20 0.948109 0.000000 0.872020
O O21 0.941568 0.228449 0.000000
#
# Coordination Sequence:
#
# PCOD9381792 Si02
#       8
#     8   8   4   4   8   4   8   8
#     4  10  19  29  43  66  97 130 163 199 240 286
#     4  10  18  29  47  69  96 126 161 199 236 286
#     4  12  24  34  47  69  99 132 168 208 247 290
#     4  10  18  32  50  70  94 128 170 205 240 290
#     4   9  17  29  48  74  98 123 160 203 243 286
#     4   9  17  29  45  65  92 127 164 201 243 289
#     4  10  18  32  53  74  99 132 165 199 244 300
#     4   8  14  26  49  82 109 125 154 207 260 298
#
# _framework density 16.641544
#
# number of rings (size 3 to 8) (size 9 to 14) (size 15 to 20)
#    0.000    2.385    2.308    2.308    0.000    4.000 
#    0.000    0.385    0.000    6.000    0.000    1.615 
#    0.000    4.308    0.000    0.000    0.000    0.000 
#
# Total GULP energy -289894.804667 kJ/mol
# GULP energy per Si atom -5574.900090 kJ/mol
# Density = 1.660367 g / cm^3
# Si number density = 16.641544 Si / 1000 Ang^3
#
#
#
# Elastic Constant Matrix: (Units=GPa)
#
#
# Indices 1 2 3 4 5 6 
#
# 1 158.0113 41.5999 71.8811 0.0000 0.0000 0.0000
# 2 41.5999 30.0885 25.0500 0.0000 0.0000 0.0000
# 3 71.8811 25.0500 106.1021 0.0000 0.0000 0.0000
# 4 0.0000 0.0000 0.0000 4.1446 0.0000 0.0000
# 5 0.0000 0.0000 0.0000 0.0000 12.8232 0.0000
# 6 0.0000 0.0000 0.0000 0.0000 0.0000 0.2513
#
#
#
# Elastic Compliance Matrix: (Units=1/GPa)
#
#
# Indices 1 2 3 4 5 6 
#
# 1 0.011873 -0.012097 -0.005188 0.000000 0.000000 0.000000
# 2 -0.012097 0.053691 -0.004481 0.000000 0.000000 0.000000
# 3 -0.005188 -0.004481 0.013997 0.000000 0.000000 0.000000
# 4 0.000000 0.000000 0.000000 0.241277 0.000000 0.000000
# 5 0.000000 0.000000 0.000000 0.000000 0.077984 0.000000
# 6 0.000000 0.000000 0.000000 0.000000 0.000000 3.979286
#
#
# Mechanical properties :
#
#
# Convention : Reuss Voigt Hill
#
# Bulk Modulus (GPa) = 27.75429 63.47376 45.61403
# Shear Modulus (GPa) = 1.12774 13.82188 7.47481
#
# Velocity S-wave (km/s) = 0.82410 2.88508 2.12165
# Velocity P-wave (km/s) = 4.19755 7.02302 5.78542
#
# Compressibility (1/GPa) = 0.03603047
#
# Stress axis : x y z
#
# Youngs Moduli (GPa) = 84.22120 18.62520 71.44167
#
# Poissons Ratio (x) = 0.22531 0.37064
# Poissons Ratio (y) = 1.01882 0.32011
# Poissons Ratio (z) = 0.43693 0.08345
#
# Static dielectric constant tensor:
#      x y z
#    x 1.560190 0.000000 0.000000 
#    y 0.000000 1.557340 0.000000 
#    z 0.000000 0.000000 1.550090 
# 
# From -- ./inp_files/19864.got.cif
#   From: 2010.05.17/outbox.cif.g08.bks.cpg/sg47_10_cif.got.tgz:19864.got - 2010.06.03 20:15:42.
