data_PCOD9381778
_publ_section_title
;
Structure prediction by ZEFSAII (Michael W. Deem and Ramdas Pophale) SiO2 
 PCOD9381778
Probable space group: P M M M
;
_chemical_formula_sum "Si O2"
_cell_formula_units_Z 64
_cell_length_a 14.717738
_cell_length_b 9.274422
_cell_length_c 32.348169
_cell_angle_alpha 90.000000
_cell_angle_beta 90.000000
_cell_angle_gamma 90.000000
_cell_volume 4415.476970
_symmetry_space_group_name_H-M "P M M M"
_symmetry_group_IT_number 47
_symmetry_cell_setting 'orthorhombic'
loop_
_space_group_symop_operation_xyz
x,y,z
-x,-y,z
x,-y,-z
-x,y,-z
-x,-y,-z
x,y,-z
-x,y,z
x,-y,z
loop_
_atom_site_type_symbol
_atom_site_label
_atom_site_fract_x
_atom_site_fract_y
_atom_site_fract_z
Si Si1 0.389482 0.833542 0.373562
Si Si2 0.103860 0.828067 0.079649
Si Si3 0.710522 0.672986 0.207551
Si Si4 0.393200 0.174326 0.718726
Si Si5 0.724808 0.327309 0.953878
Si Si6 0.603926 0.675198 0.876044
Si Si7 0.103108 0.329590 0.167367
Si Si8 0.389728 0.331033 0.454726
O O1 0.500000 0.830377 0.373864
O O2 0.364504 0.779914 0.327741
O O3 0.356612 0.748115 0.413657
O O4 0.362175 0.000000 0.377207
O O5 0.179571 0.751707 0.052227
O O6 0.114056 0.762686 0.125756
O O7 0.000000 0.797984 0.066327
O O8 0.116434 0.000000 0.080272
O O9 0.700463 0.500000 0.212668
O O10 0.667085 0.753486 0.246196
O O11 0.657148 0.715786 0.165585
O O12 0.816544 0.704757 0.199104
O O13 0.500000 0.211784 0.724671
O O14 0.387286 0.000000 0.720311
O O15 0.738144 0.500000 0.949662
O O16 0.657960 0.279611 0.917087
O O17 0.688609 0.300015 0.000000
O O18 0.500000 0.725991 0.875482
O O19 0.602245 0.500000 0.876686
O O20 0.113408 0.500000 0.156490
O O21 0.000000 0.308604 0.182787
O O22 0.359833 0.275221 0.500000
O O23 0.500000 0.320512 0.454464
O O24 0.367630 0.500000 0.452497
#
# Coordination Sequence:
#
# PCOD9381778 Si02
#       8
#     8   8   8   8   8   8   8   8
#     4   8  14  24  35  47  68 100 137 175 211 247
#     4  10  20  33  50  71  93 114 134 162 203 245
#     4  10  18  29  47  68  87 108 136 170 207 247
#     4   9  18  30  41  57  84 115 145 178 215 251
#     4  10  20  34  51  69  89 115 144 169 199 242
#     4   9  17  30  47  68  91 109 133 173 209 237
#     4   9  17  31  51  71  91 112 134 164 201 244
#     4   8  13  20  30  46  68  94 128 173 220 258
#
# _framework density 14.49447
#
# number of rings (size 3 to 8) (size 9 to 14) (size 15 to 20)
#    0.000    2.875    1.250    1.875    0.000    3.500 
#    0.000    5.000    0.000    0.375    0.000    0.875 
#    0.000    0.000    0.000    0.000    0.000    0.625 
#
# Total GULP energy -356350.500429 kJ/mol
# GULP energy per Si atom -5567.976569 kJ/mol
# Density = 1.446148 g / cm^3
# Si number density = 14.494470 Si / 1000 Ang^3
#
#
#
# Elastic Constant Matrix: (Units=GPa)
#
#
# Indices 1 2 3 4 5 6 
#
# 1 66.0656 21.9416 49.9497 0.0000 0.0000 0.0000
# 2 21.9416 20.1540 38.1736 0.0000 0.0000 0.0000
# 3 49.9497 38.1736 135.4822 0.0000 0.0000 0.0000
# 4 0.0000 0.0000 0.0000 5.0538 0.0000 0.0000
# 5 0.0000 0.0000 0.0000 0.0000 5.6677 0.0000
# 6 0.0000 0.0000 0.0000 0.0000 0.0000 13.4142
#
#
#
# Elastic Compliance Matrix: (Units=1/GPa)
#
#
# Indices 1 2 3 4 5 6 
#
# 1 0.024352 -0.020387 -0.003234 0.000000 0.000000 0.000000
# 2 -0.020387 0.123470 -0.027273 0.000000 0.000000 0.000000
# 3 -0.003234 -0.027273 0.016258 0.000000 0.000000 0.000000
# 4 0.000000 0.000000 0.000000 0.197872 0.000000 0.000000
# 5 0.000000 0.000000 0.000000 0.000000 0.176437 0.000000
# 6 0.000000 0.000000 0.000000 0.000000 0.000000 0.074548
#
#
# Mechanical properties :
#
#
# Convention : Reuss Voigt Hill
#
# Bulk Modulus (GPa) = 16.05313 49.09239 32.57276
# Shear Modulus (GPa) = 6.79820 12.26960 9.53390
#
# Velocity S-wave (km/s) = 2.16804 2.91263 2.56747
# Velocity P-wave (km/s) = 4.16732 6.72714 5.59558
#
# Compressibility (1/GPa) = 0.06229316
#
# Stress axis : x y z
#
# Youngs Moduli (GPa) = 41.06366 8.09911 61.50865
#
# Poissons Ratio (x) = 0.16511 0.19893
# Poissons Ratio (y) = 0.83715 1.67753
# Poissons Ratio (z) = 0.13280 0.22089
#
# Static dielectric constant tensor:
#      x y z
#    x 1.469890 0.000000 0.000000 
#    y 0.000000 1.482440 0.000000 
#    z 0.000000 0.000000 1.486750 
# 
# From -- ./inp_files/25868.got.cif
#   From: 2010.05.17/outbox.cif.g08.bks.cpg/sg47_13_cif.got.tgz:25868.got - 2010.06.03 20:15:42.
