data_PCOD9381780
_publ_section_title
;
Structure prediction by ZEFSAII (Michael W. Deem and Ramdas Pophale) SiO2 
 PCOD9381780
Probable space group: P M M M
;
_chemical_formula_sum "Si O2"
_cell_formula_units_Z 64
_cell_length_a 7.443079
_cell_length_b 25.523435
_cell_length_c 16.101205
_cell_angle_alpha 90.000000
_cell_angle_beta 90.000000
_cell_angle_gamma 90.000000
_cell_volume 3058.793301
_symmetry_space_group_name_H-M "P M M M"
_symmetry_group_IT_number 47
_symmetry_cell_setting 'orthorhombic'
loop_
_space_group_symop_operation_xyz
x,y,z
-x,-y,z
x,-y,-z
-x,y,-z
-x,-y,-z
x,y,-z
-x,y,z
x,-y,z
loop_
_atom_site_type_symbol
_atom_site_label
_atom_site_fract_x
_atom_site_fract_y
_atom_site_fract_z
Si Si1 0.780499 0.359681 0.408064
Si Si2 0.290987 0.708465 0.126275
Si Si3 0.782898 0.262197 0.311259
Si Si4 0.793600 0.407876 0.088742
Si Si5 0.786352 0.146153 0.724212
Si Si6 0.716145 0.174214 0.909548
Si Si7 0.219485 0.559259 0.268065
Si Si8 0.219221 0.939760 0.594192
O O1 0.721835 0.374462 0.500000
O O2 0.726097 0.300508 0.384598
O O3 0.719988 0.399281 0.336611
O O4 0.000000 0.360544 0.407297
O O5 0.500000 0.706140 0.102920
O O6 0.271953 0.710237 0.225482
O O7 0.205194 0.655422 0.094000
O O8 0.219282 0.765304 0.098220
O O9 0.715548 0.202675 0.306602
O O10 0.000000 0.259946 0.311917
O O11 0.714408 0.427679 0.175268
O O12 0.000000 0.426257 0.087793
O O13 0.711809 0.423076 0.000000
O O14 0.761187 0.144475 0.824041
O O15 0.717582 0.099101 0.666728
O O16 0.000000 0.146987 0.711558
O O17 0.500000 0.176474 0.910347
O O18 0.775059 0.153362 0.000000
O O19 0.266694 0.500000 0.290311
O O20 0.000000 0.562816 0.265814
O O21 0.271752 0.923986 0.500000
O O22 0.000000 0.939758 0.595177
O O23 0.275239 0.000000 0.607395
#
# Coordination Sequence:
#
# PCOD9381780 Si02
#       8
#     8   8   8   8   8   8   8   8
#     4   9  16  26  43  66  91 117 143 178 226 272
#     4  10  18  29  47  68  91 120 154 185 220 270
#     4   9  16  28  44  66  98 123 146 183 229 272
#     4  10  19  30  46  67  90 116 145 182 229 273
#     4   9  17  27  45  72  96 122 158 196 230 269
#     4   9  18  31  45  64  94 129 159 188 228 278
#     4   9  17  29  44  63  89 117 147 185 224 268
#     4   8  14  26  45  70 100 130 159 194 236 280
#
# _framework density 20.923283999999999
#
# number of rings (size 3 to 8) (size 9 to 14) (size 15 to 20)
#    0.000    2.875    1.250    1.125    0.000    2.500 
#    0.000    5.000    0.000    1.875    0.000    7.875 
#    0.000    1.000    0.000    0.000    0.000    0.000 
#
# Total GULP energy -356975.391683 kJ/mol
# GULP energy per Si atom -5577.740495 kJ/mol
# Density = 2.087566 g / cm^3
# Si number density = 20.923284 Si / 1000 Ang^3
#
#
#
# Elastic Constant Matrix: (Units=GPa)
#
#
# Indices 1 2 3 4 5 6 
#
# 1 65.6565 2.5258 1.1420 0.0000 0.0000 0.0000
# 2 2.5258 96.6513 85.7434 0.0000 0.0000 0.0000
# 3 1.1420 85.7434 181.2760 0.0000 0.0000 0.0000
# 4 0.0000 0.0000 0.0000 1.9492 0.0000 0.0000
# 5 0.0000 0.0000 0.0000 0.0000 27.7038 0.0000
# 6 0.0000 0.0000 0.0000 0.0000 0.0000 -13.4759
#
#
#
# Elastic Compliance Matrix: (Units=1/GPa)
#
#
# Indices 1 2 3 4 5 6 
#
# 1 0.015249 -0.000540 0.000159 0.000000 0.000000 0.000000
# 2 -0.000540 0.017846 -0.008438 0.000000 0.000000 0.000000
# 3 0.000159 -0.008438 0.009507 0.000000 0.000000 0.000000
# 4 0.000000 0.000000 0.000000 0.513024 0.000000 0.000000
# 5 0.000000 0.000000 0.000000 0.000000 0.036096 0.000000
# 6 0.000000 0.000000 0.000000 0.000000 0.000000 -0.074207
#
#
# Mechanical properties :
#
#
# Convention : Reuss Voigt Hill
#
# Bulk Modulus (GPa) = 40.05649 58.04515 49.05082
# Shear Modulus (GPa) = 9.20009 20.18027 14.69018
#
# Velocity S-wave (km/s) = 2.09919 3.10899 2.65259
# Velocity P-wave (km/s) = 5.00615 6.37886 5.73373
#
# Compressibility (1/GPa) = 0.02496474
#
# Stress axis : x y z
#
# Youngs Moduli (GPa) = 65.57907 56.03466 105.19101
#
# Poissons Ratio (x) = 0.03025 -0.01675
# Poissons Ratio (y) = 0.03540 0.88758
# Poissons Ratio (z) = -0.01044 0.47281
#
# Static dielectric constant tensor:
#      x y z
#    x 1.805390 0.000000 0.000000 
#    y 0.000000 1.723610 0.000000 
#    z 0.000000 0.000000 1.762920 
# 
# From -- ./inp_files/27163.got.cif
#   From: 2010.05.17/outbox.cif.g08.bks.cpg/sg47_14_cif.got.tgz:27163.got - 2010.06.03 20:15:42.
