data_PCOD9381364
_publ_section_title
;
Structure prediction by ZEFSAII (Michael W. Deem and Ramdas Pophale) SiO2 
 PCOD9381364
Probable space group: P M M M
;
_chemical_formula_sum "Si O2"
_cell_formula_units_Z 52
_cell_length_a 9.341360
_cell_length_b 11.922074
_cell_length_c 29.100261
_cell_angle_alpha 90.000000
_cell_angle_beta 90.000000
_cell_angle_gamma 90.000000
_cell_volume 3240.849076
_symmetry_space_group_name_H-M "P M M M"
_symmetry_group_IT_number 47
_symmetry_cell_setting 'orthorhombic'
loop_
_space_group_symop_operation_xyz
x,y,z
-x,-y,z
x,-y,-z
-x,y,-z
-x,-y,-z
x,y,-z
-x,y,z
x,-y,z
loop_
_atom_site_type_symbol
_atom_site_label
_atom_site_fract_x
_atom_site_fract_y
_atom_site_fract_z
Si Si1 0.159180 0.000000 0.335158
Si Si2 0.335632 0.863714 0.089573
Si Si3 0.328768 0.000000 0.573880
Si Si4 0.166386 0.229951 0.278403
Si Si5 0.164210 0.863081 0.000000
Si Si6 0.674423 0.248320 0.450085
Si Si7 0.330313 0.366398 0.644594
Si Si8 0.327274 0.132873 0.806670
O O1 0.279921 0.000000 0.373523
O O2 0.170923 0.110267 0.304455
O O3 0.000000 0.000000 0.356997
O O4 0.500000 0.827800 0.083471
O O5 0.287515 0.833937 0.141089
O O6 0.335939 0.000000 0.089026
O O7 0.242150 0.825638 0.046600
O O8 0.279699 0.881888 0.553103
O O9 0.500000 0.000000 0.570019
O O10 0.244395 0.315800 0.312622
O O11 0.249071 0.208146 0.230937
O O12 0.000000 0.259611 0.271152
O O13 0.000000 0.828928 0.000000
O O14 0.168932 0.000000 0.000000
O O15 0.719536 0.294493 0.500000
O O16 0.500000 0.250972 0.449555
O O17 0.719696 0.311982 0.403824
O O18 0.500000 0.339779 0.649954
O O19 0.315458 0.500000 0.642212
O O20 0.500000 0.141335 0.802617
O O21 0.291623 0.000000 0.800229
#
# Coordination Sequence:
#
# PCOD9381364 Si02
#       8
#     4   8   4   8   4   8   8   8
#     4  10  20  31  45  69  96 121 149 184 227 280
#     4   8  14  24  36  52  77 113 154 193 231 273
#     4  10  17  28  50  74  96 122 149 183 225 276
#     4  11  21  33  49  69  95 123 152 190 238 287
#     4   9  15  21  31  49  75 113 158 199 232 265
#     4   9  17  29  48  75 100 119 145 186 233 276
#     4  10  21  36  53  72  92 119 158 196 229 273
#     4   9  17  28  44  66  91 119 154 195 239 284
#
# _framework density 16.045178
#
# number of rings (size 3 to 8) (size 9 to 14) (size 15 to 20)
#    0.000    2.538    2.308    1.846    0.000    3.692 
#    0.000    3.077    0.000    2.308    0.000    1.077 
#    0.000    0.000    0.000    0.692    0.000   13.462 
#
# Total GULP energy -289634.380646 kJ/mol
# GULP energy per Si atom -5569.891935 kJ/mol
# Density = 1.600866 g / cm^3
# Si number density = 16.045178 Si / 1000 Ang^3
#
#
#
# Elastic Constant Matrix: (Units=GPa)
#
#
# Indices 1 2 3 4 5 6 
#
# 1 47.6532 27.7266 66.2496 0.0000 0.0000 0.0000
# 2 27.7266 42.1869 37.7716 0.0000 0.0000 0.0000
# 3 66.2496 37.7716 168.6279 0.0000 0.0000 0.0000
# 4 0.0000 0.0000 0.0000 -5.3359 0.0000 0.0000
# 5 0.0000 0.0000 0.0000 0.0000 -3.7611 0.0000
# 6 0.0000 0.0000 0.0000 0.0000 0.0000 9.2798
#
#
#
# Elastic Compliance Matrix: (Units=1/GPa)
#
#
# Indices 1 2 3 4 5 6 
#
# 1 0.059876 -0.022879 -0.018399 0.000000 0.000000 0.000000
# 2 -0.022879 0.038393 0.000389 0.000000 0.000000 0.000000
# 3 -0.018399 0.000389 0.013072 0.000000 0.000000 0.000000
# 4 0.000000 0.000000 0.000000 -0.187409 0.000000 0.000000
# 5 0.000000 0.000000 0.000000 0.000000 -0.265882 0.000000
# 6 0.000000 0.000000 0.000000 0.000000 0.000000 0.107761
#
#
# Mechanical properties :
#
#
# Convention : Reuss Voigt Hill
#
# Bulk Modulus (GPa) = 33.82727 57.99596 45.91161
# Shear Modulus (GPa) = -35.07348 8.48458 -13.29445
#
# Velocity S-wave (km/s) = -4.68045 2.30204 -2.88160
# Velocity P-wave (km/s) = 2.84264 6.57950 4.19578
#
# Compressibility (1/GPa) = 0.02956195
#
# Stress axis : x y z
#
# Youngs Moduli (GPa) = 16.70118 26.04660 76.50169
#
# Poissons Ratio (x) = 0.59592 1.40755
# Poissons Ratio (y) = 0.38211 -0.02975
# Poissons Ratio (z) = 0.30728 -0.01013
#
# Static dielectric constant tensor:
#      x y z
#    x 1.541540 0.000000 0.000000 
#    y 0.000000 1.517300 0.000000 
#    z 0.000000 0.000000 1.549600 
# 
# From -- ./inp_files/33307.got.cif
#   From: 2010.05.17/outbox.cif.g08.bks.cpg/sg47_17_cif.got.tgz:33307.got - 2010.06.03 20:15:42.
