data_PCOD9381467
_publ_section_title
;
Structure prediction by ZEFSAII (Michael W. Deem and Ramdas Pophale) SiO2 
 PCOD9381467
Probable space group: P M M M
;
_chemical_formula_sum "Si O2"
_cell_formula_units_Z 44
_cell_length_a 23.308525
_cell_length_b 7.473315
_cell_length_c 13.374970
_cell_angle_alpha 90.000000
_cell_angle_beta 90.000000
_cell_angle_gamma 90.000000
_cell_volume 2329.812099
_symmetry_space_group_name_H-M "P M M M"
_symmetry_group_IT_number 47
_symmetry_cell_setting 'orthorhombic'
loop_
_space_group_symop_operation_xyz
x,y,z
-x,-y,z
x,-y,-z
-x,y,-z
-x,-y,-z
x,y,-z
-x,y,z
x,-y,z
loop_
_atom_site_type_symbol
_atom_site_label
_atom_site_fract_x
_atom_site_fract_y
_atom_site_fract_z
Si Si1 0.149714 0.782272 0.824557
Si Si2 0.315573 0.296393 0.322977
Si Si3 0.065997 0.781096 0.000000
Si Si4 0.811914 0.208873 0.389131
Si Si5 0.561735 0.287554 0.380408
Si Si6 0.277233 0.216291 0.890668
O O1 0.155488 0.717539 0.709418
O O2 0.210370 0.736884 0.875824
O O3 0.147034 0.000000 0.820271
O O4 0.099556 0.723581 0.899349
O O5 0.315831 0.500000 0.361261
O O6 0.256442 0.216109 0.365337
O O7 0.376876 0.211840 0.348202
O O8 0.309837 0.293312 0.203646
O O9 0.000000 0.725400 0.000000
O O10 0.067431 0.000000 0.000000
O O11 0.822318 0.286208 0.500000
O O12 0.827437 0.000000 0.393864
O O13 0.560787 0.274100 0.500000
O O14 0.500000 0.216012 0.343391
O O15 0.562434 0.500000 0.354723
O O16 0.280743 0.000000 0.884704
O O17 0.296969 0.272940 0.000000
#
# Coordination Sequence:
#
# PCOD9381467 Si02
#       6
#     8   8   4   8   8   8
#     4   8  13  23  38  57  81 109 141 171 204 248
#     4  10  18  26  41  66  89 106 132 177 222 253
#     4   9  14  20  36  62  87 109 138 179 216 246
#     4   9  17  28  42  59  83 117 148 171 204 259
#     4   8  14  25  40  57  79 108 137 164 202 255
#     4   9  16  28  45  60  81 115 146 169 202 256
#
# _framework density 18.885643000000002
#
# number of rings (size 3 to 8) (size 9 to 14) (size 15 to 20)
#    0.000    3.182    0.909    2.727    0.000    1.455 
#    0.000    0.000    0.000    3.273    0.000   14.000 
#    0.000   23.273    0.000    6.545    0.000    7.273 
#
# Total GULP energy -244983.114364 kJ/mol
# GULP energy per Si atom -5567.798054 kJ/mol
# Density = 1.884266 g / cm^3
# Si number density = 18.885643 Si / 1000 Ang^3
#
#
#
# Elastic Constant Matrix: (Units=GPa)
#
#
# Indices 1 2 3 4 5 6 
#
# 1 122.0282 2.2065 56.5961 0.0000 0.0000 0.0000
# 2 2.2065 51.0617 3.1459 0.0000 0.0000 0.0000
# 3 56.5961 3.1459 137.7320 0.0000 0.0000 0.0000
# 4 0.0000 0.0000 0.0000 3.4693 0.0000 0.0000
# 5 0.0000 0.0000 0.0000 0.0000 30.0131 0.0000
# 6 0.0000 0.0000 0.0000 0.0000 0.0000 6.8124
#
#
#
# Elastic Compliance Matrix: (Units=1/GPa)
#
#
# Indices 1 2 3 4 5 6 
#
# 1 0.010126 -0.000181 -0.004157 0.000000 0.000000 0.000000
# 2 -0.000181 0.019615 -0.000373 0.000000 0.000000 0.000000
# 3 -0.004157 -0.000373 0.008977 0.000000 0.000000 0.000000
# 4 0.000000 0.000000 0.000000 0.288242 0.000000 0.000000
# 5 0.000000 0.000000 0.000000 0.000000 0.033319 0.000000
# 6 0.000000 0.000000 0.000000 0.000000 0.000000 0.146790
#
#
# Mechanical properties :
#
#
# Convention : Reuss Voigt Hill
#
# Bulk Modulus (GPa) = 34.13591 48.30211 41.21901
# Shear Modulus (GPa) = 9.50105 24.65053 17.07579
#
# Velocity S-wave (km/s) = 2.24538 3.61675 3.01020
# Velocity P-wave (km/s) = 4.98364 6.56298 5.82707
#
# Compressibility (1/GPa) = 0.02929467
#
# Stress axis : x y z
#
# Youngs Moduli (GPa) = 98.75568 50.98142 111.39473
#
# Poissons Ratio (x) = 0.00925 0.46304
# Poissons Ratio (y) = 0.01792 0.04160
# Poissons Ratio (z) = 0.41051 0.01904
#
# Static dielectric constant tensor:
#      x y z
#    x 1.689080 0.000000 0.000000 
#    y 0.000000 1.764200 0.000000 
#    z 0.000000 0.000000 1.673660 
# 
# From -- ./inp_files/24891.got.cif
#   From: 2010.05.17/outbox.cif.g08.bks.cpg/sg47_13_cif.got.tgz:24891.got - 2010.06.03 20:15:42.
