data_PCOD9381628
_publ_section_title
;
Structure prediction by ZEFSAII (Michael W. Deem and Ramdas Pophale) SiO2 
 PCOD9381628
Probable space group: P M M M
;
_chemical_formula_sum "Si O2"
_cell_formula_units_Z 64
_cell_length_a 15.207442
_cell_length_b 7.835806
_cell_length_c 29.573358
_cell_angle_alpha 90.000000
_cell_angle_beta 90.000000
_cell_angle_gamma 90.000000
_cell_volume 3524.037203
_symmetry_space_group_name_H-M "P M M M"
_symmetry_group_IT_number 47
_symmetry_cell_setting 'orthorhombic'
loop_
_space_group_symop_operation_xyz
x,y,z
-x,-y,z
x,-y,-z
-x,y,-z
-x,-y,-z
x,y,-z
-x,y,z
x,-y,z
loop_
_atom_site_type_symbol
_atom_site_label
_atom_site_fract_x
_atom_site_fract_y
_atom_site_fract_z
Si Si1 0.283387 0.299173 0.950943
Si Si2 0.899401 0.706032 0.186008
Si Si3 0.897221 0.705439 0.451324
Si Si4 0.780436 0.295873 0.731684
Si Si5 0.100327 0.201479 0.352553
Si Si6 0.098526 0.200021 0.917687
Si Si7 0.400942 0.291310 0.765059
Si Si8 0.601171 0.292349 0.868499
O O1 0.305415 0.500000 0.952227
O O2 0.179317 0.283718 0.943232
O O3 0.334112 0.227039 0.907354
O O4 0.306964 0.224913 0.000000
O O5 0.891303 0.500000 0.182178
O O6 0.833815 0.769165 0.224536
O O7 0.885207 0.778159 0.136033
O O8 0.000000 0.744534 0.199523
O O9 0.859660 0.763685 0.500000
O O10 0.895181 0.500000 0.451451
O O11 0.862684 0.762552 0.402808
O O12 0.000000 0.758885 0.451135
O O13 0.776886 0.500000 0.736914
O O14 0.835514 0.262507 0.686708
O O15 0.679846 0.233910 0.733944
O O16 0.000000 0.274565 0.348950
O O17 0.092845 0.000000 0.347720
O O18 0.000000 0.268056 0.926851
O O19 0.098816 0.000000 0.928689
O O20 0.500000 0.233913 0.753727
O O21 0.403431 0.500000 0.764558
O O22 0.380368 0.238969 0.816943
O O23 0.500000 0.248697 0.878892
O O24 0.607239 0.500000 0.867577
#
# Coordination Sequence:
#
# PCOD9381628 Si02
#       8
#     8   8   8   8   8   8   8   8
#     4  10  20  32  48  71  94 114 139 173 213 257
#     4   9  17  29  46  67  88 112 146 185 221 260
#     4   8  14  26  44  63  84 116 159 201 235 268
#     4  10  18  28  45  66  90 121 152 183 221 265
#     4  10  20  30  40  60  93 129 161 194 230 266
#     4  10  21  35  49  64  84 114 150 184 217 255
#     4   8  14  25  43  67  90 112 142 180 220 261
#     4   8  14  27  48  72  95 114 134 168 215 265
#
# _framework density 18.160989000000001
#
# number of rings (size 3 to 8) (size 9 to 14) (size 15 to 20)
#    0.000    2.875    0.000    3.000    0.000    5.500 
#    0.000    5.000    0.000    0.750    0.000    2.625 
#    0.000    0.500    0.000    5.750    0.000    1.875 
#
# Total GULP energy -356693.030772 kJ/mol
# GULP energy per Si atom -5573.328606 kJ/mol
# Density = 1.811965 g / cm^3
# Si number density = 18.160989 Si / 1000 Ang^3
#
#
#
# Elastic Constant Matrix: (Units=GPa)
#
#
# Indices 1 2 3 4 5 6 
#
# 1 85.3765 5.9222 58.8970 0.0000 0.0000 0.0000
# 2 5.9222 16.0397 -1.8620 0.0000 0.0000 0.0000
# 3 58.8970 -1.8620 67.7228 0.0000 0.0000 0.0000
# 4 0.0000 0.0000 0.0000 528.5830 0.0000 0.0000
# 5 0.0000 0.0000 0.0000 0.0000 13.7891 0.0000
# 6 0.0000 0.0000 0.0000 0.0000 0.0000 -1.8743
#
#
#
# Elastic Compliance Matrix: (Units=1/GPa)
#
#
# Indices 1 2 3 4 5 6 
#
# 1 0.032682 -0.015416 -0.028847 0.000000 0.000000 0.000000
# 2 -0.015416 0.069816 0.015326 0.000000 0.000000 0.000000
# 3 -0.028847 0.015326 0.040275 0.000000 0.000000 0.000000
# 4 0.000000 0.000000 0.000000 0.001892 0.000000 0.000000
# 5 0.000000 0.000000 0.000000 0.000000 0.072521 0.000000
# 6 0.000000 0.000000 0.000000 0.000000 0.000000 -0.533520
#
#
# Mechanical properties :
#
#
# Convention : Reuss Voigt Hill
#
# Bulk Modulus (GPa) = 11.77848 32.78372 22.28110
# Shear Modulus (GPa) = -21.72387 115.17834 46.72724
#
# Velocity S-wave (km/s) = -3.46234 7.97235 5.07792
# Velocity P-wave (km/s) = 3.07962 10.14078 6.83196
#
# Compressibility (1/GPa) = 0.08490061
#
# Stress axis : x y z
#
# Youngs Moduli (GPa) = 30.59787 14.32334 24.82947
#
# Poissons Ratio (x) = 0.22080 0.71625
# Poissons Ratio (y) = 0.47169 -0.38054
# Poissons Ratio (z) = 0.88265 -0.21952
#
# Static dielectric constant tensor:
#      x y z
#    x 1.635490 0.000000 0.000000 
#    y 0.000000 1.668870 0.000000 
#    z 0.000000 0.000000 1.639180 
# 
# From -- ./inp_files/25878.got.cif
#   From: 2010.05.17/outbox.cif.g08.bks.cpg/sg47_13_cif.got.tgz:25878.got - 2010.06.03 20:15:42.
