data_PCOD9381860
_publ_section_title
;
Structure prediction by ZEFSAII (Michael W. Deem and Ramdas Pophale) SiO2 
 PCOD9381860
Probable space group: P M M M
;
_chemical_formula_sum "Si O2"
_cell_formula_units_Z 52
_cell_length_a 23.776490
_cell_length_b 8.620594
_cell_length_c 14.608376
_cell_angle_alpha 90.000000
_cell_angle_beta 90.000000
_cell_angle_gamma 90.000000
_cell_volume 2994.241826
_symmetry_space_group_name_H-M "P M M M"
_symmetry_group_IT_number 47
_symmetry_cell_setting 'orthorhombic'
loop_
_space_group_symop_operation_xyz
x,y,z
-x,-y,z
x,-y,-z
-x,y,-z
-x,-y,-z
x,y,-z
-x,y,z
x,-y,z
loop_
_atom_site_type_symbol
_atom_site_label
_atom_site_fract_x
_atom_site_fract_y
_atom_site_fract_z
Si Si1 0.146004 0.314512 0.396097
Si Si2 0.108330 0.815617 0.210288
Si Si3 0.728032 0.186868 0.397138
Si Si4 0.782323 0.314092 0.107220
Si Si5 0.000000 0.313860 0.893783
Si Si6 0.673491 0.187803 0.789700
Si Si7 0.563247 0.811048 0.105834
O O1 0.129970 0.269226 0.500000
O O2 0.142969 0.500000 0.388842
O O3 0.110219 0.239123 0.315521
O O4 0.210790 0.262060 0.383006
O O5 0.165263 0.755240 0.162388
O O6 0.055230 0.747161 0.157042
O O7 0.107126 0.000000 0.206286
O O8 0.708765 0.226815 0.500000
O O9 0.686934 0.232797 0.314952
O O10 0.735171 0.000000 0.393063
O O11 0.783679 0.500000 0.115798
O O12 0.724421 0.250815 0.148929
O O13 0.786659 0.273614 0.000000
O O14 0.000000 0.500000 0.891666
O O15 0.000000 0.263960 0.000000
O O16 0.613722 0.241681 0.829319
O O17 0.674478 0.000000 0.794356
O O18 0.500000 0.760492 0.131081
O O19 0.563065 0.000000 0.107617
O O20 0.573829 0.766175 0.000000
#
# Coordination Sequence:
#
# PCOD9381860 Si02
#       7
#     8   8   8   8   4   8   8
#     4  10  20  35  57  83 111 144 180 219 266 321
#     4  12  24  39  60  85 112 144 181 223 267 317
#     4   9  17  29  46  72 105 137 171 215 269 323
#     4  11  23  36  51  75 108 141 173 218 274 324
#     4  11  25  45  66  85 110 147 187 226 268 317
#     4  10  18  29  49  75 100 133 176 222 271 322
#     4   8  14  25  42  66  97 133 176 225 271 319
#
# _framework density 17.366665999999999
#
# number of rings (size 3 to 8) (size 9 to 14) (size 15 to 20)
#    0.000    1.923    1.538    3.923    0.000    5.231 
#    0.000    0.385    0.000    3.231    0.000    5.385 
#    0.000    0.000    0.000    5.231    0.000    5.692 
#
# Total GULP energy -290290.387761 kJ/mol
# GULP energy per Si atom -5582.507457 kJ/mol
# Density = 1.732714 g / cm^3
# Si number density = 17.366666 Si / 1000 Ang^3
#
#
#
# Elastic Constant Matrix: (Units=GPa)
#
#
# Indices 1 2 3 4 5 6 
#
# 1 123.7360 28.4527 87.1437 0.0000 0.0000 0.0000
# 2 28.4527 33.1038 45.8642 0.0000 0.0000 0.0000
# 3 87.1437 45.8642 161.7272 0.0000 0.0000 0.0000
# 4 0.0000 0.0000 0.0000 21.2492 0.0000 0.0000
# 5 0.0000 0.0000 0.0000 0.0000 30.7724 0.0000
# 6 0.0000 0.0000 0.0000 0.0000 0.0000 145.5597
#
#
#
# Elastic Compliance Matrix: (Units=1/GPa)
#
#
# Indices 1 2 3 4 5 6 
#
# 1 0.013143 -0.002446 -0.006388 0.000000 0.000000 0.000000
# 2 -0.002446 0.050213 -0.012922 0.000000 0.000000 0.000000
# 3 -0.006388 -0.012922 0.013290 0.000000 0.000000 0.000000
# 4 0.000000 0.000000 0.000000 0.047061 0.000000 0.000000
# 5 0.000000 0.000000 0.000000 0.000000 0.032497 0.000000
# 6 0.000000 0.000000 0.000000 0.000000 0.000000 0.006870
#
#
# Mechanical properties :
#
#
# Convention : Reuss Voigt Hill
#
# Bulk Modulus (GPa) = 30.18033 71.27646 50.72840
# Shear Modulus (GPa) = 22.97462 49.99002 36.48232
#
# Velocity S-wave (km/s) = 3.64114 5.37099 4.58832
# Velocity P-wave (km/s) = 5.92395 8.92158 7.57257
#
# Compressibility (1/GPa) = 0.03313416
#
# Stress axis : x y z
#
# Youngs Moduli (GPa) = 76.08438 19.91504 75.24362
#
# Poissons Ratio (x) = 0.04871 0.48069
# Poissons Ratio (y) = 0.18608 0.97231
# Poissons Ratio (z) = 0.48606 0.25735
#
# Static dielectric constant tensor:
#      x y z
#    x 1.558820 0.000000 0.000000 
#    y 0.000000 1.587180 0.000000 
#    z 0.000000 0.000000 1.605240 
# 
# From -- ./inp_files/21418.got.cif
#   From: 2010.05.17/outbox.cif.g08.bks.cpg/sg47_11_cif.got.tgz:21418.got - 2010.06.03 20:15:42.
