data_PCOD9381774
_publ_section_title
;
Structure prediction by ZEFSAII (Michael W. Deem and Ramdas Pophale) SiO2 
 PCOD9381774
Probable space group: P M M M
;
_chemical_formula_sum "Si O2"
_cell_formula_units_Z 48
_cell_length_a 19.748505
_cell_length_b 15.507108
_cell_length_c 7.334868
_cell_angle_alpha 90.000000
_cell_angle_beta 90.000000
_cell_angle_gamma 90.000000
_cell_volume 2246.246112
_symmetry_space_group_name_H-M "P M M M"
_symmetry_group_IT_number 47
_symmetry_cell_setting 'orthorhombic'
loop_
_space_group_symop_operation_xyz
x,y,z
-x,-y,z
x,-y,-z
-x,y,-z
-x,-y,-z
x,y,-z
-x,y,z
x,-y,z
loop_
_atom_site_type_symbol
_atom_site_label
_atom_site_fract_x
_atom_site_fract_y
_atom_site_fract_z
Si Si1 0.928004 0.146017 0.778850
Si Si2 0.785004 0.909545 0.777377
Si Si3 0.577674 0.903276 0.718112
Si Si4 0.227044 0.403226 0.777403
Si Si5 0.310274 0.760596 0.217058
Si Si6 0.924544 0.349189 0.220832
O O1 0.861995 0.097483 0.717785
O O2 0.922718 0.247368 0.735241
O O3 0.000000 0.112794 0.714587
O O4 0.927980 0.141299 0.000000
O O5 0.745430 0.827390 0.712255
O O6 0.754693 0.000000 0.718638
O O7 0.783432 0.907314 0.000000
O O8 0.577215 0.908916 0.500000
O O9 0.500000 0.892358 0.780045
O O10 0.621389 0.817120 0.756884
O O11 0.600386 0.000000 0.784420
O O12 0.245758 0.500000 0.723692
O O13 0.283122 0.332605 0.716775
O O14 0.148487 0.385871 0.719022
O O15 0.224886 0.400105 0.000000
O O16 0.304986 0.753336 0.000000
O O17 0.000000 0.381558 0.280854
O O18 0.925053 0.357653 0.000000
#
# Coordination Sequence:
#
# PCOD9381774 Si02
#       6
#     8   8   8   8   8   8
#     4   8  12  18  27  40  67 110 152 186 222 267
#     4   9  15  21  31  51  80 113 147 183 226 273
#     4   9  19  36  56  77 100 124 149 179 220 274
#     4   9  16  25  38  59  90 128 166 202 243 286
#     4  10  18  29  46  70  99 127 155 192 235 276
#     4   8  12  19  31  47  74 117 165 205 239 278
#
# _framework density 21.368987000000001
#
# number of rings (size 3 to 8) (size 9 to 14) (size 15 to 20)
#    0.000    3.167    1.667    2.000    0.000    2.000 
#    0.000    4.167    0.000    1.000    0.000    3.500 
#    0.000    2.667    0.000   10.667    0.000    9.333 
#
# Total GULP energy -267280.273274 kJ/mol
# GULP energy per Si atom -5568.339027 kJ/mol
# Density = 2.132035 g / cm^3
# Si number density = 21.368987 Si / 1000 Ang^3
#
#
#
# Elastic Constant Matrix: (Units=GPa)
#
#
# Indices 1 2 3 4 5 6 
#
# 1 149.4416 93.1298 -0.5128 0.0000 0.0000 0.0000
# 2 93.1298 173.3955 8.6816 0.0000 0.0000 0.0000
# 3 -0.5128 8.6816 82.1845 0.0000 0.0000 0.0000
# 4 0.0000 0.0000 0.0000 -0.2702 0.0000 0.0000
# 5 0.0000 0.0000 0.0000 0.0000 35.4095 0.0000
# 6 0.0000 0.0000 0.0000 0.0000 0.0000 32.0159
#
#
#
# Elastic Compliance Matrix: (Units=1/GPa)
#
#
# Indices 1 2 3 4 5 6 
#
# 1 0.010091 -0.005452 0.000639 0.000000 0.000000 0.000000
# 2 -0.005452 0.008743 -0.000958 0.000000 0.000000 0.000000
# 3 0.000639 -0.000958 0.012273 0.000000 0.000000 0.000000
# 4 0.000000 0.000000 0.000000 -3.701560 0.000000 0.000000
# 5 0.000000 0.000000 0.000000 0.000000 0.028241 0.000000
# 6 0.000000 0.000000 0.000000 0.000000 0.000000 0.031235
#
#
# Mechanical properties :
#
#
# Convention : Reuss Voigt Hill
#
# Bulk Modulus (GPa) = 51.10872 67.51319 59.31096
# Shear Modulus (GPa) = -1.39163 33.67923 16.14380
#
# Velocity S-wave (km/s) = -0.80787 3.97429 2.75158
# Velocity P-wave (km/s) = 4.80614 7.26103 6.15717
#
# Compressibility (1/GPa) = 0.01956613
#
# Stress axis : x y z
#
# Youngs Moduli (GPa) = 99.09435 114.37244 81.48037
#
# Poissons Ratio (x) = 0.62356 -0.05206
# Poissons Ratio (y) = 0.54026 0.07803
# Poissons Ratio (z) = -0.06331 0.10953
#
# Static dielectric constant tensor:
#      x y z
#    x 1.798570 0.000000 0.000000 
#    y 0.000000 1.764600 0.000000 
#    z 0.000000 0.000000 1.852830 
# 
# From -- ./inp_files/18503.got.cif
#   From: 2010.05.17/outbox.cif.g08.bks.cpg/sg47_10_cif.got.tgz:18503.got - 2010.06.03 20:15:42.
