data_PCOD9381558
_publ_section_title
;
Structure prediction by ZEFSAII (Michael W. Deem and Ramdas Pophale) SiO2 
 PCOD9381558
Probable space group: P M M M
;
_chemical_formula_sum "Si O2"
_cell_formula_units_Z 64
_cell_length_a 7.843807
_cell_length_b 14.554004
_cell_length_c 27.145876
_cell_angle_alpha 90.000000
_cell_angle_beta 90.000000
_cell_angle_gamma 90.000000
_cell_volume 3098.940587
_symmetry_space_group_name_H-M "P M M M"
_symmetry_group_IT_number 47
_symmetry_cell_setting 'orthorhombic'
loop_
_space_group_symop_operation_xyz
x,y,z
-x,-y,z
x,-y,-z
-x,y,-z
-x,-y,-z
x,y,-z
-x,y,z
x,-y,z
loop_
_atom_site_type_symbol
_atom_site_label
_atom_site_fract_x
_atom_site_fract_y
_atom_site_fract_z
Si Si1 0.702919 0.104007 0.348457
Si Si2 0.806066 0.611024 0.690625
Si Si3 0.696311 0.604224 0.417480
Si Si4 0.799905 0.223693 0.853929
Si Si5 0.209512 0.605336 0.202093
Si Si6 0.791460 0.894440 0.944304
Si Si7 0.196186 0.796533 0.447385
Si Si8 0.703882 0.110026 0.759069
O O1 0.500000 0.097463 0.341810
O O2 0.730922 0.162111 0.397348
O O3 0.766854 0.140662 0.295468
O O4 0.769366 0.000000 0.355572
O O5 0.500000 0.605212 0.566624
O O6 0.815206 0.500000 0.695361
O O7 0.704335 0.627308 0.640875
O O8 0.735660 0.640216 0.743552
O O9 0.763133 0.500000 0.423952
O O10 0.791673 0.686336 0.443792
O O11 0.000000 0.644811 0.316621
O O12 0.729881 0.323057 0.838564
O O13 0.727103 0.171812 0.901306
O O14 0.784888 0.160678 0.805351
O O15 0.000000 0.237494 0.864160
O O16 0.262239 0.500000 0.194387
O O17 0.000000 0.605801 0.203924
O O18 0.000000 0.894189 0.943218
O O19 0.739460 0.000000 0.935079
O O20 0.740834 0.869094 0.000000
O O21 0.275196 0.825265 0.500000
O O22 0.000000 0.824242 0.447914
O O23 0.500000 0.124704 0.762694
O O24 0.733633 0.000000 0.761524
#
# Coordination Sequence:
#
# PCOD9381558 Si02
#       8
#     8   8   8   8   8   8   8   8
#     4   9  20  40  62  81 104 136 169 203 253 316
#     4   8  14  27  46  66  92 127 162 196 243 304
#     4  10  21  36  55  79 105 134 170 212 256 305
#     4  10  18  27  47  76  99 129 177 219 247 293
#     4   8  15  27  42  65  99 133 163 202 253 300
#     4   8  14  25  41  64  97 133 169 216 268 307
#     4  11  25  41  57  79 105 134 171 215 259 305
#     4   9  19  35  52  74 107 137 157 191 252 313
#
# _framework density 20.652218999999999
#
# number of rings (size 3 to 8) (size 9 to 14) (size 15 to 20)
#    0.000    2.875    0.000    3.000    1.750    3.750 
#    0.000    3.750    0.000    1.125    0.000    4.375 
#    0.000    0.000    0.000    1.125    0.000    1.375 
#
# Total GULP energy -356980.997628 kJ/mol
# GULP energy per Si atom -5577.828088 kJ/mol
# Density = 2.060521 g / cm^3
# Si number density = 20.652219 Si / 1000 Ang^3
#
#
#
# Elastic Constant Matrix: (Units=GPa)
#
#
# Indices 1 2 3 4 5 6 
#
# 1 22.3818 -3.1894 -3.9653 0.0000 0.0000 0.0000
# 2 -3.1894 74.2658 63.1528 0.0000 0.0000 0.0000
# 3 -3.9653 63.1528 138.9671 0.0000 0.0000 0.0000
# 4 0.0000 0.0000 0.0000 15.6556 0.0000 0.0000
# 5 0.0000 0.0000 0.0000 0.0000 29.5575 0.0000
# 6 0.0000 0.0000 0.0000 0.0000 0.0000 -10.0692
#
#
#
# Elastic Compliance Matrix: (Units=1/GPa)
#
#
# Indices 1 2 3 4 5 6 
#
# 1 0.044992 0.001370 0.000661 0.000000 0.000000 0.000000
# 2 0.001370 0.021988 -0.009953 0.000000 0.000000 0.000000
# 3 0.000661 -0.009953 0.011738 0.000000 0.000000 0.000000
# 4 0.000000 0.000000 0.000000 0.063875 0.000000 0.000000
# 5 0.000000 0.000000 0.000000 0.000000 0.033832 0.000000
# 6 0.000000 0.000000 0.000000 0.000000 0.000000 -0.099313
#
#
# Mechanical properties :
#
#
# Convention : Reuss Voigt Hill
#
# Bulk Modulus (GPa) = 15.90501 38.62346 27.26423
# Shear Modulus (GPa) = 43.89287 19.00321 31.44804
#
# Velocity S-wave (km/s) = 4.61514 3.03669 3.90647
# Velocity P-wave (km/s) = 6.00977 5.57116 5.79462
#
# Compressibility (1/GPa) = 0.06287327
#
# Stress axis : x y z
#
# Youngs Moduli (GPa) = 22.22639 45.47992 85.19373
#
# Poissons Ratio (x) = -0.06230 -0.05634
# Poissons Ratio (y) = -0.03045 0.84794
# Poissons Ratio (z) = -0.01470 0.45267
#
# Static dielectric constant tensor:
#      x y z
#    x 1.755040 0.000000 0.000000 
#    y 0.000000 1.756760 0.000000 
#    z 0.000000 0.000000 1.765870 
# 
# From -- ./inp_files/32122.got.cif
#   From: 2010.05.17/outbox.cif.g08.bks.cpg/sg47_17_cif.got.tgz:32122.got - 2010.06.03 20:15:42.
