data_PCOD9381242
_publ_section_title
;
Structure prediction by ZEFSAII (Michael W. Deem and Ramdas Pophale) SiO2 
 PCOD9381242
Probable space group: P M M M
;
_chemical_formula_sum "Si O2"
_cell_formula_units_Z 52
_cell_length_a 24.107811
_cell_length_b 7.373332
_cell_length_c 15.308013
_cell_angle_alpha 90.000000
_cell_angle_beta 90.000000
_cell_angle_gamma 90.000000
_cell_volume 2721.074233
_symmetry_space_group_name_H-M "P M M M"
_symmetry_group_IT_number 47
_symmetry_cell_setting 'orthorhombic'
loop_
_space_group_symop_operation_xyz
x,y,z
-x,-y,z
x,-y,-z
-x,y,-z
-x,-y,-z
x,y,-z
-x,y,z
x,-y,z
loop_
_atom_site_type_symbol
_atom_site_label
_atom_site_fract_x
_atom_site_fract_y
_atom_site_fract_z
Si Si1 0.063861 0.222280 0.282689
Si Si2 0.500000 0.778135 0.397943
Si Si3 0.066778 0.215744 0.092038
Si Si4 0.711594 0.221291 0.601843
Si Si5 0.436327 0.282639 0.902226
Si Si6 0.165105 0.220524 0.600575
Si Si7 0.606984 0.784479 0.711494
O O1 0.083065 0.284372 0.186466
O O2 0.110773 0.282639 0.349029
O O3 0.000000 0.278091 0.299361
O O4 0.062584 0.000000 0.282220
O O5 0.500000 0.723354 0.500000
O O6 0.446016 0.717127 0.343737
O O7 0.500000 0.000000 0.398185
O O8 0.000000 0.235590 0.091152
O O9 0.077926 0.000000 0.091602
O O10 0.088274 0.290261 0.000000
O O11 0.702388 0.274381 0.500000
O O12 0.773495 0.277779 0.630459
O O13 0.663340 0.284201 0.666670
O O14 0.711444 0.000000 0.601494
O O15 0.500000 0.218067 0.888655
O O16 0.438351 0.500000 0.906423
O O17 0.401401 0.241731 0.815255
O O18 0.418265 0.220343 0.000000
O O19 0.160820 0.272395 0.500000
O O20 0.164633 0.000000 0.604838
O O21 0.607501 0.000000 0.698502
#
# Coordination Sequence:
#
# PCOD9381242 Si02
#       7
#     8   4   8   8   8   8   8
#     4   8  12  16  23  36  53  75 108 151 192 226
#     4   9  16  24  36  59  86 104 125 165 210 243
#     4   7   9  13  20  29  41  58  84 121 164 209
#     4   8  14  24  37  52  71  98 131 165 202 246
#     4   9  18  32  47  62  84 113 138 162 201 252
#     4   8  13  20  28  39  58  85 117 152 191 235
#     4  10  17  26  43  65  83 104 138 177 207 231
#
# _framework density 19.110102000000001
#
# number of rings (size 3 to 8) (size 9 to 14) (size 15 to 20)
#    0.000    3.615    0.769    3.231    0.000    2.462 
#    0.000    2.308    0.000    3.231    0.000    4.308 
#    0.000    0.000    0.000    0.000    0.000    0.769 
#
# Total GULP energy -289482.021898 kJ/mol
# GULP energy per Si atom -5566.961960 kJ/mol
# Density = 1.906661 g / cm^3
# Si number density = 19.110102 Si / 1000 Ang^3
#
#
#
# Elastic Constant Matrix: (Units=GPa)
#
#
# Indices 1 2 3 4 5 6 
#
# 1 150.4930 4.6521 113.0626 0.0000 0.0000 0.0000
# 2 4.6521 61.5465 1.8128 0.0000 0.0000 0.0000
# 3 113.0626 1.8128 152.1787 0.0000 0.0000 0.0000
# 4 0.0000 0.0000 0.0000 25.2656 0.0000 0.0000
# 5 0.0000 0.0000 0.0000 0.0000 10.2208 0.0000
# 6 0.0000 0.0000 0.0000 0.0000 0.0000 -36.1544
#
#
#
# Elastic Compliance Matrix: (Units=1/GPa)
#
#
# Indices 1 2 3 4 5 6 
#
# 1 0.015080 -0.000810 -0.011194 0.000000 0.000000 0.000000
# 2 -0.000810 0.016297 0.000408 0.000000 0.000000 0.000000
# 3 -0.011194 0.000408 0.014883 0.000000 0.000000 0.000000
# 4 0.000000 0.000000 0.000000 0.039580 0.000000 0.000000
# 5 0.000000 0.000000 0.000000 0.000000 0.097840 0.000000
# 6 0.000000 0.000000 0.000000 0.000000 0.000000 -0.027659
#
#
# Mechanical properties :
#
#
# Convention : Reuss Voigt Hill
#
# Bulk Modulus (GPa) = 43.35164 67.03036 55.19100
# Shear Modulus (GPa) = 26.75204 16.17910 21.46557
#
# Velocity S-wave (km/s) = 3.74557 2.91284 3.35514
# Velocity P-wave (km/s) = 6.43740 6.81651 6.62967
#
# Compressibility (1/GPa) = 0.02306718
#
# Stress axis : x y z
#
# Youngs Moduli (GPa) = 66.31447 61.36059 67.19071
#
# Poissons Ratio (x) = 0.04971 0.75213
# Poissons Ratio (y) = 0.05372 -0.02740
# Poissons Ratio (z) = 0.74232 -0.02502
#
# Static dielectric constant tensor:
#      x y z
#    x 1.638940 0.000000 0.000000 
#    y 0.000000 1.730350 0.000000 
#    z 0.000000 0.000000 1.685030 
# 
# From -- ./inp_files/25436.got.cif
#   From: 2010.05.17/outbox.cif.g08.bks.cpg/sg47_13_cif.got.tgz:25436.got - 2010.06.03 20:15:42.
