data_PCOD9381251
_publ_section_title
;
Structure prediction by ZEFSAII (Michael W. Deem and Ramdas Pophale) SiO2 
 PCOD9381251
Probable space group: P M M M
;
_chemical_formula_sum "Si O2"
_cell_formula_units_Z 41
_cell_length_a 20.459906
_cell_length_b 7.431223
_cell_length_c 12.382442
_cell_angle_alpha 90.000000
_cell_angle_beta 90.000000
_cell_angle_gamma 90.000000
_cell_volume 1882.652783
_symmetry_space_group_name_H-M "P M M M"
_symmetry_group_IT_number 47
_symmetry_cell_setting 'orthorhombic'
loop_
_space_group_symop_operation_xyz
x,y,z
-x,-y,z
x,-y,-z
-x,y,-z
-x,-y,-z
x,y,-z
-x,y,z
x,-y,z
loop_
_atom_site_type_symbol
_atom_site_label
_atom_site_fract_x
_atom_site_fract_y
_atom_site_fract_z
Si Si1 0.500000 0.281292 0.376280
Si Si2 0.500000 0.500000 0.000000
Si Si3 0.139249 0.715394 0.207921
Si Si4 0.228449 0.790475 0.000000
Si Si5 0.000000 0.720293 0.126008
Si Si6 0.372163 0.251151 0.000000
Si Si7 0.371564 0.721052 0.758491
Si Si8 0.757476 0.719374 0.623385
O O1 0.500000 0.500000 0.379507
O O2 0.500000 0.218462 0.500000
O O3 0.435062 0.230939 0.311355
O O4 0.441650 0.649399 0.000000
O O5 0.134112 0.500000 0.218213
O O6 0.184803 0.752114 0.104528
O O7 0.066469 0.782184 0.183260
O O8 0.178181 0.781306 0.312675
O O9 0.296161 0.684039 0.000000
O O10 0.247433 0.000000 0.000000
O O11 0.000000 0.500000 0.126361
O O12 0.000000 0.773631 0.000000
O O13 0.372924 0.188585 0.875260
O O14 0.372593 0.500000 0.775265
O O15 0.306556 0.767416 0.692276
O O16 0.753849 0.780382 0.500000
O O17 0.758284 0.500000 0.621580
#
# Coordination Sequence:
#
# PCOD9381251 Si02
#       8
#     4   1   8   4   4   4   8   8
#     4   9  17  26  37  62 105 143 163 204 275 330
#     4  12  24  32  58  88 118 134 202 220 272 350
#     4  10  19  34  58  83 114 152 190 234 284 345
#     4  12  25  38  56  85 119 149 187 237 293 343
#     4   9  16  28  51  85 117 144 185 234 287 343
#     4  12  22  34  51  84 109 142 177 237 275 331
#     4  10  17  26  44  70 107 135 172 221 277 326
#     4   9  17  28  46  75 107 145 188 234 280 329
#
# _framework density 21.777778999999999
#
# number of rings (size 3 to 8) (size 9 to 14) (size 15 to 20)
#    0.000    1.951    3.902    1.463    2.732    2.341 
#    0.000    1.707    0.000    3.512    0.000    0.000 
#    0.000    2.341    0.000    0.000    0.000    0.000 
#
# Total GULP energy -228487.561656 kJ/mol
# GULP energy per Si atom -5572.867357 kJ/mol
# Density = 2.172821 g / cm^3
# Si number density = 21.777779 Si / 1000 Ang^3
#
#
#
# Elastic Constant Matrix: (Units=GPa)
#
#
# Indices 1 2 3 4 5 6 
#
# 1 248.0861 27.7300 116.5563 0.0000 0.0000 0.0000
# 2 27.7300 76.9158 16.2304 0.0000 0.0000 0.0000
# 3 116.5563 16.2304 237.5864 0.0000 0.0000 0.0000
# 4 0.0000 0.0000 0.0000 -0.4295 0.0000 0.0000
# 5 0.0000 0.0000 0.0000 0.0000 -15.4142 0.0000
# 6 0.0000 0.0000 0.0000 0.0000 0.0000 -26.8532
#
#
#
# Elastic Compliance Matrix: (Units=1/GPa)
#
#
# Indices 1 2 3 4 5 6 
#
# 1 0.005384 -0.001404 -0.002545 0.000000 0.000000 0.000000
# 2 -0.001404 0.013557 -0.000237 0.000000 0.000000 0.000000
# 3 -0.002545 -0.000237 0.005474 0.000000 0.000000 0.000000
# 4 0.000000 0.000000 0.000000 -2.328042 0.000000 0.000000
# 5 0.000000 0.000000 0.000000 0.000000 -0.064875 0.000000
# 6 0.000000 0.000000 0.000000 0.000000 0.000000 -0.037240
#
#
# Mechanical properties :
#
#
# Convention : Reuss Voigt Hill
#
# Bulk Modulus (GPa) = 62.33676 98.18018 80.25847
# Shear Modulus (GPa) = -2.09028 18.26539 8.08756
#
# Velocity S-wave (km/s) = -0.98077 2.89920 1.92918
# Velocity P-wave (km/s) = 5.23485 7.50918 6.47269
#
# Compressibility (1/GPa) = 0.01604190
#
# Stress axis : x y z
#
# Youngs Moduli (GPa) = 185.75073 73.76015 182.68677
#
# Poissons Ratio (x) = 0.10355 0.46497
# Poissons Ratio (y) = 0.26076 0.04338
# Poissons Ratio (z) = 0.47277 0.01752
#
# Static dielectric constant tensor:
#      x y z
#    x 1.743530 0.000000 0.000000 
#    y 0.000000 1.833750 0.000000 
#    z 0.000000 0.000000 1.757040 
# 
# From -- ./inp_files/19016.got.cif
#   From: 2010.05.17/outbox.cif.g08.bks.cpg/sg47_10_cif.got.tgz:19016.got - 2010.06.03 20:15:42.
