data_PCOD9381034
_publ_section_title
;
Structure prediction by ZEFSAII (Michael W. Deem and Ramdas Pophale) SiO2 
 PCOD9381034
Probable space group: I M A 2
;
_chemical_formula_sum "Si O2"
_cell_formula_units_Z 40
_cell_length_a 21.635362
_cell_length_b 9.649184
_cell_length_c 8.389499
_cell_angle_alpha 90.000000
_cell_angle_beta 90.000000
_cell_angle_gamma 90.000000
_cell_volume 1751.421920
_symmetry_space_group_name_H-M "I M A 2"
_symmetry_group_IT_number 46
_symmetry_cell_setting 'orthorhombic'
loop_
_space_group_symop_operation_xyz
x,y,z
-x,-y,z
1/2-x,y,z
1/2+x,-y,z
1/2+x,1/2+y,1/2+z
1/2-x,1/2-y,1/2+z
-x,1/2+y,1/2+z
x,1/2-y,1/2+z
loop_
_atom_site_type_symbol
_atom_site_label
_atom_site_fract_x
_atom_site_fract_y
_atom_site_fract_z
Si Si1 0.425681 0.296464 0.501120
Si Si2 0.883297 0.060809 0.179878
Si Si3 0.750000 0.110296 0.301842
Si Si4 0.750000 0.074639 0.683842
Si Si5 0.065784 0.694941 0.999561
Si Si6 0.119455 0.056101 0.685852
O O1 0.413687 0.417305 0.629166
O O2 0.495413 0.242412 0.507564
O O3 0.382003 0.166464 0.541466
O O4 0.411629 0.365947 0.332594
O O5 0.811904 0.046984 0.226632
O O6 0.917766 0.128884 0.330228
O O7 0.891768 0.172159 0.037822
O O8 0.750000 0.091953 0.491899
O O9 0.750000 0.273783 0.261573
O O10 0.811966 0.993032 0.727596
O O11 0.081325 0.577816 0.129681
#
# Coordination Sequence:
#
# PCOD9381034 Si02
#       6
#     8   8   4   4   8   8
#     4  12  29  48  75 115 155 200 254 315 389 453
#     4  12  25  46  80 111 148 200 254 318 376 447
#     4  12  24  49  79 112 148 196 260 312 372 459
#     4  12  28  49  81 110 156 198 264 314 382 463
#     4  12  25  49  74 110 153 197 257 309 377 461
#     4  12  27  50  77 111 154 203 254 318 384 454
#
# _framework density 22.838584999999998
#
# number of rings (size 3 to 8) (size 9 to 14) (size 15 to 20)
#    0.000    0.000    4.000    4.800    2.800    4.800 
#    0.000    2.000    0.000    0.000    0.000    0.000 
#    0.000    0.000    0.000    0.000    0.000    0.000 
#
# Total GULP energy -112266.872041 kJ/mol
# GULP energy per Si atom -5613.343602 kJ/mol
# Density = 2.278660 g / cm^3
# Si number density = 22.838585 Si / 1000 Ang^3
#
#
#
# Elastic Constant Matrix: (Units=GPa)
#
#
# Indices 1 2 3 4 5 6 
#
# 1 152.0102 86.4526 39.7799 0.0000 0.0000 0.0000
# 2 86.4526 133.6011 42.3002 0.0000 0.0000 0.0000
# 3 39.7799 42.3002 62.9872 0.0000 0.0000 0.0000
# 4 0.0000 0.0000 0.0000 56.6498 0.0000 0.0000
# 5 0.0000 0.0000 0.0000 0.0000 28.1668 0.0000
# 6 0.0000 0.0000 0.0000 0.0000 0.0000 -78.0832
#
#
#
# Elastic Compliance Matrix: (Units=1/GPa)
#
#
# Indices 1 2 3 4 5 6 
#
# 1 0.010757 -0.006109 -0.002691 0.000000 0.000000 0.000000
# 2 -0.006109 0.012975 -0.004856 0.000000 0.000000 0.000000
# 3 -0.002691 -0.004856 0.020837 0.000000 0.000000 0.000000
# 4 0.000000 0.000000 0.000000 0.017652 0.000000 0.000000
# 5 0.000000 0.000000 0.000000 0.000000 0.035503 0.000000
# 6 0.000000 0.000000 0.000000 0.000000 0.000000 -0.012807
#
#
# Mechanical properties :
#
#
# Convention : Reuss Voigt Hill
#
# Bulk Modulus (GPa) = 57.94511 76.18487 67.06499
# Shear Modulus (GPa) = 42.37956 13.35107 27.86531
#
# Velocity S-wave (km/s) = 4.31236 2.42044 3.49678
# Velocity P-wave (km/s) = 7.08674 6.42197 6.76253
#
# Compressibility (1/GPa) = 0.01725771
#
# Stress axis : x y z
#
# Youngs Moduli (GPa) = 92.96298 77.06953 47.99182
#
# Poissons Ratio (x) = 0.47079 0.12916
# Poissons Ratio (y) = 0.56788 0.23304
# Poissons Ratio (z) = 0.25018 0.37423
#
# Static dielectric constant tensor:
#      x y z
#    x 1.798150 0.000000 0.000000 
#    y 0.000000 1.823330 0.000000 
#    z 0.000000 0.000000 1.910590 
# 
# From -- ./inp_files/7731.got.cif
#   From: 2010.05.17/outbox.cif.g08.bks.cpg/sg46_4_cif.got.tgz:7731.got - 2010.06.03 19:58:25.
