data_PCOD9381534
_publ_section_title
;
Structure prediction by ZEFSAII (Michael W. Deem and Ramdas Pophale) SiO2 
 PCOD9381534
Probable space group: P M M M
;
_chemical_formula_sum "Si O2"
_cell_formula_units_Z 64
_cell_length_a 20.853525
_cell_length_b 20.760820
_cell_length_c 7.568305
_cell_angle_alpha 90.000000
_cell_angle_beta 90.000000
_cell_angle_gamma 90.000000
_cell_volume 3276.593804
_symmetry_space_group_name_H-M "P M M M"
_symmetry_group_IT_number 47
_symmetry_cell_setting 'orthorhombic'
loop_
_space_group_symop_operation_xyz
x,y,z
-x,-y,z
x,-y,-z
-x,y,-z
-x,-y,-z
x,y,-z
-x,y,z
x,-y,z
loop_
_atom_site_type_symbol
_atom_site_label
_atom_site_fract_x
_atom_site_fract_y
_atom_site_fract_z
Si Si1 0.790749 0.896041 0.204300
Si Si2 0.337097 0.310457 0.792655
Si Si3 0.930548 0.106594 0.213219
Si Si4 0.651274 0.070248 0.783934
Si Si5 0.931766 0.259955 0.289368
Si Si6 0.573258 0.195121 0.783597
Si Si7 0.428366 0.426157 0.712872
Si Si8 0.205225 0.747846 0.293636
O O1 0.860541 0.915331 0.279985
O O2 0.724482 0.921997 0.280711
O O3 0.784267 0.817950 0.207299
O O4 0.792273 0.916841 0.000000
O O5 0.384704 0.255403 0.721378
O O6 0.372163 0.378195 0.766292
O O7 0.266098 0.298295 0.721171
O O8 0.330723 0.299044 0.000000
O O9 0.931209 0.182982 0.254911
O O10 0.000000 0.080804 0.275970
O O11 0.929942 0.098963 0.000000
O O12 0.607755 0.129540 0.726777
O O13 0.626326 0.000000 0.734464
O O14 0.653260 0.073219 0.000000
O O15 0.933570 0.271030 0.500000
O O16 0.861850 0.281736 0.224713
O O17 0.000000 0.284393 0.216213
O O18 0.500000 0.199287 0.725511
O O19 0.572815 0.195979 0.000000
O O20 0.429736 0.426771 0.500000
O O21 0.500000 0.404918 0.773125
O O22 0.418935 0.500000 0.771926
O O23 0.196075 0.763004 0.500000
#
# Coordination Sequence:
#
# PCOD9381534 Si02
#       8
#     8   8   8   8   8   8   8   8
#     4   9  15  26  41  58  82 109 143 186 232 281
#     4  11  20  31  48  71 100 129 158 195 234 274
#     4   8  13  20  33  53  76 104 136 172 218 273
#     4   9  16  26  41  60  82 111 147 189 238 286
#     4   8  14  24  37  56  84 115 147 185 227 272
#     4   9  17  28  42  63  88 112 144 189 236 277
#     4   9  19  36  55  75 102 134 164 194 230 274
#     4  10  18  27  43  66  91 121 155 190 234 283
#
# _framework density 19.53248
#
# number of rings (size 3 to 8) (size 9 to 14) (size 15 to 20)
#    0.000    2.875    1.250    1.500    0.000    1.750 
#    0.000    1.875    0.000    0.750    0.000    2.625 
#    0.000    1.500    0.000   26.000    0.000   11.125 
#
# Total GULP energy -356656.220564 kJ/mol
# GULP energy per Si atom -5572.753446 kJ/mol
# Density = 1.948802 g / cm^3
# Si number density = 19.532480 Si / 1000 Ang^3
#
#
#
# Elastic Constant Matrix: (Units=GPa)
#
#
# Indices 1 2 3 4 5 6 
#
# 1 177.2795 52.3829 2.3378 0.0000 0.0000 0.0000
# 2 52.3829 60.8278 -4.2478 0.0000 0.0000 0.0000
# 3 2.3378 -4.2478 47.7966 0.0000 0.0000 0.0000
# 4 0.0000 0.0000 0.0000 9.3410 0.0000 0.0000
# 5 0.0000 0.0000 0.0000 0.0000 7.5488 0.0000
# 6 0.0000 0.0000 0.0000 0.0000 0.0000 152.4049
#
#
#
# Elastic Compliance Matrix: (Units=1/GPa)
#
#
# Indices 1 2 3 4 5 6 
#
# 1 0.007610 -0.006620 -0.000961 0.000000 0.000000 0.000000
# 2 -0.006620 0.022302 0.002306 0.000000 0.000000 0.000000
# 3 -0.000961 0.002306 0.021174 0.000000 0.000000 0.000000
# 4 0.000000 0.000000 0.000000 0.107055 0.000000 0.000000
# 5 0.000000 0.000000 0.000000 0.000000 0.132472 0.000000
# 6 0.000000 0.000000 0.000000 0.000000 0.000000 0.006561
#
#
# Mechanical properties :
#
#
# Convention : Reuss Voigt Hill
#
# Bulk Modulus (GPa) = 24.66963 42.98327 33.82645
# Shear Modulus (GPa) = 15.56488 49.55431 32.55960
#
# Velocity S-wave (km/s) = 2.82595 5.04235 4.08725
# Velocity P-wave (km/s) = 4.82758 7.48025 6.29522
#
# Compressibility (1/GPa) = 0.04053568
#
# Stress axis : x y z
#
# Youngs Moduli (GPa) = 131.41222 44.83897 47.22791
#
# Poissons Ratio (x) = 0.29685 0.04537
# Poissons Ratio (y) = 0.86998 -0.10890
# Poissons Ratio (z) = 0.12623 -0.10339
#
# Static dielectric constant tensor:
#      x y z
#    x 1.752250 0.000000 0.000000 
#    y 0.000000 1.642720 0.000000 
#    z 0.000000 0.000000 1.767290 
# 
# From -- ./inp_files/11668.got.cif
#   From: 2010.05.17/outbox.cif.g08.bks.cpg/sg47_6_cif.got.tgz:11668.got - 2010.06.03 20:15:42.
