data_PCOD9381275
_publ_section_title
;
Structure prediction by ZEFSAII (Michael W. Deem and Ramdas Pophale) SiO2 
 PCOD9381275
Probable space group: P M M M
;
_chemical_formula_sum "Si O2"
_cell_formula_units_Z 64
_cell_length_a 8.338805
_cell_length_b 21.064869
_cell_length_c 20.694617
_cell_angle_alpha 90.000000
_cell_angle_beta 90.000000
_cell_angle_gamma 90.000000
_cell_volume 3635.130228
_symmetry_space_group_name_H-M "P M M M"
_symmetry_group_IT_number 47
_symmetry_cell_setting 'orthorhombic'
loop_
_space_group_symop_operation_xyz
x,y,z
-x,-y,z
x,-y,-z
-x,y,-z
-x,-y,-z
x,y,-z
-x,y,z
x,-y,z
loop_
_atom_site_type_symbol
_atom_site_label
_atom_site_fract_x
_atom_site_fract_y
_atom_site_fract_z
Si Si1 0.307499 0.757058 0.068927
Si Si2 0.191388 0.812908 0.341052
Si Si3 0.191392 0.386512 0.791729
Si Si4 0.309603 0.604022 0.929719
Si Si5 0.693460 0.927083 0.573165
Si Si6 0.307728 0.240849 0.208550
Si Si7 0.195803 0.430892 0.347709
Si Si8 0.803838 0.307084 0.425739
O O1 0.500000 0.767055 0.067885
O O2 0.285070 0.680598 0.070054
O O3 0.247108 0.781601 0.137786
O O4 0.241834 0.780503 0.000000
O O5 0.245846 0.877743 0.374291
O O6 0.249808 0.800187 0.268595
O O7 0.250001 0.754013 0.385195
O O8 0.000000 0.810852 0.340740
O O9 0.242220 0.416241 0.860439
O O10 0.252961 0.314090 0.784978
O O11 0.245371 0.422055 0.726936
O O12 0.000000 0.384248 0.791263
O O13 0.500000 0.592375 0.928932
O O14 0.247760 0.580667 0.000000
O O15 0.746181 0.909298 0.500000
O O16 0.500000 0.926131 0.573461
O O17 0.743938 0.000000 0.584882
O O18 0.500000 0.240767 0.207532
O O19 0.246926 0.500000 0.371809
O O20 0.249358 0.371403 0.390265
O O21 0.000000 0.429687 0.348421
O O22 0.752298 0.304197 0.500000
O O23 0.000000 0.306995 0.425311
#
# Coordination Sequence:
#
# PCOD9381275 Si02
#       8
#     8   8   8   8   8   8   8   8
#     4   7  11  21  37  58  84 114 150 190 229 274
#     4  11  20  31  48  74 105 132 162 203 246 285
#     4  10  17  27  43  65  91 116 150 198 248 294
#     4   8  14  25  41  61  85 115 150 186 229 286
#     4   9  19  36  55  75 102 136 171 203 237 286
#     4  10  18  28  45  67  93 129 165 196 241 294
#     4   9  17  29  44  63  89 120 154 197 249 300
#     4   9  17  29  45  67  93 119 151 195 245 291
#
# _framework density 17.605972999999999
#
# number of rings (size 3 to 8) (size 9 to 14) (size 15 to 20)
#    0.000    2.875    1.250    3.375    0.000    1.500 
#    0.000    1.875    0.000    3.000    0.000    2.625 
#    0.000    1.500    0.000    5.750    0.000    1.750 
#
# Total GULP energy -356533.749436 kJ/mol
# GULP energy per Si atom -5570.839835 kJ/mol
# Density = 1.756590 g / cm^3
# Si number density = 17.605973 Si / 1000 Ang^3
#
#
#
# Elastic Constant Matrix: (Units=GPa)
#
#
# Indices 1 2 3 4 5 6 
#
# 1 16.7525 11.5116 18.6009 0.0000 0.0000 0.0000
# 2 11.5116 64.5642 57.8492 0.0000 0.0000 0.0000
# 3 18.6009 57.8492 163.0433 0.0000 0.0000 0.0000
# 4 0.0000 0.0000 0.0000 -24.6776 0.0000 0.0000
# 5 0.0000 0.0000 0.0000 0.0000 19.5021 0.0000
# 6 0.0000 0.0000 0.0000 0.0000 0.0000 -64.8829
#
#
#
# Elastic Compliance Matrix: (Units=1/GPa)
#
#
# Indices 1 2 3 4 5 6 
#
# 1 0.071010 -0.007920 -0.005291 0.000000 0.000000 0.000000
# 2 -0.007920 0.023591 -0.007467 0.000000 0.000000 0.000000
# 3 -0.005291 -0.007467 0.009386 0.000000 0.000000 0.000000
# 4 0.000000 0.000000 0.000000 -0.040523 0.000000 0.000000
# 5 0.000000 0.000000 0.000000 0.000000 0.051276 0.000000
# 6 0.000000 0.000000 0.000000 0.000000 0.000000 -0.015412
#
#
# Mechanical properties :
#
#
# Convention : Reuss Voigt Hill
#
# Bulk Modulus (GPa) = 15.96648 46.69814 31.33231
# Shear Modulus (GPa) = 30.94816 -3.58513 13.68152
#
# Velocity S-wave (km/s) = 4.19719 -1.42854 2.79067
# Velocity P-wave (km/s) = 5.70762 4.88473 5.31214
#
# Compressibility (1/GPa) = 0.06263120
#
# Stress axis : x y z
#
# Youngs Moduli (GPa) = 14.08257 42.38981 106.53944
#
# Poissons Ratio (x) = 0.33573 0.56371
# Poissons Ratio (y) = 0.11153 0.79549
# Poissons Ratio (z) = 0.07451 0.31651
#
# Static dielectric constant tensor:
#      x y z
#    x 1.617010 0.000000 0.000000 
#    y 0.000000 1.580620 0.000000 
#    z 0.000000 0.000000 1.652310 
# 
# From -- ./inp_files/30013.got.cif
#   From: 2010.05.17/outbox.cif.g08.bks.cpg/sg47_16_cif.got.tgz:30013.got - 2010.06.03 20:15:42.
