data_PCOD9381539
_publ_section_title
;
Structure prediction by ZEFSAII (Michael W. Deem and Ramdas Pophale) SiO2 
 PCOD9381539
Probable space group: P M M M
;
_chemical_formula_sum "Si O2"
_cell_formula_units_Z 64
_cell_length_a 20.636089
_cell_length_b 21.099217
_cell_length_c 7.770598
_cell_angle_alpha 90.000000
_cell_angle_beta 90.000000
_cell_angle_gamma 90.000000
_cell_volume 3383.359708
_symmetry_space_group_name_H-M "P M M M"
_symmetry_group_IT_number 47
_symmetry_cell_setting 'orthorhombic'
loop_
_space_group_symop_operation_xyz
x,y,z
-x,-y,z
x,-y,-z
-x,y,-z
-x,-y,-z
x,y,-z
-x,y,z
x,-y,z
loop_
_atom_site_type_symbol
_atom_site_label
_atom_site_fract_x
_atom_site_fract_y
_atom_site_fract_z
Si Si1 0.287537 0.397386 0.701434
Si Si2 0.158151 0.189397 0.707936
Si Si3 0.431132 0.748730 0.791937
Si Si4 0.708768 0.749739 0.205132
Si Si5 0.429706 0.400704 0.294713
Si Si6 0.073986 0.072232 0.710008
Si Si7 0.072652 0.305967 0.703103
Si Si8 0.145810 0.568302 0.199865
O O1 0.284978 0.413915 0.500000
O O2 0.282799 0.320696 0.716880
O O3 0.358135 0.419512 0.770666
O O4 0.223338 0.424329 0.786709
O O5 0.155278 0.188970 0.500000
O O6 0.231896 0.204636 0.754312
O O7 0.125670 0.124166 0.768771
O O8 0.115158 0.248304 0.774848
O O9 0.500000 0.776184 0.730723
O O10 0.361652 0.775190 0.736360
O O11 0.430492 0.675086 0.735644
O O12 0.432042 0.750175 0.000000
O O13 0.706910 0.740003 0.000000
O O14 0.429387 0.412914 0.500000
O O15 0.500000 0.424224 0.227741
O O16 0.074671 0.072182 0.500000
O O17 0.000000 0.089097 0.760215
O O18 0.087014 0.000000 0.765323
O O19 0.066838 0.293241 0.500000
O O20 0.110895 0.371479 0.720372
O O21 0.000000 0.309512 0.775356
O O22 0.127385 0.500000 0.275569
O O23 0.127968 0.568778 0.000000
#
# Coordination Sequence:
#
# PCOD9381539 Si02
#       8
#     8   8   8   8   8   8   8   8
#     4  10  18  30  49  70  92 120 155 194 236 283
#     4  10  18  29  48  74 102 129 158 193 231 274
#     4   8  14  24  37  56  85 121 157 189 224 270
#     4  10  18  27  43  67  96 127 157 192 235 281
#     4   8  14  24  40  64  91 116 144 182 229 278
#     4   8  14  26  46  72 100 130 164 198 229 266
#     4  10  21  36  54  75  96 120 152 191 235 284
#     4  11  24  39  53  69  91 121 157 198 243 289
#
# _framework density 18.916107
#
# number of rings (size 3 to 8) (size 9 to 14) (size 15 to 20)
#    0.000    2.625    1.250    1.875    0.000    4.000 
#    0.000    1.250    0.000    1.875    0.000    3.500 
#    0.000    0.500    0.000    6.250    0.000    0.000 
#
# Total GULP energy -356702.580893 kJ/mol
# GULP energy per Si atom -5573.477826 kJ/mol
# Density = 1.887305 g / cm^3
# Si number density = 18.916107 Si / 1000 Ang^3
#
#
#
# Elastic Constant Matrix: (Units=GPa)
#
#
# Indices 1 2 3 4 5 6 
#
# 1 168.9288 68.0484 -0.1478 0.0000 0.0000 0.0000
# 2 68.0484 82.1953 -3.3891 0.0000 0.0000 0.0000
# 3 -0.1478 -3.3891 27.7501 0.0000 0.0000 0.0000
# 4 0.0000 0.0000 0.0000 7.1743 0.0000 0.0000
# 5 0.0000 0.0000 0.0000 0.0000 -35.2448 0.0000
# 6 0.0000 0.0000 0.0000 0.0000 0.0000 89.9204
#
#
#
# Elastic Compliance Matrix: (Units=1/GPa)
#
#
# Indices 1 2 3 4 5 6 
#
# 1 0.008902 -0.007405 -0.000857 0.000000 0.000000 0.000000
# 2 -0.007405 0.018388 0.002206 0.000000 0.000000 0.000000
# 3 -0.000857 0.002206 0.036301 0.000000 0.000000 0.000000
# 4 0.000000 0.000000 0.000000 0.139387 0.000000 0.000000
# 5 0.000000 0.000000 0.000000 0.000000 -0.028373 0.000000
# 6 0.000000 0.000000 0.000000 0.000000 0.000000 0.011121
#
#
# Mechanical properties :
#
#
# Convention : Reuss Voigt Hill
#
# Bulk Modulus (GPa) = 19.42547 45.32191 32.37369
# Shear Modulus (GPa) = 23.25621 26.66081 24.95851
#
# Velocity S-wave (km/s) = 3.51014 3.75830 3.63634
# Velocity P-wave (km/s) = 5.16911 6.54558 5.89764
#
# Compressibility (1/GPa) = 0.05147879
#
# Stress axis : x y z
#
# Youngs Moduli (GPa) = 112.33656 54.38435 27.54758
#
# Poissons Ratio (x) = 0.40272 0.02361
# Poissons Ratio (y) = 0.83186 -0.06078
# Poissons Ratio (z) = 0.09627 -0.11999
#
# Static dielectric constant tensor:
#      x y z
#    x 1.715010 0.000000 0.000000 
#    y 0.000000 1.638200 0.000000 
#    z 0.000000 0.000000 1.715780 
# 
# From -- ./inp_files/11892.got.cif
#   From: 2010.05.17/outbox.cif.g08.bks.cpg/sg47_6_cif.got.tgz:11892.got - 2010.06.03 20:15:42.
