data_PCOD9381923
_publ_section_title
;
Structure prediction by ZEFSAII (Michael W. Deem and Ramdas Pophale) SiO2 
 PCOD9381923
Probable space group: P M M M
;
_chemical_formula_sum "Si O2"
_cell_formula_units_Z 64
_cell_length_a 24.372337
_cell_length_b 19.695673
_cell_length_c 8.569812
_cell_angle_alpha 90.000000
_cell_angle_beta 90.000000
_cell_angle_gamma 90.000000
_cell_volume 4113.763253
_symmetry_space_group_name_H-M "P M M M"
_symmetry_group_IT_number 47
_symmetry_cell_setting 'orthorhombic'
loop_
_space_group_symop_operation_xyz
x,y,z
-x,-y,z
x,-y,-z
-x,y,-z
-x,-y,-z
x,y,-z
-x,y,z
x,-y,z
loop_
_atom_site_type_symbol
_atom_site_label
_atom_site_fract_x
_atom_site_fract_y
_atom_site_fract_z
Si Si1 0.114795 0.423464 0.188175
Si Si2 0.769642 0.922866 0.688874
Si Si3 0.061557 0.288368 0.688400
Si Si4 0.563309 0.078241 0.688208
Si Si5 0.334934 0.157889 0.814944
Si Si6 0.165820 0.205620 0.689721
Si Si7 0.243396 0.423731 0.812020
Si Si8 0.723794 0.284610 0.313589
O O1 0.097794 0.500000 0.233244
O O2 0.079695 0.363618 0.261466
O O3 0.179049 0.415404 0.232247
O O4 0.111757 0.419121 0.000000
O O5 0.768826 0.923225 0.500000
O O6 0.712336 0.890746 0.744104
O O7 0.817095 0.870172 0.738918
O O8 0.776504 0.000000 0.743315
O O9 0.061513 0.285648 0.500000
O O10 0.108583 0.236567 0.745672
O O11 0.000000 0.273241 0.743540
O O12 0.566995 0.081621 0.500000
O O13 0.500000 0.091890 0.731487
O O14 0.606788 0.129242 0.760627
O O15 0.576026 0.000000 0.733242
O O16 0.321082 0.233507 0.755427
O O17 0.330852 0.156242 0.000000
O O18 0.164394 0.205950 0.500000
O O19 0.216836 0.253717 0.736232
O O20 0.260141 0.500000 0.764354
O O21 0.277446 0.361945 0.741912
O O22 0.245763 0.420473 0.000000
O O23 0.721203 0.281208 0.500000
#
# Coordination Sequence:
#
# PCOD9381923 Si02
#       8
#     8   8   8   8   8   8   8   8
#     4   9  18  31  45  61  84 113 143 177 218 268
#     4   9  17  30  48  66  86 114 148 187 229 276
#     4  10  19  30  44  61  82 109 145 189 228 266
#     4   9  18  33  51  69  94 132 172 202 228 264
#     4  11  21  30  44  69 100 127 154 193 234 271
#     4   8  15  28  43  61  82 107 140 179 227 274
#     4   9  17  29  45  66  92 119 146 182 231 280
#     4  10  18  30  48  66  88 120 157 192 226 271
#
# _framework density 15.557531000000001
#
# number of rings (size 3 to 8) (size 9 to 14) (size 15 to 20)
#    0.000    2.625    1.250    3.750    0.000    3.250 
#    0.000    3.125    0.000    0.375    0.000    2.625 
#    0.000    0.500    0.000    9.625    0.000    7.750 
#
# Total GULP energy -356729.423329 kJ/mol
# GULP energy per Si atom -5573.897240 kJ/mol
# Density = 1.552212 g / cm^3
# Si number density = 15.557531 Si / 1000 Ang^3
#
#
#
# Elastic Constant Matrix: (Units=GPa)
#
#
# Indices 1 2 3 4 5 6 
#
# 1 88.3349 63.5157 19.6814 0.0000 0.0000 0.0000
# 2 63.5157 128.9189 23.0518 0.0000 0.0000 0.0000
# 3 19.6814 23.0518 16.3304 0.0000 0.0000 0.0000
# 4 0.0000 0.0000 0.0000 6.1124 0.0000 0.0000
# 5 0.0000 0.0000 0.0000 0.0000 10.3213 0.0000
# 6 0.0000 0.0000 0.0000 0.0000 0.0000 25.8373
#
#
#
# Elastic Compliance Matrix: (Units=1/GPa)
#
#
# Indices 1 2 3 4 5 6 
#
# 1 0.019468 -0.007218 -0.013274 0.000000 0.000000 0.000000
# 2 -0.007218 0.013052 -0.009725 0.000000 0.000000 0.000000
# 3 -0.013274 -0.009725 0.090960 0.000000 0.000000 0.000000
# 4 0.000000 0.000000 0.000000 0.163602 0.000000 0.000000
# 5 0.000000 0.000000 0.000000 0.000000 0.096887 0.000000
# 6 0.000000 0.000000 0.000000 0.000000 0.000000 0.038704
#
#
# Mechanical properties :
#
#
# Convention : Reuss Voigt Hill
#
# Bulk Modulus (GPa) = 15.86123 49.56466 32.71295
# Shear Modulus (GPa) = 9.91823 16.94322 13.43073
#
# Velocity S-wave (km/s) = 2.52765 3.30368 2.94137
# Velocity P-wave (km/s) = 4.32852 6.81767 5.71037
#
# Compressibility (1/GPa) = 0.06304681
#
# Stress axis : x y z
#
# Youngs Moduli (GPa) = 51.36630 76.61769 10.99383
#
# Poissons Ratio (x) = 0.55303 0.14593
# Poissons Ratio (y) = 0.37076 0.10691
# Poissons Ratio (z) = 0.68183 0.74508
#
# Static dielectric constant tensor:
#      x y z
#    x 1.506510 0.000000 0.000000 
#    y 0.000000 1.525710 0.000000 
#    z 0.000000 0.000000 1.528390 
# 
# From -- ./inp_files/11803.got.cif
#   From: 2010.05.17/outbox.cif.g08.bks.cpg/sg47_6_cif.got.tgz:11803.got - 2010.06.03 20:15:42.
