data_PCOD9381489
_publ_section_title
;
Structure prediction by ZEFSAII (Michael W. Deem and Ramdas Pophale) SiO2 
 PCOD9381489
Probable space group: P M M M
;
_chemical_formula_sum "Si O2"
_cell_formula_units_Z 60
_cell_length_a 24.262002
_cell_length_b 18.634005
_cell_length_c 9.174725
_cell_angle_alpha 90.000000
_cell_angle_beta 90.000000
_cell_angle_gamma 90.000000
_cell_volume 4147.877269
_symmetry_space_group_name_H-M "P M M M"
_symmetry_group_IT_number 47
_symmetry_cell_setting 'orthorhombic'
loop_
_space_group_symop_operation_xyz
x,y,z
-x,-y,z
x,-y,-z
-x,y,-z
-x,-y,-z
x,y,-z
-x,y,z
x,-y,z
loop_
_atom_site_type_symbol
_atom_site_label
_atom_site_fract_x
_atom_site_fract_y
_atom_site_fract_z
Si Si1 0.339702 0.418131 0.674811
Si Si2 0.438198 0.856980 0.824226
Si Si3 0.878998 0.413408 0.826952
Si Si4 0.273803 0.209786 0.167536
Si Si5 0.607778 0.708844 0.834032
Si Si6 0.775806 0.341010 0.325613
Si Si7 0.330300 0.916314 0.327591
Si Si8 0.000000 0.416674 0.822942
O O1 0.343851 0.416905 0.500000
O O2 0.346583 0.500000 0.725422
O O3 0.383284 0.362127 0.740428
O O4 0.278231 0.389253 0.711735
O O5 0.500000 0.882541 0.792820
O O6 0.432397 0.772543 0.783824
O O7 0.389962 0.899092 0.742854
O O8 0.429218 0.861056 0.000000
O O9 0.877432 0.500000 0.809943
O O10 0.830046 0.377756 0.738050
O O11 0.940213 0.387130 0.779651
O O12 0.872282 0.398963 0.000000
O O13 0.332836 0.251001 0.165686
O O14 0.233891 0.263351 0.253469
O O15 0.286699 0.135709 0.249040
O O16 0.256935 0.199205 0.000000
O O17 0.593752 0.689467 0.000000
O O18 0.778149 0.335294 0.500000
O O19 0.332061 0.900286 0.500000
O O20 0.317662 0.000000 0.307428
O O21 0.000000 0.500000 0.777084
O O22 0.000000 0.416658 0.000000
#
# Coordination Sequence:
#
# PCOD9381489 Si02
#       8
#     8   8   8   8   8   8   8   4
#     4   9  17  27  38  54  77 103 129 160 202 250
#     4   9  18  32  48  64  82 106 137 170 200 234
#     4   9  16  26  40  57  79 111 152 192 225 257
#     4   9  17  30  46  62  81 107 139 169 199 241
#     4   8  15  27  42  59  76  96 126 164 202 238
#     4  10  18  27  40  59  84 110 137 174 218 257
#     4  10  20  32  46  66  91 114 134 159 195 240
#     4   7  12  24  39  53  73 107 150 191 226 257
#
# _framework density 14.46523
#
# number of rings (size 3 to 8) (size 9 to 14) (size 15 to 20)
#    0.000    3.000    0.000    3.200    0.000    6.400 
#    0.000    1.667    0.000    1.600    0.000    2.800 
#    0.000    0.000    0.000    0.600    0.000   11.600 
#
# Total GULP energy -334026.991612 kJ/mol
# GULP energy per Si atom -5567.116527 kJ/mol
# Density = 1.443231 g / cm^3
# Si number density = 14.465230 Si / 1000 Ang^3
#
#
#
# Elastic Constant Matrix: (Units=GPa)
#
#
# Indices 1 2 3 4 5 6 
#
# 1 28.8411 9.4134 17.6842 0.0000 0.0000 0.0000
# 2 9.4134 72.7554 39.6258 0.0000 0.0000 0.0000
# 3 17.6842 39.6258 51.0844 0.0000 0.0000 0.0000
# 4 0.0000 0.0000 0.0000 23.6614 0.0000 0.0000
# 5 0.0000 0.0000 0.0000 0.0000 15.0902 0.0000
# 6 0.0000 0.0000 0.0000 0.0000 0.0000 12.6232
#
#
#
# Elastic Compliance Matrix: (Units=1/GPa)
#
#
# Indices 1 2 3 4 5 6 
#
# 1 0.044887 0.004598 -0.019105 0.000000 0.000000 0.000000
# 2 0.004598 0.024270 -0.020418 0.000000 0.000000 0.000000
# 3 -0.019105 -0.020418 0.042027 0.000000 0.000000 0.000000
# 4 0.000000 0.000000 0.000000 0.042263 0.000000 0.000000
# 5 0.000000 0.000000 0.000000 0.000000 0.066268 0.000000
# 6 0.000000 0.000000 0.000000 0.000000 0.000000 0.079219
#
#
# Mechanical properties :
#
#
# Convention : Reuss Voigt Hill
#
# Bulk Modulus (GPa) = 24.19340 31.79196 27.99268
# Shear Modulus (GPa) = 13.06974 16.00547 14.53761
#
# Velocity S-wave (km/s) = 3.00914 3.32999 3.17362
# Velocity P-wave (km/s) = 5.36980 6.06721 5.72912
#
# Compressibility (1/GPa) = 0.04133358
#
# Stress axis : x y z
#
# Youngs Moduli (GPa) = 22.27838 41.20251 23.79398
#
# Poissons Ratio (x) = -0.18945 0.45459
# Poissons Ratio (y) = -0.10244 0.48583
# Poissons Ratio (z) = 0.42564 0.84128
#
# Static dielectric constant tensor:
#      x y z
#    x 1.476060 0.000000 0.000000 
#    y 0.000000 1.474690 0.000000 
#    z 0.000000 0.000000 1.485730 
# 
# From -- ./inp_files/12886.got.cif
#   From: 2010.05.17/outbox.cif.g08.bks.cpg/sg47_7_cif.got.tgz:12886.got - 2010.06.03 20:15:42.
