data_PCOD9381322
_publ_section_title
;
Structure prediction by ZEFSAII (Michael W. Deem and Ramdas Pophale) SiO2 
 PCOD9381322
Probable space group: P M M M
;
_chemical_formula_sum "Si O2"
_cell_formula_units_Z 52
_cell_length_a 8.029900
_cell_length_b 14.692225
_cell_length_c 24.044071
_cell_angle_alpha 90.000000
_cell_angle_beta 90.000000
_cell_angle_gamma 90.000000
_cell_volume 2836.649709
_symmetry_space_group_name_H-M "P M M M"
_symmetry_group_IT_number 47
_symmetry_cell_setting 'orthorhombic'
loop_
_space_group_symop_operation_xyz
x,y,z
-x,-y,z
x,-y,-z
-x,y,-z
-x,-y,-z
x,y,-z
-x,y,z
x,-y,z
loop_
_atom_site_type_symbol
_atom_site_label
_atom_site_fract_x
_atom_site_fract_y
_atom_site_fract_z
Si Si1 0.197794 0.208890 0.610365
Si Si2 0.800162 0.212554 0.830325
Si Si3 0.299149 0.397668 0.220147
Si Si4 0.697791 0.896990 0.500000
Si Si5 0.796072 0.105413 0.279276
Si Si6 0.700584 0.602038 0.652195
Si Si7 0.203311 0.894700 0.062564
O O1 0.252856 0.157782 0.555030
O O2 0.263625 0.158143 0.665770
O O3 0.245785 0.314681 0.614064
O O4 0.000000 0.203371 0.612747
O O5 0.759573 0.317492 0.819436
O O6 0.738991 0.155769 0.776723
O O7 0.737143 0.169937 0.887923
O O8 0.000000 0.203107 0.830960
O O9 0.500000 0.397033 0.220886
O O10 0.245049 0.500000 0.204900
O O11 0.242390 0.380331 0.283994
O O12 0.500000 0.904060 0.500000
O O13 0.768650 0.000000 0.500000
O O14 0.000000 0.107342 0.279289
O O15 0.746207 0.000000 0.280225
O O16 0.500000 0.600549 0.653135
O O17 0.757108 0.500000 0.636418
O O18 0.000000 0.892405 0.062341
O O19 0.249730 0.000000 0.073267
O O20 0.257762 0.870105 0.000000
#
# Coordination Sequence:
#
# PCOD9381322 Si02
#       7
#     8   8   8   4   8   8   8
#     4  11  21  35  56  81 107 135 168 212 260 306
#     4  10  17  27  47  75 101 127 166 212 253 295
#     4   9  18  32  49  70 100 136 168 202 251 309
#     4  11  25  43  60  77 102 141 183 214 244 295
#     4   9  17  28  44  71 104 131 156 196 252 304
#     4   9  18  34  55  77 104 138 171 206 254 311
#     4   8  14  25  43  69 101 136 171 206 247 298
#
# _framework density 18.331484
#
# number of rings (size 3 to 8) (size 9 to 14) (size 15 to 20)
#    0.000    2.538    1.538    3.000    0.000    3.692 
#    0.000    1.923    0.000    6.000    0.000    4.308 
#    0.000    0.000    0.000    0.000    0.000    0.000 
#
# Total GULP energy -290068.875218 kJ/mol
# GULP energy per Si atom -5578.247600 kJ/mol
# Density = 1.828976 g / cm^3
# Si number density = 18.331484 Si / 1000 Ang^3
#
#
#
# Elastic Constant Matrix: (Units=GPa)
#
#
# Indices 1 2 3 4 5 6 
#
# 1 14.6843 10.2243 14.9851 0.0000 0.0000 0.0000
# 2 10.2243 172.9022 110.6337 0.0000 0.0000 0.0000
# 3 14.9851 110.6337 151.6678 0.0000 0.0000 0.0000
# 4 0.0000 0.0000 0.0000 34.3394 0.0000 0.0000
# 5 0.0000 0.0000 0.0000 0.0000 8.7737 0.0000
# 6 0.0000 0.0000 0.0000 0.0000 0.0000 -44.0802
#
#
#
# Elastic Compliance Matrix: (Units=1/GPa)
#
#
# Indices 1 2 3 4 5 6 
#
# 1 0.075767 0.000581 -0.007909 0.000000 0.000000 0.000000
# 2 0.000581 0.010850 -0.007972 0.000000 0.000000 0.000000
# 3 -0.007909 -0.007972 0.013190 0.000000 0.000000 0.000000
# 4 0.000000 0.000000 0.000000 0.029121 0.000000 0.000000
# 5 0.000000 0.000000 0.000000 0.000000 0.113977 0.000000
# 6 0.000000 0.000000 0.000000 0.000000 0.000000 -0.022686
#
#
# Mechanical properties :
#
#
# Convention : Reuss Voigt Hill
#
# Bulk Modulus (GPa) = 14.44972 67.88229 41.16601
# Shear Modulus (GPa) = 18.25549 13.36733 15.81141
#
# Velocity S-wave (km/s) = 3.15914 2.70330 2.94007
# Velocity P-wave (km/s) = 4.60505 6.84504 5.83357
#
# Compressibility (1/GPa) = 0.06920550
#
# Stress axis : x y z
#
# Youngs Moduli (GPa) = 13.19835 92.16290 75.81457
#
# Poissons Ratio (x) = -0.05351 0.59965
# Poissons Ratio (y) = -0.00766 0.60440
# Poissons Ratio (z) = 0.10439 0.73473
#
# Static dielectric constant tensor:
#      x y z
#    x 1.656030 0.000000 0.000000 
#    y 0.000000 1.633720 0.000000 
#    z 0.000000 0.000000 1.655310 
# 
# From -- ./inp_files/25465.got.cif
#   From: 2010.05.17/outbox.cif.g08.bks.cpg/sg47_13_cif.got.tgz:25465.got - 2010.06.03 20:15:42.
