data_PCOD9381505
_publ_section_title
;
Structure prediction by ZEFSAII (Michael W. Deem and Ramdas Pophale) SiO2 
 PCOD9381505
Probable space group: P M M M
;
_chemical_formula_sum "Si O2"
_cell_formula_units_Z 52
_cell_length_a 19.206168
_cell_length_b 7.753803
_cell_length_c 19.212989
_cell_angle_alpha 90.000000
_cell_angle_beta 90.000000
_cell_angle_gamma 90.000000
_cell_volume 2861.214520
_symmetry_space_group_name_H-M "P M M M"
_symmetry_group_IT_number 47
_symmetry_cell_setting 'orthorhombic'
loop_
_space_group_symop_operation_xyz
x,y,z
-x,-y,z
x,-y,-z
-x,y,-z
-x,-y,-z
x,y,-z
-x,y,z
x,-y,z
loop_
_atom_site_type_symbol
_atom_site_label
_atom_site_fract_x
_atom_site_fract_y
_atom_site_fract_z
Si Si1 0.207980 0.303726 0.298545
Si Si2 0.845967 0.292842 0.923587
Si Si3 0.654341 0.292905 0.357194
Si Si4 0.578575 0.291711 0.216301
Si Si5 0.079475 0.711881 0.782114
Si Si6 0.421308 0.205296 0.500000
Si Si7 0.281375 0.200902 0.159458
O O1 0.194905 0.500000 0.321932
O O2 0.266548 0.224022 0.348647
O O3 0.133599 0.226727 0.277106
O O4 0.248547 0.305260 0.224253
O O5 0.852568 0.500000 0.924475
O O6 0.891468 0.231564 0.857746
O O7 0.765769 0.248776 0.906153
O O8 0.865983 0.227465 0.000000
O O9 0.659206 0.500000 0.349691
O O10 0.607605 0.231413 0.291858
O O11 0.618987 0.256628 0.430285
O O12 0.500000 0.230140 0.204547
O O13 0.576997 0.500000 0.217690
O O14 0.636697 0.237829 0.160345
O O15 0.081958 0.500000 0.781754
O O16 0.000000 0.763958 0.772006
O O17 0.500000 0.277281 0.500000
O O18 0.425932 0.000000 0.500000
O O19 0.270865 0.000000 0.174568
#
# Coordination Sequence:
#
# PCOD9381505 Si02
#       7
#     8   8   8   8   8   4   8
#     4   8  15  29  46  64  87 115 149 183 214 255
#     4   9  17  29  44  61  85 119 153 180 210 257
#     4   9  17  30  47  64  85 117 152 179 206 251
#     4   9  17  30  48  67  86 110 142 180 221 264
#     4   8  13  23  43  71  96 113 136 178 226 263
#     4  11  23  33  41  61  94 123 146 180 223 259
#     4  10  18  27  42  63  86 112 144 183 222 259
#
# _framework density 18.174099999999999
#
# number of rings (size 3 to 8) (size 9 to 14) (size 15 to 20)
#    0.000    3.000    0.000    3.923    0.000    4.615 
#    0.000    1.538    0.000    7.846    0.000    8.077 
#    0.000    4.308    0.000    0.000    0.000    0.000 
#
# Total GULP energy -289528.927514 kJ/mol
# GULP energy per Si atom -5567.863991 kJ/mol
# Density = 1.813274 g / cm^3
# Si number density = 18.174100 Si / 1000 Ang^3
#
#
#
# Elastic Constant Matrix: (Units=GPa)
#
#
# Indices 1 2 3 4 5 6 
#
# 1 174.2006 0.1581 45.4935 0.0000 0.0000 0.0000
# 2 0.1581 35.0605 -0.5390 0.0000 0.0000 0.0000
# 3 45.4935 -0.5390 47.3972 0.0000 0.0000 0.0000
# 4 0.0000 0.0000 0.0000 -35.8453 0.0000 0.0000
# 5 0.0000 0.0000 0.0000 0.0000 19.1157 0.0000
# 6 0.0000 0.0000 0.0000 0.0000 0.0000 -5.9722
#
#
#
# Elastic Compliance Matrix: (Units=1/GPa)
#
#
# Indices 1 2 3 4 5 6 
#
# 1 0.007662 -0.000148 -0.007356 0.000000 0.000000 0.000000
# 2 -0.000148 0.028530 0.000466 0.000000 0.000000 0.000000
# 3 -0.007356 0.000466 0.028164 0.000000 0.000000 0.000000
# 4 0.000000 0.000000 0.000000 -0.027898 0.000000 0.000000
# 5 0.000000 0.000000 0.000000 0.000000 0.052313 0.000000
# 6 0.000000 0.000000 0.000000 0.000000 0.000000 -0.167442
#
#
# Mechanical properties :
#
#
# Convention : Reuss Voigt Hill
#
# Bulk Modulus (GPa) = 19.88814 38.54261 29.21537
# Shear Modulus (GPa) = -104.52054 9.56270 -47.47892
#
# Velocity S-wave (km/s) = -7.59181 2.29633 -5.11676
# Velocity P-wave (km/s) = 8.11668 5.31830 4.33568
#
# Compressibility (1/GPa) = 0.05028124
#
# Stress axis : x y z
#
# Youngs Moduli (GPa) = 130.52122 35.05085 35.50670
#
# Poissons Ratio (x) = 0.00517 0.26117
# Poissons Ratio (y) = 0.01927 -0.01655
# Poissons Ratio (z) = 0.96005 -0.01634
#
# Static dielectric constant tensor:
#      x y z
#    x 1.675170 0.000000 0.000000 
#    y 0.000000 1.659790 0.000000 
#    z 0.000000 0.000000 1.607490 
# 
# From -- ./inp_files/31294.got.cif
#   From: 2010.05.17/outbox.cif.g08.bks.cpg/sg47_16_cif.got.tgz:31294.got - 2010.06.03 20:15:42.
