data_PCOD9381457
_publ_section_title
;
Structure prediction by ZEFSAII (Michael W. Deem and Ramdas Pophale) SiO2 
 PCOD9381457
Probable space group: P M M M
;
_chemical_formula_sum "Si O2"
_cell_formula_units_Z 52
_cell_length_a 18.650948
_cell_length_b 18.887918
_cell_length_c 7.653735
_cell_angle_alpha 90.000000
_cell_angle_beta 90.000000
_cell_angle_gamma 90.000000
_cell_volume 2696.239217
_symmetry_space_group_name_H-M "P M M M"
_symmetry_group_IT_number 47
_symmetry_cell_setting 'orthorhombic'
loop_
_space_group_symop_operation_xyz
x,y,z
-x,-y,z
x,-y,-z
-x,y,-z
-x,-y,-z
x,y,-z
-x,y,z
x,-y,z
loop_
_atom_site_type_symbol
_atom_site_label
_atom_site_fract_x
_atom_site_fract_y
_atom_site_fract_z
Si Si1 0.079089 0.655017 0.789084
Si Si2 0.875804 0.187765 0.209367
Si Si3 0.618467 0.575358 0.793846
Si Si4 0.000000 0.079486 0.292390
Si Si5 0.274477 0.213755 0.801031
Si Si6 0.579209 0.732250 0.214483
Si Si7 0.232706 0.370192 0.705378
O O1 0.092778 0.736514 0.728166
O O2 0.149592 0.611634 0.734837
O O3 0.000000 0.631998 0.729211
O O4 0.078051 0.655443 0.000000
O O5 0.795051 0.176112 0.279859
O O6 0.930584 0.125079 0.242460
O O7 0.869034 0.195058 0.000000
O O8 0.592898 0.500000 0.720319
O O9 0.589764 0.650572 0.725791
O O10 0.704531 0.579274 0.770876
O O11 0.601546 0.575227 0.000000
O O12 0.000000 0.074553 0.500000
O O13 0.000000 0.000000 0.218824
O O14 0.353846 0.220639 0.722562
O O15 0.247998 0.295747 0.801577
O O16 0.283081 0.187986 0.000000
O O17 0.500000 0.756631 0.263136
O O18 0.583536 0.731089 0.000000
O O19 0.243494 0.358967 0.500000
#
# Coordination Sequence:
#
# PCOD9381457 Si02
#       7
#     8   8   8   4   8   8   8
#     4   9  16  28  45  63  83 105 133 172 216 259
#     4   9  16  29  46  63  84 116 154 181 205 245
#     4   9  17  29  43  57  77 110 147 177 209 256
#     4  11  23  33  41  61  95 127 152 183 218 245
#     4   8  15  28  44  62  86 114 144 177 213 257
#     4   8  13  23  42  68  92 110 134 175 222 262
#     4  10  18  26  39  60  82 104 135 176 219 259
#
# _framework density 19.286121999999999
#
# number of rings (size 3 to 8) (size 9 to 14) (size 15 to 20)
#    0.000    3.000    0.769    3.462    0.000    4.000 
#    0.000    1.538    0.000    7.846    0.000    7.538 
#    0.000    0.615    0.000    7.692    0.000    1.231 
#
# Total GULP energy -289525.595950 kJ/mol
# GULP energy per Si atom -5567.799922 kJ/mol
# Density = 1.924223 g / cm^3
# Si number density = 19.286122 Si / 1000 Ang^3
#
#
#
# Elastic Constant Matrix: (Units=GPa)
#
#
# Indices 1 2 3 4 5 6 
#
# 1 173.1207 21.6092 -5.5270 0.0000 0.0000 0.0000
# 2 21.6092 35.4009 -3.2784 0.0000 0.0000 0.0000
# 3 -5.5270 -3.2784 46.0969 0.0000 0.0000 0.0000
# 4 0.0000 0.0000 0.0000 14.6001 0.0000 0.0000
# 5 0.0000 0.0000 0.0000 0.0000 -28.4288 0.0000
# 6 0.0000 0.0000 0.0000 0.0000 0.0000 207.9105
#
#
#
# Elastic Compliance Matrix: (Units=1/GPa)
#
#
# Indices 1 2 3 4 5 6 
#
# 1 0.006263 -0.003779 0.000482 0.000000 0.000000 0.000000
# 2 -0.003779 0.030715 0.001731 0.000000 0.000000 0.000000
# 3 0.000482 0.001731 0.021874 0.000000 0.000000 0.000000
# 4 0.000000 0.000000 0.000000 0.068493 0.000000 0.000000
# 5 0.000000 0.000000 0.000000 0.000000 -0.035176 0.000000
# 6 0.000000 0.000000 0.000000 0.000000 0.000000 0.004810
#
#
# Mechanical properties :
#
#
# Convention : Reuss Voigt Hill
#
# Bulk Modulus (GPa) = 17.94607 31.13624 24.54116
# Shear Modulus (GPa) = 42.12884 54.93733 48.53309
#
# Velocity S-wave (km/s) = 4.67884 5.34296 5.02189
# Velocity P-wave (km/s) = 6.20597 7.36495 6.81016
#
# Compressibility (1/GPa) = 0.05572250
#
# Stress axis : x y z
#
# Youngs Moduli (GPa) = 159.65874 32.55768 45.71557
#
# Poissons Ratio (x) = 0.12302 -0.02205
# Poissons Ratio (y) = 0.60328 -0.07915
# Poissons Ratio (z) = -0.07699 -0.05637
#
# Static dielectric constant tensor:
#      x y z
#    x 1.766710 0.000000 0.000000 
#    y 0.000000 1.648280 0.000000 
#    z 0.000000 0.000000 1.712870 
# 
# From -- ./inp_files/9515.got.cif
#   From: 2010.05.17/outbox.cif.g08.bks.cpg/sg47_5_cif.got.tgz:9515.got - 2010.06.03 20:15:42.
