data_PCOD9381497
_publ_section_title
;
Structure prediction by ZEFSAII (Michael W. Deem and Ramdas Pophale) SiO2 
 PCOD9381497
Probable space group: P M M M
;
_chemical_formula_sum "Si O2"
_cell_formula_units_Z 60
_cell_length_a 24.362500
_cell_length_b 18.877516
_cell_length_c 9.147980
_cell_angle_alpha 90.000000
_cell_angle_beta 90.000000
_cell_angle_gamma 90.000000
_cell_volume 4207.187869
_symmetry_space_group_name_H-M "P M M M"
_symmetry_group_IT_number 47
_symmetry_cell_setting 'orthorhombic'
loop_
_space_group_symop_operation_xyz
x,y,z
-x,-y,z
x,-y,-z
-x,y,-z
-x,-y,-z
x,y,-z
-x,y,z
x,-y,z
loop_
_atom_site_type_symbol
_atom_site_label
_atom_site_fract_x
_atom_site_fract_y
_atom_site_fract_z
Si Si1 0.060332 0.343151 0.324463
Si Si2 0.108619 0.786081 0.166919
Si Si3 0.173425 0.082373 0.823910
Si Si4 0.275405 0.160317 0.675509
Si Si5 0.611517 0.082956 0.674892
Si Si6 0.500000 0.086109 0.168626
Si Si7 0.173154 0.417874 0.676126
Si Si8 0.227810 0.708744 0.168129
O O1 0.060852 0.341591 0.500000
O O2 0.071419 0.264241 0.264867
O O3 0.111742 0.392038 0.279701
O O4 0.000000 0.367973 0.276201
O O5 0.122877 0.865733 0.216058
O O6 0.168568 0.748439 0.167400
O O7 0.088256 0.786826 0.000000
O O8 0.227573 0.110868 0.742810
O O9 0.164067 0.000000 0.792567
O O10 0.181231 0.090594 0.000000
O O11 0.269628 0.162566 0.500000
O O12 0.334447 0.127302 0.712680
O O13 0.266809 0.238069 0.743557
O O14 0.603863 0.086187 0.500000
O O15 0.556006 0.108426 0.752281
O O16 0.620596 0.000000 0.713240
O O17 0.500000 0.000000 0.175329
O O18 0.500000 0.107379 0.000000
O O19 0.177180 0.409967 0.500000
O O20 0.180831 0.500000 0.712806
O O21 0.215952 0.365517 0.753372
O O22 0.245003 0.700385 0.000000
#
# Coordination Sequence:
#
# PCOD9381497 Si02
#       8
#     8   8   8   8   8   4   8   8
#     4   9  17  28  42  60  80 102 129 161 196 233
#     4   8  15  27  41  56  74  99 129 159 195 240
#     4   9  17  28  41  58  80 103 128 164 209 250
#     4  10  18  27  41  61  83 107 138 173 207 245
#     4   9  17  28  40  55  79 111 144 178 215 250
#     4   9  17  27  39  55  75 105 146 185 216 247
#     4   9  17  29  45  64  85 108 132 159 193 235
#     4   9  17  29  43  59  81 108 135 163 198 239
#
# _framework density 14.261309000000001
#
# number of rings (size 3 to 8) (size 9 to 14) (size 15 to 20)
#    0.000    3.000    0.000    2.200    0.000    6.667 
#    0.000    2.667    0.000    0.400    0.000    6.533 
#    0.000    0.000    0.000    0.600    0.000   11.600 
#
# Total GULP energy -334044.421316 kJ/mol
# GULP energy per Si atom -5567.407022 kJ/mol
# Density = 1.422885 g / cm^3
# Si number density = 14.261309 Si / 1000 Ang^3
#
#
#
# Elastic Constant Matrix: (Units=GPa)
#
#
# Indices 1 2 3 4 5 6 
#
# 1 41.5549 28.0592 20.2381 0.0000 0.0000 0.0000
# 2 28.0592 106.4912 31.7085 0.0000 0.0000 0.0000
# 3 20.2381 31.7085 29.3795 0.0000 0.0000 0.0000
# 4 0.0000 0.0000 0.0000 19.6367 0.0000 0.0000
# 5 0.0000 0.0000 0.0000 0.0000 12.3654 0.0000
# 6 0.0000 0.0000 0.0000 0.0000 0.0000 13.7918
#
#
#
# Elastic Compliance Matrix: (Units=1/GPa)
#
#
# Indices 1 2 3 4 5 6 
#
# 1 0.036929 -0.003177 -0.022010 0.000000 0.000000 0.000000
# 2 -0.003177 0.014110 -0.013041 0.000000 0.000000 0.000000
# 3 -0.022010 -0.013041 0.063273 0.000000 0.000000 0.000000
# 4 0.000000 0.000000 0.000000 0.050925 0.000000 0.000000
# 5 0.000000 0.000000 0.000000 0.000000 0.080871 0.000000
# 6 0.000000 0.000000 0.000000 0.000000 0.000000 0.072507
#
#
# Mechanical properties :
#
#
# Convention : Reuss Voigt Hill
#
# Bulk Modulus (GPa) = 26.41457 37.49305 31.95381
# Shear Modulus (GPa) = 12.26424 15.65343 13.95883
#
# Velocity S-wave (km/s) = 2.93570 3.31662 3.13196
# Velocity P-wave (km/s) = 5.48208 6.40420 5.96099
#
# Compressibility (1/GPa) = 0.03785789
#
# Stress axis : x y z
#
# Youngs Moduli (GPa) = 27.07910 70.86948 15.80444
#
# Poissons Ratio (x) = 0.22513 0.34785
# Poissons Ratio (y) = 0.08602 0.20610
# Poissons Ratio (z) = 0.59601 0.92419
#
# Static dielectric constant tensor:
#      x y z
#    x 1.456940 0.000000 0.000000 
#    y 0.000000 1.470640 0.000000 
#    z 0.000000 0.000000 1.480200 
# 
# From -- ./inp_files/12866.got.cif
#   From: 2010.05.17/outbox.cif.g08.bks.cpg/sg47_7_cif.got.tgz:12866.got - 2010.06.03 20:15:42.
