data_PCOD9381059
_publ_section_title
;
Structure prediction by ZEFSAII (Michael W. Deem and Ramdas Pophale) SiO2 
 PCOD9381059
Probable space group: I M A 2
;
_chemical_formula_sum "Si O2"
_cell_formula_units_Z 48
_cell_length_a 11.368161
_cell_length_b 15.641101
_cell_length_c 10.656127
_cell_angle_alpha 90.000000
_cell_angle_beta 90.000000
_cell_angle_gamma 90.000000
_cell_volume 1894.771849
_symmetry_space_group_name_H-M "I M A 2"
_symmetry_group_IT_number 46
_symmetry_cell_setting 'orthorhombic'
loop_
_space_group_symop_operation_xyz
x,y,z
-x,-y,z
1/2-x,y,z
1/2+x,-y,z
1/2+x,1/2+y,1/2+z
1/2-x,1/2-y,1/2+z
-x,1/2+y,1/2+z
x,1/2-y,1/2+z
loop_
_atom_site_type_symbol
_atom_site_label
_atom_site_fract_x
_atom_site_fract_y
_atom_site_fract_z
Si Si1 0.123711 0.890135 0.384580
Si Si2 0.621872 0.249187 0.664640
Si Si3 0.622849 0.810753 0.099182
Si Si4 0.617776 0.449051 0.240975
Si Si5 0.875424 0.590297 0.867125
Si Si6 0.875613 0.510887 0.522036
O O1 0.250000 0.880924 0.452017
O O2 0.122476 0.817637 0.278397
O O3 0.993158 0.886620 0.442412
O O4 0.125014 0.988832 0.341052
O O5 0.750000 0.263596 0.602371
O O6 0.504011 0.268659 0.587837
O O7 0.612910 0.151646 0.711325
O O8 0.750000 0.765227 0.093693
O O9 0.622029 0.858502 0.235459
O O10 0.627898 0.887591 0.999098
O O11 0.500000 0.500000 0.195984
O O12 0.750000 0.480242 0.199977
O O13 0.617381 0.461366 0.391602
O O14 0.750000 0.609695 0.928139
O O15 0.750000 0.487530 0.582421
O O16 0.000000 0.500000 0.590305
#
# Coordination Sequence:
#
# PCOD9381059 Si02
#       6
#     8   8   8   8   8   8
#     4   8  13  20  31  49  73 105 138 173 219 269
#     4   9  17  27  42  61  84 117 159 203 243 286
#     4   9  17  26  39  63  91 121 154 196 247 296
#     4   9  18  33  47  62  86 126 170 202 240 296
#     4   8  13  20  30  48  78 109 136 167 220 279
#     4   9  18  29  43  63  91 127 164 199 239 296
#
# _framework density 25.332867
#
# number of rings (size 3 to 8) (size 9 to 14) (size 15 to 20)
#    0.000    3.333    0.000    0.000    4.667    1.333 
#    0.000    0.000    0.000    0.000    0.000    0.000 
#    0.000    0.000   45.333    0.000  402.667   13.667 
#
# Total GULP energy -133707.789133 kJ/mol
# GULP energy per Si atom -5571.157881 kJ/mol
# Density = 2.527521 g / cm^3
# Si number density = 25.332867 Si / 1000 Ang^3
#
#
#
# Elastic Constant Matrix: (Units=GPa)
#
#
# Indices 1 2 3 4 5 6 
#
# 1 369.6917 59.6102 18.5891 0.0000 0.0000 0.0000
# 2 59.6102 125.2645 29.7712 0.0000 0.0000 0.0000
# 3 18.5891 29.7712 48.7590 0.0000 0.0000 0.0000
# 4 0.0000 0.0000 0.0000 25.1970 0.0000 0.0000
# 5 0.0000 0.0000 0.0000 0.0000 -40.4998 0.0000
# 6 0.0000 0.0000 0.0000 0.0000 0.0000 -1.6322
#
#
#
# Elastic Compliance Matrix: (Units=1/GPa)
#
#
# Indices 1 2 3 4 5 6 
#
# 1 0.002934 -0.001322 -0.000311 0.000000 0.000000 0.000000
# 2 -0.001322 0.009934 -0.005561 0.000000 0.000000 0.000000
# 3 -0.000311 -0.005561 0.024023 0.000000 0.000000 0.000000
# 4 0.000000 0.000000 0.000000 0.039687 0.000000 0.000000
# 5 0.000000 0.000000 0.000000 0.000000 -0.024692 0.000000
# 6 0.000000 0.000000 0.000000 0.000000 0.000000 -0.612663
#
#
# Mechanical properties :
#
#
# Convention : Reuss Voigt Hill
#
# Bulk Modulus (GPa) = 44.44133 84.40626 64.42379
# Shear Modulus (GPa) = -9.27841 25.66265 8.19212
#
# Velocity S-wave (km/s) = -1.91587 3.18625 1.80023
# Velocity P-wave (km/s) = 3.56188 6.85036 5.45960
#
# Compressibility (1/GPa) = 0.02250158
#
# Stress axis : x y z
#
# Youngs Moduli (GPa) = 340.85569 100.66380 41.62613
#
# Poissons Ratio (x) = 0.13309 0.01295
# Poissons Ratio (y) = 0.45066 0.23150
# Poissons Ratio (z) = 0.10608 0.55984
#
# Static dielectric constant tensor:
#      x y z
#    x 2.112630 0.000000 0.000000 
#    y 0.000000 1.958790 0.000000 
#    z 0.000000 0.000000 1.942710 
# 
# From -- ./inp_files/15164.got.cif
#   From: 2010.05.17/outbox.cif.g08.bks.cpg/sg46_8_cif.got.tgz:15164.got - 2010.06.03 19:58:25.
