data_PCOD9381353
_publ_section_title
;
Structure prediction by ZEFSAII (Michael W. Deem and Ramdas Pophale) SiO2 
 PCOD9381353
Probable space group: P M M M
;
_chemical_formula_sum "Si O2"
_cell_formula_units_Z 52
_cell_length_a 7.668116
_cell_length_b 14.794549
_cell_length_c 23.874240
_cell_angle_alpha 90.000000
_cell_angle_beta 90.000000
_cell_angle_gamma 90.000000
_cell_volume 2708.444621
_symmetry_space_group_name_H-M "P M M M"
_symmetry_group_IT_number 47
_symmetry_cell_setting 'orthorhombic'
loop_
_space_group_symop_operation_xyz
x,y,z
-x,-y,z
x,-y,-z
-x,y,-z
-x,-y,-z
x,y,-z
-x,y,z
x,-y,z
loop_
_atom_site_type_symbol
_atom_site_label
_atom_site_fract_x
_atom_site_fract_y
_atom_site_fract_z
Si Si1 0.787075 0.103927 0.936552
Si Si2 0.707488 0.897456 0.500000
Si Si3 0.213589 0.895829 0.277377
Si Si4 0.208922 0.209880 0.387528
Si Si5 0.204558 0.399500 0.647463
Si Si6 0.790924 0.215647 0.830962
Si Si7 0.707657 0.398828 0.775807
O O1 0.725492 0.172173 0.888671
O O2 0.000000 0.105581 0.936845
O O3 0.737532 0.000000 0.923633
O O4 0.730546 0.125132 0.000000
O O5 0.500000 0.904017 0.500000
O O6 0.758428 0.842810 0.444603
O O7 0.779628 0.000000 0.500000
O O8 0.273421 0.846656 0.333983
O O9 0.272737 0.841427 0.222641
O O10 0.000000 0.895011 0.277370
O O11 0.267796 0.000000 0.275851
O O12 0.278731 0.312559 0.384493
O O13 0.000000 0.216575 0.380796
O O14 0.281277 0.500000 0.638459
O O15 0.216560 0.379263 0.714027
O O16 0.000000 0.405669 0.633175
O O17 0.752342 0.320056 0.818882
O O18 0.000000 0.206112 0.831701
O O19 0.500000 0.400231 0.769133
O O20 0.766063 0.500000 0.792108
#
# Coordination Sequence:
#
# PCOD9381353 Si02
#       7
#     8   4   8   8   8   8   8
#     4   8  14  25  44  73 106 136 166 203 248 296
#     4  11  25  41  54  71  98 134 173 209 246 289
#     4   9  16  26  44  73 102 124 154 199 245 288
#     4  10  19  34  55  77  99 129 166 203 245 295
#     4   9  17  32  55  81 105 127 158 202 248 295
#     4  10  17  28  48  74 101 130 166 206 247 290
#     4  10  20  32  47  70 101 134 165 201 250 304
#
# _framework density 19.199210999999998
#
# number of rings (size 3 to 8) (size 9 to 14) (size 15 to 20)
#    0.000    2.538    1.538    2.077    0.000    4.615 
#    0.000    0.385    0.000    5.077    0.000    4.308 
#    0.000    0.000    0.000    0.000    0.000    0.000 
#
# Total GULP energy -290110.700097 kJ/mol
# GULP energy per Si atom -5579.051925 kJ/mol
# Density = 1.915551 g / cm^3
# Si number density = 19.199211 Si / 1000 Ang^3
#
#
#
# Elastic Constant Matrix: (Units=GPa)
#
#
# Indices 1 2 3 4 5 6 
#
# 1 32.8253 3.1593 0.1050 0.0000 0.0000 0.0000
# 2 3.1593 192.2234 105.9647 0.0000 0.0000 0.0000
# 3 0.1050 105.9647 130.2637 0.0000 0.0000 0.0000
# 4 0.0000 0.0000 0.0000 35.8722 0.0000 0.0000
# 5 0.0000 0.0000 0.0000 0.0000 -94.3232 0.0000
# 6 0.0000 0.0000 0.0000 0.0000 0.0000 -4.8351
#
#
#
# Elastic Compliance Matrix: (Units=1/GPa)
#
#
# Indices 1 2 3 4 5 6 
#
# 1 0.030547 -0.000886 0.000696 0.000000 0.000000 0.000000
# 2 -0.000886 0.009457 -0.007693 0.000000 0.000000 0.000000
# 3 0.000696 -0.007693 0.013934 0.000000 0.000000 0.000000
# 4 0.000000 0.000000 0.000000 0.027877 0.000000 0.000000
# 5 0.000000 0.000000 0.000000 0.000000 -0.010602 0.000000
# 6 0.000000 0.000000 0.000000 0.000000 0.000000 -0.206822
#
#
# Mechanical properties :
#
#
# Convention : Reuss Voigt Hill
#
# Bulk Modulus (GPa) = 26.19595 63.75226 44.97411
# Shear Modulus (GPa) = -46.67705 3.74834 -21.46435
#
# Velocity S-wave (km/s) = -4.93607 1.39878 -3.34725
# Velocity P-wave (km/s) = 4.33733 5.99054 2.92182
#
# Compressibility (1/GPa) = 0.03817383
#
# Stress axis : x y z
#
# Youngs Moduli (GPa) = 32.73604 105.73712 71.76805
#
# Poissons Ratio (x) = 0.09365 -0.04994
# Poissons Ratio (y) = 0.02899 0.55208
# Poissons Ratio (z) = -0.02278 0.81339
#
# Static dielectric constant tensor:
#      x y z
#    x 1.715450 0.000000 0.000000 
#    y 0.000000 1.697760 0.000000 
#    z 0.000000 0.000000 1.642210 
# 
# From -- ./inp_files/10958.got.cif
#   From: 2010.05.17/outbox.cif.g08.bks.cpg/sg47_6_cif.got.tgz:10958.got - 2010.06.03 20:15:42.
