data_PCOD9381253
_publ_section_title
;
Structure prediction by ZEFSAII (Michael W. Deem and Ramdas Pophale) SiO2 
 PCOD9381253
Probable space group: P M M M
;
_chemical_formula_sum "Si O2"
_cell_formula_units_Z 52
_cell_length_a 27.609540
_cell_length_b 13.087112
_cell_length_c 7.521872
_cell_angle_alpha 90.000000
_cell_angle_beta 90.000000
_cell_angle_gamma 90.000000
_cell_volume 2717.871558
_symmetry_space_group_name_H-M "P M M M"
_symmetry_group_IT_number 47
_symmetry_cell_setting 'orthorhombic'
loop_
_space_group_symop_operation_xyz
x,y,z
-x,-y,z
x,-y,-z
-x,y,-z
-x,-y,-z
x,y,-z
-x,y,z
x,-y,z
loop_
_atom_site_type_symbol
_atom_site_label
_atom_site_fract_x
_atom_site_fract_y
_atom_site_fract_z
Si Si1 0.394656 0.380355 0.782676
Si Si2 0.881775 0.115888 0.714256
Si Si3 0.772408 0.884591 0.286229
Si Si4 0.945479 0.689944 0.210557
Si Si5 0.292589 0.307597 0.788997
Si Si6 0.229733 0.500000 0.781991
Si Si7 0.118358 0.500000 0.218046
Si Si8 0.500000 0.624128 0.791569
O O1 0.387951 0.500000 0.736075
O O2 0.347432 0.319308 0.721090
O O3 0.447603 0.344521 0.717664
O O4 0.396749 0.377263 0.000000
O O5 0.880932 0.114007 0.500000
O O6 0.827039 0.142519 0.775344
O O7 0.920119 0.200855 0.766925
O O8 0.892693 0.000000 0.774267
O O9 0.774251 0.887710 0.500000
O O10 0.733414 0.799980 0.238040
O O11 0.761529 0.000000 0.224165
O O12 0.910598 0.600377 0.279059
O O13 0.000000 0.687215 0.284169
O O14 0.949302 0.671426 0.000000
O O15 0.258431 0.399195 0.721583
O O16 0.296096 0.324222 0.000000
O O17 0.174060 0.500000 0.724135
O O18 0.229359 0.500000 0.000000
O O19 0.119339 0.500000 0.000000
O O20 0.500000 0.500000 0.784112
O O21 0.500000 0.652701 0.000000
#
# Coordination Sequence:
#
# PCOD9381253 Si02
#       8
#     8   8   8   8   8   4   4   4
#     4   8  12  20  34  58  93 126 153 182 219 263
#     4   9  19  36  54  69  88 116 148 183 226 275
#     4   9  19  35  50  64  87 119 152 186 226 271
#     4  10  20  33  50  72  95 118 148 185 220 258
#     4  10  17  26  44  70  97 120 147 187 227 265
#     4   9  16  25  41  67  96 121 143 174 221 266
#     4   9  17  30  46  64  91 126 153 172 207 262
#     4   7  10  16  30  52  84 127 160 178 209 262
#
# _framework density 19.132618999999998
#
# number of rings (size 3 to 8) (size 9 to 14) (size 15 to 20)
#    0.000    3.000    0.769    3.000    0.000    4.000 
#    0.000    3.846    0.000    3.692    0.000    1.077 
#    0.000    6.154    0.000    0.000    0.000    0.000 
#
# Total GULP energy -289961.384796 kJ/mol
# GULP energy per Si atom -5576.180477 kJ/mol
# Density = 1.908907 g / cm^3
# Si number density = 19.132619 Si / 1000 Ang^3
#
#
#
# Elastic Constant Matrix: (Units=GPa)
#
#
# Indices 1 2 3 4 5 6 
#
# 1 210.9872 91.3053 9.1411 0.0000 0.0000 0.0000
# 2 91.3053 88.4482 -1.8947 0.0000 0.0000 0.0000
# 3 9.1411 -1.8947 45.4623 0.0000 0.0000 0.0000
# 4 0.0000 0.0000 0.0000 26.2540 0.0000 0.0000
# 5 0.0000 0.0000 0.0000 0.0000 -18.9879 0.0000
# 6 0.0000 0.0000 0.0000 0.0000 0.0000 -9.5256
#
#
#
# Elastic Compliance Matrix: (Units=1/GPa)
#
#
# Indices 1 2 3 4 5 6 
#
# 1 0.008770 -0.009099 -0.002143 0.000000 0.000000 0.000000
# 2 -0.009099 0.020757 0.002695 0.000000 0.000000 0.000000
# 3 -0.002143 0.002695 0.022539 0.000000 0.000000 0.000000
# 4 0.000000 0.000000 0.000000 0.038090 0.000000 0.000000
# 5 0.000000 0.000000 0.000000 0.000000 -0.052665 0.000000
# 6 0.000000 0.000000 0.000000 0.000000 0.000000 -0.104981
#
#
# Mechanical properties :
#
#
# Convention : Reuss Voigt Hill
#
# Bulk Modulus (GPa) = 28.59432 60.22234 44.40833
# Shear Modulus (GPa) = -129.07563 15.97115 -56.55224
#
# Velocity S-wave (km/s) = -8.22254 2.89236 -5.44263
# Velocity P-wave (km/s) = 8.67001 6.53444 4.02928
#
# Compressibility (1/GPa) = 0.03497198
#
# Stress axis : x y z
#
# Youngs Moduli (GPa) = 114.02141 48.17610 44.36676
#
# Poissons Ratio (x) = 0.43838 0.09506
# Poissons Ratio (y) = 1.03754 -0.11956
# Poissons Ratio (z) = 0.24431 -0.12982
#
# Static dielectric constant tensor:
#      x y z
#    x 1.691480 0.000000 0.000000 
#    y 0.000000 1.629980 0.000000 
#    z 0.000000 0.000000 1.730130 
# 
# From -- ./inp_files/13357.got.cif
#   From: 2010.05.17/outbox.cif.g08.bks.cpg/sg47_7_cif.got.tgz:13357.got - 2010.06.03 20:15:42.
