data_PCOD9381856
_publ_section_title
;
Structure prediction by ZEFSAII (Michael W. Deem and Ramdas Pophale) SiO2 
 PCOD9381856
Probable space group: P M M M
;
_chemical_formula_sum "Si O2"
_cell_formula_units_Z 64
_cell_length_a 20.814886
_cell_length_b 7.636357
_cell_length_c 20.708563
_cell_angle_alpha 90.000000
_cell_angle_beta 90.000000
_cell_angle_gamma 90.000000
_cell_volume 3291.624026
_symmetry_space_group_name_H-M "P M M M"
_symmetry_group_IT_number 47
_symmetry_cell_setting 'orthorhombic'
loop_
_space_group_symop_operation_xyz
x,y,z
-x,-y,z
x,-y,-z
-x,y,-z
-x,-y,-z
x,y,-z
-x,y,z
x,-y,z
loop_
_atom_site_type_symbol
_atom_site_label
_atom_site_fract_x
_atom_site_fract_y
_atom_site_fract_z
Si Si1 0.168470 0.210680 0.684555
Si Si2 0.256282 0.287560 0.894202
Si Si3 0.069520 0.207527 0.210662
Si Si4 0.885832 0.711679 0.069598
Si Si5 0.927459 0.786351 0.574338
Si Si6 0.569419 0.705022 0.785330
Si Si7 0.398083 0.796084 0.069863
Si Si8 0.707510 0.709144 0.752065
O O1 0.128002 0.278023 0.746613
O O2 0.128727 0.272894 0.622215
O O3 0.242984 0.255087 0.694778
O O4 0.166261 0.000000 0.683680
O O5 0.258827 0.500000 0.897173
O O6 0.188717 0.233170 0.923842
O O7 0.320746 0.219783 0.927099
O O8 0.260563 0.229690 0.819442
O O9 0.079755 0.230687 0.134610
O O10 0.000000 0.280977 0.229408
O O11 0.067819 0.000000 0.223409
O O12 0.887322 0.500000 0.070096
O O13 0.911474 0.770664 0.000000
O O14 0.917932 0.732499 0.500000
O O15 0.000000 0.733856 0.594519
O O16 0.927228 0.000000 0.575208
O O17 0.500000 0.783782 0.768885
O O18 0.567138 0.500000 0.768158
O O19 0.578143 0.714173 0.863202
O O20 0.634464 0.779308 0.753298
O O21 0.416054 0.000000 0.072256
O O22 0.419336 0.724390 0.000000
O O23 0.702234 0.500000 0.757628
#
# Coordination Sequence:
#
# PCOD9381856 Si02
#       8
#     8   8   8   8   8   8   8   8
#     4  10  18  29  49  74  97 123 157 194 229 270
#     4   9  17  31  48  63  82 111 149 191 234 283
#     4  10  21  34  46  63  89 119 150 188 235 285
#     4  10  20  33  48  63  80 107 148 198 245 286
#     4   8  14  26  46  73 104 136 168 198 225 259
#     4   9  19  35  51  65  85 118 156 191 230 280
#     4  10  20  30  42  64  91 115 142 182 235 292
#     4   9  17  30  49  70  91 115 147 189 233 276
#
# _framework density 19.443289
#
# number of rings (size 3 to 8) (size 9 to 14) (size 15 to 20)
#    0.000    2.625    1.250    2.250    0.000    6.750 
#    0.000    2.500    0.000    1.500    0.000    0.875 
#    0.000    0.500    0.000    6.250    0.000    0.000 
#
# Total GULP energy -356951.844809 kJ/mol
# GULP energy per Si atom -5577.372575 kJ/mol
# Density = 1.939904 g / cm^3
# Si number density = 19.443289 Si / 1000 Ang^3
#
#
#
# Elastic Constant Matrix: (Units=GPa)
#
#
# Indices 1 2 3 4 5 6 
#
# 1 146.2225 2.5083 58.7441 0.0000 0.0000 0.0000
# 2 2.5083 35.0589 -2.5098 0.0000 0.0000 0.0000
# 3 58.7441 -2.5098 80.1677 0.0000 0.0000 0.0000
# 4 0.0000 0.0000 0.0000 12.2213 0.0000 0.0000
# 5 0.0000 0.0000 0.0000 0.0000 2.3404 0.0000
# 6 0.0000 0.0000 0.0000 0.0000 0.0000 10.7898
#
#
#
# Elastic Compliance Matrix: (Units=1/GPa)
#
#
# Indices 1 2 3 4 5 6 
#
# 1 0.009743 -0.001211 -0.007177 0.000000 0.000000 0.000000
# 2 -0.001211 0.028738 0.001787 0.000000 0.000000 0.000000
# 3 -0.007177 0.001787 0.017789 0.000000 0.000000 0.000000
# 4 0.000000 0.000000 0.000000 0.081824 0.000000 0.000000
# 5 0.000000 0.000000 0.000000 0.000000 0.427271 0.000000
# 6 0.000000 0.000000 0.000000 0.000000 0.000000 0.092680
#
#
# Mechanical properties :
#
#
# Convention : Reuss Voigt Hill
#
# Bulk Modulus (GPa) = 23.21925 42.10382 32.66154
# Shear Modulus (GPa) = 7.29284 18.58409 12.93847
#
# Velocity S-wave (km/s) = 1.93881 3.09497 2.58242
# Velocity P-wave (km/s) = 4.12067 5.87141 5.07215
#
# Compressibility (1/GPa) = 0.04306771
#
# Stress axis : x y z
#
# Youngs Moduli (GPa) = 102.63662 34.79719 56.21428
#
# Poissons Ratio (x) = 0.04214 0.40347
# Poissons Ratio (y) = 0.12428 -0.10045
# Poissons Ratio (z) = 0.73666 -0.06218
#
# Static dielectric constant tensor:
#      x y z
#    x 1.731120 0.000000 0.000000 
#    y 0.000000 1.740330 0.000000 
#    z 0.000000 0.000000 1.669420 
# 
# From -- ./inp_files/31506.got.cif
#   From: 2010.05.17/outbox.cif.g08.bks.cpg/sg47_16_cif.got.tgz:31506.got - 2010.06.03 20:15:42.
