data_PCOD9381929
_publ_section_title
;
Structure prediction by ZEFSAII (Michael W. Deem and Ramdas Pophale) SiO2 
 PCOD9381929
Probable space group: P M M M
;
_chemical_formula_sum "Si O2"
_cell_formula_units_Z 64
_cell_length_a 7.347949
_cell_length_b 20.467693
_cell_length_c 20.016022
_cell_angle_alpha 90.000000
_cell_angle_beta 90.000000
_cell_angle_gamma 90.000000
_cell_volume 3010.320924
_symmetry_space_group_name_H-M "P M M M"
_symmetry_group_IT_number 47
_symmetry_cell_setting 'orthorhombic'
loop_
_space_group_symop_operation_xyz
x,y,z
-x,-y,z
x,-y,-z
-x,y,-z
-x,-y,-z
x,y,-z
-x,y,z
x,-y,z
loop_
_atom_site_type_symbol
_atom_site_label
_atom_site_fract_x
_atom_site_fract_y
_atom_site_fract_z
Si Si1 0.795592 0.181564 0.183132
Si Si2 0.720824 0.930066 0.717353
Si Si3 0.778711 0.074665 0.921866
Si Si4 0.223870 0.295168 0.279933
Si Si5 0.210567 0.573892 0.218707
Si Si6 0.287077 0.094807 0.571071
Si Si7 0.281211 0.576817 0.928968
Si Si8 0.780733 0.751075 0.573319
O O1 0.801754 0.129682 0.243330
O O2 0.714219 0.135446 0.124197
O O3 0.715719 0.245225 0.220826
O O4 0.000000 0.199784 0.160981
O O5 0.500000 0.923390 0.718075
O O6 0.785136 0.929445 0.641095
O O7 0.767635 0.000000 0.748011
O O8 0.000000 0.074313 0.916296
O O9 0.718945 0.000000 0.904211
O O10 0.733668 0.084720 0.000000
O O11 0.286682 0.368376 0.263459
O O12 0.281236 0.276741 0.355228
O O13 0.000000 0.292549 0.278690
O O14 0.289123 0.500000 0.220638
O O15 0.215847 0.600157 0.142432
O O16 0.000000 0.567529 0.237368
O O17 0.208016 0.073952 0.500000
O O18 0.500000 0.077041 0.570344
O O19 0.271891 0.172974 0.573640
O O20 0.500000 0.580274 0.927894
O O21 0.230727 0.500000 0.930240
O O22 0.219472 0.605861 0.000000
O O23 0.720305 0.724458 0.500000
O O24 0.000000 0.746633 0.573626
#
# Coordination Sequence:
#
# PCOD9381929 Si02
#       8
#     8   8   8   8   8   8   8   8
#     4  10  18  30  48  67  87 113 148 189 227 267
#     4  10  20  31  43  63  92 121 147 180 222 265
#     4   8  14  25  42  64  86 108 140 182 223 260
#     4   9  17  29  45  68  93 114 144 187 229 267
#     4   9  17  29  45  65  91 122 152 185 229 279
#     4   9  17  29  44  62  86 116 150 183 213 254
#     4   8  14  26  44  65  90 119 150 184 218 256
#     4   9  16  28  47  66  86 115 147 180 222 268
#
# _framework density 21.260193000000001
#
# number of rings (size 3 to 8) (size 9 to 14) (size 15 to 20)
#    0.000    3.000    1.250    1.125    0.000    1.250 
#    0.000    4.375    0.000    3.000    0.000    7.000 
#    0.000    0.000    0.000    6.250    0.000    6.500 
#
# Total GULP energy -356485.937556 kJ/mol
# GULP energy per Si atom -5570.092774 kJ/mol
# Density = 2.121180 g / cm^3
# Si number density = 21.260193 Si / 1000 Ang^3
#
#
#
# Elastic Constant Matrix: (Units=GPa)
#
#
# Indices 1 2 3 4 5 6 
#
# 1 79.4781 4.0900 0.6078 0.0000 0.0000 0.0000
# 2 4.0900 118.1741 72.4546 0.0000 0.0000 0.0000
# 3 0.6078 72.4546 155.6266 0.0000 0.0000 0.0000
# 4 0.0000 0.0000 0.0000 45.1353 0.0000 0.0000
# 5 0.0000 0.0000 0.0000 0.0000 10.8271 0.0000
# 6 0.0000 0.0000 0.0000 0.0000 0.0000 -35.2837
#
#
#
# Elastic Compliance Matrix: (Units=1/GPa)
#
#
# Indices 1 2 3 4 5 6 
#
# 1 0.012610 -0.000568 0.000215 0.000000 0.000000 0.000000
# 2 -0.000568 0.011868 -0.005523 0.000000 0.000000 0.000000
# 3 0.000215 -0.005523 0.008996 0.000000 0.000000 0.000000
# 4 0.000000 0.000000 0.000000 0.022156 0.000000 0.000000
# 5 0.000000 0.000000 0.000000 0.000000 0.092361 0.000000
# 6 0.000000 0.000000 0.000000 0.000000 0.000000 -0.028342
#
#
# Mechanical properties :
#
#
# Convention : Reuss Voigt Hill
#
# Bulk Modulus (GPa) = 46.03733 56.39819 51.21776
# Shear Modulus (GPa) = 36.06411 22.54417 29.30414
#
# Velocity S-wave (km/s) = 4.12311 3.25990 3.71665
# Velocity P-wave (km/s) = 6.66093 6.38392 6.52390
#
# Compressibility (1/GPa) = 0.02172150
#
# Stress axis : x y z
#
# Youngs Moduli (GPa) = 79.30407 84.25928 111.15795
#
# Poissons Ratio (x) = 0.04790 -0.02395
# Poissons Ratio (y) = 0.04508 0.61395
# Poissons Ratio (z) = -0.01708 0.46538
#
# Static dielectric constant tensor:
#      x y z
#    x 1.810750 0.000000 0.000000 
#    y 0.000000 1.742220 0.000000 
#    z 0.000000 0.000000 1.887390 
# 
# From -- ./inp_files/28641.got.cif
#   From: 2010.05.17/outbox.cif.g08.bks.cpg/sg47_15_cif.got.tgz:28641.got - 2010.06.03 20:15:42.
