data_PCOD9381285
_publ_section_title
;
Structure prediction by ZEFSAII (Michael W. Deem and Ramdas Pophale) SiO2 
 PCOD9381285
Probable space group: P M M M
;
_chemical_formula_sum "Si O2"
_cell_formula_units_Z 64
_cell_length_a 14.300397
_cell_length_b 21.325219
_cell_length_c 14.630276
_cell_angle_alpha 90.000000
_cell_angle_beta 90.000000
_cell_angle_gamma 90.000000
_cell_volume 4461.635770
_symmetry_space_group_name_H-M "P M M M"
_symmetry_group_IT_number 47
_symmetry_cell_setting 'orthorhombic'
loop_
_space_group_symop_operation_xyz
x,y,z
-x,-y,z
x,-y,-z
-x,y,-z
-x,-y,-z
x,y,-z
-x,y,z
x,-y,z
loop_
_atom_site_type_symbol
_atom_site_label
_atom_site_fract_x
_atom_site_fract_y
_atom_site_fract_z
Si Si1 0.804512 0.070235 0.791643
Si Si2 0.886340 0.570912 0.894823
Si Si3 0.604021 0.195116 0.609248
Si Si4 0.887367 0.810705 0.105623
Si Si5 0.887929 0.115787 0.395829
Si Si6 0.395013 0.070325 0.276307
Si Si7 0.201982 0.253871 0.393660
Si Si8 0.112959 0.688752 0.224678
O O1 0.848512 0.126011 0.849708
O O2 0.838261 0.079250 0.686365
O O3 0.692060 0.075945 0.791627
O O4 0.830920 0.000000 0.821707
O O5 0.857021 0.500000 0.870546
O O6 0.856152 0.625820 0.827193
O O7 0.000000 0.571382 0.894270
O O8 0.858430 0.583590 0.000000
O O9 0.608106 0.189799 0.500000
O O10 0.500000 0.218283 0.634804
O O11 0.615180 0.126136 0.651552
O O12 0.691970 0.237504 0.635861
O O13 0.859971 0.749936 0.164925
O O14 0.000000 0.813695 0.108219
O O15 0.858717 0.804169 0.000000
O O16 0.864582 0.095273 0.500000
O O17 0.855112 0.188161 0.387702
O O18 0.000000 0.111866 0.384874
O O19 0.500000 0.075745 0.236617
O O20 0.388121 0.000000 0.316843
O O21 0.201018 0.273109 0.500000
O O22 0.156007 0.302197 0.324417
O O23 0.000000 0.688302 0.230810
#
# Coordination Sequence:
#
# PCOD9381285 Si02
#       8
#     8   8   8   8   8   8   8   8
#     4  11  21  32  45  59  79 108 140 177 222 265
#     4   8  14  25  42  66  94 120 146 177 212 247
#     4   9  16  26  40  57  78 104 135 175 222 262
#     4  10  20  32  45  62  82 106 141 180 214 252
#     4  10  19  30  42  57  80 109 141 175 208 246
#     4   9  17  28  42  59  76  96 127 170 221 274
#     4  10  18  28  42  62  86 113 145 177 207 245
#     4  10  17  27  45  65  88 119 148 173 205 246
#
# _framework density 14.344514999999999
#
# number of rings (size 3 to 8) (size 9 to 14) (size 15 to 20)
#    0.000    2.375    2.500    1.500    0.000    4.000 
#    0.000    3.750    0.000    0.750    0.000    3.500 
#    0.000    2.000    0.000    4.500    0.000    1.000 
#
# Total GULP energy -356454.011005 kJ/mol
# GULP energy per Si atom -5569.593922 kJ/mol
# Density = 1.431187 g / cm^3
# Si number density = 14.344515 Si / 1000 Ang^3
#
#
#
# Elastic Constant Matrix: (Units=GPa)
#
#
# Indices 1 2 3 4 5 6 
#
# 1 42.4419 21.8983 24.3350 0.0000 0.0000 0.0000
# 2 21.8983 86.9219 46.8876 0.0000 0.0000 0.0000
# 3 24.3350 46.8876 67.3037 0.0000 0.0000 0.0000
# 4 0.0000 0.0000 0.0000 17.5069 0.0000 0.0000
# 5 0.0000 0.0000 0.0000 0.0000 9.5393 0.0000
# 6 0.0000 0.0000 0.0000 0.0000 0.0000 8.9018
#
#
#
# Elastic Compliance Matrix: (Units=1/GPa)
#
#
# Indices 1 2 3 4 5 6 
#
# 1 0.030127 -0.002746 -0.008980 0.000000 0.000000 0.000000
# 2 -0.002746 0.018681 -0.012021 0.000000 0.000000 0.000000
# 3 -0.008980 -0.012021 0.026480 0.000000 0.000000 0.000000
# 4 0.000000 0.000000 0.000000 0.057120 0.000000 0.000000
# 5 0.000000 0.000000 0.000000 0.000000 0.104830 0.000000
# 6 0.000000 0.000000 0.000000 0.000000 0.000000 0.112337
#
#
# Mechanical properties :
#
#
# Convention : Reuss Voigt Hill
#
# Bulk Modulus (GPa) = 35.98011 42.54549 39.26280
# Shear Modulus (GPa) = 12.30513 14.09271 13.19892
#
# Velocity S-wave (km/s) = 2.93205 3.13780 3.03667
# Velocity P-wave (km/s) = 6.04978 6.54613 6.30284
#
# Compressibility (1/GPa) = 0.02779313
#
# Stress axis : x y z
#
# Youngs Moduli (GPa) = 33.19241 53.53038 37.76455
#
# Poissons Ratio (x) = 0.14699 0.33914
# Poissons Ratio (y) = 0.09114 0.45398
# Poissons Ratio (z) = 0.29808 0.64351
#
# Static dielectric constant tensor:
#      x y z
#    x 1.493760 0.000000 0.000000 
#    y 0.000000 1.461840 0.000000 
#    z 0.000000 0.000000 1.473830 
# 
# From -- ./inp_files/24070.got.cif
#   From: 2010.05.17/outbox.cif.g08.bks.cpg/sg47_13_cif.got.tgz:24070.got - 2010.06.03 20:15:42.
