data_PCOD9381784
_publ_section_title
;
Structure prediction by ZEFSAII (Michael W. Deem and Ramdas Pophale) SiO2 
 PCOD9381784
Probable space group: P M M M
;
_chemical_formula_sum "Si O2"
_cell_formula_units_Z 64
_cell_length_a 24.259821
_cell_length_b 19.705309
_cell_length_c 8.691703
_cell_angle_alpha 90.000000
_cell_angle_beta 90.000000
_cell_angle_gamma 90.000000
_cell_volume 4155.044883
_symmetry_space_group_name_H-M "P M M M"
_symmetry_group_IT_number 47
_symmetry_cell_setting 'orthorhombic'
loop_
_space_group_symop_operation_xyz
x,y,z
-x,-y,z
x,-y,-z
-x,y,-z
-x,-y,-z
x,y,-z
-x,y,z
x,-y,z
loop_
_atom_site_type_symbol
_atom_site_label
_atom_site_fract_x
_atom_site_fract_y
_atom_site_fract_z
Si Si1 0.388091 0.423111 0.816018
Si Si2 0.735111 0.575669 0.314974
Si Si3 0.226796 0.718376 0.315978
Si Si4 0.164591 0.158767 0.184043
Si Si5 0.437268 0.287519 0.683919
Si Si6 0.063317 0.078109 0.685507
Si Si7 0.665121 0.208668 0.815263
Si Si8 0.726407 0.923397 0.186882
O O1 0.405609 0.500000 0.774554
O O2 0.324499 0.415980 0.763612
O O3 0.422448 0.363554 0.738147
O O4 0.391268 0.416107 0.000000
O O5 0.726595 0.578780 0.500000
O O6 0.755776 0.500000 0.277129
O O7 0.773609 0.638951 0.272948
O O8 0.224784 0.724226 0.500000
O O9 0.180565 0.766865 0.244776
O O10 0.285452 0.746963 0.256519
O O11 0.107802 0.128657 0.245223
O O12 0.215046 0.109236 0.234552
O O13 0.164409 0.159811 0.000000
O O14 0.432353 0.284306 0.500000
O O15 0.500000 0.271282 0.728233
O O16 0.392586 0.237339 0.757583
O O17 0.066050 0.080793 0.500000
O O18 0.000000 0.092843 0.730241
O O19 0.075576 0.000000 0.731767
O O20 0.679476 0.131043 0.770864
O O21 0.668285 0.214315 0.000000
O O22 0.719326 0.000000 0.243908
O O23 0.727167 0.925815 0.000000
#
# Coordination Sequence:
#
# PCOD9381784 Si02
#       8
#     8   8   8   8   8   8   8   8
#     4  10  20  32  48  69  91 115 145 185 229 271
#     4   9  17  29  46  67  92 123 155 185 223 275
#     4  10  18  29  47  68  94 126 156 189 232 279
#     4  10  19  29  45  70  99 129 163 201 233 268
#     4  11  23  36  49  64  85 117 153 187 225 276
#     4   9  18  32  48  67  96 134 171 205 241 281
#     4  10  19  31  49  70  91 114 145 187 232 279
#     4   8  15  28  46  69  94 117 142 180 230 275
#
# _framework density 15.402963
#
# number of rings (size 3 to 8) (size 9 to 14) (size 15 to 20)
#    0.000    2.375    1.250    3.375    0.000    3.500 
#    0.000    1.875    0.000    7.875    0.000    2.625 
#    0.000    0.500    0.000    5.750    0.000    1.625 
#
# Total GULP energy -356826.056846 kJ/mol
# GULP energy per Si atom -5575.407138 kJ/mol
# Density = 1.536790 g / cm^3
# Si number density = 15.402963 Si / 1000 Ang^3
#
#
#
# Elastic Constant Matrix: (Units=GPa)
#
#
# Indices 1 2 3 4 5 6 
#
# 1 95.3734 62.4439 29.3201 0.0000 0.0000 0.0000
# 2 62.4439 118.6634 28.3868 0.0000 0.0000 0.0000
# 3 29.3201 28.3868 30.0036 0.0000 0.0000 0.0000
# 4 0.0000 0.0000 0.0000 17.2613 0.0000 0.0000
# 5 0.0000 0.0000 0.0000 0.0000 10.7654 0.0000
# 6 0.0000 0.0000 0.0000 0.0000 0.0000 27.0415
#
#
#
# Elastic Compliance Matrix: (Units=1/GPa)
#
#
# Indices 1 2 3 4 5 6 
#
# 1 0.018656 -0.007052 -0.011559 0.000000 0.000000 0.000000
# 2 -0.007052 0.013558 -0.005936 0.000000 0.000000 0.000000
# 3 -0.011559 -0.005936 0.050241 0.000000 0.000000 0.000000
# 4 0.000000 0.000000 0.000000 0.057933 0.000000 0.000000
# 5 0.000000 0.000000 0.000000 0.000000 0.092891 0.000000
# 6 0.000000 0.000000 0.000000 0.000000 0.000000 0.036980
#
#
# Mechanical properties :
#
#
# Convention : Reuss Voigt Hill
#
# Bulk Modulus (GPa) = 29.97507 53.81578 41.89543
# Shear Modulus (GPa) = 15.12982 19.27293 17.20138
#
# Velocity S-wave (km/s) = 3.13751 3.54114 3.34542
# Velocity P-wave (km/s) = 5.71211 7.19263 6.49470
#
# Compressibility (1/GPa) = 0.03336105
#
# Stress axis : x y z
#
# Youngs Moduli (GPa) = 53.60284 73.75576 19.90407
#
# Poissons Ratio (x) = 0.52013 0.23006
# Poissons Ratio (y) = 0.37801 0.11816
# Poissons Ratio (z) = 0.61958 0.43783
#
# Static dielectric constant tensor:
#      x y z
#    x 1.484080 0.000000 0.000000 
#    y 0.000000 1.535180 0.000000 
#    z 0.000000 0.000000 1.517230 
# 
# From -- ./inp_files/11801.got.cif
#   From: 2010.05.17/outbox.cif.g08.bks.cpg/sg47_6_cif.got.tgz:11801.got - 2010.06.03 20:15:42.
