data_PCOD9381804
_publ_section_title
;
Structure prediction by ZEFSAII (Michael W. Deem and Ramdas Pophale) SiO2 
 PCOD9381804
Probable space group: P M M M
;
_chemical_formula_sum "Si O2"
_cell_formula_units_Z 52
_cell_length_a 11.042440
_cell_length_b 7.508011
_cell_length_c 29.682684
_cell_angle_alpha 90.000000
_cell_angle_beta 90.000000
_cell_angle_gamma 90.000000
_cell_volume 2460.895188
_symmetry_space_group_name_H-M "P M M M"
_symmetry_group_IT_number 47
_symmetry_cell_setting 'orthorhombic'
loop_
_space_group_symop_operation_xyz
x,y,z
-x,-y,z
x,-y,-z
-x,y,-z
-x,-y,-z
x,y,-z
-x,y,z
x,-y,z
loop_
_atom_site_type_symbol
_atom_site_label
_atom_site_fract_x
_atom_site_fract_y
_atom_site_fract_z
Si Si1 0.861194 0.281957 0.721791
Si Si2 0.000000 0.718472 0.550431
Si Si3 0.363398 0.282629 0.783612
Si Si4 0.865617 0.786764 0.948665
Si Si5 0.366259 0.713018 0.887195
Si Si6 0.640942 0.213157 0.548368
Si Si7 0.808996 0.294308 0.621400
O O1 0.859875 0.500000 0.722768
O O2 0.751660 0.223453 0.754225
O O3 0.830112 0.219938 0.670858
O O4 0.000000 0.229097 0.733089
O O5 0.111083 0.780802 0.580787
O O6 0.000000 0.500000 0.548108
O O7 0.000000 0.784990 0.500000
O O8 0.500000 0.229553 0.768551
O O9 0.362454 0.500000 0.782766
O O10 0.349271 0.225135 0.835639
O O11 0.750053 0.749781 0.917745
O O12 0.000000 0.723568 0.933111
O O13 0.872823 0.000000 0.950824
O O14 0.847311 0.721201 0.000000
O O15 0.500000 0.777184 0.903186
O O16 0.373925 0.500000 0.885022
O O17 0.696901 0.278631 0.500000
O O18 0.500000 0.252245 0.545150
O O19 0.681568 0.285307 0.596801
O O20 0.656087 0.000000 0.549206
O O21 0.845680 0.500000 0.626180
#
# Coordination Sequence:
#
# PCOD9381804 Si02
#       7
#     8   4   8   8   8   8   8
#     4   9  16  27  44  68  99 129 157 193 240 291
#     4   9  16  26  41  63  93 123 145 175 226 275
#     4   8  15  28  45  67  98 132 163 200 247 295
#     4   9  19  35  52  72 102 139 176 214 257 305
#     4   9  18  32  50  75 105 134 169 214 259 304
#     4   9  19  35  50  64  88 121 152 185 229 279
#     4  10  18  29  47  71  95 119 150 189 231 275
#
# _framework density 21.130521000000002
#
# number of rings (size 3 to 8) (size 9 to 14) (size 15 to 20)
#    0.000    3.000    0.769    2.308    0.000    3.692 
#    0.000    6.538    0.000    2.308    0.000    0.000 
#    0.000    0.000    0.000    0.000    0.000    0.000 
#
# Total GULP energy -289554.341232 kJ/mol
# GULP energy per Si atom -5568.352716 kJ/mol
# Density = 2.108243 g / cm^3
# Si number density = 21.130521 Si / 1000 Ang^3
#
#
#
# Elastic Constant Matrix: (Units=GPa)
#
#
# Indices 1 2 3 4 5 6 
#
# 1 202.3102 8.6894 123.5759 0.0000 0.0000 0.0000
# 2 8.6894 49.1195 7.8251 0.0000 0.0000 0.0000
# 3 123.5759 7.8251 132.1821 0.0000 0.0000 0.0000
# 4 0.0000 0.0000 0.0000 22.9016 0.0000 0.0000
# 5 0.0000 0.0000 0.0000 0.0000 65.2253 0.0000
# 6 0.0000 0.0000 0.0000 0.0000 0.0000 31.3857
#
#
#
# Elastic Compliance Matrix: (Units=1/GPa)
#
#
# Indices 1 2 3 4 5 6 
#
# 1 0.011529 -0.000326 -0.010759 0.000000 0.000000 0.000000
# 2 -0.000326 0.020562 -0.000913 0.000000 0.000000 0.000000
# 3 -0.010759 -0.000913 0.017678 0.000000 0.000000 0.000000
# 4 0.000000 0.000000 0.000000 0.043665 0.000000 0.000000
# 5 0.000000 0.000000 0.000000 0.000000 0.015331 0.000000
# 6 0.000000 0.000000 0.000000 0.000000 0.000000 0.031862
#
#
# Mechanical properties :
#
#
# Convention : Reuss Voigt Hill
#
# Bulk Modulus (GPa) = 38.79967 73.75475 56.27721
# Shear Modulus (GPa) = 28.86655 40.13730 34.50192
#
# Velocity S-wave (km/s) = 3.70010 4.36305 4.04518
# Velocity P-wave (km/s) = 6.05443 7.76928 6.96483
#
# Compressibility (1/GPa) = 0.02577342
#
# Stress axis : x y z
#
# Youngs Moduli (GPa) = 86.74150 48.63455 56.56908
#
# Poissons Ratio (x) = 0.01583 0.60861
# Poissons Ratio (y) = 0.02823 0.05164
# Poissons Ratio (z) = 0.93322 0.04440
#
# Static dielectric constant tensor:
#      x y z
#    x 2.097210 0.000000 0.000000 
#    y 0.000000 1.836820 0.000000 
#    z 0.000000 0.000000 1.782240 
# 
# From -- ./inp_files/33579.got.cif
#   From: 2010.05.17/outbox.cif.g08.bks.cpg/sg47_17_cif.got.tgz:33579.got - 2010.06.03 20:15:42.
