data_PCOD9381466
_publ_section_title
;
Structure prediction by ZEFSAII (Michael W. Deem and Ramdas Pophale) SiO2 
 PCOD9381466
Probable space group: P M M M
;
_chemical_formula_sum "Si O2"
_cell_formula_units_Z 52
_cell_length_a 13.799532
_cell_length_b 11.786934
_cell_length_c 21.864630
_cell_angle_alpha 90.000000
_cell_angle_beta 90.000000
_cell_angle_gamma 90.000000
_cell_volume 3556.373309
_symmetry_space_group_name_H-M "P M M M"
_symmetry_group_IT_number 47
_symmetry_cell_setting 'orthorhombic'
loop_
_space_group_symop_operation_xyz
x,y,z
-x,-y,z
x,-y,-z
-x,y,-z
-x,-y,-z
x,y,-z
-x,y,z
x,-y,z
loop_
_atom_site_type_symbol
_atom_site_label
_atom_site_fract_x
_atom_site_fract_y
_atom_site_fract_z
Si Si1 0.280174 0.864236 0.430596
Si Si2 0.607749 0.862709 0.309406
Si Si3 0.882208 0.868640 0.000000
Si Si4 0.112807 0.742238 0.637150
Si Si5 0.882551 0.747127 0.125506
Si Si6 0.805245 0.864060 0.246674
Si Si7 0.882518 0.500000 0.689868
Si Si8 0.882436 0.500000 0.168416
O O1 0.310440 0.840674 0.500000
O O2 0.358154 0.834192 0.378359
O O3 0.182429 0.798416 0.412712
O O4 0.262717 0.000000 0.425228
O O5 0.500000 0.819626 0.295772
O O6 0.695531 0.828417 0.264896
O O7 0.604380 0.000000 0.306491
O O8 0.852557 0.802546 0.061325
O O9 0.000000 0.870067 0.000000
O O10 0.850212 0.000000 0.000000
O O11 0.127893 0.814130 0.699411
O O12 0.144768 0.614658 0.654794
O O13 0.000000 0.742065 0.619757
O O14 0.838974 0.815705 0.182255
O O15 0.854073 0.615678 0.134512
O O16 0.000000 0.753363 0.129238
O O17 0.810598 0.000000 0.247173
O O18 0.848984 0.500000 0.760634
O O19 0.000000 0.500000 0.692651
O O20 0.000000 0.500000 0.170429
#
# Coordination Sequence:
#
# PCOD9381466 Si02
#       8
#     8   8   4   8   8   8   4   4
#     4   9  18  30  43  63  88 112 141 171 207 263
#     4   8  15  28  44  63  86 108 135 175 218 259
#     4   9  18  29  39  57  90 129 157 176 207 250
#     4  10  18  28  42  60  84 113 143 178 214 249
#     4  10  18  28  42  61  89 121 153 183 209 245
#     4  10  18  26  41  65  87 110 142 176 217 264
#     4   9  16  28  42  58  80 110 148 185 216 246
#     4   9  16  27  42  60  82 114 154 189 218 241
#
# _framework density 14.621637
#
# number of rings (size 3 to 8) (size 9 to 14) (size 15 to 20)
#    0.000    2.692    1.538    2.308    0.000    3.692 
#    0.000    4.231    0.000    1.385    0.000   14.000 
#    0.000    8.000    0.000    1.385    0.000    0.615 
#
# Total GULP energy -289540.901445 kJ/mol
# GULP energy per Si atom -5568.094259 kJ/mol
# Density = 1.458836 g / cm^3
# Si number density = 14.621637 Si / 1000 Ang^3
#
#
#
# Elastic Constant Matrix: (Units=GPa)
#
#
# Indices 1 2 3 4 5 6 
#
# 1 42.6390 9.5840 7.6974 0.0000 0.0000 0.0000
# 2 9.5840 74.6137 23.9650 0.0000 0.0000 0.0000
# 3 7.6974 23.9650 70.9308 0.0000 0.0000 0.0000
# 4 0.0000 0.0000 0.0000 21.3927 0.0000 0.0000
# 5 0.0000 0.0000 0.0000 0.0000 7.5396 0.0000
# 6 0.0000 0.0000 0.0000 0.0000 0.0000 1.9214
#
#
#
# Elastic Compliance Matrix: (Units=1/GPa)
#
#
# Indices 1 2 3 4 5 6 
#
# 1 0.024348 -0.002556 -0.001779 0.000000 0.000000 0.000000
# 2 -0.002556 0.015302 -0.004893 0.000000 0.000000 0.000000
# 3 -0.001779 -0.004893 0.015944 0.000000 0.000000 0.000000
# 4 0.000000 0.000000 0.000000 0.046745 0.000000 0.000000
# 5 0.000000 0.000000 0.000000 0.000000 0.132633 0.000000
# 6 0.000000 0.000000 0.000000 0.000000 0.000000 0.520446
#
#
# Mechanical properties :
#
#
# Convention : Reuss Voigt Hill
#
# Bulk Modulus (GPa) = 26.92529 30.07515 28.50022
# Shear Modulus (GPa) = 6.35927 15.96657 11.16292
#
# Velocity S-wave (km/s) = 2.08774 3.30810 2.76606
# Velocity P-wave (km/s) = 4.92608 5.93338 5.45303
#
# Compressibility (1/GPa) = 0.03713980
#
# Stress axis : x y z
#
# Youngs Moduli (GPa) = 41.07052 65.35028 62.71829
#
# Poissons Ratio (x) = 0.16705 0.11155
# Poissons Ratio (y) = 0.10499 0.30686
# Poissons Ratio (z) = 0.07305 0.31974
#
# Static dielectric constant tensor:
#      x y z
#    x 1.472680 0.000000 0.000000 
#    y 0.000000 1.491670 0.000000 
#    z 0.000000 0.000000 1.476760 
# 
# From -- ./inp_files/31154.got.cif
#   From: 2010.05.17/outbox.cif.g08.bks.cpg/sg47_16_cif.got.tgz:31154.got - 2010.06.03 20:15:42.
