data_PCOD9381477
_publ_section_title
;
Structure prediction by ZEFSAII (Michael W. Deem and Ramdas Pophale) SiO2 
 PCOD9381477
Probable space group: P M M M
;
_chemical_formula_sum "Si O2"
_cell_formula_units_Z 60
_cell_length_a 7.471350
_cell_length_b 15.824645
_cell_length_c 25.026344
_cell_angle_alpha 90.000000
_cell_angle_beta 90.000000
_cell_angle_gamma 90.000000
_cell_volume 2958.901225
_symmetry_space_group_name_H-M "P M M M"
_symmetry_group_IT_number 47
_symmetry_cell_setting 'orthorhombic'
loop_
_space_group_symop_operation_xyz
x,y,z
-x,-y,z
x,-y,-z
-x,y,-z
-x,-y,-z
x,y,-z
-x,y,z
x,-y,z
loop_
_atom_site_type_symbol
_atom_site_label
_atom_site_fract_x
_atom_site_fract_y
_atom_site_fract_z
Si Si1 0.218598 0.096702 0.865418
Si Si2 0.281465 0.404303 0.742328
Si Si3 0.214751 0.905220 0.744424
Si Si4 0.715224 0.405332 0.864786
Si Si5 0.212492 0.752691 0.060158
Si Si6 0.719546 0.314118 0.439474
Si Si7 0.701595 0.500000 0.564819
Si Si8 0.287478 0.251008 0.330567
O O1 0.276184 0.116714 0.804605
O O2 0.283551 0.167292 0.906472
O O3 0.000000 0.097971 0.865709
O O4 0.271193 0.000000 0.877742
O O5 0.500000 0.403402 0.741908
O O6 0.227934 0.500000 0.727365
O O7 0.225305 0.388071 0.803774
O O8 0.216770 0.330415 0.703611
O O9 0.259917 0.834735 0.701556
O O10 0.000000 0.908743 0.746975
O O11 0.279078 0.000000 0.731567
O O12 0.500000 0.407630 0.863227
O O13 0.777195 0.500000 0.879668
O O14 0.764580 0.332372 0.905741
O O15 0.000000 0.766279 0.055830
O O16 0.284716 0.745902 0.000000
O O17 0.778518 0.295379 0.500000
O O18 0.500000 0.317227 0.441804
O O19 0.780624 0.408821 0.422862
O O20 0.776841 0.253191 0.391729
O O21 0.500000 0.500000 0.587897
O O22 0.689150 0.500000 0.500000
O O23 0.500000 0.264135 0.333869
#
# Coordination Sequence:
#
# PCOD9381477 Si02
#       8
#     8   8   8   8   8   8   4   8
#     4   8  15  30  51  71  91 117 146 175 217 278
#     4   8  15  27  43  67  96 120 146 184 227 267
#     4   9  18  33  51  68  88 117 150 184 226 274
#     4   9  18  33  49  62  84 123 162 189 218 262
#     4  10  20  31  46  71  96 115 142 185 229 263
#     4   8  14  23  36  60  94 126 153 181 217 263
#     4   7  10  18  32  52  83 121 153 177 202 243
#     4  10  18  26  45  73  95 118 148 188 230 264
#
# _framework density 20.277795999999999
#
# number of rings (size 3 to 8) (size 9 to 14) (size 15 to 20)
#    0.000    3.267    0.000    3.200    0.933    1.333 
#    0.000    2.667    0.000    3.200    0.000    3.733 
#    0.000    1.600    0.000    0.000    0.000    0.000 
#
# Total GULP energy -334596.202066 kJ/mol
# GULP energy per Si atom -5576.603368 kJ/mol
# Density = 2.023164 g / cm^3
# Si number density = 20.277796 Si / 1000 Ang^3
#
#
#
# Elastic Constant Matrix: (Units=GPa)
#
#
# Indices 1 2 3 4 5 6 
#
# 1 54.3437 1.6545 8.7353 0.0000 0.0000 0.0000
# 2 1.6545 137.2661 124.9116 0.0000 0.0000 0.0000
# 3 8.7353 124.9116 168.7223 0.0000 0.0000 0.0000
# 4 0.0000 0.0000 0.0000 9.1105 0.0000 0.0000
# 5 0.0000 0.0000 0.0000 0.0000 17.4611 0.0000
# 6 0.0000 0.0000 0.0000 0.0000 0.0000 12.5368
#
#
#
# Elastic Compliance Matrix: (Units=1/GPa)
#
#
# Indices 1 2 3 4 5 6 
#
# 1 0.018736 0.002013 -0.002460 0.000000 0.000000 0.000000
# 2 0.002013 0.022543 -0.016794 0.000000 0.000000 0.000000
# 3 -0.002460 -0.016794 0.018487 0.000000 0.000000 0.000000
# 4 0.000000 0.000000 0.000000 0.109764 0.000000 0.000000
# 5 0.000000 0.000000 0.000000 0.000000 0.057270 0.000000
# 6 0.000000 0.000000 0.000000 0.000000 0.000000 0.079765
#
#
# Mechanical properties :
#
#
# Convention : Reuss Voigt Hill
#
# Bulk Modulus (GPa) = 39.55070 70.10387 54.82729
# Shear Modulus (GPa) = 14.30716 22.82371 18.56543
#
# Velocity S-wave (km/s) = 2.65912 3.35856 3.02910
# Velocity P-wave (km/s) = 5.38281 7.04888 6.27142
#
# Compressibility (1/GPa) = 0.02528400
#
# Stress axis : x y z
#
# Youngs Moduli (GPa) = 53.37431 44.35940 54.09100
#
# Poissons Ratio (x) = -0.08930 0.13308
# Poissons Ratio (y) = -0.10745 0.90839
# Poissons Ratio (z) = 0.13132 0.74496
#
# Static dielectric constant tensor:
#      x y z
#    x 1.816290 0.000000 0.000000 
#    y 0.000000 1.703710 0.000000 
#    z 0.000000 0.000000 1.722610 
# 
# From -- ./inp_files/32517.got.cif
#   From: 2010.05.17/outbox.cif.g08.bks.cpg/sg47_17_cif.got.tgz:32517.got - 2010.06.03 20:15:42.
