data_PCOD9381171
_publ_section_title
;
Structure prediction by ZEFSAII (Michael W. Deem and Ramdas Pophale) SiO2 
 PCOD9381171
Probable space group: P M M M
;
_chemical_formula_sum "Si O2"
_cell_formula_units_Z 64
_cell_length_a 7.584859
_cell_length_b 19.369183
_cell_length_c 22.278114
_cell_angle_alpha 90.000000
_cell_angle_beta 90.000000
_cell_angle_gamma 90.000000
_cell_volume 3272.933913
_symmetry_space_group_name_H-M "P M M M"
_symmetry_group_IT_number 47
_symmetry_cell_setting 'orthorhombic'
loop_
_space_group_symop_operation_xyz
x,y,z
-x,-y,z
x,-y,-z
-x,y,-z
-x,-y,-z
x,y,-z
-x,y,z
x,-y,z
loop_
_atom_site_type_symbol
_atom_site_label
_atom_site_fract_x
_atom_site_fract_y
_atom_site_fract_z
Si Si1 0.783083 0.277991 0.234869
Si Si2 0.215275 0.922386 0.569841
Si Si3 0.711703 0.924528 0.902686
Si Si4 0.289331 0.922831 0.237138
Si Si5 0.791631 0.227613 0.105074
Si Si6 0.198276 0.183862 0.334231
Si Si7 0.795760 0.425153 0.194089
Si Si8 0.704157 0.622660 0.064964
O O1 0.730302 0.234132 0.175189
O O2 0.719651 0.247880 0.298325
O O3 0.720755 0.355842 0.223362
O O4 0.000000 0.276512 0.236004
O O5 0.260401 0.912469 0.500000
O O6 0.280980 0.860559 0.612088
O O7 0.000000 0.922377 0.574048
O O8 0.273148 0.000000 0.587544
O O9 0.500000 0.927117 0.906302
O O10 0.764418 0.922243 0.832440
O O11 0.761037 0.847691 0.923729
O O12 0.774539 0.000000 0.926458
O O13 0.500000 0.909558 0.239254
O O14 0.191488 0.870303 0.279300
O O15 0.258351 0.000000 0.259824
O O16 0.712441 0.294098 0.072395
O O17 0.000000 0.239218 0.105667
O O18 0.000000 0.203404 0.353309
O O19 0.715596 0.500000 0.206780
O O20 0.791880 0.410698 0.122817
O O21 0.000000 0.427488 0.212614
O O22 0.500000 0.601964 0.066769
O O23 0.778785 0.604043 0.000000
#
# Coordination Sequence:
#
# PCOD9381171 Si02
#       8
#     8   8   8   8   8   8   8   8
#     4   8  15  26  40  63  87 106 136 176 216 261
#     4   8  14  23  34  52  80 114 152 192 233 271
#     4   9  17  28  41  59  86 118 147 177 220 273
#     4   9  17  26  35  53  83 113 140 173 214 261
#     4  10  18  30  47  66  90 116 145 186 228 267
#     4  10  16  24  40  59  80 107 145 191 227 260
#     4   9  18  33  51  69  93 121 143 170 213 264
#     4  10  21  35  51  71  93 118 148 179 211 254
#
# _framework density 19.554320000000001
#
# number of rings (size 3 to 8) (size 9 to 14) (size 15 to 20)
#    0.000    2.875    1.250    3.000    0.000    2.500 
#    0.000    2.500    0.000    0.750    0.000    4.375 
#    0.000    0.500    0.000    7.000    0.000    0.000 
#
# Total GULP energy -356648.849885 kJ/mol
# GULP energy per Si atom -5572.638279 kJ/mol
# Density = 1.950981 g / cm^3
# Si number density = 19.554320 Si / 1000 Ang^3
#
#
#
# Elastic Constant Matrix: (Units=GPa)
#
#
# Indices 1 2 3 4 5 6 
#
# 1 42.0613 1.6585 -2.9361 0.0000 0.0000 0.0000
# 2 1.6585 130.5469 35.7971 0.0000 0.0000 0.0000
# 3 -2.9361 35.7971 82.5593 0.0000 0.0000 0.0000
# 4 0.0000 0.0000 0.0000 -21.8823 0.0000 0.0000
# 5 0.0000 0.0000 0.0000 0.0000 13.3251 0.0000
# 6 0.0000 0.0000 0.0000 0.0000 0.0000 -120.5561
#
#
#
# Elastic Compliance Matrix: (Units=1/GPa)
#
#
# Indices 1 2 3 4 5 6 
#
# 1 0.023877 -0.000609 0.001113 0.000000 0.000000 0.000000
# 2 -0.000609 0.008709 -0.003798 0.000000 0.000000 0.000000
# 3 0.001113 -0.003798 0.013799 0.000000 0.000000 0.000000
# 4 0.000000 0.000000 0.000000 -0.045699 0.000000 0.000000
# 5 0.000000 0.000000 0.000000 0.000000 0.075046 0.000000
# 6 0.000000 0.000000 0.000000 0.000000 0.000000 -0.008295
#
#
# Mechanical properties :
#
#
# Convention : Reuss Voigt Hill
#
# Bulk Modulus (GPa) = 25.12708 36.02294 30.57501
# Shear Modulus (GPa) = 57.28054 -11.11280 23.08387
#
# Velocity S-wave (km/s) = 5.41818 -2.38650 3.43957
# Velocity P-wave (km/s) = 7.21249 3.29669 5.60750
#
# Compressibility (1/GPa) = 0.03979770
#
# Stress axis : x y z
#
# Youngs Moduli (GPa) = 41.88214 114.82063 72.46986
#
# Poissons Ratio (x) = 0.06987 -0.08066
# Poissons Ratio (y) = 0.02549 0.27523
# Poissons Ratio (z) = -0.04661 0.43608
#
# Static dielectric constant tensor:
#      x y z
#    x 1.733800 0.000000 0.000000 
#    y 0.000000 1.758330 0.000000 
#    z 0.000000 0.000000 1.690980 
# 
# From -- ./inp_files/30130.got.cif
#   From: 2010.05.17/outbox.cif.g08.bks.cpg/sg47_16_cif.got.tgz:30130.got - 2010.06.03 20:15:42.
