data_PCOD9381031
_publ_section_title
;
Structure prediction by ZEFSAII (Michael W. Deem and Ramdas Pophale) SiO2 
 PCOD9381031
Probable space group: I M A 2
;
_chemical_formula_sum "Si O2"
_cell_formula_units_Z 36
_cell_length_a 19.000703
_cell_length_b 8.892594
_cell_length_c 8.305873
_cell_angle_alpha 90.000000
_cell_angle_beta 90.000000
_cell_angle_gamma 90.000000
_cell_volume 1403.406296
_symmetry_space_group_name_H-M "I M A 2"
_symmetry_group_IT_number 46
_symmetry_cell_setting 'orthorhombic'
loop_
_space_group_symop_operation_xyz
x,y,z
-x,-y,z
1/2-x,y,z
1/2+x,-y,z
1/2+x,1/2+y,1/2+z
1/2-x,1/2-y,1/2+z
-x,1/2+y,1/2+z
x,1/2-y,1/2+z
loop_
_atom_site_type_symbol
_atom_site_label
_atom_site_fract_x
_atom_site_fract_y
_atom_site_fract_z
Si Si1 0.886452 0.807979 0.059560
Si Si2 0.250000 0.001016 0.062830
Si Si3 0.016621 0.157617 0.336750
Si Si4 0.169165 0.521808 0.103188
Si Si5 0.138759 0.803750 0.272799
O O1 0.813490 0.881111 0.007408
O O2 0.872198 0.633133 0.103160
O O3 0.919886 0.883046 0.216451
O O4 0.951029 0.794207 0.936186
O O5 0.188577 0.894171 0.150364
O O6 0.945188 0.201803 0.246482
O O7 0.000000 0.000000 0.426657
O O8 0.250000 0.479168 0.084805
O O9 0.162573 0.629944 0.257460
O O10 0.150146 0.624791 0.948932
#
# Coordination Sequence:
#
# PCOD9381031 Si02
#       5
#     8   4   8   8   8
#     4  12  27  48  78 111 153 207 264 333 399 488
#     4  12  24  46  78 112 150 206 264 324 404 478
#     4  12  26  49  75 109 156 204 259 328 406 481
#     4  12  24  47  74 111 146 196 257 324 392 475
#     4  12  26  48  77 107 155 202 259 325 405 481
#
# _framework density 25.651872000000001
#
# number of rings (size 3 to 8) (size 9 to 14) (size 15 to 20)
#    0.000    0.000    7.778    1.333    0.000    2.667 
#    8.000    0.000    0.000    0.000    0.000    0.000 
#    0.000    0.000    0.000    0.000    0.000    0.000 
#
# Total GULP energy -100204.815966 kJ/mol
# GULP energy per Si atom -5566.934220 kJ/mol
# Density = 2.559349 g / cm^3
# Si number density = 25.651872 Si / 1000 Ang^3
#
#
#
# Elastic Constant Matrix: (Units=GPa)
#
#
# Indices 1 2 3 4 5 6 
#
# 1 178.3807 40.4929 18.3215 0.0000 0.0000 0.0000
# 2 40.4929 134.0306 28.4912 0.0000 0.0000 0.0000
# 3 18.3215 28.4912 59.6970 0.0000 0.0000 0.0000
# 4 0.0000 0.0000 0.0000 36.9302 0.0000 0.0000
# 5 0.0000 0.0000 0.0000 0.0000 11.7107 0.0000
# 6 0.0000 0.0000 0.0000 0.0000 0.0000 -32.2955
#
#
#
# Elastic Compliance Matrix: (Units=1/GPa)
#
#
# Indices 1 2 3 4 5 6 
#
# 1 0.006083 -0.001604 -0.001102 0.000000 0.000000 0.000000
# 2 -0.001604 0.008726 -0.003673 0.000000 0.000000 0.000000
# 3 -0.001102 -0.003673 0.018842 0.000000 0.000000 0.000000
# 4 0.000000 0.000000 0.000000 0.027078 0.000000 0.000000
# 5 0.000000 0.000000 0.000000 0.000000 0.085392 0.000000
# 6 0.000000 0.000000 0.000000 0.000000 0.000000 -0.030964
#
#
# Mechanical properties :
#
#
# Convention : Reuss Voigt Hill
#
# Bulk Modulus (GPa) = 47.85630 60.74663 54.30146
# Shear Modulus (GPa) = 37.07047 22.25592 29.66319
#
# Velocity S-wave (km/s) = 3.80562 2.94872 3.40424
# Velocity P-wave (km/s) = 6.16497 5.94356 6.05528
#
# Compressibility (1/GPa) = 0.02089589
#
# Stress axis : x y z
#
# Youngs Moduli (GPa) = 164.38802 114.59811 53.07258
#
# Poissons Ratio (x) = 0.18378 0.05847
# Poissons Ratio (y) = 0.26362 0.19491
# Poissons Ratio (z) = 0.18109 0.42086
#
# Static dielectric constant tensor:
#      x y z
#    x 2.002290 0.000000 0.000000 
#    y 0.000000 2.030350 0.000000 
#    z 0.000000 0.000000 2.118810 
# 
# From -- ./inp_files/7144.got.cif
#   From: 2010.05.17/outbox.cif.g08.bks.cpg/sg46_4_cif.got.tgz:7144.got - 2010.06.03 19:58:25.
