data_PCOD9381299
_publ_section_title
;
Structure prediction by ZEFSAII (Michael W. Deem and Ramdas Pophale) SiO2 
 PCOD9381299
Probable space group: P M M M
;
_chemical_formula_sum "Si O2"
_cell_formula_units_Z 64
_cell_length_a 7.371343
_cell_length_b 21.817331
_cell_length_c 20.114987
_cell_angle_alpha 90.000000
_cell_angle_beta 90.000000
_cell_angle_gamma 90.000000
_cell_volume 3234.953161
_symmetry_space_group_name_H-M "P M M M"
_symmetry_group_IT_number 47
_symmetry_cell_setting 'orthorhombic'
loop_
_space_group_symop_operation_xyz
x,y,z
-x,-y,z
x,-y,-z
-x,y,-z
-x,-y,-z
x,y,-z
-x,y,z
x,-y,z
loop_
_atom_site_type_symbol
_atom_site_label
_atom_site_fract_x
_atom_site_fract_y
_atom_site_fract_z
Si Si1 0.781092 0.620394 0.074289
Si Si2 0.277652 0.311127 0.286714
Si Si3 0.721846 0.932484 0.713383
Si Si4 0.288712 0.188439 0.786166
Si Si5 0.781508 0.238328 0.925911
Si Si6 0.720489 0.880658 0.573738
Si Si7 0.711929 0.433070 0.214854
Si Si8 0.279651 0.261945 0.426192
O O1 0.721908 0.691088 0.085393
O O2 0.722186 0.580029 0.136091
O O3 0.000000 0.620210 0.074112
O O4 0.722217 0.601709 0.000000
O O5 0.500000 0.311642 0.283869
O O6 0.214491 0.250767 0.246683
O O7 0.212674 0.373625 0.252649
O O8 0.223066 0.301807 0.363247
O O9 0.500000 0.932807 0.714743
O O10 0.785201 0.875070 0.757500
O O11 0.777312 0.919411 0.637215
O O12 0.781058 0.000000 0.734887
O O13 0.500000 0.188156 0.766939
O O14 0.276181 0.196323 0.865097
O O15 0.000000 0.239231 0.926084
O O16 0.721665 0.220064 0.000000
O O17 0.779994 0.900295 0.500000
O O18 0.500000 0.881796 0.573213
O O19 0.772867 0.809337 0.583518
O O20 0.500000 0.435455 0.232742
O O21 0.790937 0.500000 0.229591
O O22 0.220176 0.281197 0.500000
O O23 0.500000 0.262311 0.426384
#
# Coordination Sequence:
#
# PCOD9381299 Si02
#       8
#     8   8   8   8   8   8   8   8
#     4   9  18  32  48  66  89 116 144 175 215 263
#     4   9  15  25  40  59  84 114 148 183 216 254
#     4   9  16  24  35  57  90 121 147 180 220 258
#     4  10  17  27  46  68  88 116 150 180 215 261
#     4   9  18  32  49  69  91 112 139 181 226 261
#     4   8  12  18  29  49  81 119 151 174 206 257
#     4  10  20  31  43  62  89 120 150 182 219 255
#     4   8  12  19  34  55  80 112 148 182 215 254
#
# _framework density 19.783902000000001
#
# number of rings (size 3 to 8) (size 9 to 14) (size 15 to 20)
#    0.000    3.000    2.500    1.500    0.000    1.250 
#    0.000    3.750    0.000    1.125    0.000    5.250 
#    0.000    3.500    0.000    2.250    0.000    2.500 
#
# Total GULP energy -357002.744746 kJ/mol
# GULP energy per Si atom -5578.167887 kJ/mol
# Density = 1.973887 g / cm^3
# Si number density = 19.783902 Si / 1000 Ang^3
#
#
#
# Elastic Constant Matrix: (Units=GPa)
#
#
# Indices 1 2 3 4 5 6 
#
# 1 68.5164 9.6256 -4.9322 0.0000 0.0000 0.0000
# 2 9.6256 158.3921 91.5895 0.0000 0.0000 0.0000
# 3 -4.9322 91.5895 124.4018 0.0000 0.0000 0.0000
# 4 0.0000 0.0000 0.0000 20.6388 0.0000 0.0000
# 5 0.0000 0.0000 0.0000 0.0000 42.9201 0.0000
# 6 0.0000 0.0000 0.0000 0.0000 0.0000 -9.0909
#
#
#
# Elastic Compliance Matrix: (Units=1/GPa)
#
#
# Indices 1 2 3 4 5 6 
#
# 1 0.015063 -0.002195 0.002213 0.000000 0.000000 0.000000
# 2 -0.002195 0.011314 -0.008417 0.000000 0.000000 0.000000
# 3 0.002213 -0.008417 0.014323 0.000000 0.000000 0.000000
# 4 0.000000 0.000000 0.000000 0.048452 0.000000 0.000000
# 5 0.000000 0.000000 0.000000 0.000000 0.023299 0.000000
# 6 0.000000 0.000000 0.000000 0.000000 0.000000 -0.110001
#
#
# Mechanical properties :
#
#
# Convention : Reuss Voigt Hill
#
# Bulk Modulus (GPa) = 41.83672 60.43070 51.13371
# Shear Modulus (GPa) = 183.72369 27.89544 105.80957
#
# Velocity S-wave (km/s) = 9.64712 3.75908 7.32112
# Velocity P-wave (km/s) = 12.05329 7.03225 9.86748
#
# Compressibility (1/GPa) = 0.02390245
#
# Stress axis : x y z
#
# Youngs Moduli (GPa) = 66.38871 88.38799 69.81823
#
# Poissons Ratio (x) = 0.19404 -0.15454
# Poissons Ratio (y) = 0.14574 0.58764
# Poissons Ratio (z) = -0.14695 0.74393
#
# Static dielectric constant tensor:
#      x y z
#    x 1.775770 0.000000 0.000000 
#    y 0.000000 1.682400 0.000000 
#    z 0.000000 0.000000 1.692570 
# 
# From -- ./inp_files/18786.got.cif
#   From: 2010.05.17/outbox.cif.g08.bks.cpg/sg47_10_cif.got.tgz:18786.got - 2010.06.03 20:15:42.
