data_PCOD9381412
_publ_section_title
;
Structure prediction by ZEFSAII (Michael W. Deem and Ramdas Pophale) SiO2 
 PCOD9381412
Probable space group: P M M M
;
_chemical_formula_sum "Si O2"
_cell_formula_units_Z 52
_cell_length_a 7.478299
_cell_length_b 29.687469
_cell_length_c 12.254797
_cell_angle_alpha 90.000000
_cell_angle_beta 90.000000
_cell_angle_gamma 90.000000
_cell_volume 2720.709170
_symmetry_space_group_name_H-M "P M M M"
_symmetry_group_IT_number 47
_symmetry_cell_setting 'orthorhombic'
loop_
_space_group_symop_operation_xyz
x,y,z
-x,-y,z
x,-y,-z
-x,y,-z
-x,-y,-z
x,y,-z
-x,y,z
x,-y,z
loop_
_atom_site_type_symbol
_atom_site_label
_atom_site_fract_x
_atom_site_fract_y
_atom_site_fract_z
Si Si1 0.716548 0.863886 0.375203
Si Si2 0.289798 0.080635 0.000000
Si Si3 0.212044 0.303939 0.624851
Si Si4 0.209871 0.223071 0.229721
Si Si5 0.715416 0.596819 0.373650
Si Si6 0.285307 0.500000 0.631623
Si Si7 0.217445 0.813088 0.000000
Si Si8 0.281242 0.050331 0.236565
O O1 0.777500 0.860719 0.500000
O O2 0.500000 0.864030 0.375588
O O3 0.773982 0.821037 0.304842
O O4 0.776457 0.909802 0.316630
O O5 0.218502 0.061171 0.113539
O O6 0.500000 0.069371 0.000000
O O7 0.270892 0.134532 0.000000
O O8 0.284695 0.301998 0.500000
O O9 0.286518 0.265412 0.703746
O O10 0.235114 0.354400 0.671455
O O11 0.000000 0.296074 0.615525
O O12 0.000000 0.232629 0.212661
O O13 0.282760 0.210774 0.110465
O O14 0.776977 0.598119 0.500000
O O15 0.500000 0.595033 0.374521
O O16 0.780253 0.548724 0.327013
O O17 0.500000 0.500000 0.647281
O O18 0.256729 0.500000 0.500000
O O19 0.000000 0.812918 0.000000
O O20 0.500000 0.051382 0.235765
O O21 0.227554 0.000000 0.268869
#
# Coordination Sequence:
#
# PCOD9381412 Si02
#       8
#     8   4   8   8   8   4   4   8
#     4  10  20  32  48  71  94 117 149 184 215 256
#     4  10  17  30  52  72  90 114 145 181 223 268
#     4   9  17  28  41  59  85 116 146 175 213 262
#     4  10  20  34  50  66  88 118 150 184 227 273
#     4   8  13  22  37  57  82 114 149 181 211 247
#     4   7  10  18  33  53  79 112 147 178 210 249
#     4  10  20  33  51  71  88 111 147 188 226 268
#     4   9  17  29  47  71  95 117 143 178 220 265
#
# _framework density 19.112663000000001
#
# number of rings (size 3 to 8) (size 9 to 14) (size 15 to 20)
#    0.000    2.846    1.538    1.615    0.000    2.769 
#    0.000    3.462    0.000    4.615    0.000    1.077 
#    0.000    0.615    0.000    7.692    0.000    2.769 
#
# Total GULP energy -289855.758128 kJ/mol
# GULP energy per Si atom -5574.149195 kJ/mol
# Density = 1.906916 g / cm^3
# Si number density = 19.112663 Si / 1000 Ang^3
#
#
#
# Elastic Constant Matrix: (Units=GPa)
#
#
# Indices 1 2 3 4 5 6 
#
# 1 48.4547 -15.2127 -5.5130 0.0000 0.0000 0.0000
# 2 -15.2127 176.4762 58.2125 0.0000 0.0000 0.0000
# 3 -5.5130 58.2125 99.4257 0.0000 0.0000 0.0000
# 4 0.0000 0.0000 0.0000 -3.6455 0.0000 0.0000
# 5 0.0000 0.0000 0.0000 0.0000 3.8520 0.0000
# 6 0.0000 0.0000 0.0000 0.0000 0.0000 22.1178
#
#
#
# Elastic Compliance Matrix: (Units=1/GPa)
#
#
# Indices 1 2 3 4 5 6 
#
# 1 0.021213 0.001785 0.000131 0.000000 0.000000 0.000000
# 2 0.001785 0.007173 -0.004101 0.000000 0.000000 0.000000
# 3 0.000131 -0.004101 0.012466 0.000000 0.000000 0.000000
# 4 0.000000 0.000000 0.000000 -0.274310 0.000000 0.000000
# 5 0.000000 0.000000 0.000000 0.000000 0.259607 0.000000
# 6 0.000000 0.000000 0.000000 0.000000 0.000000 0.045212
#
#
# Mechanical properties :
#
#
# Convention : Reuss Voigt Hill
#
# Bulk Modulus (GPa) = 27.40964 44.37002 35.88983
# Shear Modulus (GPa) = 56.88820 23.58951 40.23886
#
# Velocity S-wave (km/s) = 5.46162 3.51698 4.59339
# Velocity P-wave (km/s) = 7.35830 6.30536 6.85209
#
# Compressibility (1/GPa) = 0.03648352
#
# Stress axis : x y z
#
# Youngs Moduli (GPa) = 47.14025 139.41026 80.21851
#
# Poissons Ratio (x) = -0.24891 -0.01050
# Poissons Ratio (y) = -0.08417 0.32896
# Poissons Ratio (z) = -0.00617 0.57169
#
# Static dielectric constant tensor:
#      x y z
#    x 1.736630 0.000000 0.000000 
#    y 0.000000 1.690790 0.000000 
#    z 0.000000 0.000000 1.644530 
# 
# From -- ./inp_files/15678.got.cif
#   From: 2010.05.17/outbox.cif.g08.bks.cpg/sg47_8_cif.got.tgz:15678.got - 2010.06.03 20:15:42.
