data_PCOD9381311
_publ_section_title
;
Structure prediction by ZEFSAII (Michael W. Deem and Ramdas Pophale) SiO2 
 PCOD9381311
Probable space group: P M M M
;
_chemical_formula_sum "Si O2"
_cell_formula_units_Z 52
_cell_length_a 27.477612
_cell_length_b 13.058055
_cell_length_c 7.532939
_cell_angle_alpha 90.000000
_cell_angle_beta 90.000000
_cell_angle_gamma 90.000000
_cell_volume 2702.849916
_symmetry_space_group_name_H-M "P M M M"
_symmetry_group_IT_number 47
_symmetry_cell_setting 'orthorhombic'
loop_
_space_group_symop_operation_xyz
x,y,z
-x,-y,z
x,-y,-z
-x,y,-z
-x,-y,-z
x,y,-z
-x,y,z
x,-y,z
loop_
_atom_site_type_symbol
_atom_site_label
_atom_site_fract_x
_atom_site_fract_y
_atom_site_fract_z
Si Si1 0.170091 0.000000 0.282395
Si Si2 0.718116 0.000000 0.282323
Si Si3 0.000000 0.879965 0.283135
Si Si4 0.553913 0.880020 0.283904
Si Si5 0.104560 0.188826 0.710664
Si Si6 0.655889 0.194231 0.288877
Si Si7 0.832447 0.383830 0.213583
Si Si8 0.722979 0.384087 0.213380
O O1 0.140924 0.899407 0.221947
O O2 0.170790 0.000000 0.500000
O O3 0.225961 0.000000 0.224575
O O4 0.689487 0.898842 0.222024
O O5 0.718404 0.000000 0.500000
O O6 0.049911 0.827594 0.220352
O O7 0.000000 0.876333 0.500000
O O8 0.000000 0.000000 0.234867
O O9 0.552783 0.875497 0.500000
O O10 0.500000 0.848389 0.222210
O O11 0.600764 0.817259 0.220567
O O12 0.561033 0.000000 0.238587
O O13 0.101534 0.171725 0.500000
O O14 0.128248 0.299331 0.737338
O O15 0.652610 0.178922 0.500000
O O16 0.682879 0.300984 0.260541
O O17 0.842747 0.500000 0.274966
O O18 0.777671 0.355240 0.275499
O O19 0.830998 0.386697 0.000000
O O20 0.712751 0.500000 0.275634
O O21 0.724907 0.387348 0.000000
#
# Coordination Sequence:
#
# PCOD9381311 Si02
#       8
#     4   4   4   8   8   8   8   8
#     4   9  16  25  41  67  98 125 149 180 229 280
#     4   9  16  24  37  67 103 123 139 182 239 280
#     4   9  16  30  50  73 100 128 159 190 227 278
#     4   8  13  23  41  66  96 129 160 188 227 280
#     4  10  18  30  51  75  96 124 159 195 231 274
#     4  10  17  27  46  72  99 123 154 197 237 276
#     4   9  19  36  53  68  92 126 160 195 238 286
#     4   9  19  35  51  66  90 127 163 194 236 287
#
# _framework density 19.238952999999999
#
# number of rings (size 3 to 8) (size 9 to 14) (size 15 to 20)
#    0.000    2.846    1.538    2.308    0.000    2.462 
#    0.000    3.077    0.000    6.462    0.000    4.308 
#    0.000    0.000    0.000    0.000    0.000    0.000 
#
# Total GULP energy -290052.341179 kJ/mol
# GULP energy per Si atom -5577.929638 kJ/mol
# Density = 1.919516 g / cm^3
# Si number density = 19.238953 Si / 1000 Ang^3
#
#
#
# Elastic Constant Matrix: (Units=GPa)
#
#
# Indices 1 2 3 4 5 6 
#
# 1 227.7616 118.6804 7.9226 0.0000 0.0000 0.0000
# 2 118.6804 121.3714 -3.8211 0.0000 0.0000 0.0000
# 3 7.9226 -3.8211 43.3542 0.0000 0.0000 0.0000
# 4 0.0000 0.0000 0.0000 28.3242 0.0000 0.0000
# 5 0.0000 0.0000 0.0000 0.0000 18.1740 0.0000
# 6 0.0000 0.0000 0.0000 0.0000 0.0000 24.6311
#
#
#
# Elastic Compliance Matrix: (Units=1/GPa)
#
#
# Indices 1 2 3 4 5 6 
#
# 1 0.009211 -0.009085 -0.002484 0.000000 0.000000 0.000000
# 2 -0.009085 0.017223 0.003178 0.000000 0.000000 0.000000
# 3 -0.002484 0.003178 0.023800 0.000000 0.000000 0.000000
# 4 0.000000 0.000000 0.000000 0.035305 0.000000 0.000000
# 5 0.000000 0.000000 0.000000 0.000000 0.055024 0.000000
# 6 0.000000 0.000000 0.000000 0.000000 0.000000 0.040599
#
#
# Mechanical properties :
#
#
# Convention : Reuss Voigt Hill
#
# Bulk Modulus (GPa) = 29.89353 70.89456 50.39404
# Shear Modulus (GPa) = 23.91277 32.20622 28.05949
#
# Velocity S-wave (km/s) = 3.52935 4.09591 3.82314
# Velocity P-wave (km/s) = 5.67276 7.70052 6.76307
#
# Compressibility (1/GPa) = 0.03345206
#
# Stress axis : x y z
#
# Youngs Moduli (GPa) = 108.56843 58.06336 42.01713
#
# Poissons Ratio (x) = 0.52749 0.10437
# Poissons Ratio (y) = 0.98632 -0.13353
# Poissons Ratio (z) = 0.26967 -0.18453
#
# Static dielectric constant tensor:
#      x y z
#    x 1.683340 0.000000 0.000000 
#    y 0.000000 1.639660 0.000000 
#    z 0.000000 0.000000 1.733700 
# 
# From -- ./inp_files/13301.got.cif
#   From: 2010.05.17/outbox.cif.g08.bks.cpg/sg47_7_cif.got.tgz:13301.got - 2010.06.03 20:15:42.
