data_PCOD9381132
_publ_section_title
;
Structure prediction by ZEFSAII (Michael W. Deem and Ramdas Pophale) SiO2 
 PCOD9381132
Probable space group: I M A 2
;
_chemical_formula_sum "Si O2"
_cell_formula_units_Z 32
_cell_length_a 18.000000
_cell_length_b 15.000000
_cell_length_c 12.000000
_cell_angle_alpha 90.000000
_cell_angle_beta 90.000000
_cell_angle_gamma 90.000000
_cell_volume 3240.000000
_symmetry_space_group_name_H-M "I M A 2"
_symmetry_group_IT_number 46
_symmetry_cell_setting 'orthorhombic'
loop_
_space_group_symop_operation_xyz
x,y,z
-x,-y,z
1/2-x,y,z
1/2+x,-y,z
1/2+x,1/2+y,1/2+z
1/2-x,1/2-y,1/2+z
-x,1/2+y,1/2+z
x,1/2-y,1/2+z
loop_
_atom_site_type_symbol
_atom_site_label
_atom_site_fract_x
_atom_site_fract_y
_atom_site_fract_z
Si Si1 0.835570 0.583565 0.183030
Si Si2 0.971233 0.595677 0.762130
Si Si3 0.565149 0.849450 0.495225
Si Si4 0.166134 0.629108 0.536420
Si Si5 0.335399 0.432106 0.617495
Si Si6 0.666787 0.384304 0.273942
Si Si7 0.338314 0.311727 0.401405
Si Si8 0.944441 0.256775 0.149696
O O1 0.750000 0.607480 0.161492
O O2 0.881614 0.593122 0.072137
O O3 0.838859 0.483199 0.225953
O O4 0.862081 0.648191 0.282620
O O5 0.890120 0.606775 0.708625
O O6 0.000000 0.500000 0.721063
O O7 0.019070 0.678760 0.721992
O O8 0.969404 0.596535 0.894477
O O9 0.613357 0.771330 0.438698
O O10 0.504808 0.807516 0.576964
O O11 0.250000 0.657582 0.561490
O O12 0.152630 0.537519 0.602439
O O13 0.160899 0.608302 0.406336
O O14 0.110478 0.706080 0.566827
O O15 0.250000 0.416167 0.647987
O O16 0.348183 0.385776 0.498052
O O17 0.750000 0.349489 0.247902
O O18 0.603222 0.322741 0.225059
O O19 0.250000 0.291815 0.396527
#
# Coordination Sequence:
#
# PCOD9381132 Si02
#       8
#     8   8   8   8   8   8   8   8
#     4  10  22  42  67  93 124 165 212 263 318 376
#     4  12  26  44  61  91 135 170 206 262 312 380
#     4  12  26  40  60  91 133 172 208 250 319 385
#     4  10  20  40  67  92 119 156 212 267 314 375
#     4  10  20  40  68  93 118 162 211 260 317 374
#     4  10  22  42  66  93 124 161 216 272 313 373
#     4  10  20  39  67  96 121 154 211 271 317 373
#     4  12  24  41  64  92 124 172 211 260 322 375
#
# _framework density 9.8765429999999999
#
# number of rings (size 3 to 8) (size 9 to 14) (size 15 to 20)
#    0.000    1.250    3.750    2.250    1.750    1.000 
#    0.000    1.250    0.000    0.000    0.000    0.000 
#    0.000    0.000    0.000    0.000    0.000    0.000 
#
# Total GULP energy -178759.363081 kJ/mol
# GULP energy per Si atom -5586.230096 kJ/mol
# Density = 0.985406 g / cm^3
# Si number density = 9.876543 Si / 1000 Ang^3
#
#
#
# Elastic Constant Matrix: (Units=GPa)
#
#
# Indices 1 2 3 4 5 6 
#
# 1 50.9486 26.6419 53.1908 0.0000 0.0000 0.0000
# 2 26.6419 17.2771 20.6303 0.0000 0.0000 0.0000
# 3 53.1908 20.6303 88.6736 0.0000 0.0000 0.0000
# 4 0.0000 0.0000 0.0000 10.0154 0.0000 0.0000
# 5 0.0000 0.0000 0.0000 0.0000 30.9148 0.0000
# 6 0.0000 0.0000 0.0000 0.0000 0.0000 17.3467
#
#
#
# Elastic Compliance Matrix: (Units=1/GPa)
#
#
# Indices 1 2 3 4 5 6 
#
# 1 0.366424 -0.418976 -0.122323 0.000000 0.000000 0.000000
# 2 -0.418976 0.559210 0.121220 0.000000 0.000000 0.000000
# 3 -0.122323 0.121220 0.056450 0.000000 0.000000 0.000000
# 4 0.000000 0.000000 0.000000 0.099847 0.000000 0.000000
# 5 0.000000 0.000000 0.000000 0.000000 0.032347 0.000000
# 6 0.000000 0.000000 0.000000 0.000000 0.000000 0.057648
#
#
# Mechanical properties :
#
#
# Convention : Reuss Voigt Hill
#
# Bulk Modulus (GPa) = 7.04589 39.75837 23.40213
# Shear Modulus (GPa) = 2.42790 15.41781 8.92286
#
# Velocity S-wave (km/s) = 1.10986 2.79682 2.12768
# Velocity P-wave (km/s) = 2.28410 5.53182 4.23191
#
# Compressibility (1/GPa) = 0.14192674
#
# Stress axis : x y z
#
# Youngs Moduli (GPa) = 2.72908 1.78824 17.71475
#
# Poissons Ratio (x) = 0.74923 2.16691
# Poissons Ratio (y) = 1.14342 -2.14738
# Poissons Ratio (z) = 0.33383 -0.21677
#
# Static dielectric constant tensor:
#      x y z
#    x 1.679360 0.000000 0.000000 
#    y 0.000000 1.683650 0.000000 
#    z 0.000000 0.000000 1.661310 
# 
# From -- ./inp_files/11956.got.cif
#   From: 2010.05.17/outbox.ucp.g08.bks.cvg/sg46_6_cif.got.tgz:11956.got - 2010.06.11 16:34:52.
