data_PCOD9381410
_publ_section_title
;
Structure prediction by ZEFSAII (Michael W. Deem and Ramdas Pophale) SiO2 
 PCOD9381410
Probable space group: P M M M
;
_chemical_formula_sum "Si O2"
_cell_formula_units_Z 48
_cell_length_a 7.347194
_cell_length_b 26.908227
_cell_length_c 12.256111
_cell_angle_alpha 90.000000
_cell_angle_beta 90.000000
_cell_angle_gamma 90.000000
_cell_volume 2423.032703
_symmetry_space_group_name_H-M "P M M M"
_symmetry_group_IT_number 47
_symmetry_cell_setting 'orthorhombic'
loop_
_space_group_symop_operation_xyz
x,y,z
-x,-y,z
x,-y,-z
-x,y,-z
-x,-y,-z
x,y,-z
-x,y,z
x,-y,z
loop_
_atom_site_type_symbol
_atom_site_label
_atom_site_fract_x
_atom_site_fract_y
_atom_site_fract_z
Si Si1 0.287496 0.253849 0.270687
Si Si2 0.780063 0.650017 0.124455
Si Si3 0.721119 0.294446 0.500000
Si Si4 0.787727 0.588037 0.500000
Si Si5 0.722745 0.162555 0.127028
Si Si6 0.777574 0.444475 0.263122
Si Si7 0.719244 0.946609 0.869919
O O1 0.500000 0.242667 0.288143
O O2 0.274202 0.302501 0.195310
O O3 0.213231 0.268014 0.389540
O O4 0.212635 0.206970 0.204041
O O5 0.718533 0.599526 0.183297
O O6 0.000000 0.649226 0.123117
O O7 0.716966 0.653792 0.000000
O O8 0.500000 0.294295 0.500000
O O9 0.774481 0.352322 0.500000
O O10 0.713971 0.567321 0.613796
O O11 0.000000 0.573928 0.500000
O O12 0.500000 0.162940 0.125882
O O13 0.781277 0.107730 0.167578
O O14 0.777040 0.169467 0.000000
O O15 0.723576 0.500000 0.230602
O O16 0.000000 0.443164 0.263900
O O17 0.500000 0.947001 0.857504
O O18 0.786163 0.000000 0.826154
O O19 0.755259 0.946668 0.000000
#
# Coordination Sequence:
#
# PCOD9381410 Si02
#       7
#     8   8   4   4   8   8   8
#     4  10  19  31  46  63  86 116 148 179 214 255
#     4  10  20  32  47  68  91 114 141 173 210 254
#     4  10  20  31  45  65  87 112 144 181 216 252
#     4  10  17  30  52  70  84 107 141 178 216 256
#     4   8  13  21  35  56  80 108 141 172 206 252
#     4   9  17  29  47  70  90 108 136 174 213 254
#     4   7   9  14  26  47  76 105 132 167 208 244
#
# _framework density 19.809885999999999
#
# number of rings (size 3 to 8) (size 9 to 14) (size 15 to 20)
#    0.000    3.000    1.667    2.250    0.000    2.333 
#    0.000    1.667    0.000    2.500    0.000    1.750 
#    0.000    5.333    0.000    6.167    0.000    8.000 
#
# Total GULP energy -267704.740487 kJ/mol
# GULP energy per Si atom -5577.182093 kJ/mol
# Density = 1.976480 g / cm^3
# Si number density = 19.809886 Si / 1000 Ang^3
#
#
#
# Elastic Constant Matrix: (Units=GPa)
#
#
# Indices 1 2 3 4 5 6 
#
# 1 69.0474 -12.2445 -5.9336 0.0000 0.0000 0.0000
# 2 -12.2445 195.2526 69.6600 0.0000 0.0000 0.0000
# 3 -5.9336 69.6600 114.6805 0.0000 0.0000 0.0000
# 4 0.0000 0.0000 0.0000 -33.0102 0.0000 0.0000
# 5 0.0000 0.0000 0.0000 0.0000 -5.9202 0.0000
# 6 0.0000 0.0000 0.0000 0.0000 0.0000 13.0244
#
#
#
# Elastic Compliance Matrix: (Units=1/GPa)
#
#
# Indices 1 2 3 4 5 6 
#
# 1 0.014652 0.000828 0.000255 0.000000 0.000000 0.000000
# 2 0.000828 0.006585 -0.003957 0.000000 0.000000 0.000000
# 3 0.000255 -0.003957 0.011137 0.000000 0.000000 0.000000
# 4 0.000000 0.000000 0.000000 -0.030294 0.000000 0.000000
# 5 0.000000 0.000000 0.000000 0.000000 -0.168913 0.000000
# 6 0.000000 0.000000 0.000000 0.000000 0.000000 0.076779
#
#
# Mechanical properties :
#
#
# Convention : Reuss Voigt Hill
#
# Bulk Modulus (GPa) = 37.55842 53.54935 45.55389
# Shear Modulus (GPa) = -66.28646 16.65204 -24.81721
#
# Velocity S-wave (km/s) = -5.79085 2.90244 -3.54329
# Velocity P-wave (km/s) = 5.07063 6.19052 2.51110
#
# Compressibility (1/GPa) = 0.02662519
#
# Stress axis : x y z
#
# Youngs Moduli (GPa) = 68.25227 151.85328 89.79214
#
# Poissons Ratio (x) = -0.12569 -0.02292
# Poissons Ratio (y) = -0.05650 0.35533
# Poissons Ratio (z) = -0.01742 0.60092
#
# Static dielectric constant tensor:
#      x y z
#    x 1.841710 0.000000 0.000000 
#    y 0.000000 1.704960 0.000000 
#    z 0.000000 0.000000 1.662720 
# 
# From -- ./inp_files/16658.got.cif
#   From: 2010.05.17/outbox.cif.g08.bks.cpg/sg47_9_cif.got.tgz:16658.got - 2010.06.03 20:15:42.
