data_PCOD9381342
_publ_section_title
;
Structure prediction by ZEFSAII (Michael W. Deem and Ramdas Pophale) SiO2 
 PCOD9381342
Probable space group: P M M M
;
_chemical_formula_sum "Si O2"
_cell_formula_units_Z 64
_cell_length_a 32.317603
_cell_length_b 14.883913
_cell_length_c 7.853265
_cell_angle_alpha 90.000000
_cell_angle_beta 90.000000
_cell_angle_gamma 90.000000
_cell_volume 3777.517778
_symmetry_space_group_name_H-M "P M M M"
_symmetry_group_IT_number 47
_symmetry_cell_setting 'orthorhombic'
loop_
_space_group_symop_operation_xyz
x,y,z
-x,-y,z
x,-y,-z
-x,y,-z
-x,-y,-z
x,y,-z
-x,y,z
x,-y,z
loop_
_atom_site_type_symbol
_atom_site_label
_atom_site_fract_x
_atom_site_fract_y
_atom_site_fract_z
Si Si1 0.365368 0.397354 0.201394
Si Si2 0.795185 0.603572 0.708565
Si Si3 0.714916 0.712483 0.703352
Si Si4 0.124715 0.284043 0.295072
Si Si5 0.544591 0.605036 0.705009
Si Si6 0.742861 0.099651 0.298733
Si Si7 0.837390 0.100635 0.202957
Si Si8 0.046826 0.603366 0.292072
O O1 0.362865 0.500000 0.272764
O O2 0.328383 0.336024 0.266543
O O3 0.411187 0.358784 0.237374
O O4 0.360737 0.403756 0.000000
O O5 0.795179 0.603693 0.500000
O O6 0.796795 0.500000 0.762471
O O7 0.753173 0.652045 0.767265
O O8 0.835362 0.659249 0.764806
O O9 0.720732 0.718831 0.500000
O O10 0.718987 0.813952 0.772576
O O11 0.124421 0.290479 0.500000
O O12 0.131957 0.180544 0.249961
O O13 0.082471 0.329555 0.232272
O O14 0.544560 0.606894 0.500000
O O15 0.500000 0.643254 0.762754
O O16 0.544819 0.500000 0.758668
O O17 0.733768 0.094219 0.500000
O O18 0.791924 0.118380 0.280112
O O19 0.735037 0.000000 0.224741
O O20 0.850189 0.000000 0.257462
O O21 0.832390 0.100183 0.000000
O O22 0.046819 0.604926 0.500000
O O23 0.055940 0.500000 0.243235
O O24 0.000000 0.625328 0.237294
#
# Coordination Sequence:
#
# PCOD9381342 Si02
#       8
#     8   8   8   8   8   8   8   8
#     4  10  20  30  40  59  89 124 157 187 221 259
#     4   9  16  25  39  62  88 114 146 179 209 248
#     4  10  18  29  44  62  86 118 150 180 217 262
#     4  10  17  28  47  69  90 115 149 184 217 257
#     4   8  14  26  44  63  82 109 149 193 231 266
#     4   9  17  31  50  69  87 109 145 190 229 265
#     4  10  20  32  46  65  89 115 143 180 227 272
#     4   8  14  25  44  72 100 120 141 177 224 267
#
# _framework density 16.942343000000001
#
# number of rings (size 3 to 8) (size 9 to 14) (size 15 to 20)
#    0.000    2.750    1.250    2.250    0.000    4.250 
#    0.000    1.250    0.000    2.250    0.000    3.500 
#    0.000    0.500    0.000    5.750    0.000    1.875 
#
# Total GULP energy -356615.059816 kJ/mol
# GULP energy per Si atom -5572.110310 kJ/mol
# Density = 1.690378 g / cm^3
# Si number density = 16.942343 Si / 1000 Ang^3
#
#
#
# Elastic Constant Matrix: (Units=GPa)
#
#
# Indices 1 2 3 4 5 6 
#
# 1 126.7042 82.5857 -0.8190 0.0000 0.0000 0.0000
# 2 82.5857 126.2641 4.3749 0.0000 0.0000 0.0000
# 3 -0.8190 4.3749 14.9607 0.0000 0.0000 0.0000
# 4 0.0000 0.0000 0.0000 4.8525 0.0000 0.0000
# 5 0.0000 0.0000 0.0000 0.0000 -33.6511 0.0000
# 6 0.0000 0.0000 0.0000 0.0000 0.0000 9.9695
#
#
#
# Elastic Compliance Matrix: (Units=1/GPa)
#
#
# Indices 1 2 3 4 5 6 
#
# 1 0.013933 -0.009233 0.003463 0.000000 0.000000 0.000000
# 2 -0.009233 0.014120 -0.004634 0.000000 0.000000 0.000000
# 3 0.003463 -0.004634 0.068387 0.000000 0.000000 0.000000
# 4 0.000000 0.000000 0.000000 0.206081 0.000000 0.000000
# 5 0.000000 0.000000 0.000000 0.000000 -0.029717 0.000000
# 6 0.000000 0.000000 0.000000 0.000000 0.000000 0.100306
#
#
# Mechanical properties :
#
#
# Convention : Reuss Voigt Hill
#
# Bulk Modulus (GPa) = 13.22233 48.91248 31.06740
# Shear Modulus (GPa) = 11.92951 8.35333 10.14142
#
# Velocity S-wave (km/s) = 2.65641 2.22287 2.44925
# Velocity P-wave (km/s) = 4.15090 5.95994 5.13570
#
# Compressibility (1/GPa) = 0.07562966
#
# Stress axis : x y z
#
# Youngs Moduli (GPa) = 71.77258 70.82361 14.62272
#
# Poissons Ratio (x) = 0.65392 -0.05063
# Poissons Ratio (y) = 0.66268 0.06777
# Poissons Ratio (z) = -0.24853 0.32823
#
# Static dielectric constant tensor:
#      x y z
#    x 1.572720 0.000000 0.000000 
#    y 0.000000 1.587650 0.000000 
#    z 0.000000 0.000000 1.615320 
# 
# From -- ./inp_files/14277.got.cif
#   From: 2010.05.17/outbox.cif.g08.bks.cpg/sg47_8_cif.got.tgz:14277.got - 2010.06.03 20:15:42.
