data_PCOD9381504
_publ_section_title
;
Structure prediction by ZEFSAII (Michael W. Deem and Ramdas Pophale) SiO2 
 PCOD9381504
Probable space group: P M M M
;
_chemical_formula_sum "Si O2"
_cell_formula_units_Z 64
_cell_length_a 7.633205
_cell_length_b 22.364875
_cell_length_c 19.533271
_cell_angle_alpha 90.000000
_cell_angle_beta 90.000000
_cell_angle_gamma 90.000000
_cell_volume 3334.635557
_symmetry_space_group_name_H-M "P M M M"
_symmetry_group_IT_number 47
_symmetry_cell_setting 'orthorhombic'
loop_
_space_group_symop_operation_xyz
x,y,z
-x,-y,z
x,-y,-z
-x,y,-z
-x,-y,-z
x,y,-z
-x,y,z
x,-y,z
loop_
_atom_site_type_symbol
_atom_site_label
_atom_site_fract_x
_atom_site_fract_y
_atom_site_fract_z
Si Si1 0.787565 0.565514 0.128546
Si Si2 0.704397 0.276388 0.576863
Si Si3 0.289484 0.826259 0.324590
Si Si4 0.288529 0.734828 0.219590
Si Si5 0.200887 0.588252 0.575125
Si Si6 0.790202 0.931882 0.576220
Si Si7 0.293626 0.307216 0.074138
Si Si8 0.789722 0.394530 0.721789
O O1 0.733037 0.500000 0.104507
O O2 0.723030 0.621655 0.085608
O O3 0.729879 0.575317 0.207553
O O4 0.000000 0.567783 0.128044
O O5 0.707171 0.252881 0.500000
O O6 0.500000 0.288769 0.594694
O O7 0.776787 0.224969 0.624055
O O8 0.799381 0.339520 0.576873
O O9 0.500000 0.823855 0.323742
O O10 0.230586 0.797947 0.252242
O O11 0.248162 0.888938 0.359914
O O12 0.500000 0.735312 0.216150
O O13 0.218826 0.721902 0.143430
O O14 0.245898 0.676504 0.266553
O O15 0.278844 0.571879 0.500000
O O16 0.279580 0.576940 0.650690
O O17 0.000000 0.567155 0.574378
O O18 0.727081 0.911377 0.500000
O O19 0.000000 0.934127 0.572060
O O20 0.726583 0.000000 0.586303
O O21 0.500000 0.292689 0.072705
O O22 0.218129 0.290939 0.000000
O O23 0.000000 0.401232 0.718342
#
# Coordination Sequence:
#
# PCOD9381504 Si02
#       8
#     8   8   8   8   8   8   8   8
#     4   9  18  31  46  64  85 112 146 180 214 253
#     4   9  16  24  34  52  79 106 131 162 203 249
#     4  10  18  27  42  63  86 112 144 182 219 256
#     4   9  17  29  44  63  87 112 138 170 211 259
#     4   9  16  24  35  53  76 101 131 168 209 251
#     4   9  19  34  47  60  84 121 161 194 222 252
#     4   9  18  32  49  68  91 117 141 168 207 257
#     4   9  16  27  42  58  80 109 140 176 216 258
#
# _framework density 19.192502999999999
#
# number of rings (size 3 to 8) (size 9 to 14) (size 15 to 20)
#    0.000    2.875    1.250    0.750    0.000    2.750 
#    0.000    3.125    0.000    0.375    0.000    2.625 
#    0.000    0.500    0.000   15.625    0.000   10.750 
#
# Total GULP energy -356446.103346 kJ/mol
# GULP energy per Si atom -5569.470365 kJ/mol
# Density = 1.914882 g / cm^3
# Si number density = 19.192503 Si / 1000 Ang^3
#
#
#
# Elastic Constant Matrix: (Units=GPa)
#
#
# Indices 1 2 3 4 5 6 
#
# 1 39.8564 1.4927 9.4286 0.0000 0.0000 0.0000
# 2 1.4927 90.8850 41.0679 0.0000 0.0000 0.0000
# 3 9.4286 41.0679 136.9702 0.0000 0.0000 0.0000
# 4 0.0000 0.0000 0.0000 0.5662 0.0000 0.0000
# 5 0.0000 0.0000 0.0000 0.0000 9.4122 0.0000
# 6 0.0000 0.0000 0.0000 0.0000 0.0000 -145.8307
#
#
#
# Elastic Compliance Matrix: (Units=1/GPa)
#
#
# Indices 1 2 3 4 5 6 
#
# 1 0.025520 0.000433 -0.001887 0.000000 0.000000 0.000000
# 2 0.000433 0.012735 -0.003848 0.000000 0.000000 0.000000
# 3 -0.001887 -0.003848 0.008585 0.000000 0.000000 0.000000
# 4 0.000000 0.000000 0.000000 1.766165 0.000000 0.000000
# 5 0.000000 0.000000 0.000000 0.000000 0.106245 0.000000
# 6 0.000000 0.000000 0.000000 0.000000 0.000000 -0.006857
#
#
# Mechanical properties :
#
#
# Convention : Reuss Voigt Hill
#
# Bulk Modulus (GPa) = 27.59643 41.29890 34.44767
# Shear Modulus (GPa) = 2.58388 -12.78897 -5.10255
#
# Velocity S-wave (km/s) = 1.16156 -2.58418 -1.63229
# Velocity P-wave (km/s) = 4.02603 3.55823 3.79934
#
# Compressibility (1/GPa) = 0.03623657
#
# Stress axis : x y z
#
# Youngs Moduli (GPa) = 39.18467 78.52614 116.48897
#
# Poissons Ratio (x) = -0.03403 0.21978
# Poissons Ratio (y) = -0.01698 0.44826
# Poissons Ratio (z) = 0.07393 0.30217
#
# Static dielectric constant tensor:
#      x y z
#    x 1.734630 0.000000 0.000000 
#    y 0.000000 1.663160 0.000000 
#    z 0.000000 0.000000 1.754380 
# 
# From -- ./inp_files/30111.got.cif
#   From: 2010.05.17/outbox.cif.g08.bks.cpg/sg47_16_cif.got.tgz:30111.got - 2010.06.03 20:15:42.
