data_PCOD9381561
_publ_section_title
;
Structure prediction by ZEFSAII (Michael W. Deem and Ramdas Pophale) SiO2 
 PCOD9381561
Probable space group: P M M M
;
_chemical_formula_sum "Si O2"
_cell_formula_units_Z 40
_cell_length_a 7.524889
_cell_length_b 18.972623
_cell_length_c 19.536663
_cell_angle_alpha 90.000000
_cell_angle_beta 90.000000
_cell_angle_gamma 90.000000
_cell_volume 2789.188463
_symmetry_space_group_name_H-M "P M M M"
_symmetry_group_IT_number 47
_symmetry_cell_setting 'orthorhombic'
loop_
_space_group_symop_operation_xyz
x,y,z
-x,-y,z
x,-y,-z
-x,y,-z
-x,-y,-z
x,y,-z
-x,y,z
x,-y,z
loop_
_atom_site_type_symbol
_atom_site_label
_atom_site_fract_x
_atom_site_fract_y
_atom_site_fract_z
Si Si1 0.288349 0.075798 0.082628
Si Si2 0.211477 0.633082 0.834064
Si Si3 0.790329 0.584591 0.687583
Si Si4 0.285981 0.229512 0.078551
Si Si5 0.500000 0.585390 0.577708
Si Si6 0.217931 0.500000 0.078489
O O1 0.500000 0.074797 0.097057
O O2 0.219394 0.152690 0.103691
O O3 0.215615 0.000000 0.107032
O O4 0.270194 0.076260 0.000000
O O5 0.274742 0.623540 0.756332
O O6 0.242820 0.706920 0.871124
O O7 0.278816 0.569587 0.881674
O O8 0.000000 0.622693 0.829238
O O9 0.770888 0.500000 0.699535
O O10 0.672415 0.604658 0.622412
O O11 0.000000 0.597847 0.676402
O O12 0.500000 0.224772 0.074903
O O13 0.223573 0.242620 0.000000
O O14 0.500000 0.500000 0.574130
O O15 0.500000 0.612139 0.500000
O O16 0.000000 0.500000 0.078137
O O17 0.275233 0.500000 0.000000
#
# Coordination Sequence:
#
# PCOD9381561 Si02
#       6
#     8   8   8   8   4   4
#     4   7  10  19  35  51  67  90 121 158 201 246
#     4  10  18  28  40  53  71 101 136 166 203 243
#     4   9  17  30  45  60  80 107 136 164 198 244
#     4   9  17  26  36  54  76  96 127 173 213 241
#     4   9  18  30  46  68  84  98 125 162 205 245
#     4   9  16  26  39  51  65  94 138 177 202 232
#
# _framework density 14.341089999999999
#
# number of rings (size 3 to 8) (size 9 to 14) (size 15 to 20)
#    0.000    3.200    1.000    2.400    1.400    1.600 
#    0.000    2.500    0.000    2.400    0.000    2.800 
#    0.000    0.000    0.000    0.000    0.000    2.000 
#
# Total GULP energy -222672.678212 kJ/mol
# GULP energy per Si atom -5566.816955 kJ/mol
# Density = 1.430845 g / cm^3
# Si number density = 14.341090 Si / 1000 Ang^3
#
#
#
# Elastic Constant Matrix: (Units=GPa)
#
#
# Indices 1 2 3 4 5 6 
#
# 1 46.9915 12.4737 30.2704 0.0000 0.0000 0.0000
# 2 12.4737 106.1072 54.0854 0.0000 0.0000 0.0000
# 3 30.2704 54.0854 113.9795 0.0000 0.0000 0.0000
# 4 0.0000 0.0000 0.0000 2.7823 0.0000 0.0000
# 5 0.0000 0.0000 0.0000 0.0000 19.2103 0.0000
# 6 0.0000 0.0000 0.0000 0.0000 0.0000 21.3994
#
#
#
# Elastic Compliance Matrix: (Units=1/GPa)
#
#
# Indices 1 2 3 4 5 6 
#
# 1 0.025702 0.000604 -0.007112 0.000000 0.000000 0.000000
# 2 0.000604 0.012445 -0.006066 0.000000 0.000000 0.000000
# 3 -0.007112 -0.006066 0.013541 0.000000 0.000000 0.000000
# 4 0.000000 0.000000 0.000000 0.359415 0.000000 0.000000
# 5 0.000000 0.000000 0.000000 0.000000 0.052055 0.000000
# 6 0.000000 0.000000 0.000000 0.000000 0.000000 0.046730
#
#
# Mechanical properties :
#
#
# Convention : Reuss Voigt Hill
#
# Bulk Modulus (GPa) = 37.68028 51.19303 44.43666
# Shear Modulus (GPa) = 9.19315 20.02831 14.61073
#
# Velocity S-wave (km/s) = 2.53461 3.74112 3.19533
# Velocity P-wave (km/s) = 5.90738 7.37805 6.68329
#
# Compressibility (1/GPa) = 0.02653908
#
# Stress axis : x y z
#
# Youngs Moduli (GPa) = 38.90792 80.35087 73.85085
#
# Poissons Ratio (x) = -0.04852 0.52525
# Poissons Ratio (y) = -0.02350 0.44798
# Poissons Ratio (z) = 0.27673 0.48741
#
# Static dielectric constant tensor:
#      x y z
#    x 1.538290 0.000000 0.000000 
#    y 0.000000 1.502560 0.000000 
#    z 0.000000 0.000000 1.451700 
# 
# From -- ./inp_files/9386.got.cif
#   From: 2010.05.17/outbox.cif.g08.bks.cpg/sg47_5_cif.got.tgz:9386.got - 2010.06.03 20:15:42.
