data_PCOD9381515
_publ_section_title
;
Structure prediction by ZEFSAII (Michael W. Deem and Ramdas Pophale) SiO2 
 PCOD9381515
Probable space group: P M M M
;
_chemical_formula_sum "Si O2"
_cell_formula_units_Z 64
_cell_length_a 24.668371
_cell_length_b 19.740682
_cell_length_c 8.003823
_cell_angle_alpha 90.000000
_cell_angle_beta 90.000000
_cell_angle_gamma 90.000000
_cell_volume 3897.625427
_symmetry_space_group_name_H-M "P M M M"
_symmetry_group_IT_number 47
_symmetry_cell_setting 'orthorhombic'
loop_
_space_group_symop_operation_xyz
x,y,z
-x,-y,z
x,-y,-z
-x,y,-z
-x,-y,-z
x,y,-z
-x,y,z
x,-y,z
loop_
_atom_site_type_symbol
_atom_site_label
_atom_site_fract_x
_atom_site_fract_y
_atom_site_fract_z
Si Si1 0.060173 0.715344 0.801332
Si Si2 0.227221 0.923398 0.202073
Si Si3 0.110252 0.575765 0.303601
Si Si4 0.561251 0.921905 0.704010
Si Si5 0.334429 0.157334 0.298406
Si Si6 0.271416 0.285855 0.300516
Si Si7 0.163884 0.205560 0.201678
Si Si8 0.233759 0.424650 0.801874
O O1 0.078810 0.637830 0.777372
O O2 0.107732 0.763705 0.732761
O O3 0.000000 0.725965 0.731087
O O4 0.057710 0.727631 0.000000
O O5 0.285481 0.893360 0.253177
O O6 0.182408 0.868877 0.260430
O O7 0.219881 0.000000 0.262872
O O8 0.225536 0.924383 0.000000
O O9 0.098032 0.576618 0.500000
O O10 0.097817 0.500000 0.237703
O O11 0.174829 0.586087 0.280669
O O12 0.561614 0.920851 0.500000
O O13 0.500000 0.904356 0.756831
O O14 0.608741 0.872525 0.763543
O O15 0.572241 0.000000 0.752864
O O16 0.337296 0.160141 0.500000
O O17 0.316012 0.231821 0.238046
O O18 0.273308 0.286063 0.500000
O O19 0.213395 0.255231 0.246503
O O20 0.273012 0.362868 0.240611
O O21 0.160830 0.203641 0.000000
O O22 0.252931 0.500000 0.753173
O O23 0.224376 0.423992 0.000000
#
# Coordination Sequence:
#
# PCOD9381515 Si02
#       8
#     8   8   8   8   8   8   8   8
#     4  10  20  32  46  62  80 107 143 178 209 249
#     4   9  17  28  43  63  85 110 140 175 216 258
#     4  10  20  32  46  64  85 108 135 170 209 248
#     4   8  13  22  38  60  87 121 157 186 209 237
#     4   9  17  27  41  64  91 116 145 181 214 247
#     4  10  18  27  42  64  88 111 137 173 215 253
#     4   9  17  30  45  59  80 109 138 170 210 256
#     4  10  19  30  45  63  84 112 142 169 203 252
#
# _framework density 16.420252999999999
#
# number of rings (size 3 to 8) (size 9 to 14) (size 15 to 20)
#    0.000    2.625    1.250    1.875    0.000    3.250 
#    0.000    1.250    0.000    0.750    0.000    4.375 
#    0.000    0.500    0.000   13.625    0.000    8.750 
#
# Total GULP energy -356673.127042 kJ/mol
# GULP energy per Si atom -5573.017610 kJ/mol
# Density = 1.638288 g / cm^3
# Si number density = 16.420253 Si / 1000 Ang^3
#
#
#
# Elastic Constant Matrix: (Units=GPa)
#
#
# Indices 1 2 3 4 5 6 
#
# 1 103.3660 64.5579 7.7560 0.0000 0.0000 0.0000
# 2 64.5579 126.2330 6.5527 0.0000 0.0000 0.0000
# 3 7.7560 6.5527 11.5590 0.0000 0.0000 0.0000
# 4 0.0000 0.0000 0.0000 12.9964 0.0000 0.0000
# 5 0.0000 0.0000 0.0000 0.0000 11.7706 0.0000
# 6 0.0000 0.0000 0.0000 0.0000 0.0000 23.1715
#
#
#
# Elastic Compliance Matrix: (Units=1/GPa)
#
#
# Indices 1 2 3 4 5 6 
#
# 1 0.014573 -0.007156 -0.005722 0.000000 0.000000 0.000000
# 2 -0.007156 0.011676 -0.001817 0.000000 0.000000 0.000000
# 3 -0.005722 -0.001817 0.091382 0.000000 0.000000 0.000000
# 4 0.000000 0.000000 0.000000 0.076944 0.000000 0.000000
# 5 0.000000 0.000000 0.000000 0.000000 0.084958 0.000000
# 6 0.000000 0.000000 0.000000 0.000000 0.000000 0.043157
#
#
# Mechanical properties :
#
#
# Convention : Reuss Voigt Hill
#
# Bulk Modulus (GPa) = 11.33264 44.32125 27.82694
# Shear Modulus (GPa) = 13.10642 20.40713 16.75678
#
# Velocity S-wave (km/s) = 2.82828 3.52916 3.19798
# Velocity P-wave (km/s) = 4.19311 6.60735 5.53350
#
# Compressibility (1/GPa) = 0.08824071
#
# Stress axis : x y z
#
# Youngs Moduli (GPa) = 68.62045 85.64706 10.94308
#
# Poissons Ratio (x) = 0.61288 0.06261
# Poissons Ratio (y) = 0.49104 0.01989
# Poissons Ratio (z) = 0.39263 0.15565
#
# Static dielectric constant tensor:
#      x y z
#    x 1.546860 0.000000 0.000000 
#    y 0.000000 1.584550 0.000000 
#    z 0.000000 0.000000 1.593230 
# 
# From -- ./inp_files/12928.got.cif
#   From: 2010.05.17/outbox.cif.g08.bks.cpg/sg47_7_cif.got.tgz:12928.got - 2010.06.03 20:15:42.
