data_PCOD9381076
_publ_section_title
;
Structure prediction by ZEFSAII (Michael W. Deem and Ramdas Pophale) SiO2 
 PCOD9381076
Probable space group: I M A 2
;
_chemical_formula_sum "Si O2"
_cell_formula_units_Z 32
_cell_length_a 9.000000
_cell_length_b 18.000000
_cell_length_c 24.000000
_cell_angle_alpha 90.000000
_cell_angle_beta 90.000000
_cell_angle_gamma 90.000000
_cell_volume 3888.000000
_symmetry_space_group_name_H-M "I M A 2"
_symmetry_group_IT_number 46
_symmetry_cell_setting 'orthorhombic'
loop_
_space_group_symop_operation_xyz
x,y,z
-x,-y,z
1/2-x,y,z
1/2+x,-y,z
1/2+x,1/2+y,1/2+z
1/2-x,1/2-y,1/2+z
-x,1/2+y,1/2+z
x,1/2-y,1/2+z
loop_
_atom_site_type_symbol
_atom_site_label
_atom_site_fract_x
_atom_site_fract_y
_atom_site_fract_z
Si Si1 0.572221 0.705573 0.156340
Si Si2 0.926930 0.146655 0.103101
Si Si3 0.070103 0.763304 0.392024
Si Si4 0.073713 0.924570 0.442442
Si Si5 0.429048 0.296429 0.500140
Si Si6 0.572738 0.077628 0.219467
Si Si7 0.571296 0.148572 0.555589
Si Si8 0.928401 0.726369 0.771972
O O1 0.750000 0.706953 0.147225
O O2 0.496314 0.780171 0.132186
O O3 0.498408 0.642395 0.117316
O O4 0.545673 0.712891 0.222576
O O5 0.750000 0.155635 0.094218
O O6 0.948457 0.086855 0.152295
O O7 0.008235 0.141347 0.043229
O O8 0.250000 0.756965 0.393471
O O9 0.030414 0.848080 0.411294
O O10 0.997270 0.708284 0.437991
O O11 0.005349 0.752895 0.330226
O O12 0.250000 0.931132 0.436207
O O13 0.042100 0.913187 0.508549
O O14 0.000000 0.000000 0.421719
O O15 0.250000 0.296806 0.499206
O O16 0.493312 0.220762 0.527982
O O17 0.750000 0.079197 0.230129
O O18 0.496601 0.148105 0.249880
O O19 0.500000 0.000000 0.237284
O O20 0.750000 0.159164 0.558894
O O21 0.750000 0.718705 0.778474
#
# Coordination Sequence:
#
# PCOD9381076 Si02
#       8
#     8   8   8   8   8   8   8   8
#     4   9  16  26  42  63  83 105 135 173 216 258
#     4   9  16  27  43  62  83 108 138 174 218 262
#     4  10  20  33  45  60  85 116 150 182 215 255
#     4   9  19  31  43  60  82 111 145 179 210 246
#     4  10  17  26  43  64  83 106 137 175 220 260
#     4  10  20  32  46  63  86 118 152 184 218 255
#     4   9  16  27  42  61  83 106 136 173 214 259
#     4  10  20  32  45  63  87 114 148 184 216 255
#
# _framework density 8.2304530000000007
#
# number of rings (size 3 to 8) (size 9 to 14) (size 15 to 20)
#    0.000    2.500    0.000    5.625    0.000    6.500 
#    0.000    1.250    0.000    0.000    0.000    0.000 
#    0.000    1.000    0.000    5.000    0.000    5.625 
#
# Total GULP energy -178140.216455 kJ/mol
# GULP energy per Si atom -5566.881764 kJ/mol
# Density = 0.821172 g / cm^3
# Si number density = 8.230453 Si / 1000 Ang^3
#
#
#
# Elastic Constant Matrix: (Units=GPa)
#
#
# Indices 1 2 3 4 5 6 
#
# 1 98.3371 4.1853 49.2760 0.0000 0.0000 0.0000
# 2 4.1853 1.1433 1.0221 0.0000 0.0000 0.0000
# 3 49.2760 1.0221 127.7935 0.0000 0.0000 0.0000
# 4 0.0000 0.0000 0.0000 15.2041 0.0000 0.0000
# 5 0.0000 0.0000 0.0000 0.0000 34.3711 0.0000
# 6 0.0000 0.0000 0.0000 0.0000 0.0000 15.5361
#
#
#
# Elastic Compliance Matrix: (Units=1/GPa)
#
#
# Indices 1 2 3 4 5 6 
#
# 1 0.014998 -0.050092 -0.005383 0.000000 0.000000 0.000000
# 2 -0.050092 1.048258 0.010931 0.000000 0.000000 0.000000
# 3 -0.005383 0.010931 0.009813 0.000000 0.000000 0.000000
# 4 0.000000 0.000000 0.000000 0.065772 0.000000 0.000000
# 5 0.000000 0.000000 0.000000 0.000000 0.029094 0.000000
# 6 0.000000 0.000000 0.000000 0.000000 0.000000 0.064366
#
#
# Mechanical properties :
#
#
# Convention : Reuss Voigt Hill
#
# Bulk Modulus (GPa) = 1.01628 37.36007 19.18817
# Shear Modulus (GPa) = 3.03144 24.54162 13.78653
#
# Velocity S-wave (km/s) = 1.35853 3.86541 2.89715
# Velocity P-wave (km/s) = 1.75486 6.53203 4.78262
#
# Compressibility (1/GPa) = 0.98398198
#
# Stress axis : x y z
#
# Youngs Moduli (GPa) = 66.67457 0.95396 101.90407
#
# Poissons Ratio (x) = 0.04779 0.54850
# Poissons Ratio (y) = 3.33988 -1.11392
# Poissons Ratio (z) = 0.35888 -0.01043
#
# Static dielectric constant tensor:
#      x y z
#    x 1.545620 0.000000 0.000000 
#    y 0.000000 1.545140 0.000000 
#    z 0.000000 0.000000 1.617740 
# 
# From -- ./inp_files/23282.got.cif
#   From: 2010.05.17/outbox.ucp.g08.bks.cvg/sg46_12_cif.got.tgz:23282.got - 2010.06.11 16:34:52.
