data_PCOD9381274
_publ_section_title
;
Structure prediction by ZEFSAII (Michael W. Deem and Ramdas Pophale) SiO2 
 PCOD9381274
Probable space group: P M M M
;
_chemical_formula_sum "Si O2"
_cell_formula_units_Z 60
_cell_length_a 18.734591
_cell_length_b 24.131430
_cell_length_c 8.336358
_cell_angle_alpha 90.000000
_cell_angle_beta 90.000000
_cell_angle_gamma 90.000000
_cell_volume 3768.804690
_symmetry_space_group_name_H-M "P M M M"
_symmetry_group_IT_number 47
_symmetry_cell_setting 'orthorhombic'
loop_
_space_group_symop_operation_xyz
x,y,z
-x,-y,z
x,-y,-z
-x,y,-z
-x,-y,-z
x,y,-z
-x,y,z
x,-y,z
loop_
_atom_site_type_symbol
_atom_site_label
_atom_site_fract_x
_atom_site_fract_y
_atom_site_fract_z
Si Si1 0.421014 0.679593 0.691571
Si Si2 0.913067 0.935453 0.500000
Si Si3 0.921034 0.633968 0.307693
Si Si4 0.131519 0.756011 0.312395
Si Si5 0.725688 0.719434 0.181560
Si Si6 0.779124 0.591703 0.182015
Si Si7 0.373039 0.560171 0.195062
Si Si8 0.914402 0.871820 0.821200
O O1 0.417065 0.683142 0.500000
O O2 0.500000 0.697029 0.745588
O O3 0.355802 0.714835 0.762862
O O4 0.410132 0.615074 0.739496
O O5 0.888366 0.905904 0.664912
O O6 0.000000 0.932083 0.500000
O O7 0.893651 0.000000 0.500000
O O8 0.922628 0.635493 0.500000
O O9 0.901680 0.697133 0.256900
O O10 0.856477 0.593591 0.260778
O O11 0.000000 0.618994 0.247959
O O12 0.113346 0.763655 0.500000
O O13 0.216967 0.750758 0.290579
O O14 0.103312 0.807694 0.212839
O O15 0.752834 0.655674 0.180947
O O16 0.730505 0.740563 0.000000
O O17 0.709774 0.561702 0.252104
O O18 0.787953 0.572329 0.000000
O O19 0.404227 0.500000 0.236467
O O20 0.372242 0.564772 0.000000
O O21 0.000000 0.878151 0.823566
O O22 0.888120 0.887935 0.000000
#
# Coordination Sequence:
#
# PCOD9381274 Si02
#       8
#     8   4   8   8   8   8   8   8
#     4  10  20  32  45  63  87 111 136 166 200 245
#     4   9  18  32  46  60  84 120 161 205 248 283
#     4   9  17  26  38  57  80 106 132 161 202 253
#     4  10  17  27  43  62  88 116 143 180 225 266
#     4   9  17  29  44  62  83 109 141 171 204 252
#     4   8  15  27  41  57  76  97 125 162 200 244
#     4   9  18  32  48  63  78  99 129 166 208 250
#     4  10  19  29  43  64  89 119 158 202 243 280
#
# _framework density 15.920168
#
# number of rings (size 3 to 8) (size 9 to 14) (size 15 to 20)
#    0.000    2.733    0.667    2.400    0.000    6.400 
#    0.000    2.667    0.000    0.400    0.000    2.800 
#    0.000    0.000    0.000    0.000    0.000    1.333 
#
# Total GULP energy -334100.225068 kJ/mol
# GULP energy per Si atom -5568.337084 kJ/mol
# Density = 1.588393 g / cm^3
# Si number density = 15.920168 Si / 1000 Ang^3
#
#
#
# Elastic Constant Matrix: (Units=GPa)
#
#
# Indices 1 2 3 4 5 6 
#
# 1 71.4101 -17.0060 6.4502 0.0000 0.0000 0.0000
# 2 -17.0060 13.8101 8.7835 0.0000 0.0000 0.0000
# 3 6.4502 8.7835 51.3309 0.0000 0.0000 0.0000
# 4 0.0000 0.0000 0.0000 10.4128 0.0000 0.0000
# 5 0.0000 0.0000 0.0000 0.0000 17.3416 0.0000
# 6 0.0000 0.0000 0.0000 0.0000 0.0000 5.8474
#
#
#
# Elastic Compliance Matrix: (Units=1/GPa)
#
#
# Indices 1 2 3 4 5 6 
#
# 1 0.022752 0.033480 -0.008588 0.000000 0.000000 0.000000
# 2 0.033480 0.130519 -0.026541 0.000000 0.000000 0.000000
# 3 -0.008588 -0.026541 0.025102 0.000000 0.000000 0.000000
# 4 0.000000 0.000000 0.000000 0.096035 0.000000 0.000000
# 5 0.000000 0.000000 0.000000 0.000000 0.057665 0.000000
# 6 0.000000 0.000000 0.000000 0.000000 0.000000 0.171016
#
#
# Mechanical properties :
#
#
# Convention : Reuss Voigt Hill
#
# Bulk Modulus (GPa) = 5.71180 14.77849 10.24515
# Shear Modulus (GPa) = 8.85353 15.94193 12.39773
#
# Velocity S-wave (km/s) = 2.36078 3.16787 2.79363
# Velocity P-wave (km/s) = 3.32063 4.76273 4.10549
#
# Compressibility (1/GPa) = 0.17507604
#
# Stress axis : x y z
#
# Youngs Moduli (GPa) = 43.95133 7.66171 39.83725
#
# Poissons Ratio (x) = -0.25651 0.34212
# Poissons Ratio (y) = -1.47149 1.05731
# Poissons Ratio (z) = 0.37745 0.20335
#
# Static dielectric constant tensor:
#      x y z
#    x 1.558940 0.000000 0.000000 
#    y 0.000000 1.517270 0.000000 
#    z 0.000000 0.000000 1.571430 
# 
# From -- ./inp_files/10228.got.cif
#   From: 2010.05.17/outbox.cif.g08.bks.cpg/sg47_6_cif.got.tgz:10228.got - 2010.06.03 20:15:42.
