data_PCOD9381096
_publ_section_title
;
Structure prediction by ZEFSAII (Michael W. Deem and Ramdas Pophale) SiO2 
 PCOD9381096
Probable space group: I M A 2
;
_chemical_formula_sum "Si O2"
_cell_formula_units_Z 32
_cell_length_a 9.000000
_cell_length_b 30.000000
_cell_length_c 12.000000
_cell_angle_alpha 90.000000
_cell_angle_beta 90.000000
_cell_angle_gamma 90.000000
_cell_volume 3240.000000
_symmetry_space_group_name_H-M "I M A 2"
_symmetry_group_IT_number 46
_symmetry_cell_setting 'orthorhombic'
loop_
_space_group_symop_operation_xyz
x,y,z
-x,-y,z
1/2-x,y,z
1/2+x,-y,z
1/2+x,1/2+y,1/2+z
1/2-x,1/2-y,1/2+z
-x,1/2+y,1/2+z
x,1/2-y,1/2+z
loop_
_atom_site_type_symbol
_atom_site_label
_atom_site_fract_x
_atom_site_fract_y
_atom_site_fract_z
Si Si1 0.082831 0.838445 0.842300
Si Si2 0.568155 0.648745 0.704271
Si Si3 0.573563 0.807811 0.432570
Si Si4 0.073540 0.046706 0.164686
Si Si5 0.918437 0.131484 0.595360
Si Si6 0.579450 0.956210 0.669245
Si Si7 0.418756 0.425308 0.414639
Si Si8 0.075180 0.285455 0.509226
O O1 0.250000 0.826585 0.878228
O O2 0.079208 0.840750 0.709739
O O3 0.036329 0.886595 0.890368
O O4 0.960148 0.805359 0.888604
O O5 0.750000 0.646894 0.702277
O O6 0.519682 0.678094 0.810268
O O7 0.521590 0.596349 0.706133
O O8 0.517933 0.677697 0.597009
O O9 0.750000 0.801269 0.422466
O O10 0.533229 0.848975 0.509070
O O11 0.511903 0.764357 0.497059
O O12 0.250000 0.043801 0.187033
O O13 0.052388 0.050561 0.030623
O O14 0.000000 0.000000 0.203110
O O15 0.750000 0.130960 0.552445
O O16 0.976628 0.083675 0.630505
O O17 0.750000 0.951484 0.632622
O O18 0.581840 0.955218 0.804333
O O19 0.500000 0.000000 0.627994
O O20 0.250000 0.405679 0.423938
O O21 0.250000 0.282004 0.532210
#
# Coordination Sequence:
#
# PCOD9381096 Si02
#       8
#     8   8   8   8   8   8   8   8
#     4  10  20  33  53  82 116 150 184 228 279 340
#     4   9  19  38  58  84 119 150 187 245 299 346
#     4  10  22  38  62  87 109 148 198 244 290 350
#     4  10  19  33  54  79 115 152 190 235 287 345
#     4  10  22  39  56  79 117 155 191 238 287 338
#     4  10  19  32  54  83 114 150 196 241 291 348
#     4   9  17  31  51  77 112 153 186 228 285 343
#     4  10  20  36  61  87 114 147 188 235 293 355
#
# _framework density 9.8765429999999999
#
# number of rings (size 3 to 8) (size 9 to 14) (size 15 to 20)
#    0.000    2.250    1.250    1.500    1.750    3.000 
#    0.000    1.875    0.000    1.500    0.000    0.000 
#    0.000    0.000    0.000    0.000    0.000    0.000 
#
# Total GULP energy -178136.514163 kJ/mol
# GULP energy per Si atom -5566.766068 kJ/mol
# Density = 0.985406 g / cm^3
# Si number density = 9.876543 Si / 1000 Ang^3
#
#
#
# Elastic Constant Matrix: (Units=GPa)
#
#
# Indices 1 2 3 4 5 6 
#
# 1 -21.2779 1.5073 0.6963 -0.0001 0.0000 0.0000
# 2 1.5073 89.7426 33.7183 -0.0001 0.0000 0.0000
# 3 0.6963 33.7183 40.1745 -0.0004 0.0001 0.0000
# 4 -0.0001 -0.0001 -0.0004 7.7484 0.0000 0.0000
# 5 0.0000 0.0000 0.0001 0.0000 9.1545 0.0000
# 6 0.0000 0.0000 0.0000 0.0000 0.0000 18.8024
#
#
#
# Elastic Compliance Matrix: (Units=1/GPa)
#
#
# Indices 1 2 3 4 5 6 
#
# 1 -0.046940 0.000705 0.000222 0.000000 0.000000 0.000000
# 2 0.000705 0.016265 -0.013663 -0.000001 0.000000 0.000000
# 3 0.000222 -0.013663 0.036355 0.000002 0.000000 0.000000
# 4 0.000000 -0.000001 0.000002 0.129059 0.000000 0.000000
# 5 0.000000 0.000000 0.000000 0.000000 0.109236 0.000000
# 6 0.000000 0.000000 0.000000 0.000000 0.000000 0.053185
#
#
# Mechanical properties :
#
#
# Convention : Reuss Voigt Hill
#
# Bulk Modulus (GPa) = -50.52349 20.05367 -15.23491
# Shear Modulus (GPa) = 15.82107 11.98887 13.90497
#
# Velocity S-wave (km/s) = 2.83316 2.46628 2.65606
# Velocity P-wave (km/s) = 3.86402 4.27601 1.29492
#
# Compressibility (1/GPa) = -0.01979277
#
# Stress axis : x y z
#
# Youngs Moduli (GPa) = -21.30384 61.48295 27.50657
#
# Poissons Ratio (x) = -0.04335 -0.00610
# Poissons Ratio (y) = 0.01502 0.37583
# Poissons Ratio (z) = 0.00472 0.84005
#
# Static dielectric constant tensor:
#      x y z
#    x 1.691710 0.000000 0.000000 
#    y 0.000000 1.709150 0.000000 
#    z 0.000000 0.000000 1.717990 
# 
# From -- ./inp_files/9779.got.cif
#   From: 2010.05.17/outbox.ucp.g08.bks.cvg/sg46_5_cif.got.tgz:9779.got - 2010.06.11 16:34:52.
