data_PCOD9381912
_publ_section_title
;
Structure prediction by ZEFSAII (Michael W. Deem and Ramdas Pophale) SiO2 
 PCOD9381912
Probable space group: P M M M
;
_chemical_formula_sum "Si O2"
_cell_formula_units_Z 52
_cell_length_a 19.159562
_cell_length_b 15.055394
_cell_length_c 10.456895
_cell_angle_alpha 90.000000
_cell_angle_beta 90.000000
_cell_angle_gamma 90.000000
_cell_volume 3016.341083
_symmetry_space_group_name_H-M "P M M M"
_symmetry_group_IT_number 47
_symmetry_cell_setting 'orthorhombic'
loop_
_space_group_symop_operation_xyz
x,y,z
-x,-y,z
x,-y,-z
-x,y,-z
-x,-y,-z
x,y,-z
-x,y,z
x,-y,z
loop_
_atom_site_type_symbol
_atom_site_label
_atom_site_fract_x
_atom_site_fract_y
_atom_site_fract_z
Si Si1 0.421517 0.759444 0.352766
Si Si2 0.338830 0.395050 0.743787
Si Si3 0.188183 0.602801 0.151217
Si Si4 0.849846 0.893502 0.348751
Si Si5 0.578859 0.607227 0.000000
Si Si6 0.082115 0.237284 0.851130
Si Si7 0.688902 0.898929 0.344435
O O1 0.429566 0.786680 0.500000
O O2 0.500000 0.752247 0.298459
O O3 0.379509 0.667241 0.352800
O O4 0.369299 0.831900 0.292923
O O5 0.347884 0.500000 0.719676
O O6 0.256850 0.378373 0.764458
O O7 0.377668 0.369842 0.875400
O O8 0.167017 0.500000 0.174319
O O9 0.128113 0.674546 0.173551
O O10 0.207950 0.607603 0.000000
O O11 0.860689 0.871789 0.500000
O O12 0.896319 0.837379 0.251219
O O13 0.768762 0.874365 0.313871
O O14 0.860218 0.000000 0.336458
O O15 0.574591 0.500000 0.000000
O O16 0.500000 0.641904 0.000000
O O17 0.000000 0.256524 0.840198
O O18 0.095476 0.210293 0.000000
O O19 0.687270 0.898577 0.500000
O O20 0.675830 0.000000 0.303050
#
# Coordination Sequence:
#
# PCOD9381912 Si02
#       7
#     8   8   8   8   4   8   8
#     4  10  20  30  42  66  98 129 159 192 238 294
#     4  10  18  30  47  66  90 122 158 197 235 276
#     4   9  17  32  53  74  96 126 167 209 248 295
#     4   9  18  34  56  78 100 132 172 208 246 298
#     4   9  16  26  42  64  86 110 146 191 232 266
#     4  10  21  34  50  77 109 135 161 202 255 304
#     4   8  15  30  51  71  91 119 159 205 242 275
#
# _framework density 17.239429999999999
#
# number of rings (size 3 to 8) (size 9 to 14) (size 15 to 20)
#    0.000    2.692    0.769    2.308    0.000    2.769 
#    0.000    5.385    0.000    1.385    0.000    1.077 
#    0.000    1.846    0.000    0.000    0.000    0.000 
#
# Total GULP energy -289479.680966 kJ/mol
# GULP energy per Si atom -5566.916942 kJ/mol
# Density = 1.720019 g / cm^3
# Si number density = 17.239430 Si / 1000 Ang^3
#
#
#
# Elastic Constant Matrix: (Units=GPa)
#
#
# Indices 1 2 3 4 5 6 
#
# 1 120.0246 60.3472 33.2292 0.0000 0.0000 0.0000
# 2 60.3472 60.9152 20.7450 0.0000 0.0000 0.0000
# 3 33.2292 20.7450 39.0077 0.0000 0.0000 0.0000
# 4 0.0000 0.0000 0.0000 20.1799 0.0000 0.0000
# 5 0.0000 0.0000 0.0000 0.0000 18.4692 0.0000
# 6 0.0000 0.0000 0.0000 0.0000 0.0000 17.3913
#
#
#
# Elastic Compliance Matrix: (Units=1/GPa)
#
#
# Indices 1 2 3 4 5 6 
#
# 1 0.018113 -0.015496 -0.007189 0.000000 0.000000 0.000000
# 2 -0.015496 0.033304 -0.004511 0.000000 0.000000 0.000000
# 3 -0.007189 -0.004511 0.034159 0.000000 0.000000 0.000000
# 4 0.000000 0.000000 0.000000 0.049554 0.000000 0.000000
# 5 0.000000 0.000000 0.000000 0.000000 0.054144 0.000000
# 6 0.000000 0.000000 0.000000 0.000000 0.000000 0.057500
#
#
# Mechanical properties :
#
#
# Convention : Reuss Voigt Hill
#
# Bulk Modulus (GPa) = 32.06766 49.84336 40.95551
# Shear Modulus (GPa) = 16.04820 18.24984 17.14902
#
# Velocity S-wave (km/s) = 3.05438 3.25716 3.15740
# Velocity P-wave (km/s) = 5.57501 6.56663 6.09103
#
# Compressibility (1/GPa) = 0.03118406
#
# Stress axis : x y z
#
# Youngs Moduli (GPa) = 55.20865 30.02634 29.27481
#
# Poissons Ratio (x) = 0.46529 0.21045
# Poissons Ratio (y) = 0.85551 0.13207
# Poissons Ratio (z) = 0.39688 0.13546
#
# Static dielectric constant tensor:
#      x y z
#    x 1.599100 0.000000 0.000000 
#    y 0.000000 1.586940 0.000000 
#    z 0.000000 0.000000 1.652380 
# 
# From -- ./inp_files/17670.got.cif
#   From: 2010.05.17/outbox.cif.g08.bks.cpg/sg47_9_cif.got.tgz:17670.got - 2010.06.03 20:15:42.
