data_PCOD9381742
_publ_section_title
;
Structure prediction by ZEFSAII (Michael W. Deem and Ramdas Pophale) SiO2 
 PCOD9381742
Probable space group: P M M M
;
_chemical_formula_sum "Si O2"
_cell_formula_units_Z 48
_cell_length_a 7.547051
_cell_length_b 20.529860
_cell_length_c 16.542929
_cell_angle_alpha 90.000000
_cell_angle_beta 90.000000
_cell_angle_gamma 90.000000
_cell_volume 2563.159772
_symmetry_space_group_name_H-M "P M M M"
_symmetry_group_IT_number 47
_symmetry_cell_setting 'orthorhombic'
loop_
_space_group_symop_operation_xyz
x,y,z
-x,-y,z
x,-y,-z
-x,y,-z
-x,-y,-z
x,y,-z
-x,y,z
x,-y,z
loop_
_atom_site_type_symbol
_atom_site_label
_atom_site_fract_x
_atom_site_fract_y
_atom_site_fract_z
Si Si1 0.283598 0.074567 0.592903
Si Si2 0.284310 0.425951 0.094323
Si Si3 0.290275 0.200313 0.674509
Si Si4 0.211907 0.261245 0.500000
Si Si5 0.298023 0.590536 0.500000
Si Si6 0.203488 0.430712 0.677828
Si Si7 0.299108 0.683532 0.782752
O O1 0.228192 0.090696 0.500000
O O2 0.500000 0.076604 0.592311
O O3 0.221492 0.126910 0.659257
O O4 0.231363 0.000000 0.608833
O O5 0.500000 0.426753 0.101991
O O6 0.223897 0.500000 0.115865
O O7 0.220963 0.364250 0.147682
O O8 0.241913 0.416388 0.000000
O O9 0.500000 0.196309 0.691158
O O10 0.268162 0.228937 0.584177
O O11 0.218449 0.250744 0.742571
O O12 0.292736 0.332197 0.500000
O O13 0.000000 0.265746 0.500000
O O14 0.500000 0.568728 0.500000
O O15 0.207067 0.569167 0.418226
O O16 0.279383 0.500000 0.705855
O O17 0.303595 0.367855 0.708997
O O18 0.000000 0.425719 0.704623
O O19 0.500000 0.699434 0.808703
#
# Coordination Sequence:
#
# PCOD9381742 Si02
#       7
#     8   8   8   4   4   8   8
#     4   8  13  22  39  61  83 111 147 184 220 254
#     4   8  14  26  44  65  88 111 137 175 224 273
#     4  10  18  29  45  64  86 111 146 189 222 256
#     4  12  22  31  44  61  86 119 148 177 222 268
#     4  12  23  35  48  60  77 109 154 194 219 248
#     4  11  23  35  45  60  85 114 143 180 224 266
#     4  10  19  29  46  68  86 108 142 182 221 265
#
# _framework density 18.726887000000001
#
# number of rings (size 3 to 8) (size 9 to 14) (size 15 to 20)
#    0.000    2.167    2.500    3.750    0.000    3.000 
#    0.000    0.000    0.000    1.500    0.000    2.333 
#    0.000    0.667    0.000    9.333    0.000    0.000 
#
# Total GULP energy -267470.051080 kJ/mol
# GULP energy per Si atom -5572.292731 kJ/mol
# Density = 1.868426 g / cm^3
# Si number density = 18.726887 Si / 1000 Ang^3
#
#
#
# Elastic Constant Matrix: (Units=GPa)
#
#
# Indices 1 2 3 4 5 6 
#
# 1 49.5571 3.0135 -4.3635 0.0000 0.0000 0.0000
# 2 3.0135 154.6741 53.6190 0.0000 0.0000 0.0000
# 3 -4.3635 53.6190 106.5855 0.0000 0.0000 0.0000
# 4 0.0000 0.0000 0.0000 31.1746 0.0000 0.0000
# 5 0.0000 0.0000 0.0000 0.0000 -14.8877 0.0000
# 6 0.0000 0.0000 0.0000 0.0000 0.0000 -6.6766
#
#
#
# Elastic Compliance Matrix: (Units=1/GPa)
#
#
# Indices 1 2 3 4 5 6 
#
# 1 0.020339 -0.000830 0.001250 0.000000 0.000000 0.000000
# 2 -0.000830 0.007865 -0.003990 0.000000 0.000000 0.000000
# 3 0.001250 -0.003990 0.011441 0.000000 0.000000 0.000000
# 4 0.000000 0.000000 0.000000 0.032077 0.000000 0.000000
# 5 0.000000 0.000000 0.000000 0.000000 -0.067169 0.000000
# 6 0.000000 0.000000 0.000000 0.000000 0.000000 -0.149776
#
#
# Mechanical properties :
#
#
# Convention : Reuss Voigt Hill
#
# Bulk Modulus (GPa) = 30.76476 46.15052 38.45764
# Shear Modulus (GPa) = -39.29319 19.15855 -10.06732
#
# Velocity S-wave (km/s) = -4.58561 3.20199 -2.32111
# Velocity P-wave (km/s) = 3.40195 6.19417 3.66023
#
# Compressibility (1/GPa) = 0.03250473
#
# Stress axis : x y z
#
# Youngs Moduli (GPa) = 49.16597 127.15103 87.40718
#
# Poissons Ratio (x) = 0.10548 -0.10926
# Poissons Ratio (y) = 0.04079 0.34879
# Poissons Ratio (z) = -0.06146 0.50738
#
# Static dielectric constant tensor:
#      x y z
#    x 1.690270 0.000000 0.000000 
#    y 0.000000 1.704490 0.000000 
#    z 0.000000 0.000000 1.657180 
# 
# From -- ./inp_files/26893.got.cif
#   From: 2010.05.17/outbox.cif.g08.bks.cpg/sg47_14_cif.got.tgz:26893.got - 2010.06.03 20:15:42.
