data_PCOD9381006
_publ_section_title
;
Structure prediction by ZEFSAII (Michael W. Deem and Ramdas Pophale) SiO2 
 PCOD9381006
Probable space group: I M A 2
;
_chemical_formula_sum "Si O2"
_cell_formula_units_Z 32
_cell_length_a 15.388474
_cell_length_b 5.158890
_cell_length_c 17.087664
_cell_angle_alpha 90.000000
_cell_angle_beta 90.000000
_cell_angle_gamma 90.000000
_cell_volume 1356.545980
_symmetry_space_group_name_H-M "I M A 2"
_symmetry_group_IT_number 46
_symmetry_cell_setting 'orthorhombic'
loop_
_space_group_symop_operation_xyz
x,y,z
-x,-y,z
1/2-x,y,z
1/2+x,-y,z
1/2+x,1/2+y,1/2+z
1/2-x,1/2-y,1/2+z
-x,1/2+y,1/2+z
x,1/2-y,1/2+z
loop_
_atom_site_type_symbol
_atom_site_label
_atom_site_fract_x
_atom_site_fract_y
_atom_site_fract_z
Si Si1 0.500000 0.000000 0.246820
Si Si2 0.750000 0.495864 0.248084
Si Si3 0.907127 0.649055 0.532699
Si Si4 0.092873 0.350945 0.352594
Si Si5 0.750000 0.495865 0.637209
Si Si6 0.500000 0.000000 0.638472
O O1 0.576624 0.913709 0.304686
O O2 0.483282 0.750000 0.192646
O O3 0.833679 0.503532 0.304205
O O4 0.750000 0.249999 0.192646
O O5 0.750000 0.749999 0.192646
O O6 0.883028 0.692766 0.442646
O O7 0.833679 0.503533 0.581087
O O8 0.923376 0.913709 0.580606
O O9 0.000000 0.500000 0.533239
O O10 0.000000 0.500000 0.352053
#
# Coordination Sequence:
#
# PCOD9381006 Si02
#       6
#     4   4   8   8   4   4
#     4  12  25  44  79 114 152 200 262 320 391 472
#     4  12  31  48  77 116 153 204 261 320 389 468
#     4  11  27  51  79 112 157 206 260 326 397 471
#     4  11  27  51  79 112 157 206 260 326 397 471
#     4  12  31  48  77 116 153 204 261 320 389 468
#     4  12  25  44  79 114 152 200 262 320 391 472
#
# _framework density 23.589324000000001
#
# number of rings (size 3 to 8) (size 9 to 14) (size 15 to 20)
#    0.000    0.500    2.500    3.000   14.000    0.000 
#    0.000    2.500    0.000    0.000    0.000    0.000 
#    0.000    0.000    0.000    0.000    0.000    0.000 
#
# Total GULP energy -89669.154721 kJ/mol
# GULP energy per Si atom -5604.322170 kJ/mol
# Density = 2.353563 g / cm^3
# Si number density = 23.589324 Si / 1000 Ang^3
#
#
#
# Elastic Constant Matrix: (Units=GPa)
#
#
# Indices 1 2 3 4 5 6 
#
# 1 155.2171 57.0529 94.1426 0.0000 0.0000 0.0000
# 2 57.0529 184.2812 117.6337 0.0000 0.0000 0.0000
# 3 94.1426 117.6337 285.1370 0.0000 0.0000 0.0000
# 4 0.0000 0.0000 0.0000 -8.3029 0.0000 0.0000
# 5 0.0000 0.0000 0.0000 0.0000 51.8971 0.0000
# 6 0.0000 0.0000 0.0000 0.0000 0.0000 31.8779
#
#
#
# Elastic Compliance Matrix: (Units=1/GPa)
#
#
# Indices 1 2 3 4 5 6 
#
# 1 0.008218 -0.001103 -0.002258 0.000000 0.000000 0.000000
# 2 -0.001103 0.007514 -0.002736 0.000000 0.000000 0.000000
# 3 -0.002258 -0.002736 0.005381 0.000000 0.000000 0.000000
# 4 0.000000 0.000000 0.000000 -0.120440 0.000000 0.000000
# 5 0.000000 0.000000 0.000000 0.000000 0.019269 0.000000
# 6 0.000000 0.000000 0.000000 0.000000 0.000000 0.031370
#
#
# Mechanical properties :
#
#
# Convention : Reuss Voigt Hill
#
# Bulk Modulus (GPa) = 112.11295 129.14376 120.62835
# Shear Modulus (GPa) = -149.16016 38.81482 -55.17267
#
# Velocity S-wave (km/s) = -7.96049 4.06080 -4.84145
# Velocity P-wave (km/s) = 6.07143 8.76655 4.47158
#
# Compressibility (1/GPa) = 0.00891958
#
# Stress axis : x y z
#
# Youngs Moduli (GPa) = 121.69054 133.07860 185.82354
#
# Poissons Ratio (x) = 0.14673 0.41964
# Poissons Ratio (y) = 0.13417 0.50842
# Poissons Ratio (z) = 0.27481 0.36411
#
# Static dielectric constant tensor:
#      x y z
#    x 1.951990 0.000000 0.000000 
#    y 0.000000 1.972790 0.000000 
#    z 0.000000 0.000000 1.874870 
# 
# From -- ./inp_files/19169.got.cif
#   From: 2010.05.17/outbox.cif.g08.bks.cpg/sg46_10_cif.got.tgz:19169.got - 2010.06.03 19:58:25.
