data_PCOD9381724
_publ_section_title
;
Structure prediction by ZEFSAII (Michael W. Deem and Ramdas Pophale) SiO2 
 PCOD9381724
Probable space group: P M M M
;
_chemical_formula_sum "Si O2"
_cell_formula_units_Z 48
_cell_length_a 9.285017
_cell_length_b 17.308894
_cell_length_c 23.877837
_cell_angle_alpha 90.000000
_cell_angle_beta 90.000000
_cell_angle_gamma 90.000000
_cell_volume 3837.487773
_symmetry_space_group_name_H-M "P M M M"
_symmetry_group_IT_number 47
_symmetry_cell_setting 'orthorhombic'
loop_
_space_group_symop_operation_xyz
x,y,z
-x,-y,z
x,-y,-z
-x,y,-z
-x,-y,-z
x,y,-z
-x,y,z
x,-y,z
loop_
_atom_site_type_symbol
_atom_site_label
_atom_site_fract_x
_atom_site_fract_y
_atom_site_fract_z
Si Si1 0.828247 0.844837 0.433825
Si Si2 0.667707 0.593921 0.062573
Si Si3 0.826119 0.321571 0.387379
Si Si4 0.825094 0.588193 0.500000
Si Si5 0.835089 0.593882 0.827629
Si Si6 0.334451 0.000000 0.568069
Si Si7 0.328189 0.591924 0.286303
O O1 0.796140 0.830489 0.500000
O O2 0.792700 0.768206 0.398964
O O3 0.000000 0.857600 0.430358
O O4 0.745948 0.921583 0.414957
O O5 0.500000 0.615016 0.070592
O O6 0.672325 0.500000 0.062781
O O7 0.763975 0.620934 0.114277
O O8 0.713343 0.618554 0.000000
O O9 0.782788 0.367630 0.443668
O O10 0.746593 0.359036 0.334953
O O11 0.000000 0.328755 0.380929
O O12 0.774346 0.500000 0.500000
O O13 0.000000 0.587576 0.500000
O O14 0.836475 0.500000 0.829746
O O15 0.740315 0.613910 0.773564
O O16 0.000000 0.619710 0.821714
O O17 0.500000 0.000000 0.585966
O O18 0.330967 0.000000 0.500000
O O19 0.500000 0.602473 0.285743
O O20 0.299579 0.500000 0.295289
#
# Coordination Sequence:
#
# PCOD9381724 Si02
#       7
#     8   8   8   4   8   4   8
#     4   9  16  28  44  61  79  96 116 143 179 223
#     4   8  13  21  33  49  69  91 112 138 179 227
#     4  10  18  29  44  60  74  92 121 155 190 228
#     4   9  16  26  41  58  73  90 116 153 193 229
#     4   9  16  25  37  51  66  87 118 155 189 220
#     4   9  17  27  41  61  81  99 117 135 168 217
#     4  10  20  31  40  51  70  97 127 158 194 232
#
# _framework density 12.508183000000001
#
# number of rings (size 3 to 8) (size 9 to 14) (size 15 to 20)
#    0.000    2.833    0.833    2.250    0.000    5.667 
#    0.000    2.083    0.000    1.500    0.000    0.000 
#    0.000    0.000    0.000    0.000    0.000    0.000 
#
# Total GULP energy -267290.335819 kJ/mol
# GULP energy per Si atom -5568.548663 kJ/mol
# Density = 1.247971 g / cm^3
# Si number density = 12.508183 Si / 1000 Ang^3
#
#
#
# Elastic Constant Matrix: (Units=GPa)
#
#
# Indices 1 2 3 4 5 6 
#
# 1 61.2083 43.0535 54.8428 0.0000 0.0000 0.0000
# 2 43.0535 70.3280 43.1213 0.0000 0.0000 0.0000
# 3 54.8428 43.1213 104.0968 0.0000 0.0000 0.0000
# 4 0.0000 0.0000 0.0000 1.2450 0.0000 0.0000
# 5 0.0000 0.0000 0.0000 0.0000 21.9956 0.0000
# 6 0.0000 0.0000 0.0000 0.0000 0.0000 11.9959
#
#
#
# Elastic Compliance Matrix: (Units=1/GPa)
#
#
# Indices 1 2 3 4 5 6 
#
# 1 0.040928 -0.015864 -0.014992 0.000000 0.000000 0.000000
# 2 -0.015864 0.025209 -0.002085 0.000000 0.000000 0.000000
# 3 -0.014992 -0.002085 0.018368 0.000000 0.000000 0.000000
# 4 0.000000 0.000000 0.000000 0.803208 0.000000 0.000000
# 5 0.000000 0.000000 0.000000 0.000000 0.045464 0.000000
# 6 0.000000 0.000000 0.000000 0.000000 0.000000 0.083362
#
#
# Mechanical properties :
#
#
# Convention : Reuss Voigt Hill
#
# Bulk Modulus (GPa) = 53.68993 57.51868 55.60430
# Shear Modulus (GPa) = 4.59294 13.35502 8.97398
#
# Velocity S-wave (km/s) = 1.91831 3.27112 2.68143
# Velocity P-wave (km/s) = 6.92269 7.76863 7.35783
#
# Compressibility (1/GPa) = 0.01862547
#
# Stress axis : x y z
#
# Youngs Moduli (GPa) = 24.43287 39.66865 54.44160
#
# Poissons Ratio (x) = 0.62929 0.81616
# Poissons Ratio (y) = 0.38759 0.11351
# Poissons Ratio (z) = 0.36629 0.08270
#
# Static dielectric constant tensor:
#      x y z
#    x 1.418090 0.000000 0.000000 
#    y 0.000000 1.382780 0.000000 
#    z 0.000000 0.000000 1.400940 
# 
# From -- ./inp_files/29841.got.cif
#   From: 2010.05.17/outbox.cif.g08.bks.cpg/sg47_15_cif.got.tgz:29841.got - 2010.06.03 20:15:42.
