data_PCOD9381015
_publ_section_title
;
Structure prediction by ZEFSAII (Michael W. Deem and Ramdas Pophale) SiO2 
 PCOD9381015
Probable space group: I M A 2
;
_chemical_formula_sum "Si O2"
_cell_formula_units_Z 52
_cell_length_a 13.592699
_cell_length_b 9.578705
_cell_length_c 20.075217
_cell_angle_alpha 90.000000
_cell_angle_beta 90.000000
_cell_angle_gamma 90.000000
_cell_volume 2613.802365
_symmetry_space_group_name_H-M "I M A 2"
_symmetry_group_IT_number 46
_symmetry_cell_setting 'orthorhombic'
loop_
_space_group_symop_operation_xyz
x,y,z
-x,-y,z
1/2-x,y,z
1/2+x,-y,z
1/2+x,1/2+y,1/2+z
1/2-x,1/2-y,1/2+z
-x,1/2+y,1/2+z
x,1/2-y,1/2+z
loop_
_atom_site_type_symbol
_atom_site_label
_atom_site_fract_x
_atom_site_fract_y
_atom_site_fract_z
Si Si1 0.867797 0.980067 0.678450
Si Si2 0.369267 0.438481 0.612141
Si Si3 0.867834 0.053344 0.323205
Si Si4 0.130295 0.704119 0.684003
Si Si5 0.867561 0.824009 0.537143
Si Si6 0.500000 0.000000 0.437794
Si Si7 0.631564 0.780635 0.250179
O O1 0.750000 0.991267 0.686864
O O2 0.905190 0.138083 0.676233
O O3 0.881651 0.906137 0.607170
O O4 0.901764 0.878080 0.738459
O O5 0.250000 0.442884 0.609012
O O6 0.403244 0.596427 0.626262
O O7 0.396865 0.336888 0.551928
O O8 0.392497 0.358990 0.681114
O O9 0.750000 0.063650 0.331083
O O10 0.895045 0.891121 0.306859
O O11 0.894057 0.142725 0.257201
O O12 0.925290 0.085702 0.390293
O O13 0.250000 0.703967 0.681178
O O14 0.750000 0.830210 0.521600
O O15 0.933733 0.898729 0.482717
O O16 0.750000 0.775076 0.253611
#
# Coordination Sequence:
#
# PCOD9381015 Si02
#       7
#     8   8   8   8   8   4   8
#     4   8  13  25  50  79 100 120 150 195 255 307
#     4   7  11  23  45  71  95 118 148 192 245 292
#     4   9  18  32  49  70  97 127 162 205 245 289
#     4   8  13  25  50  79 100 120 150 195 255 307
#     4   9  18  32  49  70  97 127 162 205 245 289
#     4  12  22  32  48  68  92 136 186 204 224 282
#     4   7  11  23  45  71  95 118 148 192 245 292
#
# _framework density 19.894387999999999
#
# number of rings (size 3 to 8) (size 9 to 14) (size 15 to 20)
#    0.000    3.692    0.000    4.154    0.000    0.000 
#    0.000    4.615    0.000    3.692    0.000   10.769 
#    0.000    0.000    0.000    0.000    0.000    0.923 
#
# Total GULP energy -144849.907666 kJ/mol
# GULP energy per Si atom -5571.150295 kJ/mol
# Density = 1.984911 g / cm^3
# Si number density = 19.894388 Si / 1000 Ang^3
#
#
#
# Elastic Constant Matrix: (Units=GPa)
#
#
# Indices 1 2 3 4 5 6 
#
# 1 85.8895 6.4900 23.1292 0.0000 0.0000 0.0000
# 2 6.4900 135.3890 24.4355 0.0000 0.0000 0.0000
# 3 23.1292 24.4355 51.4206 0.0000 0.0000 0.0000
# 4 0.0000 0.0000 0.0000 16.0204 0.0000 0.0000
# 5 0.0000 0.0000 0.0000 0.0000 35.7571 0.0000
# 6 0.0000 0.0000 0.0000 0.0000 0.0000 6.1394
#
#
#
# Elastic Compliance Matrix: (Units=1/GPa)
#
#
# Indices 1 2 3 4 5 6 
#
# 1 0.013276 0.000483 -0.006201 0.000000 0.000000 0.000000
# 2 0.000483 0.008097 -0.004065 0.000000 0.000000 0.000000
# 3 -0.006201 -0.004065 0.024168 0.000000 0.000000 0.000000
# 4 0.000000 0.000000 0.000000 0.062420 0.000000 0.000000
# 5 0.000000 0.000000 0.000000 0.000000 0.027966 0.000000
# 6 0.000000 0.000000 0.000000 0.000000 0.000000 0.162883
#
#
# Mechanical properties :
#
#
# Convention : Reuss Voigt Hill
#
# Bulk Modulus (GPa) = 38.49848 42.31205 40.40527
# Shear Modulus (GPa) = 15.28887 26.15968 20.72427
#
# Velocity S-wave (km/s) = 2.77519 3.63013 3.23106
# Velocity P-wave (km/s) = 5.44632 6.23578 5.85437
#
# Compressibility (1/GPa) = 0.02597505
#
# Stress axis : x y z
#
# Youngs Moduli (GPa) = 75.32221 123.50860 41.37642
#
# Poissons Ratio (x) = -0.05963 0.25658
# Poissons Ratio (y) = -0.03637 0.16818
# Poissons Ratio (z) = 0.46709 0.50203
#
# Static dielectric constant tensor:
#      x y z
#    x 1.791800 0.000000 0.000000 
#    y 0.000000 1.751660 0.000000 
#    z 0.000000 0.000000 1.664660 
# 
# From -- ./inp_files/21967.got.cif
#   From: 2010.05.17/outbox.cif.g08.bks.cpg/sg46_11_cif.got.tgz:21967.got - 2010.06.03 19:58:25.
