data_PCOD9381760
_publ_section_title
;
Structure prediction by ZEFSAII (Michael W. Deem and Ramdas Pophale) SiO2 
 PCOD9381760
Probable space group: P M M M
;
_chemical_formula_sum "Si O2"
_cell_formula_units_Z 52
_cell_length_a 21.161701
_cell_length_b 17.231774
_cell_length_c 8.833610
_cell_angle_alpha 90.000000
_cell_angle_beta 90.000000
_cell_angle_gamma 90.000000
_cell_volume 3221.208121
_symmetry_space_group_name_H-M "P M M M"
_symmetry_group_IT_number 47
_symmetry_cell_setting 'orthorhombic'
loop_
_space_group_symop_operation_xyz
x,y,z
-x,-y,z
x,-y,-z
-x,y,-z
-x,-y,-z
x,y,-z
-x,y,z
x,-y,z
loop_
_atom_site_type_symbol
_atom_site_label
_atom_site_fract_x
_atom_site_fract_y
_atom_site_fract_z
Si Si1 0.430200 0.666024 0.318666
Si Si2 0.725928 0.500000 0.670723
Si Si3 0.801430 0.660788 0.323075
Si Si4 0.404158 0.500000 0.822474
Si Si5 0.500000 0.094327 0.328972
Si Si6 0.632461 0.911901 0.181875
Si Si7 0.071383 0.410095 0.684633
Si Si8 0.690167 0.244408 0.819162
O O1 0.424160 0.665192 0.500000
O O2 0.500000 0.699154 0.280139
O O3 0.428131 0.578327 0.255881
O O4 0.370072 0.710438 0.250422
O O5 0.697169 0.500000 0.500000
O O6 0.768043 0.423551 0.683196
O O7 0.671148 0.500000 0.793488
O O8 0.804264 0.683408 0.500000
O O9 0.872311 0.645847 0.263926
O O10 0.755245 0.718848 0.237493
O O11 0.418904 0.500000 0.000000
O O12 0.500000 0.124692 0.500000
O O13 0.435497 0.114407 0.245012
O O14 0.500000 0.000000 0.334368
O O15 0.682292 0.845935 0.224268
O O16 0.645540 0.000000 0.234859
O O17 0.628309 0.914087 0.000000
O O18 0.073672 0.410178 0.500000
O O19 0.082339 0.500000 0.730513
O O20 0.000000 0.388552 0.729349
O O21 0.686242 0.251333 0.000000
#
# Coordination Sequence:
#
# PCOD9381760 Si02
#       8
#     8   4   8   4   4   8   8   8
#     4  11  24  39  52  66  89 123 159 200 247 292
#     4  10  18  29  46  66  92 128 161 190 228 278
#     4  10  18  30  49  71  98 130 161 195 235 278
#     4  12  23  35  52  70  89 118 161 208 247 282
#     4   9  17  29  49  75  95 112 141 184 235 293
#     4   9  19  36  53  68  91 123 156 193 244 302
#     4   8  13  23  43  72 100 127 163 199 227 265
#     4  11  23  35  50  72  94 121 159 202 243 289
#
# _framework density 16.143011999999999
#
# number of rings (size 3 to 8) (size 9 to 14) (size 15 to 20)
#    0.000    2.077    2.308    2.538    1.077    4.308 
#    0.000    0.000    0.000    0.462    0.000    1.077 
#    0.000    0.615    0.000    7.692    0.000    0.000 
#
# Total GULP energy -290097.269505 kJ/mol
# GULP energy per Si atom -5578.793644 kJ/mol
# Density = 1.610627 g / cm^3
# Si number density = 16.143012 Si / 1000 Ang^3
#
#
#
# Elastic Constant Matrix: (Units=GPa)
#
#
# Indices 1 2 3 4 5 6 
#
# 1 133.1971 55.3773 32.5839 0.0000 0.0000 0.0000
# 2 55.3773 90.8958 26.4556 0.0000 0.0000 0.0000
# 3 32.5839 26.4556 33.3220 0.0000 0.0000 0.0000
# 4 0.0000 0.0000 0.0000 8.7947 0.0000 0.0000
# 5 0.0000 0.0000 0.0000 0.0000 -2.8414 0.0000
# 6 0.0000 0.0000 0.0000 0.0000 0.0000 29.9363
#
#
#
# Elastic Compliance Matrix: (Units=1/GPa)
#
#
# Indices 1 2 3 4 5 6 
#
# 1 0.011251 -0.004750 -0.007231 0.000000 0.000000 0.000000
# 2 -0.004750 0.016313 -0.008307 0.000000 0.000000 0.000000
# 3 -0.007231 -0.008307 0.043676 0.000000 0.000000 0.000000
# 4 0.000000 0.000000 0.000000 0.113704 0.000000 0.000000
# 5 0.000000 0.000000 0.000000 0.000000 -0.351945 0.000000
# 6 0.000000 0.000000 0.000000 0.000000 0.000000 0.033404
#
#
# Mechanical properties :
#
#
# Convention : Reuss Voigt Hill
#
# Bulk Modulus (GPa) = 32.61045 54.02763 43.31904
# Shear Modulus (GPa) = -60.38790 16.71114 -21.83838
#
# Velocity S-wave (km/s) = -6.12285 3.22093 -3.68204
# Velocity P-wave (km/s) = 5.45352 6.88283 2.96921
#
# Compressibility (1/GPa) = 0.03066502
#
# Stress axis : x y z
#
# Youngs Moduli (GPa) = 88.87713 61.29930 22.89595
#
# Poissons Ratio (x) = 0.29119 0.16556
# Poissons Ratio (y) = 0.42219 0.19019
# Poissons Ratio (z) = 0.64265 0.50920
#
# Static dielectric constant tensor:
#      x y z
#    x 1.550910 0.000000 0.000000 
#    y 0.000000 1.560690 0.000000 
#    z 0.000000 0.000000 1.546140 
# 
# From -- ./inp_files/11124.got.cif
#   From: 2010.05.17/outbox.cif.g08.bks.cpg/sg47_6_cif.got.tgz:11124.got - 2010.06.03 20:15:42.
