data_PCOD9381820
_publ_section_title
;
Structure prediction by ZEFSAII (Michael W. Deem and Ramdas Pophale) SiO2 
 PCOD9381820
Probable space group: P M M M
;
_chemical_formula_sum "Si O2"
_cell_formula_units_Z 64
_cell_length_a 32.581357
_cell_length_b 14.741629
_cell_length_c 7.946128
_cell_angle_alpha 90.000000
_cell_angle_beta 90.000000
_cell_angle_gamma 90.000000
_cell_volume 3816.543373
_symmetry_space_group_name_H-M "P M M M"
_symmetry_group_IT_number 47
_symmetry_cell_setting 'orthorhombic'
loop_
_space_group_symop_operation_xyz
x,y,z
-x,-y,z
x,-y,-z
-x,y,-z
-x,-y,-z
x,y,-z
-x,y,z
x,-y,z
loop_
_atom_site_type_symbol
_atom_site_label
_atom_site_fract_x
_atom_site_fract_y
_atom_site_fract_z
Si Si1 0.337890 0.398470 0.701023
Si Si2 0.214385 0.207689 0.302086
Si Si3 0.375125 0.214024 0.797119
Si Si4 0.703906 0.102797 0.799055
Si Si5 0.546206 0.895264 0.794590
Si Si6 0.044136 0.109511 0.299043
Si Si7 0.133716 0.105883 0.706147
Si Si8 0.243897 0.398296 0.198864
O O1 0.334138 0.398304 0.500000
O O2 0.350133 0.500000 0.756044
O O3 0.368048 0.318474 0.752568
O O4 0.292351 0.380419 0.772452
O O5 0.215076 0.189589 0.500000
O O6 0.254368 0.157641 0.230387
O O7 0.172125 0.165076 0.234845
O O8 0.218944 0.314932 0.274141
O O9 0.335621 0.157460 0.732975
O O10 0.417383 0.169617 0.735604
O O11 0.375201 0.207414 0.000000
O O12 0.706359 0.000000 0.732098
O O13 0.698529 0.096650 0.000000
O O14 0.500000 0.870840 0.740094
O O15 0.554192 0.000000 0.746569
O O16 0.546183 0.893456 0.000000
O O17 0.043581 0.127737 0.500000
O O18 0.088747 0.139213 0.234285
O O19 0.000000 0.141830 0.229615
O O20 0.044562 0.000000 0.281476
O O21 0.132665 0.107957 0.500000
O O22 0.139292 0.000000 0.752939
O O23 0.235477 0.500000 0.266066
O O24 0.236553 0.398867 0.000000
#
# Coordination Sequence:
#
# PCOD9381820 Si02
#       8
#     8   8   8   8   8   8   8   8
#     4  10  20  33  49  69  91 114 143 181 225 270
#     4  11  20  29  43  63  90 121 149 179 218 263
#     4  10  18  29  48  71  93 118 149 185 222 259
#     4  10  20  31  42  60  89 123 155 184 212 249
#     4   8  14  26  46  72  98 121 147 181 220 259
#     4   7   9  15  29  48  72 106 146 182 213 247
#     4   8  14  23  34  53  84 119 150 178 211 253
#     4  10  20  34  50  65  83 110 146 187 227 265
#
# _framework density 16.769099000000001
#
# number of rings (size 3 to 8) (size 9 to 14) (size 15 to 20)
#    0.000    2.750    1.250    3.375    0.000    3.750 
#    0.000    0.000    0.000    1.875    0.000    3.500 
#    0.000    2.500    0.000   20.375    0.000   12.750 
#
# Total GULP energy -356586.911576 kJ/mol
# GULP energy per Si atom -5571.670493 kJ/mol
# Density = 1.673093 g / cm^3
# Si number density = 16.769099 Si / 1000 Ang^3
#
#
#
# Elastic Constant Matrix: (Units=GPa)
#
#
# Indices 1 2 3 4 5 6 
#
# 1 146.2952 74.5429 2.0979 0.0000 0.0000 0.0000
# 2 74.5429 101.4899 -0.9116 0.0000 0.0000 0.0000
# 3 2.0979 -0.9116 13.3693 0.0000 0.0000 0.0000
# 4 0.0000 0.0000 0.0000 10.8259 0.0000 0.0000
# 5 0.0000 0.0000 0.0000 0.0000 10.2493 0.0000
# 6 0.0000 0.0000 0.0000 0.0000 0.0000 7.6916
#
#
#
# Elastic Compliance Matrix: (Units=1/GPa)
#
#
# Indices 1 2 3 4 5 6 
#
# 1 0.010992 -0.008094 -0.002277 0.000000 0.000000 0.000000
# 2 -0.008094 0.015819 0.002349 0.000000 0.000000 0.000000
# 3 -0.002277 0.002349 0.075316 0.000000 0.000000 0.000000
# 4 0.000000 0.000000 0.000000 0.092371 0.000000 0.000000
# 5 0.000000 0.000000 0.000000 0.000000 0.097568 0.000000
# 6 0.000000 0.000000 0.000000 0.000000 0.000000 0.130012
#
#
# Mechanical properties :
#
#
# Convention : Reuss Voigt Hill
#
# Bulk Modulus (GPa) = 11.61672 45.84588 28.73130
# Shear Modulus (GPa) = 10.71085 18.11505 14.41295
#
# Velocity S-wave (km/s) = 2.53004 3.29030 2.93489
# Velocity P-wave (km/s) = 3.93412 6.46789 5.35308
#
# Compressibility (1/GPa) = 0.08608281
#
# Stress axis : x y z
#
# Youngs Moduli (GPa) = 90.97142 63.21354 13.27746
#
# Poissons Ratio (x) = 0.51167 0.03023
# Poissons Ratio (y) = 0.73635 -0.03119
# Poissons Ratio (z) = 0.20712 -0.14847
#
# Static dielectric constant tensor:
#      x y z
#    x 1.587250 0.000000 0.000000 
#    y 0.000000 1.562030 0.000000 
#    z 0.000000 0.000000 1.621620 
# 
# From -- ./inp_files/14319.got.cif
#   From: 2010.05.17/outbox.cif.g08.bks.cpg/sg47_8_cif.got.tgz:14319.got - 2010.06.03 20:15:42.
