data_PCOD9381055
_publ_section_title
;
Structure prediction by ZEFSAII (Michael W. Deem and Ramdas Pophale) SiO2 
 PCOD9381055
Probable space group: I M A 2
;
_chemical_formula_sum "Si O2"
_cell_formula_units_Z 40
_cell_length_a 11.342629
_cell_length_b 19.255871
_cell_length_c 6.776934
_cell_angle_alpha 90.000000
_cell_angle_beta 90.000000
_cell_angle_gamma 90.000000
_cell_volume 1480.165070
_symmetry_space_group_name_H-M "I M A 2"
_symmetry_group_IT_number 46
_symmetry_cell_setting 'orthorhombic'
loop_
_space_group_symop_operation_xyz
x,y,z
-x,-y,z
1/2-x,y,z
1/2+x,-y,z
1/2+x,1/2+y,1/2+z
1/2-x,1/2-y,1/2+z
-x,1/2+y,1/2+z
x,1/2-y,1/2+z
loop_
_atom_site_type_symbol
_atom_site_label
_atom_site_fract_x
_atom_site_fract_y
_atom_site_fract_z
Si Si1 0.120785 0.624989 0.161680
Si Si2 0.880055 0.234610 0.300088
Si Si3 0.122186 0.031388 0.108863
Si Si4 0.622210 0.578964 0.039935
Si Si5 0.624253 0.815256 0.200226
O O1 0.250000 0.590374 0.165105
O O2 0.116916 0.682137 0.335691
O O3 0.002041 0.580331 0.151192
O O4 0.120338 0.674999 0.966731
O O5 0.750000 0.225651 0.203238
O O6 0.003081 0.224430 0.185359
O O7 0.250000 0.002074 0.049411
O O8 0.120465 0.027531 0.350115
O O9 0.121089 0.114218 0.071675
O O10 0.000000 0.000000 0.039072
O O11 0.750000 0.571411 0.141337
O O12 0.626775 0.652435 0.921227
O O13 0.750000 0.779724 0.163954
#
# Coordination Sequence:
#
# PCOD9381055 Si02
#       5
#     8   8   8   8   8
#     4   9  16  25  37  53  73  99 128 156 185 218
#     4   9  16  25  37  53  73  99 128 156 185 218
#     4   8  14  22  34  52  74  98 124 152 187 228
#     4   7  13  24  34  48  71  96 121 150 181 217
#     4   7  13  24  34  48  71  96 121 150 181 217
#
# _framework density 27.024013
#
# number of rings (size 3 to 8) (size 9 to 14) (size 15 to 20)
#    1.200    2.800    0.000    0.000    0.000    2.400 
#    0.000    0.000    0.000    0.000    0.000    0.000 
#    0.000    1.600    0.000    3.600    0.000    5.600 
#
# Total GULP energy -111346.610915 kJ/mol
# GULP energy per Si atom -5567.330546 kJ/mol
# Density = 2.696251 g / cm^3
# Si number density = 27.024013 Si / 1000 Ang^3
#
#
#
# Elastic Constant Matrix: (Units=GPa)
#
#
# Indices 1 2 3 4 5 6 
#
# 1 347.3271 68.2587 44.1074 0.0006 0.0004 0.0001
# 2 68.2587 65.9892 22.1819 0.0000 0.0001 0.0000
# 3 44.1074 22.1819 81.5363 0.0003 -0.0003 -0.0004
# 4 0.0006 0.0000 0.0003 33.3247 0.0000 -0.0001
# 5 0.0004 0.0001 -0.0003 0.0000 -10.9558 0.0000
# 6 0.0001 0.0000 -0.0004 -0.0001 0.0000 12.6185
#
#
#
# Elastic Compliance Matrix: (Units=1/GPa)
#
#
# Indices 1 2 3 4 5 6 
#
# 1 0.003694 -0.003467 -0.001055 0.000000 0.000000 0.000000
# 2 -0.003467 0.019932 -0.003547 0.000000 0.000000 0.000000
# 3 -0.001055 -0.003547 0.013800 0.000000 0.000000 0.000000
# 4 0.000000 0.000000 0.000000 0.030008 0.000000 0.000000
# 5 0.000000 0.000000 0.000000 0.000000 -0.091276 0.000000
# 6 0.000000 0.000000 0.000000 0.000000 0.000000 0.079249
#
#
# Mechanical properties :
#
#
# Convention : Reuss Voigt Hill
#
# Bulk Modulus (GPa) = 46.97384 84.88317 65.92851
# Shear Modulus (GPa) = 63.57853 31.01780 47.29816
#
# Velocity S-wave (km/s) = 4.85569 3.39158 4.18811
# Velocity P-wave (km/s) = 6.98978 6.84219 6.91638
#
# Compressibility (1/GPa) = 0.02128844
#
# Stress axis : x y z
#
# Youngs Moduli (GPa) = 270.67540 50.16970 72.46155
#
# Poissons Ratio (x) = 0.17393 0.07648
# Poissons Ratio (y) = 0.93836 0.25704
# Poissons Ratio (z) = 0.28567 0.17796
#
# Static dielectric constant tensor:
#      x y z
#    x 2.076270 0.000000 0.000000 
#    y 0.000000 2.075750 0.000000 
#    z 0.000000 0.000000 2.187920 
# 
# From -- ./inp_files/9376.got.cif
#   From: 2010.05.17/outbox.cif.g08.bks.cpg/sg46_5_cif.got.tgz:9376.got - 2010.06.03 19:58:25.
