data_PCOD9381427
_publ_section_title
;
Structure prediction by ZEFSAII (Michael W. Deem and Ramdas Pophale) SiO2 
 PCOD9381427
Probable space group: P M M M
;
_chemical_formula_sum "Si O2"
_cell_formula_units_Z 52
_cell_length_a 14.965421
_cell_length_b 8.896573
_cell_length_c 24.962414
_cell_angle_alpha 90.000000
_cell_angle_beta 90.000000
_cell_angle_gamma 90.000000
_cell_volume 3323.519774
_symmetry_space_group_name_H-M "P M M M"
_symmetry_group_IT_number 47
_symmetry_cell_setting 'orthorhombic'
loop_
_space_group_symop_operation_xyz
x,y,z
-x,-y,z
x,-y,-z
-x,y,-z
-x,-y,-z
x,y,-z
-x,y,z
x,-y,z
loop_
_atom_site_type_symbol
_atom_site_label
_atom_site_fract_x
_atom_site_fract_y
_atom_site_fract_z
Si Si1 0.156158 0.677578 0.500000
Si Si2 0.604199 0.179672 0.777074
Si Si3 0.267935 0.675348 0.688733
Si Si4 0.600451 0.170314 0.382886
Si Si5 0.390977 0.173853 0.000000
Si Si6 0.898570 0.316778 0.619255
Si Si7 0.660565 0.168103 0.500000
Si Si8 0.391869 0.328674 0.890157
O O1 0.136434 0.500000 0.500000
O O2 0.121067 0.735487 0.557863
O O3 0.261129 0.711394 0.500000
O O4 0.500000 0.229448 0.766213
O O5 0.678748 0.243199 0.736610
O O6 0.627755 0.234764 0.836873
O O7 0.604098 0.000000 0.774395
O O8 0.258716 0.500000 0.701979
O O9 0.335496 0.703762 0.639710
O O10 0.173976 0.732745 0.663755
O O11 0.500000 0.187535 0.362899
O O12 0.603515 0.178345 0.446638
O O13 0.630689 0.000000 0.367710
O O14 0.360617 0.254787 0.945605
O O15 0.500000 0.177875 0.000000
O O16 0.364650 0.000000 0.000000
O O17 0.892080 0.500000 0.618022
O O18 0.000000 0.276134 0.633157
O O19 0.702874 0.000000 0.500000
O O20 0.500000 0.332653 0.893497
O O21 0.360263 0.500000 0.884919
#
# Coordination Sequence:
#
# PCOD9381427 Si02
#       8
#     4   8   8   8   4   8   4   8
#     4  10  17  31  53  72  88 108 137 173 219 274
#     4  10  20  33  47  63  88 124 160 190 225 271
#     4  11  21  32  48  68  88 110 143 186 225 263
#     4  10  20  33  47  62  84 116 147 173 210 262
#     4   9  15  23  37  59  89 125 162 197 234 273
#     4   9  18  32  51  72  90 110 138 175 223 279
#     4  10  19  31  47  64  86 112 139 173 213 258
#     4   9  16  26  41  62  88 119 159 203 237 262
#
# _framework density 15.646063
#
# number of rings (size 3 to 8) (size 9 to 14) (size 15 to 20)
#    0.000    2.231    1.538    2.538    0.000    7.692 
#    0.000    0.000    0.000    6.000    0.000    0.000 
#    0.000    0.000    0.000    0.692    0.000   14.385 
#
# Total GULP energy -289567.665217 kJ/mol
# GULP energy per Si atom -5568.608946 kJ/mol
# Density = 1.561045 g / cm^3
# Si number density = 15.646063 Si / 1000 Ang^3
#
#
#
# Elastic Constant Matrix: (Units=GPa)
#
#
# Indices 1 2 3 4 5 6 
#
# 1 78.0464 19.2370 41.9774 0.0000 0.0000 0.0000
# 2 19.2370 36.7445 33.6459 0.0000 0.0000 0.0000
# 3 41.9774 33.6459 123.5791 0.0000 0.0000 0.0000
# 4 0.0000 0.0000 0.0000 26.6331 0.0000 0.0000
# 5 0.0000 0.0000 0.0000 0.0000 9.7263 0.0000
# 6 0.0000 0.0000 0.0000 0.0000 0.0000 0.5886
#
#
#
# Elastic Compliance Matrix: (Units=1/GPa)
#
#
# Indices 1 2 3 4 5 6 
#
# 1 0.016240 -0.004597 -0.004265 0.000000 0.000000 0.000000
# 2 -0.004597 0.037554 -0.008663 0.000000 0.000000 0.000000
# 3 -0.004265 -0.008663 0.011899 0.000000 0.000000 0.000000
# 4 0.000000 0.000000 0.000000 0.037547 0.000000 0.000000
# 5 0.000000 0.000000 0.000000 0.000000 0.102814 0.000000
# 6 0.000000 0.000000 0.000000 0.000000 0.000000 1.698957
#
#
# Mechanical properties :
#
#
# Convention : Reuss Voigt Hill
#
# Bulk Modulus (GPa) = 32.63325 47.56563 40.09944
# Shear Modulus (GPa) = 2.56374 16.95691 9.76033
#
# Velocity S-wave (km/s) = 1.28146 3.29566 2.50035
# Velocity P-wave (km/s) = 4.80541 6.70439 5.83270
#
# Compressibility (1/GPa) = 0.03064360
#
# Stress axis : x y z
#
# Youngs Moduli (GPa) = 61.57735 26.62823 84.03882
#
# Poissons Ratio (x) = 0.12241 0.35840
# Poissons Ratio (y) = 0.28307 0.72804
# Poissons Ratio (z) = 0.26261 0.23068
#
# Static dielectric constant tensor:
#      x y z
#    x 1.506650 0.000000 0.000000 
#    y 0.000000 1.549080 0.000000 
#    z 0.000000 0.000000 1.542570 
# 
# From -- ./inp_files/32697.got.cif
#   From: 2010.05.17/outbox.cif.g08.bks.cpg/sg47_17_cif.got.tgz:32697.got - 2010.06.03 20:15:42.
