data_PCOD9381766
_publ_section_title
;
Structure prediction by ZEFSAII (Michael W. Deem and Ramdas Pophale) SiO2 
 PCOD9381766
Probable space group: P M M M
;
_chemical_formula_sum "Si O2"
_cell_formula_units_Z 36
_cell_length_a 11.528285
_cell_length_b 18.813043
_cell_length_c 7.304508
_cell_angle_alpha 90.000000
_cell_angle_beta 90.000000
_cell_angle_gamma 90.000000
_cell_volume 1584.217191
_symmetry_space_group_name_H-M "P M M M"
_symmetry_group_IT_number 47
_symmetry_cell_setting 'orthorhombic'
loop_
_space_group_symop_operation_xyz
x,y,z
-x,-y,z
x,-y,-z
-x,y,-z
-x,-y,-z
x,y,-z
-x,y,z
x,-y,z
loop_
_atom_site_type_symbol
_atom_site_label
_atom_site_fract_x
_atom_site_fract_y
_atom_site_fract_z
Si Si1 0.804472 0.689659 0.220558
Si Si2 0.365745 0.422746 0.777732
Si Si3 0.371422 0.084009 0.721499
Si Si4 0.130856 0.150628 0.290516
Si Si5 0.000000 0.579509 0.778080
O O1 0.685525 0.652928 0.280683
O O2 0.845388 0.764940 0.293027
O O3 0.891407 0.626853 0.273163
O O4 0.806129 0.697899 0.000000
O O5 0.500000 0.424572 0.730881
O O6 0.314452 0.500000 0.719037
O O7 0.354433 0.423028 0.000000
O O8 0.371661 0.092607 0.500000
O O9 0.500000 0.110456 0.783562
O O10 0.250403 0.118052 0.789357
O O11 0.367487 0.000000 0.760723
O O12 0.125415 0.124426 0.500000
O O13 0.000000 0.138318 0.212918
O O14 0.000000 0.500000 0.708798
O O15 0.000000 0.575698 0.000000
#
# Coordination Sequence:
#
# PCOD9381766 Si02
#       5
#     8   8   8   8   4
#     4  10  18  29  46  67  91 122 157 193 233 280
#     4   8  14  25  42  65  90 114 148 199 247 278
#     4   8  15  30  52  75  96 121 158 199 233 272
#     4  10  20  32  47  70 101 129 152 188 238 285
#     4   9  16  26  43  65  84 111 158 204 229 255
#
# _framework density 22.724157999999999
#
# number of rings (size 3 to 8) (size 9 to 14) (size 15 to 20)
#    0.000    3.000    1.111    2.000    0.000    4.000 
#    0.000    2.222    0.000    4.000    0.000    4.667 
#    0.000    0.000    0.000    0.000    0.000    0.000 
#
# Total GULP energy -200528.816870 kJ/mol
# GULP energy per Si atom -5570.244913 kJ/mol
# Density = 2.267244 g / cm^3
# Si number density = 22.724158 Si / 1000 Ang^3
#
#
#
# Elastic Constant Matrix: (Units=GPa)
#
#
# Indices 1 2 3 4 5 6 
#
# 1 191.1600 70.2798 8.9238 0.0000 0.0000 0.0000
# 2 70.2798 71.8085 -2.8615 0.0000 0.0000 0.0000
# 3 8.9238 -2.8615 88.7464 0.0000 0.0000 0.0000
# 4 0.0000 0.0000 0.0000 6.4850 0.0000 0.0000
# 5 0.0000 0.0000 0.0000 0.0000 -9.7104 0.0000
# 6 0.0000 0.0000 0.0000 0.0000 0.0000 -181.1748
#
#
#
# Elastic Compliance Matrix: (Units=1/GPa)
#
#
# Indices 1 2 3 4 5 6 
#
# 1 0.008276 -0.008144 -0.001095 0.000000 0.000000 0.000000
# 2 -0.008144 0.021957 0.001527 0.000000 0.000000 0.000000
# 3 -0.001095 0.001527 0.011427 0.000000 0.000000 0.000000
# 4 0.000000 0.000000 0.000000 0.154203 0.000000 0.000000
# 5 0.000000 0.000000 0.000000 0.000000 -0.102983 0.000000
# 6 0.000000 0.000000 0.000000 0.000000 0.000000 -0.005520
#
#
# Mechanical properties :
#
#
# Convention : Reuss Voigt Hill
#
# Bulk Modulus (GPa) = 38.11339 56.04434 47.07886
# Shear Modulus (GPa) = 44.83065 -18.52185 13.15440
#
# Velocity S-wave (km/s) = 4.44646 -2.85805 2.40859
# Velocity P-wave (km/s) = 6.57038 3.71823 5.33831
#
# Compressibility (1/GPa) = 0.02623750
#
# Stress axis : x y z
#
# Youngs Moduli (GPa) = 120.82550 45.54307 87.50905
#
# Poissons Ratio (x) = 0.37090 0.09581
# Poissons Ratio (y) = 0.98398 -0.13362
# Poissons Ratio (z) = 0.13228 -0.06954
#
# Static dielectric constant tensor:
#      x y z
#    x 2.052850 0.000000 0.000000 
#    y 0.000000 1.786910 0.000000 
#    z 0.000000 0.000000 1.937240 
# 
# From -- ./inp_files/3709.got.cif
#   From: 2010.05.17/outbox.cif.g08.bks.cpg/sg47_2_cif.got.tgz:3709.got - 2010.06.03 20:15:42.
