data_PCOD9381029
_publ_section_title
;
Structure prediction by ZEFSAII (Michael W. Deem and Ramdas Pophale) SiO2 
 PCOD9381029
Probable space group: I M A 2
;
_chemical_formula_sum "Si O2"
_cell_formula_units_Z 32
_cell_length_a 20.564785
_cell_length_b 4.464911
_cell_length_c 12.921912
_cell_angle_alpha 90.000000
_cell_angle_beta 90.000000
_cell_angle_gamma 90.000000
_cell_volume 1186.489117
_symmetry_space_group_name_H-M "I M A 2"
_symmetry_group_IT_number 46
_symmetry_cell_setting 'orthorhombic'
loop_
_space_group_symop_operation_xyz
x,y,z
-x,-y,z
1/2-x,y,z
1/2+x,-y,z
1/2+x,1/2+y,1/2+z
1/2-x,1/2-y,1/2+z
-x,1/2+y,1/2+z
x,1/2-y,1/2+z
loop_
_atom_site_type_symbol
_atom_site_label
_atom_site_fract_x
_atom_site_fract_y
_atom_site_fract_z
Si Si1 0.126871 0.792169 0.952470
Si Si2 0.627909 0.697474 0.803356
Si Si3 0.546947 0.731415 0.611185
Si Si4 0.750000 0.958646 0.552434
Si Si5 0.250000 0.937348 0.192383
O O1 0.091528 0.543614 0.878869
O O2 0.153870 0.039382 0.875092
O O3 0.183787 0.590394 0.003484
O O4 0.085140 0.007276 0.031136
O O5 0.591926 0.841297 0.704307
O O6 0.686602 0.518951 0.753845
O O7 0.500000 0.500000 0.667557
O O8 0.500000 0.000000 0.571500
O O9 0.750000 0.090290 0.667813
O O10 0.750000 0.608681 0.580072
#
# Coordination Sequence:
#
# PCOD9381029 Si02
#       5
#     8   8   8   4   4
#     4  12  26  47  77 114 154 203 259 323 396 473
#     4  12  26  47  77 112 154 202 257 324 399 473
#     4  12  28  49  76 107 153 210 264 326 387 460
#     4  12  24  44  78 111 157 200 250 318 403 474
#     4  12  24  44  78 111 157 202 246 318 403 472
#
# _framework density 26.970327999999999
#
# number of rings (size 3 to 8) (size 9 to 14) (size 15 to 20)
#    0.000    0.000    2.500    7.500    3.500    4.000 
#    0.000    0.000    0.000    0.000    0.000    0.000 
#    0.000    0.000    0.000    0.000    0.000    0.000 
#
# Total GULP energy -89391.531764 kJ/mol
# GULP energy per Si atom -5586.970735 kJ/mol
# Density = 2.690894 g / cm^3
# Si number density = 26.970328 Si / 1000 Ang^3
#
#
#
# Elastic Constant Matrix: (Units=GPa)
#
#
# Indices 1 2 3 4 5 6 
#
# 1 92.8927 30.4838 59.6085 0.0000 0.0000 0.0000
# 2 30.4838 144.0034 54.5686 0.0000 0.0000 0.0000
# 3 59.6085 54.5686 142.1750 0.0000 0.0000 0.0000
# 4 0.0000 0.0000 0.0000 60.3240 0.0000 0.0000
# 5 0.0000 0.0000 0.0000 0.0000 36.2381 0.0000
# 6 0.0000 0.0000 0.0000 0.0000 0.0000 52.9831
#
#
#
# Elastic Compliance Matrix: (Units=1/GPa)
#
#
# Indices 1 2 3 4 5 6 
#
# 1 0.014830 -0.000917 -0.005866 0.000000 0.000000 0.000000
# 2 -0.000917 0.008183 -0.002756 0.000000 0.000000 0.000000
# 3 -0.005866 -0.002756 0.010551 0.000000 0.000000 0.000000
# 4 0.000000 0.000000 0.000000 0.016577 0.000000 0.000000
# 5 0.000000 0.000000 0.000000 0.000000 0.027595 0.000000
# 6 0.000000 0.000000 0.000000 0.000000 0.000000 0.018874
#
#
# Mechanical properties :
#
#
# Convention : Reuss Voigt Hill
#
# Bulk Modulus (GPa) = 69.03193 74.26589 71.64891
# Shear Modulus (GPa) = 41.48821 45.53639 43.51230
#
# Velocity S-wave (km/s) = 3.92636 4.11346 4.02100
# Velocity P-wave (km/s) = 6.79751 7.08214 6.94128
#
# Compressibility (1/GPa) = 0.01448605
#
# Stress axis : x y z
#
# Youngs Moduli (GPa) = 67.43117 122.20740 94.77912
#
# Poissons Ratio (x) = 0.11201 0.55596
# Poissons Ratio (y) = 0.06180 0.26125
# Poissons Ratio (z) = 0.39554 0.33685
#
# Static dielectric constant tensor:
#      x y z
#    x 2.152150 0.000000 0.000000 
#    y 0.000000 2.036130 0.000000 
#    z 0.000000 0.000000 2.115650 
# 
# From -- ./inp_files/12177.got.cif
#   From: 2010.05.17/outbox.cif.g08.bks.cpg/sg46_7_cif.got.tgz:12177.got - 2010.06.03 19:58:25.
