data_PCOD9381980
_publ_section_title
;
Structure prediction by ZEFSAII (Michael W. Deem and Ramdas Pophale) SiO2 
 PCOD9381980
Probable space group: P M M M
;
_chemical_formula_sum "Si O2"
_cell_formula_units_Z 52
_cell_length_a 16.122535
_cell_length_b 17.925182
_cell_length_c 11.534386
_cell_angle_alpha 90.000000
_cell_angle_beta 90.000000
_cell_angle_gamma 90.000000
_cell_volume 3333.430336
_symmetry_space_group_name_H-M "P M M M"
_symmetry_group_IT_number 47
_symmetry_cell_setting 'orthorhombic'
loop_
_space_group_symop_operation_xyz
x,y,z
-x,-y,z
x,-y,-z
-x,y,-z
-x,-y,-z
x,y,-z
-x,y,z
x,-y,z
loop_
_atom_site_type_symbol
_atom_site_label
_atom_site_fract_x
_atom_site_fract_y
_atom_site_fract_z
Si Si1 0.404745 0.683700 0.863000
Si Si2 0.093941 0.000000 0.140502
Si Si3 0.906412 0.690254 0.140365
Si Si4 0.819489 0.845313 0.139659
Si Si5 0.642544 0.165919 0.740802
Si Si6 0.244688 0.414928 0.140402
Si Si7 0.399098 0.089846 0.500000
Si Si8 0.500000 0.912340 0.874631
O O1 0.500000 0.656731 0.854694
O O2 0.392531 0.752635 0.775304
O O3 0.332798 0.624297 0.835053
O O4 0.391966 0.706144 0.000000
O O5 0.139937 0.075999 0.172560
O O6 0.000000 0.000000 0.183883
O O7 0.090851 0.000000 0.000000
O O8 0.878935 0.775148 0.165043
O O9 0.833369 0.634901 0.181297
O O10 0.000000 0.674517 0.182097
O O11 0.908323 0.684060 0.000000
O O12 0.734394 0.836060 0.208007
O O13 0.803997 0.844838 0.000000
O O14 0.635078 0.134850 0.611058
O O15 0.582348 0.111073 0.810226
O O16 0.241006 0.500000 0.182437
O O17 0.239120 0.416907 0.000000
O O18 0.500000 0.094120 0.500000
O O19 0.378966 0.000000 0.500000
O O20 0.500000 0.000000 0.884327
O O21 0.500000 0.874986 0.000000
#
# Coordination Sequence:
#
# PCOD9381980 Si02
#       8
#     8   4   8   8   8   8   4   4
#     4  10  18  30  49  72  99 131 166 208 255 303
#     4   9  18  30  44  68 101 130 156 196 255 315
#     4   9  16  27  44  67 100 140 172 199 243 304
#     4  10  19  30  48  73 101 128 163 210 256 301
#     4  12  21  34  51  69  95 131 171 207 249 293
#     4   9  17  28  42  67 105 141 170 201 242 301
#     4  11  24  40  52  66  95 137 174 215 252 296
#     4  11  22  31  47  73 100 127 159 200 251 296
#
# _framework density 15.599545000000001
#
# number of rings (size 3 to 8) (size 9 to 14) (size 15 to 20)
#    0.000    1.923    3.077    2.308    2.154    2.462 
#    0.000    3.077    0.000    0.000    0.000    3.231 
#    0.000    1.846    0.000    1.385    0.000    0.615 
#
# Total GULP energy -289648.198508 kJ/mol
# GULP energy per Si atom -5570.157664 kJ/mol
# Density = 1.556404 g / cm^3
# Si number density = 15.599545 Si / 1000 Ang^3
#
#
#
# Elastic Constant Matrix: (Units=GPa)
#
#
# Indices 1 2 3 4 5 6 
#
# 1 140.2457 61.7248 22.9059 0.0000 0.0000 0.0000
# 2 61.7248 120.9967 19.3539 0.0000 0.0000 0.0000
# 3 22.9059 19.3539 56.0311 0.0000 0.0000 0.0000
# 4 0.0000 0.0000 0.0000 23.7834 0.0000 0.0000
# 5 0.0000 0.0000 0.0000 0.0000 22.7307 0.0000
# 6 0.0000 0.0000 0.0000 0.0000 0.0000 14.8678
#
#
#
# Elastic Compliance Matrix: (Units=1/GPa)
#
#
# Indices 1 2 3 4 5 6 
#
# 1 0.009474 -0.004460 -0.002333 0.000000 0.000000 0.000000
# 2 -0.004460 0.010848 -0.001924 0.000000 0.000000 0.000000
# 3 -0.002333 -0.001924 0.019465 0.000000 0.000000 0.000000
# 4 0.000000 0.000000 0.000000 0.042046 0.000000 0.000000
# 5 0.000000 0.000000 0.000000 0.000000 0.043993 0.000000
# 6 0.000000 0.000000 0.000000 0.000000 0.000000 0.067260
#
#
# Mechanical properties :
#
#
# Convention : Reuss Voigt Hill
#
# Bulk Modulus (GPa) = 44.73350 58.36032 51.54691
# Shear Modulus (GPa) = 22.93892 26.49564 24.71728
#
# Velocity S-wave (km/s) = 3.83885 4.12574 3.98488
# Velocity P-wave (km/s) = 6.95611 7.75812 7.36804
#
# Compressibility (1/GPa) = 0.02235461
#
# Stress axis : x y z
#
# Youngs Moduli (GPa) = 105.54897 92.18616 51.37363
#
# Poissons Ratio (x) = 0.41116 0.11983
# Poissons Ratio (y) = 0.47075 0.09882
# Poissons Ratio (z) = 0.24620 0.17733
#
# Static dielectric constant tensor:
#      x y z
#    x 1.526360 0.000000 0.000000 
#    y 0.000000 1.536810 0.000000 
#    z 0.000000 0.000000 1.551810 
# 
# From -- ./inp_files/17834.got.cif
#   From: 2010.05.17/outbox.cif.g08.bks.cpg/sg47_9_cif.got.tgz:17834.got - 2010.06.03 20:15:42.
