data_PCOD9381187
_publ_section_title
;
Structure prediction by ZEFSAII (Michael W. Deem and Ramdas Pophale) SiO2 
 PCOD9381187
Probable space group: P M M M
;
_chemical_formula_sum "Si O2"
_cell_formula_units_Z 60
_cell_length_a 25.114122
_cell_length_b 12.836278
_cell_length_c 14.542769
_cell_angle_alpha 90.000000
_cell_angle_beta 90.000000
_cell_angle_gamma 90.000000
_cell_volume 4688.179372
_symmetry_space_group_name_H-M "P M M M"
_symmetry_group_IT_number 47
_symmetry_cell_setting 'orthorhombic'
loop_
_space_group_symop_operation_xyz
x,y,z
-x,-y,z
x,-y,-z
-x,y,-z
-x,-y,-z
x,y,-z
-x,y,z
x,-y,z
loop_
_atom_site_type_symbol
_atom_site_label
_atom_site_fract_x
_atom_site_fract_y
_atom_site_fract_z
Si Si1 0.936546 0.377503 0.106807
Si Si2 0.772632 0.875818 0.108885
Si Si3 0.335820 0.126662 0.211220
Si Si4 0.559803 0.873262 0.893171
Si Si5 0.715553 0.873580 0.397829
Si Si6 0.159354 0.874565 0.605416
Si Si7 0.063956 0.000000 0.108167
Si Si8 0.121616 0.194738 0.204186
O O1 0.925599 0.500000 0.120523
O O2 0.904478 0.302367 0.173351
O O3 0.000000 0.361955 0.118182
O O4 0.923935 0.351651 0.000000
O O5 0.714228 0.847507 0.146029
O O6 0.819239 0.817361 0.162275
O O7 0.779995 0.000000 0.126894
O O8 0.776519 0.859365 0.000000
O O9 0.391760 0.163702 0.170093
O O10 0.320582 0.162756 0.313582
O O11 0.338286 0.000000 0.213254
O O12 0.500000 0.840169 0.866251
O O13 0.560116 0.000000 0.890712
O O14 0.568706 0.844578 0.000000
O O15 0.699885 0.837926 0.500000
O O16 0.777877 0.848334 0.382874
O O17 0.713438 0.000000 0.398138
O O18 0.144453 0.848969 0.500000
O O19 0.126322 0.822075 0.686644
O O20 0.154992 0.000000 0.615947
O O21 0.087708 0.101520 0.157721
O O22 0.000000 0.000000 0.113065
O O23 0.079519 0.000000 0.000000
#
# Coordination Sequence:
#
# PCOD9381187 Si02
#       8
#     8   8   8   8   8   8   4   8
#     4   9  19  35  51  64  79 105 141 170 190 226
#     4  10  17  22  31  54  84 104 116 145 199 253
#     4   9  14  20  30  44  66  93 122 155 190 232
#     4   8  13  20  28  38  55  86 128 164 190 221
#     4   8  13  21  32  46  66  94 126 155 185 229
#     4   9  16  27  41  59  84 111 135 158 193 245
#     4  11  22  30  39  61  89 111 125 147 195 252
#     4  12  18  28  45  63  84 106 131 163 202 241
#
# _framework density 12.798145999999999
#
# number of rings (size 3 to 8) (size 9 to 14) (size 15 to 20)
#    0.000    2.600    2.667    3.600    0.000    2.667 
#    0.000    0.000    0.000    2.800    0.000    3.733 
#    0.000    0.000    0.000    0.000    0.000    0.667 
#
# Total GULP energy -334058.731455 kJ/mol
# GULP energy per Si atom -5567.645524 kJ/mol
# Density = 1.276902 g / cm^3
# Si number density = 12.798146 Si / 1000 Ang^3
#
#
#
# Elastic Constant Matrix: (Units=GPa)
#
#
# Indices 1 2 3 4 5 6 
#
# 1 71.8021 24.1908 58.4349 0.0000 0.0000 0.0000
# 2 24.1908 24.8938 32.2592 0.0000 0.0000 0.0000
# 3 58.4349 32.2592 113.4598 0.0000 0.0000 0.0000
# 4 0.0000 0.0000 0.0000 11.5676 0.0000 0.0000
# 5 0.0000 0.0000 0.0000 0.0000 15.9489 0.0000
# 6 0.0000 0.0000 0.0000 0.0000 0.0000 4.8942
#
#
#
# Elastic Compliance Matrix: (Units=1/GPa)
#
#
# Indices 1 2 3 4 5 6 
#
# 1 0.026277 -0.012663 -0.009933 0.000000 0.000000 0.000000
# 2 -0.012663 0.069708 -0.013298 0.000000 0.000000 0.000000
# 3 -0.009933 -0.013298 0.017710 0.000000 0.000000 0.000000
# 4 0.000000 0.000000 0.000000 0.086449 0.000000 0.000000
# 5 0.000000 0.000000 0.000000 0.000000 0.062700 0.000000
# 6 0.000000 0.000000 0.000000 0.000000 0.000000 0.204322
#
#
# Mechanical properties :
#
#
# Convention : Reuss Voigt Hill
#
# Bulk Modulus (GPa) = 23.86186 48.88060 36.37123
# Shear Modulus (GPa) = 9.04282 12.83354 10.93818
#
# Velocity S-wave (km/s) = 2.66103 3.17008 2.92664
# Velocity P-wave (km/s) = 5.30346 7.18858 6.31674
#
# Compressibility (1/GPa) = 0.04190789
#
# Stress axis : x y z
#
# Youngs Moduli (GPa) = 38.05543 14.34550 56.46407
#
# Poissons Ratio (x) = 0.18166 0.56087
# Poissons Ratio (y) = 0.48190 0.75084
# Poissons Ratio (z) = 0.37801 0.19076
#
# Static dielectric constant tensor:
#      x y z
#    x 1.422930 0.000000 0.000000 
#    y 0.000000 1.387710 0.000000 
#    z 0.000000 0.000000 1.436690 
# 
# From -- ./inp_files/25351.got.cif
#   From: 2010.05.17/outbox.cif.g08.bks.cpg/sg47_13_cif.got.tgz:25351.got - 2010.06.03 20:15:42.
