data_PCOD9381122
_publ_section_title
;
Structure prediction by ZEFSAII (Michael W. Deem and Ramdas Pophale) SiO2 
 PCOD9381122
Probable space group: I M A 2
;
_chemical_formula_sum "Si O2"
_cell_formula_units_Z 32
_cell_length_a 18.000000
_cell_length_b 9.000000
_cell_length_c 21.000000
_cell_angle_alpha 90.000000
_cell_angle_beta 90.000000
_cell_angle_gamma 90.000000
_cell_volume 3402.000000
_symmetry_space_group_name_H-M "I M A 2"
_symmetry_group_IT_number 46
_symmetry_cell_setting 'orthorhombic'
loop_
_space_group_symop_operation_xyz
x,y,z
-x,-y,z
1/2-x,y,z
1/2+x,-y,z
1/2+x,1/2+y,1/2+z
1/2-x,1/2-y,1/2+z
-x,1/2+y,1/2+z
x,1/2-y,1/2+z
loop_
_atom_site_type_symbol
_atom_site_label
_atom_site_fract_x
_atom_site_fract_y
_atom_site_fract_z
Si Si1 0.080717 0.057507 0.470890
Si Si2 0.081580 0.164270 0.611233
Si Si3 0.837957 0.220559 0.461466
Si Si4 0.413129 0.772712 0.098275
Si Si5 0.664727 0.661364 0.434564
Si Si6 0.161953 0.593512 0.341347
Si Si7 0.165618 0.051236 0.073896
Si Si8 0.160675 0.940033 0.697404
O O1 0.081628 0.063108 0.547843
O O2 0.101398 0.218906 0.445665
O O3 0.146791 0.951844 0.448617
O O4 0.000000 0.000000 0.450837
O O5 0.144043 0.285733 0.596270
O O6 0.109747 0.075174 0.672239
O O7 0.998055 0.228963 0.612589
O O8 0.750000 0.249902 0.472448
O O9 0.886659 0.247928 0.525021
O O10 0.867111 0.304051 0.398550
O O11 0.358896 0.686186 0.146123
O O12 0.395020 0.945615 0.105076
O O13 0.750000 0.719557 0.435887
O O14 0.653676 0.571253 0.369949
O O15 0.660933 0.554276 0.496745
O O16 0.250000 0.626347 0.339595
O O17 0.136872 0.604787 0.268828
O O18 0.250000 0.010396 0.090737
O O19 0.250000 0.971449 0.696784
#
# Coordination Sequence:
#
# PCOD9381122 Si02
#       8
#     8   8   8   8   8   8   8   8
#     4  11  20  34  52  85 120 149 191 244 297 353
#     4  11  22  37  56  85 126 156 192 242 306 355
#     4  11  20  35  60  87 116 153 201 255 303 351
#     4  12  21  36  59  89 123 155 193 248 307 355
#     4   9  18  34  57  83 115 150 191 243 296 348
#     4   9  20  39  60  86 117 154 202 251 297 351
#     4  10  20  35  60  90 115 145 199 252 296 350
#     4  11  22  38  62  87 118 162 207 244 294 363
#
# _framework density 9.4062319999999993
#
# number of rings (size 3 to 8) (size 9 to 14) (size 15 to 20)
#    0.000    1.500    3.750    2.625    0.000    1.000 
#    0.000    4.375    0.000    3.000    0.000    0.000 
#    0.000    0.000    0.000    0.000    0.000    0.000 
#
# Total GULP energy -178264.079303 kJ/mol
# GULP energy per Si atom -5570.752478 kJ/mol
# Density = 0.938482 g / cm^3
# Si number density = 9.406232 Si / 1000 Ang^3
#
#
#
# Elastic Constant Matrix: (Units=GPa)
#
#
# Indices 1 2 3 4 5 6 
#
# 1 86.2770 31.2453 30.2277 0.0000 0.0000 0.0000
# 2 31.2453 60.6432 32.3917 0.0000 0.0000 0.0000
# 3 30.2277 32.3917 119.5520 0.0000 0.0000 0.0000
# 4 0.0000 0.0000 0.0000 16.7473 0.0000 0.0000
# 5 0.0000 0.0000 0.0000 0.0000 13.9057 0.0000
# 6 0.0000 0.0000 0.0000 0.0000 0.0000 34.4229
#
#
#
# Elastic Compliance Matrix: (Units=1/GPa)
#
#
# Indices 1 2 3 4 5 6 
#
# 1 0.014623 -0.006500 -0.001936 0.000000 0.000000 0.000000
# 2 -0.006500 0.022169 -0.004363 0.000000 0.000000 0.000000
# 3 -0.001936 -0.004363 0.010036 0.000000 0.000000 0.000000
# 4 0.000000 0.000000 0.000000 0.059711 0.000000 0.000000
# 5 0.000000 0.000000 0.000000 0.000000 0.071913 0.000000
# 6 0.000000 0.000000 0.000000 0.000000 0.000000 0.029050
#
#
# Mechanical properties :
#
#
# Convention : Reuss Voigt Hill
#
# Bulk Modulus (GPa) = 47.10328 50.46685 48.78506
# Shear Modulus (GPa) = 20.81785 24.52234 22.67010
#
# Velocity S-wave (km/s) = 3.33017 3.61434 3.47516
# Velocity P-wave (km/s) = 6.31501 6.65601 6.48775
#
# Compressibility (1/GPa) = 0.02122995
#
# Stress axis : x y z
#
# Youngs Moduli (GPa) = 68.38590 45.10711 99.63862
#
# Poissons Ratio (x) = 0.29320 0.19291
# Poissons Ratio (y) = 0.44451 0.43474
# Poissons Ratio (z) = 0.13240 0.19681
#
# Static dielectric constant tensor:
#      x y z
#    x 1.629690 0.000000 0.000000 
#    y 0.000000 1.764490 0.000000 
#    z 0.000000 0.000000 1.629140 
# 
# From -- ./inp_files/22220.got.cif
#   From: 2010.05.17/outbox.ucp.g08.bks.cvg/sg46_12_cif.got.tgz:22220.got - 2010.06.11 16:34:52.
