data_PCOD9381161
_publ_section_title
;
Structure prediction by ZEFSAII (Michael W. Deem and Ramdas Pophale) SiO2 
 PCOD9381161
Probable space group: I M A 2
;
_chemical_formula_sum "Si O2"
_cell_formula_units_Z 24
_cell_length_a 9.000000
_cell_length_b 24.000000
_cell_length_c 12.000000
_cell_angle_alpha 90.000000
_cell_angle_beta 90.000000
_cell_angle_gamma 90.000000
_cell_volume 2592.000000
_symmetry_space_group_name_H-M "I M A 2"
_symmetry_group_IT_number 46
_symmetry_cell_setting 'orthorhombic'
loop_
_space_group_symop_operation_xyz
x,y,z
-x,-y,z
1/2-x,y,z
1/2+x,-y,z
1/2+x,1/2+y,1/2+z
1/2-x,1/2-y,1/2+z
-x,1/2+y,1/2+z
x,1/2-y,1/2+z
loop_
_atom_site_type_symbol
_atom_site_label
_atom_site_fract_x
_atom_site_fract_y
_atom_site_fract_z
Si Si1 0.428998 0.437248 0.752560
Si Si2 0.080380 0.943252 0.846739
Si Si3 0.069859 0.649630 0.183602
Si Si4 0.571887 0.847845 0.439747
Si Si5 0.570418 0.268237 0.388170
Si Si6 0.421975 0.862395 0.059858
O O1 0.500000 0.500000 0.746573
O O2 0.250000 0.442932 0.742975
O O3 0.464167 0.403301 0.867117
O O4 0.487683 0.394818 0.655716
O O5 0.250000 0.956197 0.819947
O O6 0.020151 0.907242 0.744334
O O7 0.078695 0.904221 0.954764
O O8 0.000000 0.000000 0.869768
O O9 0.250000 0.649704 0.172050
O O10 0.035031 0.697635 0.274870
O O11 0.995423 0.652706 0.063832
O O12 0.750000 0.843686 0.443671
O O13 0.504459 0.791937 0.384918
O O14 0.750000 0.263372 0.393657
O O15 0.526904 0.304545 0.499387
O O16 0.250000 0.854451 0.097210
#
# Coordination Sequence:
#
# PCOD9381161 Si02
#       6
#     8   8   8   8   8   8
#     4  11  25  42  59  85 121 162 205 248 297 354
#     4   9  18  33  55  84 115 145 185 235 285 339
#     4   9  20  39  59  82 112 149 194 237 283 350
#     4  11  25  40  57  85 120 154 193 246 301 352
#     4   9  20  39  63  89 116 151 197 242 293 358
#     4   9  19  37  61  89 118 151 193 242 292 350
#
# _framework density 9.2592590000000001
#
# number of rings (size 3 to 8) (size 9 to 14) (size 15 to 20)
#    0.000    2.333    0.000    3.500    2.333    7.333 
#    0.000    6.667    0.000    0.000    0.000    0.000 
#    0.000    0.000    0.000    0.000    0.000    0.000 
#
# Total GULP energy -133817.866593 kJ/mol
# GULP energy per Si atom -5575.744441 kJ/mol
# Density = 0.923818 g / cm^3
# Si number density = 9.259259 Si / 1000 Ang^3
#
#
#
# Elastic Constant Matrix: (Units=GPa)
#
#
# Indices 1 2 3 4 5 6 
#
# 1 44.2980 29.0618 29.3248 0.0000 0.0000 0.0000
# 2 29.0618 84.3314 14.9254 0.0000 0.0000 0.0000
# 3 29.3248 14.9254 89.1268 0.0001 0.0001 -0.0001
# 4 0.0000 0.0000 0.0001 22.5427 0.0000 0.0000
# 5 0.0000 0.0000 0.0001 0.0000 28.2879 0.0000
# 6 0.0000 0.0000 -0.0001 0.0000 0.0000 26.1496
#
#
#
# Elastic Compliance Matrix: (Units=1/GPa)
#
#
# Indices 1 2 3 4 5 6 
#
# 1 0.036335 -0.010723 -0.010159 0.000000 0.000000 0.000000
# 2 -0.010723 0.015385 0.000952 0.000000 0.000000 0.000000
# 3 -0.010159 0.000952 0.014403 0.000000 0.000000 0.000000
# 4 0.000000 0.000000 0.000000 0.044360 0.000000 0.000000
# 5 0.000000 0.000000 0.000000 0.000000 0.035351 0.000000
# 6 0.000000 0.000000 0.000000 0.000000 0.000000 0.038242
#
#
# Mechanical properties :
#
#
# Convention : Reuss Voigt Hill
#
# Bulk Modulus (GPa) = 38.07882 40.48671 39.28277
# Shear Modulus (GPa) = 21.48772 25.02565 23.25668
#
# Velocity S-wave (km/s) = 3.41007 3.68011 3.54766
# Velocity P-wave (km/s) = 6.00932 6.32201 6.16765
#
# Compressibility (1/GPa) = 0.02626132
#
# Stress axis : x y z
#
# Youngs Moduli (GPa) = 27.52181 64.99851 69.42905
#
# Poissons Ratio (x) = 0.69701 0.70535
# Poissons Ratio (y) = 0.29513 -0.06609
# Poissons Ratio (z) = 0.27960 -0.06187
#
# Static dielectric constant tensor:
#      x y z
#    x 1.635420 0.000000 0.000000 
#    y 0.000000 1.651770 0.000000 
#    z 0.000000 0.000000 1.644600 
# 
# From -- ./inp_files/9310.got.cif
#   From: 2010.05.17/outbox.ucp.g08.bks.cvg/sg46_5_cif.got.tgz:9310.got - 2010.06.11 16:34:52.
