data_PCOD9381564
_publ_section_title
;
Structure prediction by ZEFSAII (Michael W. Deem and Ramdas Pophale) SiO2 
 PCOD9381564
Probable space group: P M M M
;
_chemical_formula_sum "Si O2"
_cell_formula_units_Z 56
_cell_length_a 18.086468
_cell_length_b 13.964884
_cell_length_c 16.114302
_cell_angle_alpha 90.000000
_cell_angle_beta 90.000000
_cell_angle_gamma 90.000000
_cell_volume 4070.076718
_symmetry_space_group_name_H-M "P M M M"
_symmetry_group_IT_number 47
_symmetry_cell_setting 'orthorhombic'
loop_
_space_group_symop_operation_xyz
x,y,z
-x,-y,z
x,-y,-z
-x,y,-z
-x,-y,-z
x,y,-z
-x,y,z
x,-y,z
loop_
_atom_site_type_symbol
_atom_site_label
_atom_site_fract_x
_atom_site_fract_y
_atom_site_fract_z
Si Si1 0.584956 0.387538 0.899983
Si Si2 0.587623 0.107538 0.000000
Si Si3 0.823061 0.113391 0.904911
Si Si4 0.191858 0.883868 0.593414
Si Si5 0.500000 0.883683 0.594832
Si Si6 0.672562 0.210649 0.144024
Si Si7 0.084150 0.115979 0.258143
Si Si8 0.654431 0.115530 0.677851
O O1 0.500000 0.360375 0.877340
O O2 0.594201 0.500000 0.881464
O O3 0.646389 0.320437 0.858758
O O4 0.590607 0.376461 0.000000
O O5 0.615675 0.159711 0.081645
O O6 0.500000 0.105201 0.000000
O O7 0.618076 0.000000 0.000000
O O8 0.752637 0.181568 0.891167
O O9 0.880945 0.136650 0.832059
O O10 0.801876 0.000000 0.893989
O O11 0.849845 0.122976 0.000000
O O12 0.174413 0.850458 0.500000
O O13 0.136863 0.850560 0.666531
O O14 0.276238 0.861379 0.618592
O O15 0.187055 0.000000 0.592380
O O16 0.500000 0.850449 0.500000
O O17 0.424404 0.855553 0.640042
O O18 0.500000 0.000000 0.593433
O O19 0.666719 0.165987 0.234708
O O20 0.000000 0.150559 0.265697
O O21 0.082435 0.000000 0.263601
O O22 0.654436 0.000000 0.689550
#
# Coordination Sequence:
#
# PCOD9381564 Si02
#       8
#     8   4   8   8   4   8   8   8
#     4   9  18  32  46  59  79 109 146 185 223 257
#     4  11  22  28  35  57  88 118 145 174 205 247
#     4  10  18  28  41  58  84 118 148 174 209 256
#     4   9  16  27  42  57  78 113 151 184 218 253
#     4   9  18  30  40  53  78 113 148 177 206 249
#     4  12  19  28  43  60  82 112 146 178 215 255
#     4   9  17  28  40  57  82 113 151 188 215 246
#     4  10  19  28  40  59  85 115 145 178 214 255
#
# _framework density 13.758953999999999
#
# number of rings (size 3 to 8) (size 9 to 14) (size 15 to 20)
#    0.000    2.143    2.857    2.571    2.000    2.286 
#    0.000    2.857    0.000    0.000    0.000    0.000 
#    0.000    3.429    0.000    3.000    0.000    1.857 
#
# Total GULP energy -311936.473037 kJ/mol
# GULP energy per Si atom -5570.294161 kJ/mol
# Density = 1.372764 g / cm^3
# Si number density = 13.758954 Si / 1000 Ang^3
#
#
#
# Elastic Constant Matrix: (Units=GPa)
#
#
# Indices 1 2 3 4 5 6 
#
# 1 94.9093 15.5279 47.0174 0.0000 0.0000 0.0000
# 2 15.5279 30.9009 11.3794 0.0000 0.0000 0.0000
# 3 47.0174 11.3794 108.1425 0.0000 0.0000 0.0000
# 4 0.0000 0.0000 0.0000 -7.2505 0.0000 0.0000
# 5 0.0000 0.0000 0.0000 0.0000 13.0145 0.0000
# 6 0.0000 0.0000 0.0000 0.0000 0.0000 6.4726
#
#
#
# Elastic Compliance Matrix: (Units=1/GPa)
#
#
# Indices 1 2 3 4 5 6 
#
# 1 0.014145 -0.005038 -0.005619 0.000000 0.000000 0.000000
# 2 -0.005038 0.035461 -0.001541 0.000000 0.000000 0.000000
# 3 -0.005619 -0.001541 0.011852 0.000000 0.000000 0.000000
# 4 0.000000 0.000000 0.000000 -0.137922 0.000000 0.000000
# 5 0.000000 0.000000 0.000000 0.000000 0.076837 0.000000
# 6 0.000000 0.000000 0.000000 0.000000 0.000000 0.154498
#
#
# Mechanical properties :
#
#
# Convention : Reuss Voigt Hill
#
# Bulk Modulus (GPa) = 26.98306 42.42245 34.70276
# Shear Modulus (GPa) = 26.09301 13.11585 19.60443
#
# Velocity S-wave (km/s) = 4.35954 3.09084 3.77881
# Velocity P-wave (km/s) = 6.70780 6.60585 6.65702
#
# Compressibility (1/GPa) = 0.03706029
#
# Stress axis : x y z
#
# Youngs Moduli (GPa) = 70.69867 28.20022 84.37106
#
# Poissons Ratio (x) = 0.14208 0.47412
# Poissons Ratio (y) = 0.35620 0.13001
# Poissons Ratio (z) = 0.39729 0.04345
#
# Static dielectric constant tensor:
#      x y z
#    x 1.466030 0.000000 0.000000 
#    y 0.000000 1.434980 0.000000 
#    z 0.000000 0.000000 1.456980 
# 
# From -- ./inp_files/24731.got.cif
#   From: 2010.05.17/outbox.cif.g08.bks.cpg/sg47_13_cif.got.tgz:24731.got - 2010.06.03 20:15:42.
