data_PCOD9381996
_publ_section_title
;
Structure prediction by ZEFSAII (Michael W. Deem and Ramdas Pophale) SiO2 
 PCOD9381996
Probable space group: P M M M
;
_chemical_formula_sum "Si O2"
_cell_formula_units_Z 64
_cell_length_a 16.866505
_cell_length_b 8.849430
_cell_length_c 21.807518
_cell_angle_alpha 90.000000
_cell_angle_beta 90.000000
_cell_angle_gamma 90.000000
_cell_volume 3254.967355
_symmetry_space_group_name_H-M "P M M M"
_symmetry_group_IT_number 47
_symmetry_cell_setting 'orthorhombic'
loop_
_space_group_symop_operation_xyz
x,y,z
-x,-y,z
x,-y,-z
-x,y,-z
-x,-y,-z
x,y,-z
-x,y,z
x,-y,z
loop_
_atom_site_type_symbol
_atom_site_label
_atom_site_fract_x
_atom_site_fract_y
_atom_site_fract_z
Si Si1 0.382237 0.821721 0.431230
Si Si2 0.786366 0.326522 0.431382
Si Si3 0.411944 0.318077 0.836478
Si Si4 0.912417 0.179547 0.926381
Si Si5 0.744704 0.828614 0.122879
Si Si6 0.090293 0.320848 0.325766
Si Si7 0.777554 0.168037 0.733206
Si Si8 0.377652 0.678198 0.696407
O O1 0.408892 0.767754 0.500000
O O2 0.288634 0.783074 0.430039
O O3 0.410164 0.750544 0.366498
O O4 0.396834 0.000000 0.429112
O O5 0.819117 0.323784 0.500000
O O6 0.757851 0.500000 0.419836
O O7 0.855844 0.290251 0.384873
O O8 0.500000 0.276538 0.858616
O O9 0.405123 0.500000 0.835068
O O10 0.339921 0.255759 0.877746
O O11 0.406896 0.268736 0.764044
O O12 0.826887 0.240139 0.903569
O O13 0.000000 0.238353 0.905328
O O14 0.911472 0.000000 0.910604
O O15 0.912175 0.191713 0.000000
O O16 0.759020 0.837326 0.195549
O O17 0.736021 0.000000 0.098110
O O18 0.094622 0.500000 0.312775
O O19 0.133676 0.225959 0.273917
O O20 0.000000 0.278989 0.334919
O O21 0.716063 0.282121 0.701278
O O22 0.766441 0.000000 0.706984
O O23 0.390960 0.500000 0.692988
#
# Coordination Sequence:
#
# PCOD9381996 Si02
#       8
#     8   8   8   8   8   8   8   8
#     4  10  19  29  44  67  92 116 147 193 248 307
#     4   9  17  29  44  59  77 107 149 195 242 294
#     4   9  19  35  54  77 105 138 175 215 262 316
#     4   8  14  27  50  80 113 148 185 224 263 303
#     4   9  18  31  51  80 108 136 175 220 261 305
#     4  10  20  31  42  58  83 116 154 197 244 297
#     4  10  19  30  44  64  91 121 154 195 247 302
#     4  10  18  30  50  70  90 118 155 199 245 298
#
# _framework density 19.662254999999998
#
# number of rings (size 3 to 8) (size 9 to 14) (size 15 to 20)
#    0.000    2.625    1.250    1.500    0.000    3.000 
#    0.000    2.500    0.000    1.500    0.000    8.750 
#    0.000    0.000    0.000    0.000    0.000    0.000 
#
# Total GULP energy -356278.236359 kJ/mol
# GULP energy per Si atom -5566.847443 kJ/mol
# Density = 1.961750 g / cm^3
# Si number density = 19.662255 Si / 1000 Ang^3
#
#
#
# Elastic Constant Matrix: (Units=GPa)
#
#
# Indices 1 2 3 4 5 6 
#
# 1 158.5495 30.3743 22.5150 0.0000 0.0000 0.0000
# 2 30.3743 23.0453 7.3657 0.0000 0.0000 0.0000
# 3 22.5150 7.3657 18.1465 0.0000 0.0000 0.0000
# 4 0.0000 0.0000 0.0000 10.7331 0.0000 0.0000
# 5 0.0000 0.0000 0.0000 0.0000 1.9516 0.0000
# 6 0.0000 0.0000 0.0000 0.0000 0.0000 3.9164
#
#
#
# Elastic Compliance Matrix: (Units=1/GPa)
#
#
# Indices 1 2 3 4 5 6 
#
# 1 0.009248 -0.009792 -0.007500 0.000000 0.000000 0.000000
# 2 -0.009792 0.060230 -0.012298 0.000000 0.000000 0.000000
# 3 -0.007500 -0.012298 0.069404 0.000000 0.000000 0.000000
# 4 0.000000 0.000000 0.000000 0.093170 0.000000 0.000000
# 5 0.000000 0.000000 0.000000 0.000000 0.512396 0.000000
# 6 0.000000 0.000000 0.000000 0.000000 0.000000 0.255337
#
#
# Mechanical properties :
#
#
# Convention : Reuss Voigt Hill
#
# Bulk Modulus (GPa) = 12.54671 35.58351 24.06511
# Shear Modulus (GPa) = 4.60604 12.61931 8.61267
#
# Velocity S-wave (km/s) = 1.53221 2.53613 2.09519
# Velocity P-wave (km/s) = 3.08629 5.16842 4.25663
#
# Compressibility (1/GPa) = 0.07970216
#
# Stress axis : x y z
#
# Youngs Moduli (GPa) = 108.12960 16.60303 14.40838
#
# Poissons Ratio (x) = 0.16258 0.10806
# Poissons Ratio (y) = 1.05883 0.17719
# Poissons Ratio (z) = 0.81095 0.20418
#
# Static dielectric constant tensor:
#      x y z
#    x 1.732430 0.000000 0.000000 
#    y 0.000000 1.703530 0.000000 
#    z 0.000000 0.000000 1.722400 
# 
# From -- ./inp_files/32902.got.cif
#   From: 2010.05.17/outbox.cif.g08.bks.cpg/sg47_17_cif.got.tgz:32902.got - 2010.06.03 20:15:42.
