data_PCOD9381864
_publ_section_title
;
Structure prediction by ZEFSAII (Michael W. Deem and Ramdas Pophale) SiO2 
 PCOD9381864
Probable space group: P M M M
;
_chemical_formula_sum "Si O2"
_cell_formula_units_Z 56
_cell_length_a 20.179968
_cell_length_b 15.101704
_cell_length_c 9.808588
_cell_angle_alpha 90.000000
_cell_angle_beta 90.000000
_cell_angle_gamma 90.000000
_cell_volume 2989.185863
_symmetry_space_group_name_H-M "P M M M"
_symmetry_group_IT_number 47
_symmetry_cell_setting 'orthorhombic'
loop_
_space_group_symop_operation_xyz
x,y,z
-x,-y,z
x,-y,-z
-x,y,-z
-x,-y,-z
x,y,-z
-x,y,z
x,-y,z
loop_
_atom_site_type_symbol
_atom_site_label
_atom_site_fract_x
_atom_site_fract_y
_atom_site_fract_z
Si Si1 0.922743 0.257830 0.161534
Si Si2 0.696073 0.856920 0.657224
Si Si3 0.155196 0.602177 0.660386
Si Si4 0.575172 0.857710 0.843859
Si Si5 0.695052 0.357853 0.656466
Si Si6 0.574000 0.641744 0.842774
Si Si7 0.178593 0.100779 0.157315
O O1 0.890469 0.335194 0.250145
O O2 0.879456 0.170043 0.186954
O O3 0.000000 0.245367 0.193757
O O4 0.917436 0.278004 0.000000
O O5 0.697180 0.885591 0.500000
O O6 0.630553 0.887346 0.737791
O O7 0.695789 0.749418 0.658151
O O8 0.760416 0.886115 0.740845
O O9 0.152375 0.627451 0.500000
O O10 0.135497 0.500000 0.672584
O O11 0.232263 0.611828 0.702754
O O12 0.500000 0.886089 0.812156
O O13 0.574920 0.749758 0.841530
O O14 0.590655 0.883912 0.000000
O O15 0.685859 0.386608 0.500000
O O16 0.634382 0.388427 0.749506
O O17 0.500000 0.614881 0.797551
O O18 0.582588 0.614702 0.000000
O O19 0.154673 0.000000 0.166430
O O20 0.200933 0.116191 0.000000
#
# Coordination Sequence:
#
# PCOD9381864 Si02
#       7
#     8   8   8   8   8   8   8
#     4  10  22  40  62  88 116 144 177 223 274 323
#     4  10  18  29  49  76 107 142 182 231 280 324
#     4  10  21  38  59  83 114 151 189 227 270 325
#     4   8  14  25  42  67 101 141 184 228 275 329
#     4   9  17  29  47  73 103 138 182 228 271 317
#     4   8  14  24  40  66  99 136 179 225 273 324
#     4  10  21  37  58  83 111 146 185 222 268 330
#
# _framework density 18.734197000000002
#
# number of rings (size 3 to 8) (size 9 to 14) (size 15 to 20)
#    0.000    2.714    1.429    1.286    0.000    3.143 
#    0.000    5.714    0.000    0.857    0.000    8.000 
#    0.000    0.000    0.000    0.000    0.000    0.000 
#
# Total GULP energy -312524.041534 kJ/mol
# GULP energy per Si atom -5580.786456 kJ/mol
# Density = 1.869156 g / cm^3
# Si number density = 18.734197 Si / 1000 Ang^3
#
#
#
# Elastic Constant Matrix: (Units=GPa)
#
#
# Indices 1 2 3 4 5 6 
#
# 1 173.3155 48.6150 108.3587 0.0000 0.0000 0.0000
# 2 48.6150 67.0201 43.9027 0.0000 0.0000 0.0000
# 3 108.3587 43.9027 102.7045 0.0000 0.0000 0.0000
# 4 0.0000 0.0000 0.0000 9.5636 0.0000 0.0000
# 5 0.0000 0.0000 0.0000 0.0000 27.1710 0.0000
# 6 0.0000 0.0000 0.0000 0.0000 0.0000 -18.2201
#
#
#
# Elastic Compliance Matrix: (Units=1/GPa)
#
#
# Indices 1 2 3 4 5 6 
#
# 1 0.016983 -0.000808 -0.017573 0.000000 0.000000 0.000000
# 2 -0.000808 0.020762 -0.008023 0.000000 0.000000 0.000000
# 3 -0.017573 -0.008023 0.031706 0.000000 0.000000 0.000000
# 4 0.000000 0.000000 0.000000 0.104564 0.000000 0.000000
# 5 0.000000 0.000000 0.000000 0.000000 0.036804 0.000000
# 6 0.000000 0.000000 0.000000 0.000000 0.000000 -0.054884
#
#
# Mechanical properties :
#
#
# Convention : Reuss Voigt Hill
#
# Bulk Modulus (GPa) = 60.07847 82.75476 71.41661
# Shear Modulus (GPa) = 23.33283 13.18046 18.25665
#
# Velocity S-wave (km/s) = 3.53295 2.65533 3.12510
# Velocity P-wave (km/s) = 6.98432 7.32598 7.15719
#
# Compressibility (1/GPa) = 0.01664490
#
# Stress axis : x y z
#
# Youngs Moduli (GPa) = 58.88213 48.16385 31.53940
#
# Poissons Ratio (x) = 0.03891 0.55423
# Poissons Ratio (y) = 0.04757 0.25304
# Poissons Ratio (z) = 1.03472 0.38642
#
# Static dielectric constant tensor:
#      x y z
#    x 1.617360 0.000000 0.000000 
#    y 0.000000 1.685070 0.000000 
#    z 0.000000 0.000000 1.628660 
# 
# From -- ./inp_files/11202.got.cif
#   From: 2010.05.17/outbox.cif.g08.bks.cpg/sg47_6_cif.got.tgz:11202.got - 2010.06.03 20:15:42.
