data_PCOD9381953
_publ_section_title
;
Structure prediction by ZEFSAII (Michael W. Deem and Ramdas Pophale) SiO2 
 PCOD9381953
Probable space group: P M M M
;
_chemical_formula_sum "Si O2"
_cell_formula_units_Z 64
_cell_length_a 14.732140
_cell_length_b 9.134421
_cell_length_c 32.099365
_cell_angle_alpha 90.000000
_cell_angle_beta 90.000000
_cell_angle_gamma 90.000000
_cell_volume 4319.597713
_symmetry_space_group_name_H-M "P M M M"
_symmetry_group_IT_number 47
_symmetry_cell_setting 'orthorhombic'
loop_
_space_group_symop_operation_xyz
x,y,z
-x,-y,z
x,-y,-z
-x,y,-z
-x,-y,-z
x,y,-z
-x,y,z
x,-y,z
loop_
_atom_site_type_symbol
_atom_site_label
_atom_site_fract_x
_atom_site_fract_y
_atom_site_fract_z
Si Si1 0.896663 0.174803 0.580167
Si Si2 0.897153 0.326283 0.330250
Si Si3 0.389635 0.667635 0.129316
Si Si4 0.722336 0.324078 0.546337
Si Si5 0.389705 0.828877 0.046200
Si Si6 0.607022 0.825176 0.214860
Si Si7 0.396110 0.321993 0.625330
Si Si8 0.289486 0.324105 0.709511
O O1 0.885884 0.236926 0.627065
O O2 0.819713 0.250220 0.552872
O O3 0.000000 0.209480 0.566884
O O4 0.886123 0.000000 0.580020
O O5 0.887804 0.500000 0.340288
O O6 0.816382 0.290262 0.298630
O O7 0.000000 0.302224 0.314804
O O8 0.500000 0.668581 0.127826
O O9 0.360190 0.500000 0.133569
O O10 0.357591 0.737460 0.085848
O O11 0.365127 0.760485 0.170019
O O12 0.686873 0.291615 0.500000
O O13 0.732466 0.500000 0.549788
O O14 0.656866 0.274850 0.583808
O O15 0.500000 0.822402 0.046290
O O16 0.365889 0.000000 0.050907
O O17 0.360295 0.778778 0.000000
O O18 0.500000 0.788267 0.221421
O O19 0.666079 0.755262 0.251440
O O20 0.614918 0.000000 0.214596
O O21 0.500000 0.271045 0.626251
O O22 0.397448 0.500000 0.624582
O O23 0.342475 0.280929 0.667149
O O24 0.298809 0.500000 0.714555
#
# Coordination Sequence:
#
# PCOD9381953 Si02
#       8
#     8   8   8   8   8   8   8   8
#     4  10  20  33  50  71  94 117 138 166 207 251
#     4   9  17  31  52  74  94 114 137 167 204 250
#     4   9  16  25  37  53  75 105 143 187 230 267
#     4  10  20  34  51  70  91 116 146 175 206 248
#     4   8  13  21  33  49  71 102 140 182 228 273
#     4  10  20  31  42  59  85 116 149 184 222 262
#     4   9  17  30  48  70  92 112 138 175 214 247
#     4  10  18  30  49  69  89 112 139 173 212 254
#
# _framework density 14.816195
#
# number of rings (size 3 to 8) (size 9 to 14) (size 15 to 20)
#    0.000    2.625    1.250    1.875    0.000    5.000 
#    0.000    3.750    0.000    0.375    0.000    0.875 
#    0.000    0.000    0.000    0.000    0.000    0.625 
#
# Total GULP energy -356610.768698 kJ/mol
# GULP energy per Si atom -5572.043261 kJ/mol
# Density = 1.478247 g / cm^3
# Si number density = 14.816195 Si / 1000 Ang^3
#
#
#
# Elastic Constant Matrix: (Units=GPa)
#
#
# Indices 1 2 3 4 5 6 
#
# 1 67.0286 25.3448 48.2988 0.0000 0.0000 0.0000
# 2 25.3448 32.6488 41.9255 0.0000 0.0000 0.0000
# 3 48.2988 41.9255 124.9397 0.0000 0.0000 0.0000
# 4 0.0000 0.0000 0.0000 10.3773 0.0000 0.0000
# 5 0.0000 0.0000 0.0000 0.0000 5.4924 0.0000
# 6 0.0000 0.0000 0.0000 0.0000 0.0000 12.6341
#
#
#
# Elastic Compliance Matrix: (Units=1/GPa)
#
#
# Indices 1 2 3 4 5 6 
#
# 1 0.022798 -0.011212 -0.005051 0.000000 0.000000 0.000000
# 2 -0.011212 0.059335 -0.015577 0.000000 0.000000 0.000000
# 3 -0.005051 -0.015577 0.015183 0.000000 0.000000 0.000000
# 4 0.000000 0.000000 0.000000 0.096364 0.000000 0.000000
# 5 0.000000 0.000000 0.000000 0.000000 0.182070 0.000000
# 6 0.000000 0.000000 0.000000 0.000000 0.000000 0.079151
#
#
# Mechanical properties :
#
#
# Convention : Reuss Voigt Hill
#
# Bulk Modulus (GPa) = 29.72833 50.63949 40.18391
# Shear Modulus (GPa) = 9.43767 12.97064 11.20416
#
# Velocity S-wave (km/s) = 2.52659 2.96199 2.75291
# Velocity P-wave (km/s) = 5.34975 6.77868 6.10616
#
# Compressibility (1/GPa) = 0.03363795
#
# Stress axis : x y z
#
# Youngs Moduli (GPa) = 43.86381 16.85345 65.86137
#
# Poissons Ratio (x) = 0.18895 0.33266
# Poissons Ratio (y) = 0.49179 1.02590
# Poissons Ratio (z) = 0.22155 0.26252
#
# Static dielectric constant tensor:
#      x y z
#    x 1.482250 0.000000 0.000000 
#    y 0.000000 1.495000 0.000000 
#    z 0.000000 0.000000 1.487030 
# 
# From -- ./inp_files/22178.got.cif
#   From: 2010.05.17/outbox.cif.g08.bks.cpg/sg47_12_cif.got.tgz:22178.got - 2010.06.03 20:15:42.
