data_PCOD9381772
_publ_section_title
;
Structure prediction by ZEFSAII (Michael W. Deem and Ramdas Pophale) SiO2 
 PCOD9381772
Probable space group: P M M M
;
_chemical_formula_sum "Si O2"
_cell_formula_units_Z 52
_cell_length_a 28.314526
_cell_length_b 12.264175
_cell_length_c 8.975774
_cell_angle_alpha 90.000000
_cell_angle_beta 90.000000
_cell_angle_gamma 90.000000
_cell_volume 3116.876134
_symmetry_space_group_name_H-M "P M M M"
_symmetry_group_IT_number 47
_symmetry_cell_setting 'orthorhombic'
loop_
_space_group_symop_operation_xyz
x,y,z
-x,-y,z
x,-y,-z
-x,y,-z
-x,-y,-z
x,y,-z
-x,y,z
x,-y,z
loop_
_atom_site_type_symbol
_atom_site_label
_atom_site_fract_x
_atom_site_fract_y
_atom_site_fract_z
Si Si1 0.326813 0.628412 0.322095
Si Si2 0.850159 0.222422 0.680595
Si Si3 0.444055 0.000000 0.677146
Si Si4 0.378974 0.179145 0.824240
Si Si5 0.200276 0.000000 0.322596
Si Si6 0.053195 0.126298 0.681248
Si Si7 0.298670 0.000000 0.829414
Si Si8 0.226749 0.630721 0.827736
O O1 0.326315 0.641292 0.500000
O O2 0.334291 0.500000 0.287542
O O3 0.366233 0.706265 0.250793
O O4 0.275279 0.659926 0.257190
O O5 0.848240 0.231884 0.500000
O O6 0.825073 0.109746 0.728443
O O7 0.904774 0.206818 0.726468
O O8 0.819038 0.316670 0.752604
O O9 0.419836 0.892956 0.748636
O O10 0.500000 0.000000 0.703079
O O11 0.435090 0.000000 0.500000
O O12 0.332222 0.104083 0.807660
O O13 0.388331 0.191362 0.000000
O O14 0.254393 0.000000 0.276919
O O15 0.195875 0.000000 0.500000
O O16 0.053331 0.125805 0.500000
O O17 0.000000 0.154569 0.729782
O O18 0.062871 0.000000 0.725103
O O19 0.281674 0.000000 0.000000
O O20 0.223020 0.500000 0.822696
O O21 0.230687 0.665265 0.000000
#
# Coordination Sequence:
#
# PCOD9381772 Si02
#       8
#     8   8   4   8   4   8   4   8
#     4  10  20  34  53  77 104 135 173 215 257 302
#     4  10  18  29  46  69  95 120 154 196 241 297
#     4  10  21  37  58  83 111 144 181 220 262 305
#     4  10  20  34  53  77 106 140 177 215 257 305
#     4  10  19  27  39  66  98 124 148 184 236 289
#     4   8  13  24  44  68  93 119 148 188 241 299
#     4   9  19  31  42  63  96 131 164 196 234 287
#     4  10  21  35  49  67  95 132 171 207 245 292
#
# _framework density 16.683371999999999
#
# number of rings (size 3 to 8) (size 9 to 14) (size 15 to 20)
#    0.000    2.385    0.769    3.462    0.000    7.385 
#    0.000    0.000    0.000    1.385    0.000    7.538 
#    0.000    0.000    0.000    0.000    0.000    0.000 
#
# Total GULP energy -289951.975102 kJ/mol
# GULP energy per Si atom -5575.999521 kJ/mol
# Density = 1.664540 g / cm^3
# Si number density = 16.683372 Si / 1000 Ang^3
#
#
#
# Elastic Constant Matrix: (Units=GPa)
#
#
# Indices 1 2 3 4 5 6 
#
# 1 107.8286 49.9116 53.2561 0.0000 0.0000 0.0000
# 2 49.9116 67.9732 46.4387 0.0000 0.0000 0.0000
# 3 53.2561 46.4387 61.2657 0.0000 0.0000 0.0000
# 4 0.0000 0.0000 0.0000 23.4476 0.0000 0.0000
# 5 0.0000 0.0000 0.0000 0.0000 -43.0604 0.0000
# 6 0.0000 0.0000 0.0000 0.0000 0.0000 16.9941
#
#
#
# Elastic Compliance Matrix: (Units=1/GPa)
#
#
# Indices 1 2 3 4 5 6 
#
# 1 0.017020 -0.004956 -0.011038 0.000000 0.000000 0.000000
# 2 -0.004956 0.031956 -0.019914 0.000000 0.000000 0.000000
# 3 -0.011038 -0.019914 0.041012 0.000000 0.000000 0.000000
# 4 0.000000 0.000000 0.000000 0.042648 0.000000 0.000000
# 5 0.000000 0.000000 0.000000 0.000000 -0.023223 0.000000
# 6 0.000000 0.000000 0.000000 0.000000 0.000000 0.058844
#
#
# Mechanical properties :
#
#
# Convention : Reuss Voigt Hill
#
# Bulk Modulus (GPa) = 55.03196 59.58671 57.30933
# Shear Modulus (GPa) = 20.31449 5.30700 12.81074
#
# Velocity S-wave (km/s) = 3.49327 1.78547 2.77406
# Velocity P-wave (km/s) = 7.02341 6.32806 6.68478
#
# Compressibility (1/GPa) = 0.01817126
#
# Stress axis : x y z
#
# Youngs Moduli (GPa) = 58.75557 31.29283 24.38331
#
# Poissons Ratio (x) = 0.15510 0.26914
# Poissons Ratio (y) = 0.29122 0.48557
# Poissons Ratio (z) = 0.64853 0.62317
#
# Static dielectric constant tensor:
#      x y z
#    x 1.552440 0.000000 0.000000 
#    y 0.000000 1.566970 0.000000 
#    z 0.000000 0.000000 1.564070 
# 
# From -- ./inp_files/13313.got.cif
#   From: 2010.05.17/outbox.cif.g08.bks.cpg/sg47_7_cif.got.tgz:13313.got - 2010.06.03 20:15:42.
