data_PCOD9381334
_publ_section_title
;
Structure prediction by ZEFSAII (Michael W. Deem and Ramdas Pophale) SiO2 
 PCOD9381334
Probable space group: P M M M
;
_chemical_formula_sum "Si O2"
_cell_formula_units_Z 64
_cell_length_a 15.287958
_cell_length_b 18.274851
_cell_length_c 12.923642
_cell_angle_alpha 90.000000
_cell_angle_beta 90.000000
_cell_angle_gamma 90.000000
_cell_volume 3610.673717
_symmetry_space_group_name_H-M "P M M M"
_symmetry_group_IT_number 47
_symmetry_cell_setting 'orthorhombic'
loop_
_space_group_symop_operation_xyz
x,y,z
-x,-y,z
x,-y,-z
-x,y,-z
-x,-y,-z
x,y,-z
-x,y,z
x,-y,z
loop_
_atom_site_type_symbol
_atom_site_label
_atom_site_fract_x
_atom_site_fract_y
_atom_site_fract_z
Si Si1 0.139576 0.617438 0.114832
Si Si2 0.093800 0.583742 0.342429
Si Si3 0.406778 0.731980 0.880185
Si Si4 0.733983 0.189346 0.741324
Si Si5 0.335618 0.585340 0.815416
Si Si6 0.896118 0.207787 0.879630
Si Si7 0.270294 0.664206 0.615040
Si Si8 0.600989 0.912149 0.378137
O O1 0.096671 0.584885 0.217172
O O2 0.241482 0.597320 0.129492
O O3 0.124195 0.704834 0.122458
O O4 0.110557 0.594446 0.000000
O O5 0.103121 0.500000 0.375415
O O6 0.174056 0.629754 0.382354
O O7 0.000000 0.612657 0.375611
O O8 0.500000 0.754774 0.833922
O O9 0.326497 0.771868 0.827267
O O10 0.397697 0.644654 0.867668
O O11 0.405451 0.750118 0.000000
O O12 0.827031 0.173785 0.797566
O O13 0.740967 0.253421 0.655842
O O14 0.676069 0.125259 0.690788
O O15 0.358873 0.500000 0.818941
O O16 0.323201 0.615472 0.698207
O O17 0.000000 0.197447 0.856437
O O18 0.881557 0.184438 0.000000
O O19 0.307477 0.661950 0.500000
O O20 0.613545 0.893814 0.500000
O O21 0.500000 0.890959 0.351298
O O22 0.606023 0.000000 0.368697
#
# Coordination Sequence:
#
# PCOD9381334 Si02
#       8
#     8   8   8   8   8   8   8   8
#     4  10  17  28  45  64  90 125 166 215 271 321
#     4  10  20  31  41  59  90 127 170 222 277 327
#     4  10  20  33  50  75 105 137 173 216 269 327
#     4  11  19  33  57  83 109 140 178 216 265 318
#     4  10  20  32  46  65  92 129 175 225 274 328
#     4  10  19  31  51  77 106 143 184 226 272 319
#     4  10  20  32  47  66  90 124 170 218 268 321
#     4   9  19  37  62  93 124 148 173 209 256 315
#
# _framework density 17.725224999999998
#
# number of rings (size 3 to 8) (size 9 to 14) (size 15 to 20)
#    0.000    2.000    3.750    3.750    0.000    4.000 
#    0.000    1.875    0.000    6.375    0.000    9.625 
#    0.000    0.000    0.000    0.000    0.000    0.000 
#
# Total GULP energy -356726.141445 kJ/mol
# GULP energy per Si atom -5573.845960 kJ/mol
# Density = 1.768488 g / cm^3
# Si number density = 17.725225 Si / 1000 Ang^3
#
#
#
# Elastic Constant Matrix: (Units=GPa)
#
#
# Indices 1 2 3 4 5 6 
#
# 1 84.0847 24.7388 25.3452 0.0000 0.0000 0.0000
# 2 24.7388 47.7339 22.1619 0.0000 0.0000 0.0000
# 3 25.3452 22.1619 94.3103 0.0000 0.0000 0.0000
# 4 0.0000 0.0000 0.0000 29.9433 0.0000 0.0000
# 5 0.0000 0.0000 0.0000 0.0000 62.0297 0.0000
# 6 0.0000 0.0000 0.0000 0.0000 0.0000 -6.0125
#
#
#
# Elastic Compliance Matrix: (Units=1/GPa)
#
#
# Indices 1 2 3 4 5 6 
#
# 1 0.014498 -0.006403 -0.002391 0.000000 0.000000 0.000000
# 2 -0.006403 0.026343 -0.004470 0.000000 0.000000 0.000000
# 3 -0.002391 -0.004470 0.012296 0.000000 0.000000 0.000000
# 4 0.000000 0.000000 0.000000 0.033396 0.000000 0.000000
# 5 0.000000 0.000000 0.000000 0.000000 0.016121 0.000000
# 6 0.000000 0.000000 0.000000 0.000000 0.000000 -0.166321
#
#
# Mechanical properties :
#
#
# Convention : Reuss Voigt Hill
#
# Bulk Modulus (GPa) = 37.58193 41.18009 39.38101
# Shear Modulus (GPa) = -176.87479 27.45099 -74.71190
#
# Velocity S-wave (km/s) = -10.00018 3.93962 -6.49935
# Velocity P-wave (km/s) = 10.58724 6.63152 5.83578
#
# Compressibility (1/GPa) = 0.02660854
#
# Stress axis : x y z
#
# Youngs Moduli (GPa) = 68.97723 37.96047 81.32555
#
# Poissons Ratio (x) = 0.24307 0.19448
# Poissons Ratio (y) = 0.44168 0.36349
# Poissons Ratio (z) = 0.16495 0.16967
#
# Static dielectric constant tensor:
#      x y z
#    x 1.652750 0.000000 0.000000 
#    y 0.000000 1.580790 0.000000 
#    z 0.000000 0.000000 1.640250 
# 
# From -- ./inp_files/17890.got.cif
#   From: 2010.05.17/outbox.cif.g08.bks.cpg/sg47_9_cif.got.tgz:17890.got - 2010.06.03 20:15:42.
