data_PCOD9381839
_publ_section_title
;
Structure prediction by ZEFSAII (Michael W. Deem and Ramdas Pophale) SiO2 
 PCOD9381839
Probable space group: P M M M
;
_chemical_formula_sum "Si O2"
_cell_formula_units_Z 64
_cell_length_a 15.802111
_cell_length_b 25.612047
_cell_length_c 8.776235
_cell_angle_alpha 90.000000
_cell_angle_beta 90.000000
_cell_angle_gamma 90.000000
_cell_volume 3551.956529
_symmetry_space_group_name_H-M "P M M M"
_symmetry_group_IT_number 47
_symmetry_cell_setting 'orthorhombic'
loop_
_space_group_symop_operation_xyz
x,y,z
-x,-y,z
x,-y,-z
-x,y,-z
-x,-y,-z
x,y,-z
-x,y,z
x,-y,z
loop_
_atom_site_type_symbol
_atom_site_label
_atom_site_fract_x
_atom_site_fract_y
_atom_site_fract_z
Si Si1 0.095301 0.359582 0.184049
Si Si2 0.591961 0.173441 0.316235
Si Si3 0.370628 0.285113 0.177033
Si Si4 0.903616 0.060506 0.183666
Si Si5 0.221744 0.145231 0.681834
Si Si6 0.407942 0.396927 0.316232
Si Si7 0.824275 0.745632 0.177225
Si Si8 0.228655 0.558912 0.315740
O O1 0.113453 0.299772 0.232269
O O2 0.163964 0.398714 0.251674
O O3 0.000000 0.374906 0.225753
O O4 0.102897 0.360060 0.000000
O O5 0.594270 0.174332 0.500000
O O6 0.500000 0.151132 0.269580
O O7 0.596472 0.232709 0.256327
O O8 0.679531 0.146284 0.264638
O O9 0.399284 0.337629 0.258677
O O10 0.268845 0.280394 0.183653
O O11 0.395551 0.285971 0.000000
O O12 0.833898 0.098934 0.250179
O O13 0.000000 0.074711 0.230428
O O14 0.889363 0.000000 0.227385
O O15 0.900854 0.063114 0.000000
O O16 0.221707 0.141568 0.500000
O O17 0.181614 0.200673 0.731559
O O18 0.406743 0.396925 0.500000
O O19 0.500000 0.417727 0.267224
O O20 0.324489 0.427696 0.265314
O O21 0.842806 0.758069 0.000000
O O22 0.226864 0.561348 0.500000
O O23 0.206310 0.500000 0.269228
#
# Coordination Sequence:
#
# PCOD9381839 Si02
#       8
#     8   8   8   8   8   8   8   8
#     4  10  21  38  59  80 102 133 172 211 257 315
#     4   9  18  32  48  70 107 150 183 211 251 306
#     4  10  18  29  48  74 103 134 171 214 255 299
#     4   9  19  37  59  80 105 142 184 222 266 321
#     4  10  20  32  52  83 113 142 179 222 264 306
#     4  10  20  33  51  74 100 132 168 206 254 313
#     4   9  18  33  51  74 107 142 173 207 254 311
#     4  10  22  39  57  76 100 131 168 214 264 313
#
# _framework density 18.018239000000001
#
# number of rings (size 3 to 8) (size 9 to 14) (size 15 to 20)
#    0.000    2.375    1.250    1.500    0.000    5.500 
#    0.000    4.375    0.000    0.375    0.000    4.375 
#    0.000    0.000    0.000    0.000    0.000    0.000 
#
# Total GULP energy -356927.310171 kJ/mol
# GULP energy per Si atom -5576.989221 kJ/mol
# Density = 1.797723 g / cm^3
# Si number density = 18.018239 Si / 1000 Ang^3
#
#
#
# Elastic Constant Matrix: (Units=GPa)
#
#
# Indices 1 2 3 4 5 6 
#
# 1 129.9430 70.2135 27.8789 0.0000 0.0000 0.0000
# 2 70.2135 86.0531 19.9436 0.0000 0.0000 0.0000
# 3 27.8789 19.9436 10.9977 0.0000 0.0000 0.0000
# 4 0.0000 0.0000 0.0000 27.4876 0.0000 0.0000
# 5 0.0000 0.0000 0.0000 0.0000 20.7668 0.0000
# 6 0.0000 0.0000 0.0000 0.0000 0.0000 5.0900
#
#
#
# Elastic Compliance Matrix: (Units=1/GPa)
#
#
# Indices 1 2 3 4 5 6 
#
# 1 0.019408 -0.007647 -0.035331 0.000000 0.000000 0.000000
# 2 -0.007647 0.023059 -0.022429 0.000000 0.000000 0.000000
# 3 -0.035331 -0.022429 0.221164 0.000000 0.000000 0.000000
# 4 0.000000 0.000000 0.000000 0.036380 0.000000 0.000000
# 5 0.000000 0.000000 0.000000 0.000000 0.048154 0.000000
# 6 0.000000 0.000000 0.000000 0.000000 0.000000 0.196463
#
#
# Mechanical properties :
#
#
# Convention : Reuss Voigt Hill
#
# Bulk Modulus (GPa) = 7.52923 51.45176 29.49049
# Shear Modulus (GPa) = 6.94721 17.93274 12.43997
#
# Velocity S-wave (km/s) = 1.96571 3.15819 2.63042
# Velocity P-wave (km/s) = 3.05610 6.47427 5.06241
#
# Compressibility (1/GPa) = 0.13281567
#
# Stress axis : x y z
#
# Youngs Moduli (GPa) = 51.52517 43.36767 4.52154
#
# Poissons Ratio (x) = 0.33165 0.15975
# Poissons Ratio (y) = 0.39403 0.10141
# Poissons Ratio (z) = 1.82042 0.97270
#
# Static dielectric constant tensor:
#      x y z
#    x 1.661680 0.000000 0.000000 
#    y 0.000000 1.577250 0.000000 
#    z 0.000000 0.000000 1.611830 
# 
# From -- ./inp_files/7799.got.cif
#   From: 2010.05.17/outbox.cif.g08.bks.cpg/sg47_4_cif.got.tgz:7799.got - 2010.06.03 20:15:42.
