data_PCOD9381047
_publ_section_title
;
Structure prediction by ZEFSAII (Michael W. Deem and Ramdas Pophale) SiO2 
 PCOD9381047
Probable space group: I M A 2
;
_chemical_formula_sum "Si O2"
_cell_formula_units_Z 28
_cell_length_a 11.006339
_cell_length_b 12.482327
_cell_length_c 8.579113
_cell_angle_alpha 90.000000
_cell_angle_beta 90.000000
_cell_angle_gamma 90.000000
_cell_volume 1178.639059
_symmetry_space_group_name_H-M "I M A 2"
_symmetry_group_IT_number 46
_symmetry_cell_setting 'orthorhombic'
loop_
_space_group_symop_operation_xyz
x,y,z
-x,-y,z
1/2-x,y,z
1/2+x,-y,z
1/2+x,1/2+y,1/2+z
1/2-x,1/2-y,1/2+z
-x,1/2+y,1/2+z
x,1/2-y,1/2+z
loop_
_atom_site_type_symbol
_atom_site_label
_atom_site_fract_x
_atom_site_fract_y
_atom_site_fract_z
Si Si1 0.992970 0.125203 0.136040
Si Si2 0.891835 0.182091 0.806162
Si Si3 0.500000 0.000000 0.587393
Si Si4 0.750000 0.713455 0.677219
Si Si5 0.250000 0.088958 0.496606
O O1 0.940602 0.198445 0.274316
O O2 0.128419 0.166809 0.101831
O O3 0.912868 0.148637 0.983875
O O4 0.000000 0.000000 0.167231
O O5 0.750000 0.175510 0.766550
O O6 0.966744 0.101330 0.696355
O O7 0.624146 0.975247 0.494982
O O8 0.750000 0.840426 0.654207
O O9 0.750000 0.671582 0.853661
#
# Coordination Sequence:
#
# PCOD9381047 Si02
#       5
#     8   8   4   4   4
#     4  12  29  49  79 117 160 208 262 333 397 477
#     4  12  27  50  79 116 161 208 264 325 406 474
#     4  12  26  48  82 116 158 208 264 332 394 472
#     4  12  28  48  79 112 157 204 275 323 397 475
#     4  12  28  50  81 114 161 210 267 329 401 473
#
# _framework density 23.756212000000001
#
# number of rings (size 3 to 8) (size 9 to 14) (size 15 to 20)
#    0.000    0.000    5.714    2.571    6.000    0.000 
#    0.000    0.000    0.000    0.000    0.000    0.000 
#    0.000    0.000    0.000    0.000    0.000    0.000 
#
# Total GULP energy -78520.250065 kJ/mol
# GULP energy per Si atom -5608.589290 kJ/mol
# Density = 2.370214 g / cm^3
# Si number density = 23.756212 Si / 1000 Ang^3
#
#
#
# Elastic Constant Matrix: (Units=GPa)
#
#
# Indices 1 2 3 4 5 6 
#
# 1 188.1662 54.2727 3.0377 0.0000 0.0000 0.0000
# 2 54.2727 171.6222 49.2819 0.0000 0.0000 0.0000
# 3 3.0377 49.2819 69.5040 0.0000 0.0000 0.0000
# 4 0.0000 0.0000 0.0000 15.0661 0.0000 0.0000
# 5 0.0000 0.0000 0.0000 0.0000 32.1882 0.0000
# 6 0.0000 0.0000 0.0000 0.0000 0.0000 37.8777
#
#
#
# Elastic Compliance Matrix: (Units=1/GPa)
#
#
# Indices 1 2 3 4 5 6 
#
# 1 0.005947 -0.002268 0.001348 0.000000 0.000000 0.000000
# 2 -0.002268 0.008181 -0.005702 0.000000 0.000000 0.000000
# 3 0.001348 -0.005702 0.018372 0.000000 0.000000 0.000000
# 4 0.000000 0.000000 0.000000 0.066374 0.000000 0.000000
# 5 0.000000 0.000000 0.000000 0.000000 0.031067 0.000000
# 6 0.000000 0.000000 0.000000 0.000000 0.000000 0.026401
#
#
# Mechanical properties :
#
#
# Convention : Reuss Voigt Hill
#
# Bulk Modulus (GPa) = 51.93017 71.38635 61.65826
# Shear Modulus (GPa) = 28.40854 38.53974 33.47414
#
# Velocity S-wave (km/s) = 3.46184 4.03215 3.75783
# Velocity P-wave (km/s) = 6.15517 7.19670 6.69622
#
# Compressibility (1/GPa) = 0.01925663
#
# Stress axis : x y z
#
# Youngs Moduli (GPa) = 168.15931 122.23267 54.43198
#
# Poissons Ratio (x) = 0.27718 -0.07337
# Poissons Ratio (y) = 0.38132 0.31036
# Poissons Ratio (z) = -0.22667 0.69694
#
# Static dielectric constant tensor:
#      x y z
#    x 1.850660 0.000000 0.000000 
#    y 0.000000 1.881690 0.000000 
#    z 0.000000 0.000000 1.885440 
# 
# From -- ./inp_files/4253.got.cif
#   From: 2010.05.17/outbox.cif.g08.bks.cpg/sg46_3_cif.got.tgz:4253.got - 2010.06.03 19:58:25.
