data_PCOD9381468
_publ_section_title
;
Structure prediction by ZEFSAII (Michael W. Deem and Ramdas Pophale) SiO2 
 PCOD9381468
Probable space group: P M M M
;
_chemical_formula_sum "Si O2"
_cell_formula_units_Z 64
_cell_length_a 29.845372
_cell_length_b 14.996673
_cell_length_c 7.989167
_cell_angle_alpha 90.000000
_cell_angle_beta 90.000000
_cell_angle_gamma 90.000000
_cell_volume 3575.801628
_symmetry_space_group_name_H-M "P M M M"
_symmetry_group_IT_number 47
_symmetry_cell_setting 'orthorhombic'
loop_
_space_group_symop_operation_xyz
x,y,z
-x,-y,z
x,-y,-z
-x,y,-z
-x,-y,-z
x,y,-z
-x,y,z
x,-y,z
loop_
_atom_site_type_symbol
_atom_site_label
_atom_site_fract_x
_atom_site_fract_y
_atom_site_fract_z
Si Si1 0.451692 0.216173 0.694853
Si Si2 0.146218 0.603912 0.294715
Si Si3 0.267637 0.101927 0.202093
Si Si4 0.417275 0.399451 0.803285
Si Si5 0.684230 0.396417 0.298990
Si Si6 0.951840 0.607720 0.300642
Si Si7 0.631729 0.100112 0.199903
Si Si8 0.231219 0.716235 0.299508
O O1 0.452872 0.194517 0.500000
O O2 0.500000 0.190663 0.770673
O O3 0.444462 0.321553 0.716387
O O4 0.408276 0.166782 0.764008
O O5 0.145356 0.604817 0.500000
O O6 0.153029 0.500000 0.247332
O O7 0.096947 0.635839 0.235872
O O8 0.186901 0.665871 0.237420
O O9 0.318442 0.124628 0.262231
O O10 0.234901 0.179510 0.260846
O O11 0.257890 0.000000 0.255238
O O12 0.267486 0.102456 0.000000
O O13 0.425239 0.500000 0.739640
O O14 0.364303 0.380346 0.780087
O O15 0.427710 0.397447 0.000000
O O16 0.679160 0.385333 0.500000
O O17 0.696454 0.500000 0.268717
O O18 0.723722 0.332826 0.236304
O O19 0.952386 0.626931 0.500000
O O20 0.951484 0.500000 0.285397
O O21 0.000000 0.639180 0.230772
O O22 0.621356 0.000000 0.262121
O O23 0.635775 0.095406 0.000000
O O24 0.231553 0.704874 0.500000
#
# Coordination Sequence:
#
# PCOD9381468 Si02
#       8
#     8   8   8   8   8   8   8   8
#     4  11  24  38  52  73  99 123 145 173 214 262
#     4   8  13  21  33  53  86 123 153 182 217 257
#     4   9  19  35  51  66  86 113 144 178 217 259
#     4  10  21  36  53  71  90 116 153 192 223 252
#     4   9  17  29  45  66  93 122 148 173 207 257
#     4   7   9  14  26  45  72 111 155 189 215 248
#     4   9  19  37  59  78  94 115 144 177 214 258
#     4  10  18  26  41  66  92 118 147 178 215 258
#
# _framework density 17.898084999999998
#
# number of rings (size 3 to 8) (size 9 to 14) (size 15 to 20)
#    0.000    2.875    0.000    3.750    0.000    7.250 
#    0.000    3.750    0.000    1.125    0.000    0.000 
#    0.000    1.000    0.000    9.375    0.000    3.750 
#
# Total GULP energy -356684.951761 kJ/mol
# GULP energy per Si atom -5573.202371 kJ/mol
# Density = 1.785735 g / cm^3
# Si number density = 17.898085 Si / 1000 Ang^3
#
#
#
# Elastic Constant Matrix: (Units=GPa)
#
#
# Indices 1 2 3 4 5 6 
#
# 1 79.7796 55.4342 -0.2929 0.0000 0.0000 0.0000
# 2 55.4342 69.3970 -1.1933 0.0000 0.0000 0.0000
# 3 -0.2929 -1.1933 10.5759 0.0000 0.0000 0.0000
# 4 0.0000 0.0000 0.0000 17.2109 0.0000 0.0000
# 5 0.0000 0.0000 0.0000 0.0000 16.9375 0.0000
# 6 0.0000 0.0000 0.0000 0.0000 0.0000 13.5470
#
#
#
# Elastic Compliance Matrix: (Units=1/GPa)
#
#
# Indices 1 2 3 4 5 6 
#
# 1 0.028203 -0.022559 -0.001764 0.000000 0.000000 0.000000
# 2 -0.022559 0.032482 0.003040 0.000000 0.000000 0.000000
# 3 -0.001764 0.003040 0.094849 0.000000 0.000000 0.000000
# 4 0.000000 0.000000 0.000000 0.058103 0.000000 0.000000
# 5 0.000000 0.000000 0.000000 0.000000 0.059041 0.000000
# 6 0.000000 0.000000 0.000000 0.000000 0.000000 0.073817
#
#
# Mechanical properties :
#
#
# Convention : Reuss Voigt Hill
#
# Bulk Modulus (GPa) = 8.85203 29.73873 19.29538
# Shear Modulus (GPa) = 11.71741 16.59271 14.15506
#
# Velocity S-wave (km/s) = 2.56144 3.04808 2.81529
# Velocity P-wave (km/s) = 3.70195 5.38882 4.62298
#
# Compressibility (1/GPa) = 0.11296850
#
# Stress axis : x y z
#
# Youngs Moduli (GPa) = 35.45757 30.78634 10.54305
#
# Poissons Ratio (x) = 0.69450 0.01860
# Poissons Ratio (y) = 0.79987 -0.03205
# Poissons Ratio (z) = 0.06256 -0.09360
#
# Static dielectric constant tensor:
#      x y z
#    x 1.658910 0.000000 0.000000 
#    y 0.000000 1.604770 0.000000 
#    z 0.000000 0.000000 1.651760 
# 
# From -- ./inp_files/14293.got.cif
#   From: 2010.05.17/outbox.cif.g08.bks.cpg/sg47_8_cif.got.tgz:14293.got - 2010.06.03 20:15:42.
