data_PCOD9381629
_publ_section_title
;
Structure prediction by ZEFSAII (Michael W. Deem and Ramdas Pophale) SiO2 
 PCOD9381629
Probable space group: P M M M
;
_chemical_formula_sum "Si O2"
_cell_formula_units_Z 52
_cell_length_a 7.947935
_cell_length_b 13.923045
_cell_length_c 23.678731
_cell_angle_alpha 90.000000
_cell_angle_beta 90.000000
_cell_angle_gamma 90.000000
_cell_volume 2620.275507
_symmetry_space_group_name_H-M "P M M M"
_symmetry_group_IT_number 47
_symmetry_cell_setting 'orthorhombic'
loop_
_space_group_symop_operation_xyz
x,y,z
-x,-y,z
x,-y,-z
-x,y,-z
-x,-y,-z
x,y,-z
-x,y,z
x,-y,z
loop_
_atom_site_type_symbol
_atom_site_label
_atom_site_fract_x
_atom_site_fract_y
_atom_site_fract_z
Si Si1 0.203511 0.890662 0.250508
Si Si2 0.200455 0.395669 0.869663
Si Si3 0.700173 0.188936 0.130366
Si Si4 0.189890 0.243573 0.656152
Si Si5 0.205430 0.608339 0.434169
Si Si6 0.706106 0.000000 0.065136
Si Si7 0.307482 0.609069 0.740111
O O1 0.250547 0.827826 0.195831
O O2 0.267184 0.846006 0.309771
O O3 0.000000 0.890796 0.253523
O O4 0.261913 0.000000 0.241865
O O5 0.253345 0.500000 0.894757
O O6 0.244944 0.291798 0.894521
O O7 0.277434 0.391377 0.806876
O O8 0.000000 0.398064 0.864489
O O9 0.500000 0.187611 0.128100
O O10 0.765321 0.096352 0.096457
O O11 0.268631 0.304510 0.604923
O O12 0.186307 0.322150 0.706248
O O13 0.000000 0.216440 0.638839
O O14 0.247140 0.622041 0.500000
O O15 0.261047 0.500000 0.417823
O O16 0.000000 0.608249 0.429680
O O17 0.500000 0.000000 0.067286
O O18 0.755542 0.000000 0.000000
O O19 0.500000 0.638610 0.729091
O O20 0.283720 0.500000 0.720747
#
# Coordination Sequence:
#
# PCOD9381629 Si02
#       7
#     8   8   8   8   8   4   8
#     4  10  20  32  46  68 101 137 168 208 262 320
#     4  10  20  33  49  72 106 145 177 206 252 315
#     4  11  20  33  56  81 107 139 176 220 266 311
#     4  10  18  28  45  66  90 127 167 205 256 309
#     4   8  14  25  42  65  91 120 163 217 261 303
#     4   9  20  38  59  85 113 141 176 221 268 310
#     4  10  19  28  40  64  98 129 159 199 243 291
#
# _framework density 19.845241000000001
#
# number of rings (size 3 to 8) (size 9 to 14) (size 15 to 20)
#    0.000    2.231    2.308    2.308    0.000    2.462 
#    0.000    0.000    0.000    5.077    0.000    8.615 
#    0.000    0.000    0.000    2.769    0.000    3.231 
#
# Total GULP energy -289764.371486 kJ/mol
# GULP energy per Si atom -5572.391759 kJ/mol
# Density = 1.980007 g / cm^3
# Si number density = 19.845241 Si / 1000 Ang^3
#
#
#
# Elastic Constant Matrix: (Units=GPa)
#
#
# Indices 1 2 3 4 5 6 
#
# 1 29.3951 16.3366 -3.0344 0.0000 0.0000 0.0000
# 2 16.3366 155.8400 42.5526 0.0000 0.0000 0.0000
# 3 -3.0344 42.5526 64.3177 0.0000 0.0000 0.0000
# 4 0.0000 0.0000 0.0000 18.2291 0.0000 0.0000
# 5 0.0000 0.0000 0.0000 0.0000 9.4318 0.0000
# 6 0.0000 0.0000 0.0000 0.0000 0.0000 16.8227
#
#
#
# Elastic Compliance Matrix: (Units=1/GPa)
#
#
# Indices 1 2 3 4 5 6 
#
# 1 0.037571 -0.005398 0.005344 0.000000 0.000000 0.000000
# 2 -0.005398 0.008607 -0.005949 0.000000 0.000000 0.000000
# 3 0.005344 -0.005949 0.019736 0.000000 0.000000 0.000000
# 4 0.000000 0.000000 0.000000 0.054857 0.000000 0.000000
# 5 0.000000 0.000000 0.000000 0.000000 0.106024 0.000000
# 6 0.000000 0.000000 0.000000 0.000000 0.000000 0.059443
#
#
# Mechanical properties :
#
#
# Convention : Reuss Voigt Hill
#
# Bulk Modulus (GPa) = 18.55035 40.14026 29.34530
# Shear Modulus (GPa) = 15.81208 21.80993 18.81100
#
# Velocity S-wave (km/s) = 2.82577 3.31871 3.08211
# Velocity P-wave (km/s) = 4.47375 5.91233 5.24262
#
# Compressibility (1/GPa) = 0.05390735
#
# Stress axis : x y z
#
# Youngs Moduli (GPa) = 26.61653 116.18344 50.66924
#
# Poissons Ratio (x) = 0.62711 -0.27075
# Poissons Ratio (y) = 0.14366 0.30144
# Poissons Ratio (z) = -0.14223 0.69119
#
# Static dielectric constant tensor:
#      x y z
#    x 1.728210 0.000000 0.000000 
#    y 0.000000 1.772280 0.000000 
#    z 0.000000 0.000000 1.686730 
# 
# From -- ./inp_files/31967.got.cif
#   From: 2010.05.17/outbox.cif.g08.bks.cpg/sg47_16_cif.got.tgz:31967.got - 2010.06.03 20:15:42.
