data_PCOD9381456
_publ_section_title
;
Structure prediction by ZEFSAII (Michael W. Deem and Ramdas Pophale) SiO2 
 PCOD9381456
Probable space group: P M M M
;
_chemical_formula_sum "Si O2"
_cell_formula_units_Z 56
_cell_length_a 9.005075
_cell_length_b 22.005400
_cell_length_c 17.060245
_cell_angle_alpha 90.000000
_cell_angle_beta 90.000000
_cell_angle_gamma 90.000000
_cell_volume 3380.662882
_symmetry_space_group_name_H-M "P M M M"
_symmetry_group_IT_number 47
_symmetry_cell_setting 'orthorhombic'
loop_
_space_group_symop_operation_xyz
x,y,z
-x,-y,z
x,-y,-z
-x,y,-z
-x,-y,-z
x,y,-z
-x,y,z
x,-y,z
loop_
_atom_site_type_symbol
_atom_site_label
_atom_site_fract_x
_atom_site_fract_y
_atom_site_fract_z
Si Si1 0.174472 0.069029 0.306243
Si Si2 0.829266 0.567807 0.905824
Si Si3 0.827797 0.251192 0.717102
Si Si4 0.324554 0.311255 0.147398
Si Si5 0.323061 0.827179 0.592480
Si Si6 0.677922 0.067896 0.134623
Si Si7 0.171675 0.190781 0.121004
O O1 0.246724 0.114623 0.367762
O O2 0.262961 0.068950 0.224082
O O3 0.000000 0.083077 0.292579
O O4 0.182221 0.000000 0.336615
O O5 0.784293 0.500000 0.878879
O O6 0.727368 0.623486 0.881502
O O7 0.000000 0.578850 0.880122
O O8 0.830728 0.566341 0.000000
O O9 0.739614 0.302441 0.764690
O O10 0.747616 0.229067 0.639542
O O11 0.823350 0.197298 0.783264
O O12 0.000000 0.266234 0.704867
O O13 0.500000 0.304232 0.145767
O O14 0.251430 0.254443 0.099695
O O15 0.294570 0.824508 0.500000
O O16 0.500000 0.829104 0.605469
O O17 0.500000 0.073585 0.132549
O O18 0.750295 0.128180 0.097211
O O19 0.716630 0.000000 0.103253
O O20 0.000000 0.191461 0.097556
#
# Coordination Sequence:
#
# PCOD9381456 Si02
#       7
#     8   8   8   8   8   8   8
#     4  10  19  29  39  50  67  96 136 179 225 284
#     4   9  18  33  52  76 110 147 174 193 214 246
#     4   9  18  31  46  62  81 111 151 192 233 279
#     4  10  18  29  48  70  96 129 162 198 233 268
#     4  11  22  32  42  57  78 104 138 187 246 298
#     4  10  18  26  39  59  82 108 141 188 246 298
#     4   9  17  28  43  61  82 112 152 194 235 280
#
# _framework density 16.564800000000002
#
# number of rings (size 3 to 8) (size 9 to 14) (size 15 to 20)
#    0.857    1.429    1.429    3.429    0.000    3.714 
#    0.000    2.143    0.000    0.000    0.000    0.000 
#    0.000    1.143    0.000   12.000    0.000    6.571 
#
# Total GULP energy -311869.921092 kJ/mol
# GULP energy per Si atom -5569.105734 kJ/mol
# Density = 1.652710 g / cm^3
# Si number density = 16.564800 Si / 1000 Ang^3
#
#
#
# Elastic Constant Matrix: (Units=GPa)
#
#
# Indices 1 2 3 4 5 6 
#
# 1 110.5333 66.2741 21.2554 0.0000 0.0000 0.0000
# 2 66.2741 114.7514 21.2961 0.0000 0.0000 0.0000
# 3 21.2554 21.2961 45.4240 0.0000 0.0000 0.0000
# 4 0.0000 0.0000 0.0000 20.1908 0.0000 0.0000
# 5 0.0000 0.0000 0.0000 0.0000 -9.8335 0.0000
# 6 0.0000 0.0000 0.0000 0.0000 0.0000 25.8233
#
#
#
# Elastic Compliance Matrix: (Units=1/GPa)
#
#
# Indices 1 2 3 4 5 6 
#
# 1 0.014220 -0.007643 -0.003071 0.000000 0.000000 0.000000
# 2 -0.007643 0.013653 -0.002824 0.000000 0.000000 0.000000
# 3 -0.003071 -0.002824 0.024776 0.000000 0.000000 0.000000
# 4 0.000000 0.000000 0.000000 0.049528 0.000000 0.000000
# 5 0.000000 0.000000 0.000000 0.000000 -0.101694 0.000000
# 6 0.000000 0.000000 0.000000 0.000000 0.000000 0.038725
#
#
# Mechanical properties :
#
#
# Convention : Reuss Voigt Hill
#
# Bulk Modulus (GPa) = 39.10460 54.26220 46.68340
# Shear Modulus (GPa) = 66.83783 18.02834 42.43309
#
# Velocity S-wave (km/s) = 6.35900 3.30260 5.06676
# Velocity P-wave (km/s) = 8.80762 6.88270 7.90398
#
# Compressibility (1/GPa) = 0.02557244
#
# Stress axis : x y z
#
# Youngs Moduli (GPa) = 70.32296 73.24537 40.36173
#
# Poissons Ratio (x) = 0.55980 0.12395
# Poissons Ratio (y) = 0.53747 0.11400
# Poissons Ratio (z) = 0.21595 0.20688
#
# Static dielectric constant tensor:
#      x y z
#    x 1.551540 0.000000 0.000000 
#    y 0.000000 1.580930 0.000000 
#    z 0.000000 0.000000 1.555240 
# 
# From -- ./inp_files/30072.got.cif
#   From: 2010.05.17/outbox.cif.g08.bks.cpg/sg47_16_cif.got.tgz:30072.got - 2010.06.03 20:15:42.
