data_PCOD9381216
_publ_section_title
;
Structure prediction by ZEFSAII (Michael W. Deem and Ramdas Pophale) SiO2 
 PCOD9381216
Probable space group: P M M M
;
_chemical_formula_sum "Si O2"
_cell_formula_units_Z 52
_cell_length_a 24.346147
_cell_length_b 7.253579
_cell_length_c 14.038063
_cell_angle_alpha 90.000000
_cell_angle_beta 90.000000
_cell_angle_gamma 90.000000
_cell_volume 2479.075609
_symmetry_space_group_name_H-M "P M M M"
_symmetry_group_IT_number 47
_symmetry_cell_setting 'orthorhombic'
loop_
_space_group_symop_operation_xyz
x,y,z
-x,-y,z
x,-y,-z
-x,y,-z
-x,-y,-z
x,y,-z
-x,y,z
x,-y,z
loop_
_atom_site_type_symbol
_atom_site_label
_atom_site_fract_x
_atom_site_fract_y
_atom_site_fract_z
Si Si1 0.435932 0.724781 0.209461
Si Si2 0.939277 0.778000 0.610457
Si Si3 0.240087 0.724474 0.606420
Si Si4 0.565890 0.279701 0.000000
Si Si5 0.060913 0.723852 0.111345
Si Si6 0.631870 0.723946 0.393931
Si Si7 0.153644 0.295145 0.246710
O O1 0.500000 0.776560 0.218166
O O2 0.434413 0.500000 0.208534
O O3 0.414868 0.785831 0.104439
O O4 0.402316 0.785803 0.302141
O O5 0.933713 0.733289 0.500000
O O6 0.891403 0.692007 0.670097
O O7 0.000000 0.719848 0.641444
O O8 0.936090 0.000000 0.619686
O O9 0.220581 0.781880 0.500000
O O10 0.236732 0.500000 0.607563
O O11 0.304007 0.774602 0.614640
O O12 0.204840 0.790143 0.696739
O O13 0.574649 0.500000 0.000000
O O14 0.500000 0.249499 0.000000
O O15 0.061178 0.500000 0.121141
O O16 0.115361 0.791705 0.165108
O O17 0.000000 0.786046 0.144721
O O18 0.064246 0.766689 0.000000
O O19 0.612567 0.781698 0.500000
O O20 0.629920 0.500000 0.393727
O O21 0.170602 0.500000 0.213477
#
# Coordination Sequence:
#
# PCOD9381216 Si02
#       7
#     8   8   8   4   8   8   8
#     4   8  12  17  26  38  52  74 107 142 173 210
#     4   9  18  30  40  54  81 108 121 141 189 239
#     4   8  14  23  33  47  67  88 111 145 185 216
#     4   7  10  16  24  34  48  68  98 138 176 203
#     4   8  14  24  37  54  75  95 115 146 191 230
#     4   8  13  20  28  38  57  82 104 134 180 222
#     4  10  17  25  42  61  73  93 131 165 181 213
#
# _framework density 20.975560999999999
#
# number of rings (size 3 to 8) (size 9 to 14) (size 15 to 20)
#    0.000    3.615    0.000    3.692    0.000    2.154 
#    0.000    2.308    1.692    0.462    0.000    2.154 
#    0.000    0.000    0.000    0.000    0.000    0.769 
#
# Total GULP energy -289720.254559 kJ/mol
# GULP energy per Si atom -5571.543357 kJ/mol
# Density = 2.092782 g / cm^3
# Si number density = 20.975561 Si / 1000 Ang^3
#
#
#
# Elastic Constant Matrix: (Units=GPa)
#
#
# Indices 1 2 3 4 5 6 
#
# 1 72.6924 -0.1038 77.3105 0.0000 0.0000 0.0000
# 2 -0.1038 89.8023 5.3783 0.0000 0.0000 0.0000
# 3 77.3105 5.3783 188.8837 0.0000 0.0000 0.0000
# 4 0.0000 0.0000 0.0000 8.2638 0.0000 0.0000
# 5 0.0000 0.0000 0.0000 0.0000 42.3992 0.0000
# 6 0.0000 0.0000 0.0000 0.0000 0.0000 -0.3330
#
#
#
# Elastic Compliance Matrix: (Units=1/GPa)
#
#
# Indices 1 2 3 4 5 6 
#
# 1 0.024396 0.000627 -0.010003 0.000000 0.000000 0.000000
# 2 0.000627 0.011171 -0.000575 0.000000 0.000000 0.000000
# 3 -0.010003 -0.000575 0.009405 0.000000 0.000000 0.000000
# 4 0.000000 0.000000 0.000000 0.121010 0.000000 0.000000
# 5 0.000000 0.000000 0.000000 0.000000 0.023585 0.000000
# 6 0.000000 0.000000 0.000000 0.000000 0.000000 -3.002928
#
#
# Mechanical properties :
#
#
# Convention : Reuss Voigt Hill
#
# Bulk Modulus (GPa) = 39.88778 57.39427 48.64102
# Shear Modulus (GPa) = -1.79527 27.98555 13.09514
#
# Velocity S-wave (km/s) = -0.92614 3.65663 2.50132
# Velocity P-wave (km/s) = 4.23249 6.72680 5.61977
#
# Compressibility (1/GPa) = 0.02507034
#
# Stress axis : x y z
#
# Youngs Moduli (GPa) = 40.98976 89.51974 106.32622
#
# Poissons Ratio (x) = -0.05616 1.06362
# Poissons Ratio (y) = -0.02571 0.06112
# Poissons Ratio (z) = 0.41003 0.05146
#
# Static dielectric constant tensor:
#      x y z
#    x 1.727450 0.000000 0.000000 
#    y 0.000000 1.863030 0.000000 
#    z 0.000000 0.000000 1.779180 
# 
# From -- ./inp_files/25619.got.cif
#   From: 2010.05.17/outbox.cif.g08.bks.cpg/sg47_13_cif.got.tgz:25619.got - 2010.06.03 20:15:42.
