data_PCOD9381598
_publ_section_title
;
Structure prediction by ZEFSAII (Michael W. Deem and Ramdas Pophale) SiO2 
 PCOD9381598
Probable space group: P M M M
;
_chemical_formula_sum "Si O2"
_cell_formula_units_Z 52
_cell_length_a 29.247758
_cell_length_b 14.550674
_cell_length_c 9.446026
_cell_angle_alpha 90.000000
_cell_angle_beta 90.000000
_cell_angle_gamma 90.000000
_cell_volume 4019.988660
_symmetry_space_group_name_H-M "P M M M"
_symmetry_group_IT_number 47
_symmetry_cell_setting 'orthorhombic'
loop_
_space_group_symop_operation_xyz
x,y,z
-x,-y,z
x,-y,-z
-x,y,-z
-x,-y,-z
x,y,-z
-x,y,z
x,-y,z
loop_
_atom_site_type_symbol
_atom_site_label
_atom_site_fract_x
_atom_site_fract_y
_atom_site_fract_z
Si Si1 0.770912 0.888250 0.337210
Si Si2 0.948711 0.111696 0.335719
Si Si3 0.860198 0.112153 0.163141
Si Si4 0.554028 0.605932 0.330822
Si Si5 0.679821 0.108477 0.831540
Si Si6 0.588806 0.777756 0.829715
Si Si7 0.500000 0.894969 0.827946
O O1 0.771410 0.857558 0.500000
O O2 0.815972 0.858132 0.252351
O O3 0.724429 0.863113 0.256293
O O4 0.771995 0.000000 0.338101
O O5 0.941166 0.137418 0.500000
O O6 0.907230 0.142616 0.237306
O O7 0.000000 0.141022 0.293329
O O8 0.948650 0.000000 0.332176
O O9 0.860283 0.000000 0.164506
O O10 0.857412 0.140806 0.000000
O O11 0.559222 0.617448 0.500000
O O12 0.500000 0.619425 0.297982
O O13 0.565312 0.500000 0.296187
O O14 0.582974 0.680592 0.246728
O O15 0.635561 0.168904 0.796598
O O16 0.670529 0.000000 0.804427
O O17 0.688945 0.116790 0.000000
O O18 0.545547 0.840577 0.785767
O O19 0.586626 0.766173 0.000000
O O20 0.500000 0.000000 0.777545
O O21 0.500000 0.897747 0.000000
#
# Coordination Sequence:
#
# PCOD9381598 Si02
#       7
#     8   8   8   8   8   8   4
#     4   9  16  25  36  48  62  84 115 147 177 211
#     4   8  13  20  28  38  54  76 101 131 170 216
#     4   9  15  21  30  43  58  77 103 138 178 217
#     4   9  18  32  47  61  79 102 123 146 181 220
#     4   9  17  28  40  55  76  99 121 147 181 219
#     4  10  18  28  44  64  80  98 124 152 180 213
#     4   9  16  26  40  59  82 104 125 147 174 213
#
# _framework density 12.935359999999999
#
# number of rings (size 3 to 8) (size 9 to 14) (size 15 to 20)
#    0.000    3.000    0.769    2.308    0.000    6.769 
#    0.000    2.308    0.000    1.846    0.000    0.000 
#    0.000    0.000    0.000    0.000    0.000    0.000 
#
# Total GULP energy -289476.114617 kJ/mol
# GULP energy per Si atom -5566.848358 kJ/mol
# Density = 1.290592 g / cm^3
# Si number density = 12.935360 Si / 1000 Ang^3
#
#
#
# Elastic Constant Matrix: (Units=GPa)
#
#
# Indices 1 2 3 4 5 6 
#
# 1 133.0262 38.1730 74.7193 0.0000 0.0000 0.0000
# 2 38.1730 46.1254 30.1359 0.0000 0.0000 0.0000
# 3 74.7193 30.1359 69.6507 0.0000 0.0000 0.0000
# 4 0.0000 0.0000 0.0000 11.9203 0.0000 0.0000
# 5 0.0000 0.0000 0.0000 0.0000 23.2926 0.0000
# 6 0.0000 0.0000 0.0000 0.0000 0.0000 1.6293
#
#
#
# Elastic Compliance Matrix: (Units=1/GPa)
#
#
# Indices 1 2 3 4 5 6 
#
# 1 0.019291 -0.003407 -0.019221 0.000000 0.000000 0.000000
# 2 -0.003407 0.030826 -0.009682 0.000000 0.000000 0.000000
# 3 -0.019221 -0.009682 0.039166 0.000000 0.000000 0.000000
# 4 0.000000 0.000000 0.000000 0.083890 0.000000 0.000000
# 5 0.000000 0.000000 0.000000 0.000000 0.042932 0.000000
# 6 0.000000 0.000000 0.000000 0.000000 0.000000 0.613763
#
#
# Mechanical properties :
#
#
# Convention : Reuss Voigt Hill
#
# Bulk Modulus (GPa) = 40.54743 59.42873 49.98808
# Shear Modulus (GPa) = 5.53888 14.42005 9.97946
#
# Velocity S-wave (km/s) = 2.07154 3.34245 2.78058
# Velocity P-wave (km/s) = 6.09393 7.80632 7.00266
#
# Compressibility (1/GPa) = 0.02466248
#
# Stress axis : x y z
#
# Youngs Moduli (GPa) = 51.83724 32.44039 25.53235
#
# Poissons Ratio (x) = 0.11054 0.49075
# Poissons Ratio (y) = 0.17663 0.24721
# Poissons Ratio (z) = 0.99635 0.31409
#
# Static dielectric constant tensor:
#      x y z
#    x 1.424400 0.000000 0.000000 
#    y 0.000000 1.384200 0.000000 
#    z 0.000000 0.000000 1.431540 
# 
# From -- ./inp_files/13418.got.cif
#   From: 2010.05.17/outbox.cif.g08.bks.cpg/sg47_7_cif.got.tgz:13418.got - 2010.06.03 20:15:42.
