data_PCOD9381094
_publ_section_title
;
Structure prediction by ZEFSAII (Michael W. Deem and Ramdas Pophale) SiO2 
 PCOD9381094
Probable space group: I M A 2
;
_chemical_formula_sum "Si O2"
_cell_formula_units_Z 28
_cell_length_a 9.000000
_cell_length_b 15.000000
_cell_length_c 21.000000
_cell_angle_alpha 90.000000
_cell_angle_beta 90.000000
_cell_angle_gamma 90.000000
_cell_volume 2835.000000
_symmetry_space_group_name_H-M "I M A 2"
_symmetry_group_IT_number 46
_symmetry_cell_setting 'orthorhombic'
loop_
_space_group_symop_operation_xyz
x,y,z
-x,-y,z
1/2-x,y,z
1/2+x,-y,z
1/2+x,1/2+y,1/2+z
1/2-x,1/2-y,1/2+z
-x,1/2+y,1/2+z
x,1/2-y,1/2+z
loop_
_atom_site_type_symbol
_atom_site_label
_atom_site_fract_x
_atom_site_fract_y
_atom_site_fract_z
Si Si1 0.074457 0.093459 0.630290
Si Si2 0.928790 0.211904 0.528431
Si Si3 0.575918 0.590452 0.283256
Si Si4 0.574481 0.595584 0.918380
Si Si5 0.926075 0.783914 0.294207
Si Si6 0.426483 0.907984 0.194865
Si Si7 0.573087 0.090844 0.044058
O O1 0.250000 0.092888 0.615951
O O2 0.056721 0.098575 0.706560
O O3 0.994553 0.174114 0.594385
O O4 0.000000 0.000000 0.609291
O O5 0.750000 0.208187 0.530834
O O6 0.974380 0.314311 0.515811
O O7 0.994511 0.148574 0.474633
O O8 0.500000 0.500000 0.305176
O O9 0.750000 0.582294 0.296608
O O10 0.519986 0.684327 0.310113
O O11 0.500000 0.500000 0.911310
O O12 0.750000 0.586876 0.931761
O O13 0.555801 0.651433 0.853820
O O14 0.750000 0.777648 0.279086
O O15 0.008683 0.826401 0.234392
O O16 0.250000 0.912873 0.202627
O O17 0.460145 0.901174 0.119770
O O18 0.500000 0.000000 0.218370
O O19 0.750000 0.082590 0.037363
O O20 0.500000 0.000000 0.019813
#
# Coordination Sequence:
#
# PCOD9381094 Si02
#       7
#     8   8   8   8   8   8   8
#     4  10  19  32  53  81 112 144 177 216 266 320
#     4  11  22  37  56  79 108 141 181 224 267 315
#     4   9  19  35  55  81 111 142 177 218 264 317
#     4  11  24  41  59  79 106 140 179 222 266 314
#     4  10  21  37  56  79 108 142 181 223 266 314
#     4  10  19  32  53  82 113 143 176 215 265 320
#     4   9  20  36  55  81 111 142 176 218 264 316
#
# _framework density 9.8765429999999999
#
# number of rings (size 3 to 8) (size 9 to 14) (size 15 to 20)
#    0.000    2.000    0.000    3.429    0.000    5.143 
#    0.000    0.714    0.000    3.429    0.000    0.000 
#    0.000    0.000    0.000    0.000    0.000    0.000 
#
# Total GULP energy -156401.220455 kJ/mol
# GULP energy per Si atom -5585.757873 kJ/mol
# Density = 0.985406 g / cm^3
# Si number density = 9.876543 Si / 1000 Ang^3
#
#
#
# Elastic Constant Matrix: (Units=GPa)
#
#
# Indices 1 2 3 4 5 6 
#
# 1 61.9753 62.3982 28.3510 0.0000 0.0000 0.0000
# 2 62.3982 196.4782 24.3946 0.0000 0.0000 0.0000
# 3 28.3510 24.3946 8.6451 0.0000 0.0000 0.0000
# 4 0.0000 0.0000 0.0000 3.7728 0.0000 0.0000
# 5 0.0000 0.0000 0.0000 0.0000 9.0315 0.0000
# 6 0.0000 0.0000 0.0000 0.0000 0.0000 33.8923
#
#
#
# Elastic Compliance Matrix: (Units=1/GPa)
#
#
# Indices 1 2 3 4 5 6 
#
# 1 -0.029916 -0.004125 0.109749 0.000000 0.000000 0.000000
# 2 -0.004125 0.007266 -0.006972 0.000000 0.000000 0.000000
# 3 0.109749 -0.006972 -0.224566 0.000000 0.000000 0.000000
# 4 0.000000 0.000000 0.000000 0.265057 0.000000 0.000000
# 5 0.000000 0.000000 0.000000 0.000000 0.110723 0.000000
# 6 0.000000 0.000000 0.000000 0.000000 0.000000 0.029505
#
#
# Mechanical properties :
#
#
# Convention : Reuss Voigt Hill
#
# Bulk Modulus (GPa) = -20.03427 55.26513 17.61543
# Shear Modulus (GPa) = -89.48963 19.46965 -35.00999
#
# Velocity S-wave (km/s) = -6.73814 3.14291 -4.21453
# Velocity P-wave (km/s) = 8.40839 6.41944 3.84004
#
# Compressibility (1/GPa) = -0.04991446
#
# Stress axis : x y z
#
# Youngs Moduli (GPa) = -33.42645 137.63667 -4.45303
#
# Poissons Ratio (x) = 0.56782 0.48872
# Poissons Ratio (y) = -0.13790 -0.03105
# Poissons Ratio (z) = 3.66853 0.95967
#
# Static dielectric constant tensor:
#      x y z
#    x 1.660000 0.000000 0.000000 
#    y 0.000000 1.709720 0.000000 
#    z 0.000000 0.000000 1.693420 
# 
# From -- ./inp_files/21098.got.cif
#   From: 2010.05.17/outbox.ucp.g08.bks.cvg/sg46_11_cif.got.tgz:21098.got - 2010.06.11 16:34:52.
