data_PCOD9381001
_publ_section_title
;
Structure prediction by ZEFSAII (Michael W. Deem and Ramdas Pophale) SiO2 
 PCOD9381001
Probable space group: I M A 2
;
_chemical_formula_sum "Si O2"
_cell_formula_units_Z 24
_cell_length_a 19.730515
_cell_length_b 4.828332
_cell_length_c 9.451078
_cell_angle_alpha 90.000000
_cell_angle_beta 90.000000
_cell_angle_gamma 90.000000
_cell_volume 900.361453
_symmetry_space_group_name_H-M "I M A 2"
_symmetry_group_IT_number 46
_symmetry_cell_setting 'orthorhombic'
loop_
_space_group_symop_operation_xyz
x,y,z
-x,-y,z
1/2-x,y,z
1/2+x,-y,z
1/2+x,1/2+y,1/2+z
1/2-x,1/2-y,1/2+z
-x,1/2+y,1/2+z
x,1/2-y,1/2+z
loop_
_atom_site_type_symbol
_atom_site_label
_atom_site_fract_x
_atom_site_fract_y
_atom_site_fract_z
Si Si1 0.634789 0.055018 0.478990
Si Si2 0.750000 0.318559 0.659757
Si Si3 0.250000 0.188061 0.859750
Si Si4 0.544813 0.270690 0.227678
O O1 0.686582 0.251010 0.562437
O O2 0.602968 0.166505 0.333998
O O3 0.574670 0.056174 0.594601
O O4 0.681540 0.791165 0.438751
O O5 0.750000 0.624223 0.718581
O O6 0.750000 0.116719 0.795322
O O7 0.500000 0.500000 0.308383
O O8 0.500000 0.000000 0.190763
#
# Coordination Sequence:
#
# PCOD9381001 Si02
#       4
#     8   4   4   8
#     4  11  26  50  78 106 154 188 256 306 376 437
#     4  11  26  46  77 109 142 192 240 317 371 434
#     4  11  26  46  77 109 142 192 240 317 371 434
#     4  12  28  47  76 111 152 202 250 302 372 448
#
# _framework density 26.655961000000001
#
# number of rings (size 3 to 8) (size 9 to 14) (size 15 to 20)
#    0.000    0.667    3.333    2.000    4.667   10.667 
#    0.000    0.000    0.000    0.000    0.000    0.000 
#    0.000    0.000    0.000    0.000    0.000    0.000 
#
# Total GULP energy -67231.483393 kJ/mol
# GULP energy per Si atom -5602.623616 kJ/mol
# Density = 2.659529 g / cm^3
# Si number density = 26.655961 Si / 1000 Ang^3
#
#
#
# Elastic Constant Matrix: (Units=GPa)
#
#
# Indices 1 2 3 4 5 6 
#
# 1 160.0127 39.6599 55.9600 0.0000 0.0000 0.0000
# 2 39.6599 101.0123 40.1042 0.0000 0.0000 0.0000
# 3 55.9600 40.1042 175.3132 0.0000 0.0000 0.0000
# 4 0.0000 0.0000 0.0000 56.0248 0.0000 0.0000
# 5 0.0000 0.0000 0.0000 0.0000 24.8897 0.0000
# 6 0.0000 0.0000 0.0000 0.0000 0.0000 7.8623
#
#
#
# Elastic Compliance Matrix: (Units=1/GPa)
#
#
# Indices 1 2 3 4 5 6 
#
# 1 0.007446 -0.002178 -0.001879 0.000000 0.000000 0.000000
# 2 -0.002178 0.011526 -0.001941 0.000000 0.000000 0.000000
# 3 -0.001879 -0.001941 0.006748 0.000000 0.000000 0.000000
# 4 0.000000 0.000000 0.000000 0.017849 0.000000 0.000000
# 5 0.000000 0.000000 0.000000 0.000000 0.040177 0.000000
# 6 0.000000 0.000000 0.000000 0.000000 0.000000 0.127189
#
#
# Mechanical properties :
#
#
# Convention : Reuss Voigt Hill
#
# Bulk Modulus (GPa) = 72.86467 78.64296 75.75382
# Shear Modulus (GPa) = 21.97746 37.79631 29.88688
#
# Velocity S-wave (km/s) = 2.87450 3.76963 3.35208
# Velocity P-wave (km/s) = 6.19771 6.96518 6.59262
#
# Compressibility (1/GPa) = 0.01372407
#
# Stress axis : x y z
#
# Youngs Moduli (GPa) = 134.29527 86.76336 148.19482
#
# Poissons Ratio (x) = 0.18895 0.27841
# Poissons Ratio (y) = 0.29246 0.28771
# Poissons Ratio (z) = 0.25230 0.16845
#
# Static dielectric constant tensor:
#      x y z
#    x 2.347950 0.000000 0.000000 
#    y 0.000000 2.035010 0.000000 
#    z 0.000000 0.000000 2.079010 
# 
# From -- ./inp_files/12098.got.cif
#   From: 2010.05.17/outbox.cif.g08.bks.cpg/sg46_7_cif.got.tgz:12098.got - 2010.06.03 19:58:25.
