data_PCOD9381842
_publ_section_title
;
Structure prediction by ZEFSAII (Michael W. Deem and Ramdas Pophale) SiO2 
 PCOD9381842
Probable space group: P M M M
;
_chemical_formula_sum "Si O2"
_cell_formula_units_Z 52
_cell_length_a 9.371547
_cell_length_b 18.489396
_cell_length_c 16.461493
_cell_angle_alpha 90.000000
_cell_angle_beta 90.000000
_cell_angle_gamma 90.000000
_cell_volume 2852.352748
_symmetry_space_group_name_H-M "P M M M"
_symmetry_group_IT_number 47
_symmetry_cell_setting 'orthorhombic'
loop_
_space_group_symop_operation_xyz
x,y,z
-x,-y,z
x,-y,-z
-x,y,-z
-x,-y,-z
x,y,-z
-x,y,z
x,-y,z
loop_
_atom_site_type_symbol
_atom_site_label
_atom_site_fract_x
_atom_site_fract_y
_atom_site_fract_z
Si Si1 0.335566 0.913897 0.000000
Si Si2 0.169016 0.843059 0.334957
Si Si3 0.832669 0.331571 0.341467
Si Si4 0.333851 0.845711 0.500000
Si Si5 0.328872 0.851908 0.828412
Si Si6 0.662447 0.330424 0.500000
Si Si7 0.171348 0.416861 0.820891
Si Si8 0.665819 0.298976 0.091525
O O1 0.277335 0.889166 0.087616
O O2 0.500000 0.885707 0.000000
O O3 0.337692 0.000000 0.000000
O O4 0.182478 0.755149 0.330750
O O5 0.250030 0.866827 0.417533
O O6 0.244554 0.871959 0.253162
O O7 0.000000 0.859806 0.338067
O O8 0.743099 0.353995 0.419367
O O9 0.788113 0.376511 0.262652
O O10 0.000000 0.345169 0.355857
O O11 0.500000 0.869191 0.500000
O O12 0.335042 0.757687 0.500000
O O13 0.500000 0.865144 0.818388
O O14 0.307910 0.766763 0.847013
O O15 0.500000 0.354167 0.500000
O O16 0.217685 0.500000 0.822524
O O17 0.238689 0.367855 0.890463
O O18 0.000000 0.415069 0.826579
O O19 0.500000 0.319155 0.098711
O O20 0.689742 0.271558 0.000000
#
# Coordination Sequence:
#
# PCOD9381842 Si02
#       8
#     4   8   8   4   8   4   8   8
#     4   9  18  34  57  85 116 147 180 216 253 301
#     4  10  18  29  48  75 105 138 176 218 265 316
#     4   9  17  30  46  65  91 124 162 205 254 305
#     4   9  17  29  45  72 107 138 172 218 268 312
#     4  10  18  31  53  80 107 139 178 217 258 305
#     4   9  17  27  44  68  91 121 159 202 253 306
#     4  10  21  36  51  68  92 125 168 216 263 311
#     4  10  20  34  52  73  98 128 165 210 258 309
#
# _framework density 18.230564999999999
#
# number of rings (size 3 to 8) (size 9 to 14) (size 15 to 20)
#    0.000    2.385    2.308    0.923    0.000    4.000 
#    0.000    2.308    0.000    3.231    0.000    0.538 
#    0.000    4.308    0.000    0.000    0.000    0.000 
#
# Total GULP energy -289828.659240 kJ/mol
# GULP energy per Si atom -5573.628062 kJ/mol
# Density = 1.818907 g / cm^3
# Si number density = 18.230565 Si / 1000 Ang^3
#
#
#
# Elastic Constant Matrix: (Units=GPa)
#
#
# Indices 1 2 3 4 5 6 
#
# 1 59.4492 14.5038 71.8908 0.0000 0.0000 0.0000
# 2 14.5038 17.8374 20.7192 0.0000 0.0000 0.0000
# 3 71.8908 20.7192 148.3772 0.0000 0.0000 0.0000
# 4 0.0000 0.0000 0.0000 10.2870 0.0000 0.0000
# 5 0.0000 0.0000 0.0000 0.0000 32.0900 0.0000
# 6 0.0000 0.0000 0.0000 0.0000 0.0000 8.1332
#
#
#
# Elastic Compliance Matrix: (Units=1/GPa)
#
#
# Indices 1 2 3 4 5 6 
#
# 1 0.042950 -0.012833 -0.019018 0.000000 0.000000 0.000000
# 2 -0.012833 0.070750 -0.003662 0.000000 0.000000 0.000000
# 3 -0.019018 -0.003662 0.016465 0.000000 0.000000 0.000000
# 4 0.000000 0.000000 0.000000 0.097210 0.000000 0.000000
# 5 0.000000 0.000000 0.000000 0.000000 0.031162 0.000000
# 6 0.000000 0.000000 0.000000 0.000000 0.000000 0.122953
#
#
# Mechanical properties :
#
#
# Convention : Reuss Voigt Hill
#
# Bulk Modulus (GPa) = 16.90893 48.87681 32.89287
# Shear Modulus (GPa) = 10.58810 18.00537 14.29673
#
# Velocity S-wave (km/s) = 2.41257 3.14609 2.80343
# Velocity P-wave (km/s) = 4.12987 6.32975 5.34423
#
# Compressibility (1/GPa) = 0.05914034
#
# Stress axis : x y z
#
# Youngs Moduli (GPa) = 23.28298 14.13430 60.73370
#
# Poissons Ratio (x) = 0.18138 1.15502
# Poissons Ratio (y) = 0.29878 0.22239
# Poissons Ratio (z) = 0.44279 0.05176
#
# Static dielectric constant tensor:
#      x y z
#    x 1.613500 0.000000 0.000000 
#    y 0.000000 1.611420 0.000000 
#    z 0.000000 0.000000 1.635980 
# 
# From -- ./inp_files/21505.got.cif
#   From: 2010.05.17/outbox.cif.g08.bks.cpg/sg47_11_cif.got.tgz:21505.got - 2010.06.03 20:15:42.
