data_PCOD9381383
_publ_section_title
;
Structure prediction by ZEFSAII (Michael W. Deem and Ramdas Pophale) SiO2 
 PCOD9381383
Probable space group: P M M M
;
_chemical_formula_sum "Si O2"
_cell_formula_units_Z 52
_cell_length_a 7.685499
_cell_length_b 14.759673
_cell_length_c 25.894661
_cell_angle_alpha 90.000000
_cell_angle_beta 90.000000
_cell_angle_gamma 90.000000
_cell_volume 2937.372577
_symmetry_space_group_name_H-M "P M M M"
_symmetry_group_IT_number 47
_symmetry_cell_setting 'orthorhombic'
loop_
_space_group_symop_operation_xyz
x,y,z
-x,-y,z
x,-y,-z
-x,y,-z
-x,-y,-z
x,y,-z
-x,y,z
x,-y,z
loop_
_atom_site_type_symbol
_atom_site_label
_atom_site_fract_x
_atom_site_fract_y
_atom_site_fract_z
Si Si1 0.712845 0.395363 0.342374
Si Si2 0.794606 0.899096 0.405397
Si Si3 0.500000 0.609839 0.058675
Si Si4 0.711310 0.711859 0.760270
Si Si5 0.703681 0.293668 0.556077
Si Si6 0.801251 0.606067 0.863251
Si Si7 0.289427 0.899400 0.284537
O O1 0.500000 0.391957 0.342564
O O2 0.764538 0.500000 0.342147
O O3 0.767100 0.344602 0.290257
O O4 0.776774 0.344351 0.393764
O O5 0.714697 0.813840 0.434212
O O6 0.766899 0.885896 0.343944
O O7 0.000000 0.898230 0.415958
O O8 0.726947 0.000000 0.418308
O O9 0.500000 0.500000 0.055920
O O10 0.331669 0.635357 0.092232
O O11 0.500000 0.644013 0.000000
O O12 0.500000 0.709775 0.762327
O O13 0.777594 0.665473 0.812087
O O14 0.767450 0.815414 0.750359
O O15 0.780793 0.315791 0.500000
O O16 0.500000 0.318353 0.554287
O O17 0.763200 0.500000 0.850455
O O18 0.000000 0.611121 0.881076
O O19 0.500000 0.898591 0.284993
O O20 0.231255 0.000000 0.268449
#
# Coordination Sequence:
#
# PCOD9381383 Si02
#       7
#     8   8   4   8   8   8   8
#     4   9  17  29  47  71  94 120 155 195 247 305
#     4  10  20  33  49  68  91 118 148 189 245 306
#     4   9  18  34  54  76 109 151 188 222 258 295
#     4  10  17  29  50  72 102 137 165 204 256 305
#     4  10  20  34  50  67  87 114 154 201 246 296
#     4  10  20  32  49  77 110 144 183 222 258 298
#     4   9  17  30  50  74  99 127 160 199 247 306
#
# _framework density 17.702895000000002
#
# number of rings (size 3 to 8) (size 9 to 14) (size 15 to 20)
#    0.000    2.385    2.308    0.923    0.000    3.385 
#    0.000    4.615    0.000    0.462    0.000    1.077 
#    0.000    1.231    0.000    1.385    0.000    0.154 
#
# Total GULP energy -290149.447337 kJ/mol
# GULP energy per Si atom -5579.797064 kJ/mol
# Density = 1.766260 g / cm^3
# Si number density = 17.702895 Si / 1000 Ang^3
#
#
#
# Elastic Constant Matrix: (Units=GPa)
#
#
# Indices 1 2 3 4 5 6 
#
# 1 48.4923 15.6475 30.6812 0.0000 0.0000 0.0000
# 2 15.6475 88.5213 54.2899 0.0000 0.0000 0.0000
# 3 30.6812 54.2899 131.7585 0.0000 0.0000 0.0000
# 4 0.0000 0.0000 0.0000 16.6183 0.0000 0.0000
# 5 0.0000 0.0000 0.0000 0.0000 -11.3397 0.0000
# 6 0.0000 0.0000 0.0000 0.0000 0.0000 4.5087
#
#
#
# Elastic Compliance Matrix: (Units=1/GPa)
#
#
# Indices 1 2 3 4 5 6 
#
# 1 0.024265 -0.001103 -0.005196 0.000000 0.000000 0.000000
# 2 -0.001103 0.015167 -0.005993 0.000000 0.000000 0.000000
# 3 -0.005196 -0.005993 0.011269 0.000000 0.000000 0.000000
# 4 0.000000 0.000000 0.000000 0.060175 0.000000 0.000000
# 5 0.000000 0.000000 0.000000 0.000000 -0.088186 0.000000
# 6 0.000000 0.000000 0.000000 0.000000 0.000000 0.221793
#
#
# Mechanical properties :
#
#
# Convention : Reuss Voigt Hill
#
# Bulk Modulus (GPa) = 38.28721 52.22325 45.25523
# Shear Modulus (GPa) = 18.00044 13.16770 15.58407
#
# Velocity S-wave (km/s) = 3.19220 2.73026 2.97022
# Velocity P-wave (km/s) = 5.93814 6.28514 6.11410
#
# Compressibility (1/GPa) = 0.02611838
#
# Stress axis : x y z
#
# Youngs Moduli (GPa) = 41.21134 65.93315 88.74051
#
# Poissons Ratio (x) = 0.07269 0.46110
# Poissons Ratio (y) = 0.04544 0.53179
# Poissons Ratio (z) = 0.21414 0.39511
#
# Static dielectric constant tensor:
#      x y z
#    x 1.665510 0.000000 0.000000 
#    y 0.000000 1.610010 0.000000 
#    z 0.000000 0.000000 1.574240 
# 
# From -- ./inp_files/21747.got.cif
#   From: 2010.05.17/outbox.cif.g08.bks.cpg/sg47_11_cif.got.tgz:21747.got - 2010.06.03 20:15:42.
