data_PCOD9381829
_publ_section_title
;
Structure prediction by ZEFSAII (Michael W. Deem and Ramdas Pophale) SiO2 
 PCOD9381829
Probable space group: P M M M
;
_chemical_formula_sum "Si O2"
_cell_formula_units_Z 56
_cell_length_a 16.283800
_cell_length_b 20.510737
_cell_length_c 7.373950
_cell_angle_alpha 90.000000
_cell_angle_beta 90.000000
_cell_angle_gamma 90.000000
_cell_volume 2462.845759
_symmetry_space_group_name_H-M "P M M M"
_symmetry_group_IT_number 47
_symmetry_cell_setting 'orthorhombic'
loop_
_space_group_symop_operation_xyz
x,y,z
-x,-y,z
x,-y,-z
-x,y,-z
-x,-y,-z
x,y,-z
-x,y,z
x,-y,z
loop_
_atom_site_type_symbol
_atom_site_label
_atom_site_fract_x
_atom_site_fract_y
_atom_site_fract_z
Si Si1 0.243744 0.073508 0.715211
Si Si2 0.168335 0.292848 0.280356
Si Si3 0.355287 0.710575 0.208723
Si Si4 0.096108 0.571214 0.279571
Si Si5 0.589376 0.151456 0.218482
Si Si6 0.090796 0.840228 0.278759
Si Si7 0.598103 0.429705 0.217520
O O1 0.230388 0.069129 0.500000
O O2 0.331116 0.108946 0.737097
O O3 0.167164 0.116105 0.785268
O O4 0.245652 0.000000 0.788235
O O5 0.170267 0.294099 0.500000
O O6 0.258808 0.275564 0.214688
O O7 0.142854 0.364635 0.216453
O O8 0.107523 0.234851 0.226788
O O9 0.398634 0.774340 0.287135
O O10 0.368069 0.638645 0.289935
O O11 0.384087 0.705605 0.000000
O O12 0.098991 0.571627 0.500000
O O13 0.127194 0.500000 0.219964
O O14 0.000000 0.576062 0.230341
O O15 0.500000 0.126142 0.277732
O O16 0.588484 0.154804 0.000000
O O17 0.091536 0.841532 0.500000
O O18 0.000000 0.861557 0.220911
O O19 0.500000 0.428314 0.244890
O O20 0.629065 0.500000 0.287453
O O21 0.612758 0.430574 0.000000
#
# Coordination Sequence:
#
# PCOD9381829 Si02
#       7
#     8   8   8   8   8   8   8
#     4  10  21  37  57  83 112 137 166 210 263 315
#     4  10  18  29  48  72  99 131 169 210 253 302
#     4  10  19  31  49  73 101 131 168 214 259 301
#     4   8  14  25  42  66  95 127 167 213 254 295
#     4  10  21  37  57  79 105 141 181 216 254 306
#     4   9  17  31  53  79 105 135 172 211 251 300
#     4   8  14  26  45  68  93 124 166 213 255 297
#
# _framework density 22.737925000000001
#
# number of rings (size 3 to 8) (size 9 to 14) (size 15 to 20)
#    0.000    2.714    1.429    1.714    0.000    5.143 
#    0.000    2.857    0.000    4.286    0.000    3.000 
#    0.000    0.000    0.000    0.000    0.000    0.000 
#
# Total GULP energy -312614.271561 kJ/mol
# GULP energy per Si atom -5582.397706 kJ/mol
# Density = 2.268617 g / cm^3
# Si number density = 22.737925 Si / 1000 Ang^3
#
#
#
# Elastic Constant Matrix: (Units=GPa)
#
#
# Indices 1 2 3 4 5 6 
#
# 1 136.3113 76.7433 -3.6525 0.0000 0.0000 0.0000
# 2 76.7433 169.3573 7.9321 0.0000 0.0000 0.0000
# 3 -3.6525 7.9321 81.0698 0.0000 0.0000 0.0000
# 4 0.0000 0.0000 0.0000 -1.5563 0.0000 0.0000
# 5 0.0000 0.0000 0.0000 0.0000 -0.8848 0.0000
# 6 0.0000 0.0000 0.0000 0.0000 0.0000 7.8572
#
#
#
# Elastic Compliance Matrix: (Units=1/GPa)
#
#
# Indices 1 2 3 4 5 6 
#
# 1 0.009912 -0.004533 0.000890 0.000000 0.000000 0.000000
# 2 -0.004533 0.008005 -0.000987 0.000000 0.000000 0.000000
# 3 0.000890 -0.000987 0.012472 0.000000 0.000000 0.000000
# 4 0.000000 0.000000 0.000000 -0.642536 0.000000 0.000000
# 5 0.000000 0.000000 0.000000 0.000000 -1.130202 0.000000
# 6 0.000000 0.000000 0.000000 0.000000 0.000000 0.127272
#
#
# Mechanical properties :
#
#
# Convention : Reuss Voigt Hill
#
# Bulk Modulus (GPa) = 47.33104 60.97604 54.15354
# Shear Modulus (GPa) = -3.12740 21.46424 9.16842
#
# Velocity S-wave (km/s) = -1.17405 3.07577 2.01022
# Velocity P-wave (km/s) = 4.36156 6.28402 5.40889
#
# Compressibility (1/GPa) = 0.02112778
#
# Stress axis : x y z
#
# Youngs Moduli (GPa) = 100.88473 124.91860 80.18106
#
# Poissons Ratio (x) = 0.56631 -0.07137
# Poissons Ratio (y) = 0.45735 0.07918
# Poissons Ratio (z) = -0.08980 0.12336
#
# Static dielectric constant tensor:
#      x y z
#    x 1.800840 0.000000 0.000000 
#    y 0.000000 1.839660 0.000000 
#    z 0.000000 0.000000 0.931770 
# 
# From -- ./inp_files/7323.got.cif
#   From: 2010.05.17/outbox.cif.g08.bks.cpg/sg47_4_cif.got.tgz:7323.got - 2010.06.03 20:15:42.
