data_PCOD9381602
_publ_section_title
;
Structure prediction by ZEFSAII (Michael W. Deem and Ramdas Pophale) SiO2 
 PCOD9381602
Probable space group: P M M M
;
_chemical_formula_sum "Si O2"
_cell_formula_units_Z 48
_cell_length_a 19.470105
_cell_length_b 7.238875
_cell_length_c 14.628144
_cell_angle_alpha 90.000000
_cell_angle_beta 90.000000
_cell_angle_gamma 90.000000
_cell_volume 2061.714844
_symmetry_space_group_name_H-M "P M M M"
_symmetry_group_IT_number 47
_symmetry_cell_setting 'orthorhombic'
loop_
_space_group_symop_operation_xyz
x,y,z
-x,-y,z
x,-y,-z
-x,y,-z
-x,-y,-z
x,y,-z
-x,y,z
x,-y,z
loop_
_atom_site_type_symbol
_atom_site_label
_atom_site_fract_x
_atom_site_fract_y
_atom_site_fract_z
Si Si1 0.078634 0.275180 0.799023
Si Si2 0.579679 0.222545 0.899123
Si Si3 0.684624 0.704685 0.252968
Si Si4 0.917521 0.720955 0.401884
Si Si5 0.423422 0.724648 0.606809
Si Si6 0.211581 0.274804 0.101933
O O1 0.077028 0.500000 0.796515
O O2 0.104607 0.213857 0.698152
O O3 0.133208 0.224173 0.875597
O O4 0.000000 0.215380 0.813005
O O5 0.500000 0.270307 0.891700
O O6 0.623259 0.308779 0.820063
O O7 0.584992 0.000000 0.892696
O O8 0.604000 0.277386 0.000000
O O9 0.709531 0.500000 0.281446
O O10 0.643550 0.790445 0.338044
O O11 0.743245 0.789767 0.188453
O O12 0.890701 0.791094 0.500000
O O13 0.906740 0.500000 0.402755
O O14 0.000000 0.750563 0.402207
O O15 0.419356 0.772425 0.500000
O O16 0.500000 0.782714 0.640580
O O17 0.422543 0.500000 0.613221
O O18 0.217070 0.500000 0.102258
O O19 0.231869 0.213557 0.000000
#
# Coordination Sequence:
#
# PCOD9381602 Si02
#       6
#     8   8   8   8   8   8
#     4   8  13  21  32  45  64  95 132 164 201 251
#     4   9  18  31  45  63  88 115 142 174 210 246
#     4  10  18  28  44  64  86 113 143 174 213 259
#     4   7   9  14  25  40  57  79 112 155 196 233
#     4   8  14  25  41  61  84 109 138 172 208 248
#     4   9  17  26  34  49  75 103 133 173 213 245
#
# _framework density 23.281589
#
# number of rings (size 3 to 8) (size 9 to 14) (size 15 to 20)
#    0.000    3.500    0.000    3.500    0.000    2.333 
#    0.000    3.333    0.000    5.500    0.000    2.333 
#    0.000    0.667    0.000    3.500    0.000    3.333 
#
# Total GULP energy -267564.423937 kJ/mol
# GULP energy per Si atom -5574.258832 kJ/mol
# Density = 2.322860 g / cm^3
# Si number density = 23.281589 Si / 1000 Ang^3
#
#
#
# Elastic Constant Matrix: (Units=GPa)
#
#
# Indices 1 2 3 4 5 6 
#
# 1 103.9619 0.7220 63.0720 0.0000 0.0000 0.0000
# 2 0.7220 101.6598 0.3056 0.0000 0.0000 0.0000
# 3 63.0720 0.3056 99.3746 0.0000 0.0000 0.0000
# 4 0.0000 0.0000 0.0000 -11.3022 0.0000 0.0000
# 5 0.0000 0.0000 0.0000 0.0000 53.7818 0.0000
# 6 0.0000 0.0000 0.0000 0.0000 0.0000 26.6937
#
#
#
# Elastic Compliance Matrix: (Units=1/GPa)
#
#
# Indices 1 2 3 4 5 6 
#
# 1 0.015643 -0.000081 -0.009928 0.000000 0.000000 0.000000
# 2 -0.000081 0.009837 0.000021 0.000000 0.000000 0.000000
# 3 -0.009928 0.000021 0.016364 0.000000 0.000000 0.000000
# 4 0.000000 0.000000 0.000000 -0.088478 0.000000 0.000000
# 5 0.000000 0.000000 0.000000 0.000000 0.018594 0.000000
# 6 0.000000 0.000000 0.000000 0.000000 0.000000 0.037462
#
#
# Mechanical properties :
#
#
# Convention : Reuss Voigt Hill
#
# Bulk Modulus (GPa) = 45.72869 48.13284 46.93077
# Shear Modulus (GPa) = 136.28968 29.89443 83.09206
#
# Velocity S-wave (km/s) = 7.65942 3.58723 5.98059
# Velocity P-wave (km/s) = 9.89477 6.15441 8.23964
#
# Compressibility (1/GPa) = 0.02186811
#
# Stress axis : x y z
#
# Youngs Moduli (GPa) = 63.92812 101.65453 61.10975
#
# Poissons Ratio (x) = 0.00826 0.60669
# Poissons Ratio (y) = 0.00519 -0.00130
# Poissons Ratio (z) = 0.63467 -0.00217
#
# Static dielectric constant tensor:
#      x y z
#    x 1.857960 0.000000 0.000000 
#    y 0.000000 1.953140 0.000000 
#    z 0.000000 0.000000 1.887010 
# 
# From -- ./inp_files/18480.got.cif
#   From: 2010.05.17/outbox.cif.g08.bks.cpg/sg47_10_cif.got.tgz:18480.got - 2010.06.03 20:15:42.
