data_PCOD9381817
_publ_section_title
;
Structure prediction by ZEFSAII (Michael W. Deem and Ramdas Pophale) SiO2 
 PCOD9381817
Probable space group: P M M M
;
_chemical_formula_sum "Si O2"
_cell_formula_units_Z 52
_cell_length_a 14.846977
_cell_length_b 21.581546
_cell_length_c 7.376585
_cell_angle_alpha 90.000000
_cell_angle_beta 90.000000
_cell_angle_gamma 90.000000
_cell_volume 2363.610655
_symmetry_space_group_name_H-M "P M M M"
_symmetry_group_IT_number 47
_symmetry_cell_setting 'orthorhombic'
loop_
_space_group_symop_operation_xyz
x,y,z
-x,-y,z
x,-y,-z
-x,y,-z
-x,-y,-z
x,y,-z
-x,y,z
x,-y,z
loop_
_atom_site_type_symbol
_atom_site_label
_atom_site_fract_x
_atom_site_fract_y
_atom_site_fract_z
Si Si1 0.397937 0.628114 0.718805
Si Si2 0.896771 0.823883 0.778193
Si Si3 0.396300 0.000000 0.777564
Si Si4 0.215319 0.567637 0.211450
Si Si5 0.722861 0.113735 0.208231
Si Si6 0.895481 0.315879 0.220057
Si Si7 0.603918 0.231376 0.718753
O O1 0.398676 0.628204 0.500000
O O2 0.500000 0.614556 0.778455
O O3 0.321452 0.581320 0.778707
O O4 0.374020 0.698448 0.777392
O O5 0.821092 0.871482 0.713133
O O6 0.871639 0.753737 0.720230
O O7 0.000000 0.836091 0.724593
O O8 0.895354 0.824023 0.000000
O O9 0.341258 0.060480 0.715565
O O10 0.500000 0.000000 0.717751
O O11 0.399757 0.000000 0.000000
O O12 0.194604 0.500000 0.289992
O O13 0.165180 0.627850 0.288800
O O14 0.189536 0.565304 0.000000
O O15 0.668967 0.178413 0.211421
O O16 0.738392 0.095289 0.000000
O O17 0.000000 0.326520 0.265964
O O18 0.889331 0.314635 0.000000
O O19 0.607829 0.230155 0.500000
O O20 0.500000 0.219069 0.771051
#
# Coordination Sequence:
#
# PCOD9381817 Si02
#       7
#     8   8   4   8   8   8   8
#     4   9  19  35  51  66  88 121 157 191 234 288
#     4   8  14  25  43  68  93 116 150 196 237 271
#     4   9  18  30  42  64 100 133 161 193 226 267
#     4  10  20  31  45  69  96 120 153 195 230 266
#     4  10  18  29  48  70  94 128 162 189 225 274
#     4   8  14  26  44  66  93 121 147 183 234 284
#     4   9  18  32  49  70  94 117 148 196 244 279
#
# _framework density 22.000239000000001
#
# number of rings (size 3 to 8) (size 9 to 14) (size 15 to 20)
#    0.000    3.000    0.000    3.231    0.000    4.000 
#    0.000    5.385    0.000    4.615    0.000    5.385 
#    0.000    1.231    0.000    0.000    0.000    0.000 
#
# Total GULP energy -290297.666730 kJ/mol
# GULP energy per Si atom -5582.647437 kJ/mol
# Density = 2.195017 g / cm^3
# Si number density = 22.000239 Si / 1000 Ang^3
#
#
#
# Elastic Constant Matrix: (Units=GPa)
#
#
# Indices 1 2 3 4 5 6 
#
# 1 133.1995 97.0330 1.5871 0.0000 0.0000 0.0000
# 2 97.0330 101.7453 4.9349 0.0000 0.0000 0.0000
# 3 1.5871 4.9349 77.9705 0.0000 0.0000 0.0000
# 4 0.0000 0.0000 0.0000 4.0866 0.0000 0.0000
# 5 0.0000 0.0000 0.0000 0.0000 20.5723 0.0000
# 6 0.0000 0.0000 0.0000 0.0000 0.0000 16.9535
#
#
#
# Elastic Compliance Matrix: (Units=1/GPa)
#
#
# Indices 1 2 3 4 5 6 
#
# 1 0.024670 -0.023575 0.000990 0.000000 0.000000 0.000000
# 2 -0.023575 0.032388 -0.001570 0.000000 0.000000 0.000000
# 3 0.000990 -0.001570 0.012905 0.000000 0.000000 0.000000
# 4 0.000000 0.000000 0.000000 0.244700 0.000000 0.000000
# 5 0.000000 0.000000 0.000000 0.000000 0.048609 0.000000
# 6 0.000000 0.000000 0.000000 0.000000 0.000000 0.058985
#
#
# Mechanical properties :
#
#
# Convention : Reuss Voigt Hill
#
# Bulk Modulus (GPa) = 46.18563 57.78059 51.98311
# Shear Modulus (GPa) = 10.46497 22.27984 16.37241
#
# Velocity S-wave (km/s) = 2.18336 3.18576 2.73095
# Velocity P-wave (km/s) = 5.23402 6.31290 5.79861
#
# Compressibility (1/GPa) = 0.02165176
#
# Stress axis : x y z
#
# Youngs Moduli (GPa) = 40.53541 30.87569 77.49190
#
# Poissons Ratio (x) = 0.72790 -0.07671
# Poissons Ratio (y) = 0.95563 0.12166
# Poissons Ratio (z) = -0.04013 0.04848
#
# Static dielectric constant tensor:
#      x y z
#    x 1.786710 0.000000 0.000000 
#    y 0.000000 1.784520 0.000000 
#    z 0.000000 0.000000 1.845860 
# 
# From -- ./inp_files/6981.got.cif
#   From: 2010.05.17/outbox.cif.g08.bks.cpg/sg47_4_cif.got.tgz:6981.got - 2010.06.03 20:15:42.
