data_PCOD9381943
_publ_section_title
;
Structure prediction by ZEFSAII (Michael W. Deem and Ramdas Pophale) SiO2 
 PCOD9381943
Probable space group: P M M M
;
_chemical_formula_sum "Si O2"
_cell_formula_units_Z 60
_cell_length_a 15.009414
_cell_length_b 14.611463
_cell_length_c 15.334885
_cell_angle_alpha 90.000000
_cell_angle_beta 90.000000
_cell_angle_gamma 90.000000
_cell_volume 3363.085921
_symmetry_space_group_name_H-M "P M M M"
_symmetry_group_IT_number 47
_symmetry_cell_setting 'orthorhombic'
loop_
_space_group_symop_operation_xyz
x,y,z
-x,-y,z
x,-y,-z
-x,y,-z
-x,-y,-z
x,y,-z
-x,y,z
x,-y,z
loop_
_atom_site_type_symbol
_atom_site_label
_atom_site_fract_x
_atom_site_fract_y
_atom_site_fract_z
Si Si1 0.399055 0.611127 0.600093
Si Si2 0.895409 0.294540 0.405353
Si Si3 0.102592 0.888453 0.000000
Si Si4 0.400825 0.206710 0.102924
Si Si5 0.315383 0.395100 0.901113
Si Si6 0.226033 0.891653 0.838802
Si Si7 0.897127 0.896688 0.671091
Si Si8 0.235724 0.391261 0.279599
O O1 0.377787 0.638445 0.500000
O O2 0.500000 0.641442 0.620314
O O3 0.399937 0.500000 0.600907
O O4 0.325962 0.639842 0.670470
O O5 0.861026 0.325744 0.500000
O O6 0.886393 0.185180 0.396477
O O7 0.844116 0.340208 0.326230
O O8 0.000000 0.315952 0.400760
O O9 0.159211 0.860386 0.084461
O O10 0.000000 0.856866 0.000000
O O11 0.099405 0.000000 0.000000
O O12 0.500000 0.180232 0.131714
O O13 0.388952 0.316502 0.107631
O O14 0.319118 0.160987 0.153644
O O15 0.391410 0.182013 0.000000
O O16 0.347833 0.500000 0.889211
O O17 0.246075 0.376779 0.823514
O O18 0.279474 0.388114 0.000000
O O19 0.172731 0.881725 0.748820
O O20 0.243122 0.000000 0.851778
O O21 0.000000 0.891210 0.704444
O O22 0.885534 0.000000 0.636810
O O23 0.226381 0.500000 0.293914
#
# Coordination Sequence:
#
# PCOD9381943 Si02
#       8
#     8   8   4   8   8   8   8   8
#     4   8  14  25  42  66  95 125 159 200 246 296
#     4  10  21  35  52  77 107 136 167 203 244 301
#     4   9  16  26  43  69  98 127 163 209 259 304
#     4  10  20  32  46  67  99 139 178 213 252 303
#     4   9  19  35  53  72  94 129 176 224 265 299
#     4  10  18  30  48  72 102 134 168 210 256 305
#     4   9  18  33  53  74  97 128 166 211 261 303
#     4  10  19  32  52  75 102 136 167 204 256 309
#
# _framework density 17.840758000000001
#
# number of rings (size 3 to 8) (size 9 to 14) (size 15 to 20)
#    0.000    2.600    0.667    2.000    0.000    4.000 
#    0.000    5.333    0.000    0.400    0.000    1.867 
#    0.000    0.000    0.000    9.733    0.000    0.400 
#
# Total GULP energy -334352.624509 kJ/mol
# GULP energy per Si atom -5572.543742 kJ/mol
# Density = 1.780015 g / cm^3
# Si number density = 17.840758 Si / 1000 Ang^3
#
#
#
# Elastic Constant Matrix: (Units=GPa)
#
#
# Indices 1 2 3 4 5 6 
#
# 1 98.2332 33.6880 40.7068 0.0000 0.0000 0.0000
# 2 33.6880 39.4034 26.3525 0.0000 0.0000 0.0000
# 3 40.7068 26.3525 69.1505 0.0000 0.0000 0.0000
# 4 0.0000 0.0000 0.0000 8.3284 0.0000 0.0000
# 5 0.0000 0.0000 0.0000 0.0000 15.7191 0.0000
# 6 0.0000 0.0000 0.0000 0.0000 0.0000 14.6733
#
#
#
# Elastic Compliance Matrix: (Units=1/GPa)
#
#
# Indices 1 2 3 4 5 6 
#
# 1 0.015868 -0.009823 -0.005598 0.000000 0.000000 0.000000
# 2 -0.009823 0.040140 -0.009514 0.000000 0.000000 0.000000
# 3 -0.005598 -0.009514 0.021382 0.000000 0.000000 0.000000
# 4 0.000000 0.000000 0.000000 0.120071 0.000000 0.000000
# 5 0.000000 0.000000 0.000000 0.000000 0.063617 0.000000
# 6 0.000000 0.000000 0.000000 0.000000 0.000000 0.068151
#
#
# Mechanical properties :
#
#
# Convention : Reuss Voigt Hill
#
# Bulk Modulus (GPa) = 36.33693 45.36463 40.85078
# Shear Modulus (GPa) = 12.87758 14.81350 13.84554
#
# Velocity S-wave (km/s) = 2.68956 2.88465 2.78881
# Velocity P-wave (km/s) = 5.48239 6.04795 5.77210
#
# Compressibility (1/GPa) = 0.02752021
#
# Stress axis : x y z
#
# Youngs Moduli (GPa) = 63.01950 24.91298 46.76783
#
# Poissons Ratio (x) = 0.24472 0.26179
# Poissons Ratio (y) = 0.61903 0.44497
# Poissons Ratio (z) = 0.35276 0.23703
#
# Static dielectric constant tensor:
#      x y z
#    x 1.592950 0.000000 0.000000 
#    y 0.000000 1.628620 0.000000 
#    z 0.000000 0.000000 1.622650 
# 
# From -- ./inp_files/23930.got.cif
#   From: 2010.05.17/outbox.cif.g08.bks.cpg/sg47_12_cif.got.tgz:23930.got - 2010.06.03 20:15:42.
