data_PCOD9381879
_publ_section_title
;
Structure prediction by ZEFSAII (Michael W. Deem and Ramdas Pophale) SiO2 
 PCOD9381879
Probable space group: P M M M
;
_chemical_formula_sum "Si O2"
_cell_formula_units_Z 48
_cell_length_a 15.922746
_cell_length_b 8.048319
_cell_length_c 18.393192
_cell_angle_alpha 90.000000
_cell_angle_beta 90.000000
_cell_angle_gamma 90.000000
_cell_volume 2357.112186
_symmetry_space_group_name_H-M "P M M M"
_symmetry_group_IT_number 47
_symmetry_cell_setting 'orthorhombic'
loop_
_space_group_symop_operation_xyz
x,y,z
-x,-y,z
x,-y,-z
-x,y,-z
-x,-y,-z
x,y,-z
-x,y,z
x,-y,z
loop_
_atom_site_type_symbol
_atom_site_label
_atom_site_fract_x
_atom_site_fract_y
_atom_site_fract_z
Si Si1 0.906475 0.297418 0.163761
Si Si2 0.717389 0.175075 0.000000
Si Si3 0.219633 0.298806 0.710025
Si Si4 0.594172 0.691546 0.890644
Si Si5 0.592865 0.801610 0.273861
Si Si6 0.095866 0.702651 0.417566
Si Si7 0.115874 0.312563 0.000000
O O1 0.901286 0.500000 0.161203
O O2 0.828797 0.243304 0.215376
O O3 0.904506 0.238383 0.079530
O O4 0.000000 0.256897 0.193685
O O5 0.659344 0.193183 0.069587
O O6 0.784254 0.317775 0.000000
O O7 0.763226 0.000000 0.000000
O O8 0.220620 0.500000 0.712811
O O9 0.315479 0.243828 0.695400
O O10 0.160503 0.242890 0.643705
O O11 0.500000 0.729241 0.915467
O O12 0.612573 0.500000 0.908108
O O13 0.595584 0.716603 0.804958
O O14 0.500000 0.755818 0.306573
O O15 0.591596 0.000000 0.265156
O O16 0.117401 0.753697 0.500000
O O17 0.096101 0.500000 0.416526
O O18 0.000000 0.754447 0.402271
O O19 0.083519 0.500000 0.000000
#
# Coordination Sequence:
#
# PCOD9381879 Si02
#       7
#     8   4   8   8   8   8   4
#     4   9  17  29  47  72  98 125 163 209 253 300
#     4  12  23  32  45  66  95 128 163 207 261 319
#     4  10  18  29  51  79 103 131 170 213 254 302
#     4  10  20  34  51  69  90 119 161 214 265 311
#     4  10  21  36  52  71  99 134 169 207 254 307
#     4   8  14  26  47  78 113 142 169 208 258 307
#     4  10  19  31  47  64  89 129 172 211 249 292
#
# _framework density 20.363900999999998
#
# number of rings (size 3 to 8) (size 9 to 14) (size 15 to 20)
#    0.000    2.333    0.000    4.250    0.000    7.333 
#    0.000    0.000    0.000    5.000    0.000    4.667 
#    0.000    0.000    0.000    0.000    0.000    0.000 
#
# Total GULP energy -267475.016645 kJ/mol
# GULP energy per Si atom -5572.396180 kJ/mol
# Density = 2.031755 g / cm^3
# Si number density = 20.363901 Si / 1000 Ang^3
#
#
#
# Elastic Constant Matrix: (Units=GPa)
#
#
# Indices 1 2 3 4 5 6 
#
# 1 161.5046 30.5573 71.5090 0.0000 0.0000 0.0000
# 2 30.5573 23.2261 3.6431 0.0000 0.0000 0.0000
# 3 71.5090 3.6431 94.4181 0.0000 0.0000 0.0000
# 4 0.0000 0.0000 0.0000 6.2894 0.0000 0.0000
# 5 0.0000 0.0000 0.0000 0.0000 23.3924 0.0000
# 6 0.0000 0.0000 0.0000 0.0000 0.0000 -4.3381
#
#
#
# Elastic Compliance Matrix: (Units=1/GPa)
#
#
# Indices 1 2 3 4 5 6 
#
# 1 0.013537 -0.016300 -0.009623 0.000000 0.000000 0.000000
# 2 -0.016300 0.062945 0.009916 0.000000 0.000000 0.000000
# 3 -0.009623 0.009916 0.017497 0.000000 0.000000 0.000000
# 4 0.000000 0.000000 0.000000 0.158997 0.000000 0.000000
# 5 0.000000 0.000000 0.000000 0.000000 0.042749 0.000000
# 6 0.000000 0.000000 0.000000 0.000000 0.000000 -0.230516
#
#
# Mechanical properties :
#
#
# Convention : Reuss Voigt Hill
#
# Bulk Modulus (GPa) = 16.13829 54.50751 35.32290
# Shear Modulus (GPa) = 42.41727 16.63137 29.52432
#
# Velocity S-wave (km/s) = 4.56890 2.86091 3.81180
# Velocity P-wave (km/s) = 5.98125 6.14312 6.06272
#
# Compressibility (1/GPa) = 0.06196443
#
# Stress axis : x y z
#
# Youngs Moduli (GPa) = 73.87324 15.88696 57.15288
#
# Poissons Ratio (x) = 0.25896 0.55000
# Poissons Ratio (y) = 1.20414 -0.56675
# Poissons Ratio (z) = 0.71090 -0.15754
#
# Static dielectric constant tensor:
#      x y z
#    x 1.754500 0.000000 0.000000 
#    y 0.000000 1.733870 0.000000 
#    z 0.000000 0.000000 1.697380 
# 
# From -- ./inp_files/28050.got.cif
#   From: 2010.05.17/outbox.cif.g08.bks.cpg/sg47_15_cif.got.tgz:28050.got - 2010.06.03 20:15:42.
