data_PCOD9381751
_publ_section_title
;
Structure prediction by ZEFSAII (Michael W. Deem and Ramdas Pophale) SiO2 
 PCOD9381751
Probable space group: P M M M
;
_chemical_formula_sum "Si O2"
_cell_formula_units_Z 44
_cell_length_a 13.949901
_cell_length_b 10.272826
_cell_length_c 18.151208
_cell_angle_alpha 90.000000
_cell_angle_beta 90.000000
_cell_angle_gamma 90.000000
_cell_volume 2601.157151
_symmetry_space_group_name_H-M "P M M M"
_symmetry_group_IT_number 47
_symmetry_cell_setting 'orthorhombic'
loop_
_space_group_symop_operation_xyz
x,y,z
-x,-y,z
x,-y,-z
-x,y,-z
-x,-y,-z
x,y,-z
-x,y,z
x,-y,z
loop_
_atom_site_type_symbol
_atom_site_label
_atom_site_fract_x
_atom_site_fract_y
_atom_site_fract_z
Si Si1 0.110149 0.658341 0.416641
Si Si2 0.115621 0.648530 0.872298
Si Si3 0.116525 0.152887 0.000000
Si Si4 0.616251 0.000000 0.084794
Si Si5 0.232601 0.345489 0.722255
Si Si6 0.616332 0.500000 0.083103
Si Si7 0.614931 0.249698 0.179262
O O1 0.136245 0.697815 0.500000
O O2 0.110104 0.500000 0.415231
O O3 0.181081 0.700230 0.352092
O O4 0.000000 0.698565 0.402428
O O5 0.140114 0.500000 0.897087
O O6 0.160532 0.667491 0.791651
O O7 0.000000 0.653461 0.867246
O O8 0.146330 0.761051 0.929138
O O9 0.000000 0.153342 0.000000
O O10 0.144204 0.000000 0.000000
O O11 0.643646 0.874677 0.131669
O O12 0.500000 0.000000 0.081683
O O13 0.648058 0.000000 0.000000
O O14 0.255020 0.500000 0.715139
O O15 0.327053 0.267306 0.745691
O O16 0.500000 0.500000 0.078723
O O17 0.642260 0.373688 0.129325
O O18 0.652884 0.500000 0.000000
O O19 0.500000 0.248862 0.189924
#
# Coordination Sequence:
#
# PCOD9381751 Si02
#       7
#     8   8   4   4   8   4   8
#     4   8  14  26  47  75 104 129 153 189 238 288
#     4   9  17  30  46  63  87 121 157 194 231 273
#     4   9  17  31  47  61  86 123 160 196 234 272
#     4   9  18  34  52  66  88 125 170 216 254 285
#     4  10  18  29  45  71  97 123 156 194 238 287
#     4   9  16  28  46  64  86 119 160 204 246 281
#     4  10  19  32  47  67  94 127 162 200 247 290
#
# _framework density 16.91555
#
# number of rings (size 3 to 8) (size 9 to 14) (size 15 to 20)
#    0.000    2.818    0.909    1.909    0.000    5.455 
#    4.909    0.000    0.000    0.545    0.000    3.182 
#    0.000    3.636    0.000    0.000    0.000    0.000 
#
# Total GULP energy -245362.812037 kJ/mol
# GULP energy per Si atom -5576.427546 kJ/mol
# Density = 1.687705 g / cm^3
# Si number density = 16.915550 Si / 1000 Ang^3
#
#
#
# Elastic Constant Matrix: (Units=GPa)
#
#
# Indices 1 2 3 4 5 6 
#
# 1 77.5986 31.5213 61.0722 0.0000 0.0000 0.0000
# 2 31.5213 97.0119 49.4891 0.0000 0.0000 0.0000
# 3 61.0722 49.4891 134.2621 0.0000 0.0000 0.0000
# 4 0.0000 0.0000 0.0000 13.9318 0.0000 0.0000
# 5 0.0000 0.0000 0.0000 0.0000 26.4660 0.0000
# 6 0.0000 0.0000 0.0000 0.0000 0.0000 7.8376
#
#
#
# Elastic Compliance Matrix: (Units=1/GPa)
#
#
# Indices 1 2 3 4 5 6 
#
# 1 0.020497 -0.002345 -0.008459 0.000000 0.000000 0.000000
# 2 -0.002345 0.012963 -0.003712 0.000000 0.000000 0.000000
# 3 -0.008459 -0.003712 0.012664 0.000000 0.000000 0.000000
# 4 0.000000 0.000000 0.000000 0.071778 0.000000 0.000000
# 5 0.000000 0.000000 0.000000 0.000000 0.037784 0.000000
# 6 0.000000 0.000000 0.000000 0.000000 0.000000 0.127590
#
#
# Mechanical properties :
#
#
# Convention : Reuss Voigt Hill
#
# Bulk Modulus (GPa) = 58.50300 65.89310 62.19805
# Shear Modulus (GPa) = 15.72296 20.76640 18.24468
#
# Velocity S-wave (km/s) = 3.05207 3.50759 3.28773
# Velocity P-wave (km/s) = 6.86153 7.44600 7.15973
#
# Compressibility (1/GPa) = 0.01709314
#
# Stress axis : x y z
#
# Youngs Moduli (GPa) = 48.78786 77.14066 78.96272
#
# Poissons Ratio (x) = 0.18086 0.66797
# Poissons Ratio (y) = 0.11438 0.29310
# Poissons Ratio (z) = 0.41271 0.28633
#
# Static dielectric constant tensor:
#      x y z
#    x 1.616040 0.000000 0.000000 
#    y 0.000000 1.510740 0.000000 
#    z 0.000000 0.000000 1.554660 
# 
# From -- ./inp_files/24363.got.cif
#   From: 2010.05.17/outbox.cif.g08.bks.cpg/sg47_13_cif.got.tgz:24363.got - 2010.06.03 20:15:42.
