data_PCOD9381849
_publ_section_title
;
Structure prediction by ZEFSAII (Michael W. Deem and Ramdas Pophale) SiO2 
 PCOD9381849
Probable space group: P M M M
;
_chemical_formula_sum "Si O2"
_cell_formula_units_Z 52
_cell_length_a 7.418164
_cell_length_b 14.551519
_cell_length_c 22.462883
_cell_angle_alpha 90.000000
_cell_angle_beta 90.000000
_cell_angle_gamma 90.000000
_cell_volume 2424.768359
_symmetry_space_group_name_H-M "P M M M"
_symmetry_group_IT_number 47
_symmetry_cell_setting 'orthorhombic'
loop_
_space_group_symop_operation_xyz
x,y,z
-x,-y,z
x,-y,-z
-x,y,-z
-x,-y,-z
x,y,-z
-x,y,z
x,-y,z
loop_
_atom_site_type_symbol
_atom_site_label
_atom_site_fract_x
_atom_site_fract_y
_atom_site_fract_z
Si Si1 0.289904 0.709561 0.121583
Si Si2 0.216466 0.605477 0.000000
Si Si3 0.219257 0.598341 0.567625
Si Si4 0.780378 0.106726 0.433335
Si Si5 0.280049 0.103612 0.930812
Si Si6 0.714246 0.395220 0.764103
Si Si7 0.216607 0.747803 0.658728
O O1 0.500000 0.723038 0.136979
O O2 0.215255 0.812084 0.109741
O O3 0.212885 0.644768 0.173301
O O4 0.279223 0.657416 0.058935
O O5 0.277723 0.500000 0.000000
O O6 0.000000 0.606577 0.000000
O O7 0.278274 0.604623 0.500000
O O8 0.273828 0.500000 0.592779
O O9 0.281797 0.679323 0.607493
O O10 0.000000 0.600937 0.567095
O O11 0.725344 0.142956 0.500000
O O12 0.721800 0.156716 0.371950
O O13 0.000000 0.112474 0.434103
O O14 0.730187 0.000000 0.431474
O O15 0.500000 0.105237 0.930373
O O16 0.225352 0.000000 0.913532
O O17 0.226960 0.118497 0.000000
O O18 0.500000 0.406268 0.769401
O O19 0.783378 0.500000 0.749918
O O20 0.739010 0.310649 0.717760
O O21 0.000000 0.753679 0.660666
#
# Coordination Sequence:
#
# PCOD9381849 Si02
#       7
#     8   4   8   8   8   8   8
#     4  10  19  35  57  76  96 132 176 208 241 299
#     4  11  23  35  50  77 108 130 155 207 272 315
#     4   8  13  21  36  62  91 113 143 194 243 278
#     4   8  14  26  47  77 108 133 163 210 264 311
#     4   8  13  24  48  81 105 118 145 195 244 281
#     4  10  22  37  50  68  99 137 174 212 252 296
#     4  10  18  29  49  73  95 127 169 207 247 299
#
# _framework density 21.445347999999999
#
# number of rings (size 3 to 8) (size 9 to 14) (size 15 to 20)
#    0.000    2.846    0.769    3.000    0.000    4.615 
#    0.000    0.769    0.000    4.154    0.000    6.462 
#    0.000    0.000    0.000    0.000    0.000    0.000 
#
# Total GULP energy -289542.853817 kJ/mol
# GULP energy per Si atom -5568.131804 kJ/mol
# Density = 2.139654 g / cm^3
# Si number density = 21.445348 Si / 1000 Ang^3
#
#
#
# Elastic Constant Matrix: (Units=GPa)
#
#
# Indices 1 2 3 4 5 6 
#
# 1 70.5574 5.1817 -3.0736 0.0000 0.0000 0.0000
# 2 5.1817 142.1199 72.5193 0.0000 0.0000 0.0000
# 3 -3.0736 72.5193 117.1915 0.0000 0.0000 0.0000
# 4 0.0000 0.0000 0.0000 26.7562 0.0000 0.0000
# 5 0.0000 0.0000 0.0000 0.0000 5.5257 0.0000
# 6 0.0000 0.0000 0.0000 0.0000 0.0000 -0.0676
#
#
#
# Elastic Compliance Matrix: (Units=1/GPa)
#
#
# Indices 1 2 3 4 5 6 
#
# 1 0.014294 -0.001041 0.001019 0.000000 0.000000 0.000000
# 2 -0.001041 0.010359 -0.006438 0.000000 0.000000 0.000000
# 3 0.001019 -0.006438 0.012543 0.000000 0.000000 0.000000
# 4 0.000000 0.000000 0.000000 0.037375 0.000000 0.000000
# 5 0.000000 0.000000 0.000000 0.000000 0.180971 0.000000
# 6 0.000000 0.000000 0.000000 0.000000 0.000000-14.798758
#
#
# Mechanical properties :
#
#
# Convention : Reuss Voigt Hill
#
# Bulk Modulus (GPa) = 41.19126 53.23596 47.21361
# Shear Modulus (GPa) = -0.34430 23.45897 11.55734
#
# Velocity S-wave (km/s) = -0.40112 3.31100 2.32398
# Velocity P-wave (km/s) = 4.36288 6.28449 5.40969
#
# Compressibility (1/GPa) = 0.02427699
#
# Stress axis : x y z
#
# Youngs Moduli (GPa) = 69.96084 96.53227 79.72266
#
# Poissons Ratio (x) = 0.10051 -0.08125
# Poissons Ratio (y) = 0.07284 0.51323
# Poissons Ratio (z) = -0.07130 0.62145
#
# Static dielectric constant tensor:
#      x y z
#    x 1.840680 0.000000 0.000000 
#    y 0.000000 1.818800 0.000000 
#    z 0.000000 0.000000 1.779880 
# 
# From -- ./inp_files/29562.got.cif
#   From: 2010.05.17/outbox.cif.g08.bks.cpg/sg47_15_cif.got.tgz:29562.got - 2010.06.03 20:15:42.
