data_PCOD9381139
_publ_section_title
;
Structure prediction by ZEFSAII (Michael W. Deem and Ramdas Pophale) SiO2 
 PCOD9381139
Probable space group: I M A 2
;
_chemical_formula_sum "Si O2"
_cell_formula_units_Z 28
_cell_length_a 15.000000
_cell_length_b 12.000000
_cell_length_c 15.000000
_cell_angle_alpha 90.000000
_cell_angle_beta 90.000000
_cell_angle_gamma 90.000000
_cell_volume 2700.000000
_symmetry_space_group_name_H-M "I M A 2"
_symmetry_group_IT_number 46
_symmetry_cell_setting 'orthorhombic'
loop_
_space_group_symop_operation_xyz
x,y,z
-x,-y,z
1/2-x,y,z
1/2+x,-y,z
1/2+x,1/2+y,1/2+z
1/2-x,1/2-y,1/2+z
-x,1/2+y,1/2+z
x,1/2-y,1/2+z
loop_
_atom_site_type_symbol
_atom_site_label
_atom_site_fract_x
_atom_site_fract_y
_atom_site_fract_z
Si Si1 0.099807 0.985901 0.772990
Si Si2 0.098022 0.958194 0.411581
Si Si3 0.553796 0.853172 0.937103
Si Si4 0.150007 0.438002 0.087094
Si Si5 0.150307 0.171368 0.320496
Si Si6 0.145051 0.798158 0.896510
Si Si7 0.358219 0.189522 0.113544
O O1 0.091370 0.059380 0.863204
O O2 0.155169 0.026569 0.689583
O O3 0.131852 0.865062 0.803933
O O4 0.000000 0.000000 0.735986
O O5 0.127153 0.833413 0.390110
O O6 0.105189 0.978354 0.518123
O O7 0.155867 0.047590 0.358282
O O8 0.000000 0.000000 0.385004
O O9 0.588606 0.740037 0.888930
O O10 0.445902 0.843219 0.946506
O O11 0.597462 0.878212 0.032788
O O12 0.250000 0.425380 0.051605
O O13 0.110268 0.314690 0.089456
O O14 0.250000 0.222931 0.320710
O O15 0.118624 0.169935 0.217400
O O16 0.250000 0.816191 0.925575
O O17 0.250000 0.181863 0.107665
#
# Coordination Sequence:
#
# PCOD9381139 Si02
#       7
#     8   8   8   8   8   8   8
#     4  10  23  40  64  92 124 168 212 263 318 385
#     4  12  23  41  64  91 129 176 214 267 320 385
#     4  11  21  41  67  94 129 167 211 264 323 377
#     4  11  20  34  60  96 126 160 215 266 315 380
#     4  11  21  37  64  96 128 162 208 267 323 377
#     4  11  24  43  63  90 131 175 217 259 320 386
#     4  10  21  35  62 102 131 159 211 272 326 382
#
# _framework density 10.370369999999999
#
# number of rings (size 3 to 8) (size 9 to 14) (size 15 to 20)
#    0.000    1.143    4.286    2.571    0.000    1.714 
#    0.000    3.571    0.000    1.714    0.000    0.000 
#    0.000    0.000    0.000    0.000    0.000    0.000 
#
# Total GULP energy -155932.882929 kJ/mol
# GULP energy per Si atom -5569.031533 kJ/mol
# Density = 1.034677 g / cm^3
# Si number density = 10.370370 Si / 1000 Ang^3
#
#
#
# Elastic Constant Matrix: (Units=GPa)
#
#
# Indices 1 2 3 4 5 6 
#
# 1 109.0676 5.9235 41.9050 0.0000 0.0000 0.0000
# 2 5.9235 109.2475 35.5194 0.0000 0.0000 0.0000
# 3 41.9050 35.5194 121.9806 0.0000 0.0000 0.0000
# 4 0.0000 0.0000 0.0000 21.3616 0.0000 0.0000
# 5 0.0000 0.0000 0.0000 0.0000 24.9824 0.0000
# 6 0.0000 0.0000 0.0000 0.0000 0.0000 -9.4132
#
#
#
# Elastic Compliance Matrix: (Units=1/GPa)
#
#
# Indices 1 2 3 4 5 6 
#
# 1 0.010607 0.000673 -0.003840 0.000000 0.000000 0.000000
# 2 0.000673 0.010153 -0.003188 0.000000 0.000000 0.000000
# 3 -0.003840 -0.003188 0.010446 0.000000 0.000000 0.000000
# 4 0.000000 0.000000 0.000000 0.046813 0.000000 0.000000
# 5 0.000000 0.000000 0.000000 0.000000 0.040028 0.000000
# 6 0.000000 0.000000 0.000000 0.000000 0.000000 -0.106234
#
#
# Mechanical properties :
#
#
# Convention : Reuss Voigt Hill
#
# Bulk Modulus (GPa) = 54.06236 56.33239 55.19737
# Shear Modulus (GPa) = 162.92507 24.51602 93.72054
#
# Velocity S-wave (km/s) = 8.87264 3.44178 6.72940
# Velocity P-wave (km/s) = 11.44934 6.55849 9.33009
#
# Compressibility (1/GPa) = 0.01849716
#
# Stress axis : x y z
#
# Youngs Moduli (GPa) = 94.27304 98.48828 95.73454
#
# Poissons Ratio (x) = -0.06632 0.36764
# Poissons Ratio (y) = -0.06348 0.30519
# Poissons Ratio (z) = 0.36202 0.31397
#
# Static dielectric constant tensor:
#      x y z
#    x 1.935230 0.000000 0.000000 
#    y 0.000000 1.808000 0.000000 
#    z 0.000000 0.000000 1.712220 
# 
# From -- ./inp_files/15981.got.cif
#   From: 2010.05.17/outbox.ucp.g08.bks.cvg/sg46_8_cif.got.tgz:15981.got - 2010.06.11 16:34:52.
