data_PCOD9381205
_publ_section_title
;
Structure prediction by ZEFSAII (Michael W. Deem and Ramdas Pophale) SiO2 
 PCOD9381205
Probable space group: P M M M
;
_chemical_formula_sum "Si O2"
_cell_formula_units_Z 40
_cell_length_a 23.396355
_cell_length_b 14.994152
_cell_length_c 7.606085
_cell_angle_alpha 90.000000
_cell_angle_beta 90.000000
_cell_angle_gamma 90.000000
_cell_volume 2668.279293
_symmetry_space_group_name_H-M "P M M M"
_symmetry_group_IT_number 47
_symmetry_cell_setting 'orthorhombic'
loop_
_space_group_symop_operation_xyz
x,y,z
-x,-y,z
x,-y,-z
-x,y,-z
-x,-y,-z
x,y,-z
-x,y,z
x,-y,z
loop_
_atom_site_type_symbol
_atom_site_label
_atom_site_fract_x
_atom_site_fract_y
_atom_site_fract_z
Si Si1 0.347560 0.391529 0.701413
Si Si2 0.434427 0.391212 0.000000
Si Si3 0.000000 0.602683 0.784682
Si Si4 0.933156 0.901066 0.785798
Si Si5 0.778807 0.398870 0.289191
Si Si6 0.110008 0.714402 0.210742
O O1 0.355112 0.361388 0.500000
O O2 0.347362 0.500000 0.698505
O O3 0.284119 0.367881 0.770343
O O4 0.398165 0.363052 0.829595
O O5 0.435156 0.500000 0.000000
O O6 0.500000 0.361333 0.000000
O O7 0.056844 0.654358 0.725788
O O8 0.000000 0.500000 0.728505
O O9 0.000000 0.602911 0.000000
O O10 0.897656 0.815657 0.724032
O O11 0.000000 0.887908 0.739510
O O12 0.915527 0.000000 0.725770
O O13 0.931153 0.902325 0.000000
O O14 0.774015 0.404775 0.500000
O O15 0.790278 0.500000 0.223234
O O16 0.830431 0.333290 0.248858
O O17 0.104382 0.718113 0.000000
#
# Coordination Sequence:
#
# PCOD9381205 Si02
#       6
#     8   4   4   8   8   8
#     4   8  15  27  39  52  76 107 137 170 204 238
#     4   9  16  24  38  60  80 101 136 175 206 237
#     4   9  16  24  32  50  78  95 115 163 212 241
#     4   8  13  23  39  57  76  95 119 159 207 251
#     4   9  18  30  40  52  74 105 136 164 198 242
#     4  10  17  25  40  59  73  94 130 166 204 246
#
# _framework density 14.990933999999999
#
# number of rings (size 3 to 8) (size 9 to 14) (size 15 to 20)
#    0.000    3.200    1.000    2.400    1.400    1.600 
#    0.000    2.500    0.000    2.400    0.000    1.400 
#    0.000    0.000    0.000    0.000    0.000    2.000 
#
# Total GULP energy -222788.734048 kJ/mol
# GULP energy per Si atom -5569.718351 kJ/mol
# Density = 1.495681 g / cm^3
# Si number density = 14.990934 Si / 1000 Ang^3
#
#
#
# Elastic Constant Matrix: (Units=GPa)
#
#
# Indices 1 2 3 4 5 6 
#
# 1 140.5001 62.3649 32.9942 0.0000 0.0000 0.0000
# 2 62.3649 90.6694 17.1877 0.0000 0.0000 0.0000
# 3 32.9942 17.1877 43.9358 0.0000 0.0000 0.0000
# 4 0.0000 0.0000 0.0000 1.2372 0.0000 0.0000
# 5 0.0000 0.0000 0.0000 0.0000 33.9992 0.0000
# 6 0.0000 0.0000 0.0000 0.0000 0.0000 2.6387
#
#
#
# Elastic Compliance Matrix: (Units=1/GPa)
#
#
# Indices 1 2 3 4 5 6 
#
# 1 0.011549 -0.006805 -0.006011 0.000000 0.000000 0.000000
# 2 -0.006805 0.015921 -0.001119 0.000000 0.000000 0.000000
# 3 -0.006011 -0.001119 0.027712 0.000000 0.000000 0.000000
# 4 0.000000 0.000000 0.000000 0.808304 0.000000 0.000000
# 5 0.000000 0.000000 0.000000 0.000000 0.029412 0.000000
# 6 0.000000 0.000000 0.000000 0.000000 0.000000 0.378979
#
#
# Mechanical properties :
#
#
# Convention : Reuss Voigt Hill
#
# Bulk Modulus (GPa) = 36.61058 55.57767 46.09412
# Shear Modulus (GPa) = 3.82014 18.41224 11.11619
#
# Velocity S-wave (km/s) = 1.59807 3.50841 2.72605
# Velocity P-wave (km/s) = 5.28015 7.31892 6.38148
#
# Compressibility (1/GPa) = 0.02731451
#
# Stress axis : x y z
#
# Youngs Moduli (GPa) = 86.58416 62.80835 36.08508
#
# Poissons Ratio (x) = 0.42738 0.21692
# Poissons Ratio (y) = 0.58916 0.04036
# Poissons Ratio (z) = 0.52048 0.07025
#
# Static dielectric constant tensor:
#      x y z
#    x 1.494340 0.000000 0.000000 
#    y 0.000000 1.489800 0.000000 
#    z 0.000000 0.000000 1.559690 
# 
# From -- ./inp_files/6662.got.cif
#   From: 2010.05.17/outbox.cif.g08.bks.cpg/sg47_4_cif.got.tgz:6662.got - 2010.06.03 20:15:42.
