data_PCOD9381573
_publ_section_title
;
Structure prediction by ZEFSAII (Michael W. Deem and Ramdas Pophale) SiO2 
 PCOD9381573
Probable space group: P M M M
;
_chemical_formula_sum "Si O2"
_cell_formula_units_Z 52
_cell_length_a 7.365203
_cell_length_b 29.198481
_cell_length_c 12.368278
_cell_angle_alpha 90.000000
_cell_angle_beta 90.000000
_cell_angle_gamma 90.000000
_cell_volume 2659.832071
_symmetry_space_group_name_H-M "P M M M"
_symmetry_group_IT_number 47
_symmetry_cell_setting 'orthorhombic'
loop_
_space_group_symop_operation_xyz
x,y,z
-x,-y,z
x,-y,-z
-x,y,-z
-x,-y,-z
x,y,-z
-x,y,z
x,-y,z
loop_
_atom_site_type_symbol
_atom_site_label
_atom_site_fract_x
_atom_site_fract_y
_atom_site_fract_z
Si Si1 0.222925 0.638581 0.239078
Si Si2 0.785457 0.725729 0.377518
Si Si3 0.710621 0.000000 0.868751
Si Si4 0.794003 0.353108 0.000000
Si Si5 0.717884 0.194631 0.216057
Si Si6 0.277879 0.899839 0.126296
Si Si7 0.779206 0.550721 0.375147
Si Si8 0.720651 0.752628 0.000000
O O1 0.284257 0.685123 0.299290
O O2 0.278717 0.593991 0.305820
O O3 0.000000 0.640226 0.235566
O O4 0.287664 0.634613 0.115789
O O5 0.712212 0.724505 0.500000
O O6 0.764547 0.774711 0.319311
O O7 0.000000 0.717213 0.385919
O O8 0.786612 0.049691 0.838329
O O9 0.500000 0.000000 0.834291
O O10 0.712964 0.000000 0.000000
O O11 0.795711 0.298132 0.000000
O O12 0.000000 0.371360 0.000000
O O13 0.500000 0.193105 0.212443
O O14 0.780615 0.142367 0.200914
O O15 0.778275 0.221421 0.108312
O O16 0.500000 0.901162 0.126097
O O17 0.227166 0.891779 0.000000
O O18 0.724145 0.556006 0.500000
O O19 0.722318 0.500000 0.337593
O O20 0.000000 0.551019 0.374036
O O21 0.500000 0.750456 0.000000
#
# Coordination Sequence:
#
# PCOD9381573 Si02
#       8
#     8   8   4   4   8   8   8   4
#     4   9  16  26  40  59  83 110 141 174 210 253
#     4  10  20  32  45  61  84 115 148 181 216 254
#     4   7  10  16  30  54  84 113 138 164 199 248
#     4  10  18  28  43  62  85 115 145 174 209 254
#     4  10  18  28  44  65  90 116 143 176 213 253
#     4   8  12  20  35  58  87 115 139 166 205 253
#     4   8  13  22  37  56  79 109 142 173 209 255
#     4  10  18  28  42  62  89 119 146 172 205 250
#
# _framework density 19.550108000000002
#
# number of rings (size 3 to 8) (size 9 to 14) (size 15 to 20)
#    0.000    3.000    2.308    1.846    0.000    2.154 
#    0.000    0.385    0.000    2.308    0.000    1.077 
#    0.000    9.231    0.000    8.462    0.000    7.692 
#
# Total GULP energy -289909.561951 kJ/mol
# GULP energy per Si atom -5575.183884 kJ/mol
# Density = 1.950561 g / cm^3
# Si number density = 19.550108 Si / 1000 Ang^3
#
#
#
# Elastic Constant Matrix: (Units=GPa)
#
#
# Indices 1 2 3 4 5 6 
#
# 1 69.6851 0.0228 5.0554 0.0000 0.0000 0.0000
# 2 0.0228 170.9925 81.8877 0.0000 0.0000 0.0000
# 3 5.0554 81.8877 130.4227 0.0000 0.0000 0.0000
# 4 0.0000 0.0000 0.0000 10.6443 0.0000 0.0000
# 5 0.0000 0.0000 0.0000 0.0000 3.3122 0.0000
# 6 0.0000 0.0000 0.0000 0.0000 0.0000 6.2193
#
#
#
# Elastic Compliance Matrix: (Units=1/GPa)
#
#
# Indices 1 2 3 4 5 6 
#
# 1 0.014408 0.000380 -0.000797 0.000000 0.000000 0.000000
# 2 0.000380 0.008373 -0.005272 0.000000 0.000000 0.000000
# 3 -0.000797 -0.005272 0.011008 0.000000 0.000000 0.000000
# 4 0.000000 0.000000 0.000000 0.093947 0.000000 0.000000
# 5 0.000000 0.000000 0.000000 0.000000 0.301910 0.000000
# 6 0.000000 0.000000 0.000000 0.000000 0.000000 0.160790
#
#
# Mechanical properties :
#
#
# Convention : Reuss Voigt Hill
#
# Bulk Modulus (GPa) = 44.62061 60.55911 52.58986
# Shear Modulus (GPa) = 8.20636 22.97747 15.59191
#
# Velocity S-wave (km/s) = 2.05103 3.43200 2.82713
# Velocity P-wave (km/s) = 5.33687 6.83728 6.13313
#
# Compressibility (1/GPa) = 0.02241117
#
# Stress axis : x y z
#
# Youngs Moduli (GPa) = 69.40612 119.43526 90.84180
#
# Poissons Ratio (x) = -0.04535 0.07239
# Poissons Ratio (y) = -0.02635 0.47889
# Poissons Ratio (z) = 0.05531 0.62962
#
# Static dielectric constant tensor:
#      x y z
#    x 1.815160 0.000000 0.000000 
#    y 0.000000 1.694680 0.000000 
#    z 0.000000 0.000000 1.669450 
# 
# From -- ./inp_files/15713.got.cif
#   From: 2010.05.17/outbox.cif.g08.bks.cpg/sg47_8_cif.got.tgz:15713.got - 2010.06.03 20:15:42.
