data_PCOD9381926
_publ_section_title
;
Structure prediction by ZEFSAII (Michael W. Deem and Ramdas Pophale) SiO2 
 PCOD9381926
Probable space group: P M M M
;
_chemical_formula_sum "Si O2"
_cell_formula_units_Z 64
_cell_length_a 19.342684
_cell_length_b 14.089333
_cell_length_c 14.389188
_cell_angle_alpha 90.000000
_cell_angle_beta 90.000000
_cell_angle_gamma 90.000000
_cell_volume 3921.420884
_symmetry_space_group_name_H-M "P M M M"
_symmetry_group_IT_number 47
_symmetry_cell_setting 'orthorhombic'
loop_
_space_group_symop_operation_xyz
x,y,z
-x,-y,z
x,-y,-z
-x,y,-z
-x,-y,-z
x,y,-z
-x,y,z
x,-y,z
loop_
_atom_site_type_symbol
_atom_site_label
_atom_site_fract_x
_atom_site_fract_y
_atom_site_fract_z
Si Si1 0.364763 0.113808 0.889106
Si Si2 0.847349 0.613368 0.208545
Si Si3 0.923346 0.766599 0.111602
Si Si4 0.621274 0.387360 0.390946
Si Si5 0.423049 0.288245 0.209818
Si Si6 0.214395 0.385564 0.602058
Si Si7 0.206202 0.107997 0.887583
Si Si8 0.703452 0.613900 0.894222
O O1 0.410611 0.179599 0.822543
O O2 0.284513 0.138953 0.866075
O O3 0.373312 0.000000 0.876708
O O4 0.376741 0.132636 0.000000
O O5 0.855920 0.500000 0.207537
O O6 0.909847 0.666156 0.159615
O O7 0.832359 0.647474 0.313216
O O8 0.776680 0.636053 0.152794
O O9 0.858971 0.830854 0.143692
O O10 0.000000 0.803992 0.133009
O O11 0.918742 0.756877 0.000000
O O12 0.603447 0.373640 0.500000
O O13 0.608777 0.500000 0.369475
O O14 0.584870 0.317969 0.317882
O O15 0.703913 0.369968 0.381173
O O16 0.500000 0.316547 0.179564
O O17 0.362014 0.344619 0.158525
O O18 0.196345 0.348326 0.500000
O O19 0.207738 0.500000 0.599993
O O20 0.198567 0.000000 0.854805
O O21 0.203720 0.106608 0.000000
O O22 0.697685 0.500000 0.893590
O O23 0.704463 0.648509 0.000000
#
# Coordination Sequence:
#
# PCOD9381926 Si02
#       8
#     8   8   8   8   8   8   8   8
#     4   9  19  36  55  73  95 127 169 212 249 292
#     4  10  18  30  48  66  90 127 165 198 233 275
#     4  10  20  30  42  67 102 134 161 189 225 277
#     4   9  18  34  53  73  99 128 161 204 254 308
#     4  12  23  32  47  71  98 128 163 205 254 300
#     4   8  14  27  49  72  89 111 153 206 249 280
#     4   8  15  30  51  70  88 116 155 198 241 280
#     4  10  20  32  45  64  92 128 168 203 238 285
#
# _framework density 16.320615
#
# number of rings (size 3 to 8) (size 9 to 14) (size 15 to 20)
#    0.000    2.500    1.250    3.375    0.000    4.750 
#    0.000    3.750    0.000    0.750    0.000    2.625 
#    0.000    0.500    0.000    1.125    0.000    0.125 
#
# Total GULP energy -356573.760075 kJ/mol
# GULP energy per Si atom -5571.465001 kJ/mol
# Density = 1.628347 g / cm^3
# Si number density = 16.320615 Si / 1000 Ang^3
#
#
#
# Elastic Constant Matrix: (Units=GPa)
#
#
# Indices 1 2 3 4 5 6 
#
# 1 50.9192 17.0372 19.8686 0.0000 0.0000 0.0000
# 2 17.0372 46.1454 22.9589 0.0000 0.0000 0.0000
# 3 19.8686 22.9589 62.3849 0.0000 0.0000 0.0000
# 4 0.0000 0.0000 0.0000 16.1361 0.0000 0.0000
# 5 0.0000 0.0000 0.0000 0.0000 9.4767 0.0000
# 6 0.0000 0.0000 0.0000 0.0000 0.0000 8.5649
#
#
#
# Elastic Compliance Matrix: (Units=1/GPa)
#
#
# Indices 1 2 3 4 5 6 
#
# 1 0.023763 -0.006131 -0.005312 0.000000 0.000000 0.000000
# 2 -0.006131 0.028110 -0.008392 0.000000 0.000000 0.000000
# 3 -0.005312 -0.008392 0.020810 0.000000 0.000000 0.000000
# 4 0.000000 0.000000 0.000000 0.061973 0.000000 0.000000
# 5 0.000000 0.000000 0.000000 0.000000 0.105522 0.000000
# 6 0.000000 0.000000 0.000000 0.000000 0.000000 0.116756
#
#
# Mechanical properties :
#
#
# Convention : Reuss Voigt Hill
#
# Bulk Modulus (GPa) = 30.29150 31.01986 30.65568
# Shear Modulus (GPa) = 12.26673 13.47453 12.87063
#
# Velocity S-wave (km/s) = 2.74452 2.87647 2.81127
# Velocity P-wave (km/s) = 5.35199 5.48451 5.41866
#
# Compressibility (1/GPa) = 0.03301256
#
# Stress axis : x y z
#
# Youngs Moduli (GPa) = 42.08235 35.57502 48.05413
#
# Poissons Ratio (x) = 0.21810 0.25526
# Poissons Ratio (y) = 0.25799 0.40329
# Poissons Ratio (z) = 0.22354 0.29856
#
# Static dielectric constant tensor:
#      x y z
#    x 1.547220 0.000000 0.000000 
#    y 0.000000 1.576540 0.000000 
#    z 0.000000 0.000000 1.557220 
# 
# From -- ./inp_files/24813.got.cif
#   From: 2010.05.17/outbox.cif.g08.bks.cpg/sg47_13_cif.got.tgz:24813.got - 2010.06.03 20:15:42.
