data_PCOD9381634
_publ_section_title
;
Structure prediction by ZEFSAII (Michael W. Deem and Ramdas Pophale) SiO2 
 PCOD9381634
Probable space group: P M M M
;
_chemical_formula_sum "Si O2"
_cell_formula_units_Z 52
_cell_length_a 7.370708
_cell_length_b 23.666528
_cell_length_c 14.905372
_cell_angle_alpha 90.000000
_cell_angle_beta 90.000000
_cell_angle_gamma 90.000000
_cell_volume 2600.079189
_symmetry_space_group_name_H-M "P M M M"
_symmetry_group_IT_number 47
_symmetry_cell_setting 'orthorhombic'
loop_
_space_group_symop_operation_xyz
x,y,z
-x,-y,z
x,-y,-z
-x,y,-z
-x,-y,-z
x,y,-z
-x,y,z
x,-y,z
loop_
_atom_site_type_symbol
_atom_site_label
_atom_site_fract_x
_atom_site_fract_y
_atom_site_fract_z
Si Si1 0.712759 0.357186 0.099032
Si Si2 0.221382 0.064527 0.602286
Si Si3 0.277911 0.612153 0.291998
Si Si4 0.280739 0.275049 0.603157
Si Si5 0.278632 0.500000 0.396739
Si Si6 0.788119 0.165797 0.277364
Si Si7 0.219536 0.224182 0.899937
O O1 0.500000 0.371448 0.095088
O O2 0.785697 0.385773 0.188954
O O3 0.726580 0.289550 0.112983
O O4 0.790306 0.369686 0.000000
O O5 0.276635 0.078268 0.500000
O O6 0.287641 0.110983 0.672489
O O7 0.000000 0.065753 0.602445
O O8 0.274992 0.000000 0.622019
O O9 0.500000 0.612832 0.290734
O O10 0.221062 0.668917 0.343910
O O11 0.221694 0.556411 0.345002
O O12 0.219481 0.275051 0.500000
O O13 0.500000 0.275707 0.602544
O O14 0.223947 0.219044 0.655785
O O15 0.500000 0.500000 0.397320
O O16 0.220155 0.500000 0.500000
O O17 0.712115 0.186207 0.181908
O O18 0.000000 0.153612 0.261445
O O19 0.000000 0.223528 0.898188
O O20 0.277777 0.206919 0.000000
#
# Coordination Sequence:
#
# PCOD9381634 Si02
#       7
#     8   8   8   8   4   8   8
#     4   9  16  27  44  64  86 112 141 176 219 264
#     4   8  14  25  41  61  85 113 145 179 212 250
#     4   9  16  27  41  60  86 114 145 179 212 255
#     4  10  19  29  42  63  91 117 140 176 224 263
#     4   9  16  26  41  59  82 117 153 177 206 258
#     4  10  18  28  45  67  88 112 146 183 217 255
#     4   9  17  28  42  63  90 116 142 175 217 262
#
# _framework density 19.999389000000001
#
# number of rings (size 3 to 8) (size 9 to 14) (size 15 to 20)
#    0.000    2.846    1.538    1.385    0.000    2.769 
#    0.000    0.385    0.000    3.231    0.000    7.538 
#    0.000    6.154    0.000    5.231    0.000    5.692 
#
# Total GULP energy -290211.322333 kJ/mol
# GULP energy per Si atom -5580.986968 kJ/mol
# Density = 1.995387 g / cm^3
# Si number density = 19.999389 Si / 1000 Ang^3
#
#
#
# Elastic Constant Matrix: (Units=GPa)
#
#
# Indices 1 2 3 4 5 6 
#
# 1 71.6861 -6.1673 2.5107 0.0000 0.0000 0.0000
# 2 -6.1673 111.4923 94.2380 0.0000 0.0000 0.0000
# 3 2.5107 94.2380 215.2665 0.0000 0.0000 0.0000
# 4 0.0000 0.0000 0.0000 37.2003 0.0000 0.0000
# 5 0.0000 0.0000 0.0000 0.0000 2.9402 0.0000
# 6 0.0000 0.0000 0.0000 0.0000 0.0000 10.0282
#
#
#
# Elastic Compliance Matrix: (Units=1/GPa)
#
#
# Indices 1 2 3 4 5 6 
#
# 1 0.014103 0.001459 -0.000803 0.000000 0.000000 0.000000
# 2 0.001459 0.014388 -0.006316 0.000000 0.000000 0.000000
# 3 -0.000803 -0.006316 0.007420 0.000000 0.000000 0.000000
# 4 0.000000 0.000000 0.000000 0.026882 0.000000 0.000000
# 5 0.000000 0.000000 0.000000 0.000000 0.340112 0.000000
# 6 0.000000 0.000000 0.000000 0.000000 0.000000 0.099718
#
#
# Mechanical properties :
#
#
# Convention : Reuss Voigt Hill
#
# Bulk Modulus (GPa) = 40.66468 64.40086 52.53277
# Shear Modulus (GPa) = 9.57597 30.55797 20.06697
#
# Velocity S-wave (km/s) = 2.19055 3.91313 3.17105
# Velocity P-wave (km/s) = 5.17447 7.25866 6.30330
#
# Compressibility (1/GPa) = 0.02459137
#
# Stress axis : x y z
#
# Youngs Moduli (GPa) = 70.90507 69.50053 134.77637
#
# Poissons Ratio (x) = -0.10141 0.10826
# Poissons Ratio (y) = -0.10346 0.85123
# Poissons Ratio (z) = 0.05695 0.43896
#
# Static dielectric constant tensor:
#      x y z
#    x 1.896450 0.000000 0.000000 
#    y 0.000000 1.651930 0.000000 
#    z 0.000000 0.000000 1.716350 
# 
# From -- ./inp_files/7656.got.cif
#   From: 2010.05.17/outbox.cif.g08.bks.cpg/sg47_4_cif.got.tgz:7656.got - 2010.06.03 20:15:42.
