data_PCOD9381246
_publ_section_title
;
Structure prediction by ZEFSAII (Michael W. Deem and Ramdas Pophale) SiO2 
 PCOD9381246
Probable space group: P M M M
;
_chemical_formula_sum "Si O2"
_cell_formula_units_Z 56
_cell_length_a 14.568040
_cell_length_b 7.413710
_cell_length_c 27.635697
_cell_angle_alpha 90.000000
_cell_angle_beta 90.000000
_cell_angle_gamma 90.000000
_cell_volume 2984.744369
_symmetry_space_group_name_H-M "P M M M"
_symmetry_group_IT_number 47
_symmetry_cell_setting 'orthorhombic'
loop_
_space_group_symop_operation_xyz
x,y,z
-x,-y,z
x,-y,-z
-x,y,-z
-x,-y,-z
x,y,-z
-x,y,z
x,-y,z
loop_
_atom_site_type_symbol
_atom_site_label
_atom_site_fract_x
_atom_site_fract_y
_atom_site_fract_z
Si Si1 0.393296 0.279528 0.850503
Si Si2 0.296337 0.710404 0.052594
Si Si3 0.294415 0.711434 0.246357
Si Si4 0.102968 0.217914 0.093861
Si Si5 0.607324 0.720447 0.657679
Si Si6 0.609755 0.282689 0.552057
Si Si7 0.102383 0.782860 0.794681
O O1 0.500000 0.231511 0.849139
O O2 0.387490 0.500000 0.850632
O O3 0.345333 0.213814 0.899730
O O4 0.341552 0.214364 0.802333
O O5 0.322383 0.500000 0.050926
O O6 0.187246 0.720233 0.061639
O O7 0.318857 0.789331 0.000000
O O8 0.318057 0.500000 0.246981
O O9 0.334406 0.784538 0.296479
O O10 0.185656 0.727121 0.239167
O O11 0.119044 0.276588 0.149666
O O12 0.000000 0.275387 0.079670
O O13 0.103595 0.000000 0.093328
O O14 0.500000 0.770103 0.663522
O O15 0.609387 0.500000 0.656607
O O16 0.642165 0.781562 0.604699
O O17 0.645632 0.215238 0.500000
O O18 0.500000 0.249371 0.552300
O O19 0.621126 0.500000 0.551560
O O20 0.000000 0.722341 0.780676
O O21 0.101491 0.000000 0.795720
#
# Coordination Sequence:
#
# PCOD9381246 Si02
#       7
#     8   8   8   8   8   8   8
#     4   9  17  29  44  62  84 110 138 166 199 239
#     4  10  20  32  46  66  88 108 135 171 205 237
#     4  10  17  26  44  67  87 108 136 171 208 243
#     4   9  18  33  51  67  83 106 134 163 202 254
#     4   8  13  20  32  55  86 116 145 175 204 237
#     4   7   9  14  25  43  73 114 150 173 197 233
#     4   9  18  32  48  64  83 108 135 164 204 254
#
# _framework density 18.762076
#
# number of rings (size 3 to 8) (size 9 to 14) (size 15 to 20)
#    0.000    3.143    1.429    2.571    0.000    3.143 
#    0.000    4.286    0.000    3.000    0.000    1.000 
#    0.000    1.143    0.000   10.714    0.000    4.286 
#
# Total GULP energy -312156.885362 kJ/mol
# GULP energy per Si atom -5574.230096 kJ/mol
# Density = 1.871937 g / cm^3
# Si number density = 18.762076 Si / 1000 Ang^3
#
#
#
# Elastic Constant Matrix: (Units=GPa)
#
#
# Indices 1 2 3 4 5 6 
#
# 1 80.8381 -5.9268 77.2127 0.0000 0.0000 0.0000
# 2 -5.9268 58.9067 10.0797 0.0000 0.0000 0.0000
# 3 77.2127 10.0797 198.7867 0.0000 0.0000 0.0000
# 4 0.0000 0.0000 0.0000 -9.5641 0.0000 0.0000
# 5 0.0000 0.0000 0.0000 0.0000 17.6026 0.0000
# 6 0.0000 0.0000 0.0000 0.0000 0.0000 22.5773
#
#
#
# Elastic Compliance Matrix: (Units=1/GPa)
#
#
# Indices 1 2 3 4 5 6 
#
# 1 0.020330 0.003426 -0.008070 0.000000 0.000000 0.000000
# 2 0.003426 0.017702 -0.002228 0.000000 0.000000 0.000000
# 3 -0.008070 -0.002228 0.008278 0.000000 0.000000 0.000000
# 4 0.000000 0.000000 0.000000 -0.104558 0.000000 0.000000
# 5 0.000000 0.000000 0.000000 0.000000 0.056810 0.000000
# 6 0.000000 0.000000 0.000000 0.000000 0.000000 0.044292
#
#
# Mechanical properties :
#
#
# Convention : Reuss Voigt Hill
#
# Bulk Modulus (GPa) = 30.70741 55.69588 43.20165
# Shear Modulus (GPa) = 74.12412 23.26755 48.69584
#
# Velocity S-wave (km/s) = 6.29231 3.52538 5.10007
# Velocity P-wave (km/s) = 8.31824 6.80594 7.59980
#
# Compressibility (1/GPa) = 0.03256543
#
# Stress axis : x y z
#
# Youngs Moduli (GPa) = 49.18835 56.49063 120.79935
#
# Poissons Ratio (x) = -0.19356 0.97489
# Poissons Ratio (y) = -0.16854 0.26920
# Poissons Ratio (z) = 0.39697 0.12589
#
# Static dielectric constant tensor:
#      x y z
#    x 1.619020 0.000000 0.000000 
#    y 0.000000 1.715490 0.000000 
#    z 0.000000 0.000000 1.688850 
# 
# From -- ./inp_files/16734.got.cif
#   From: 2010.05.17/outbox.cif.g08.bks.cpg/sg47_9_cif.got.tgz:16734.got - 2010.06.03 20:15:42.
