data_PCOD9381123
_publ_section_title
;
Structure prediction by ZEFSAII (Michael W. Deem and Ramdas Pophale) SiO2 
 PCOD9381123
Probable space group: I M A 2
;
_chemical_formula_sum "Si O2"
_cell_formula_units_Z 24
_cell_length_a 9.000000
_cell_length_b 9.000000
_cell_length_c 30.000000
_cell_angle_alpha 90.000000
_cell_angle_beta 90.000000
_cell_angle_gamma 90.000000
_cell_volume 2430.000000
_symmetry_space_group_name_H-M "I M A 2"
_symmetry_group_IT_number 46
_symmetry_cell_setting 'orthorhombic'
loop_
_space_group_symop_operation_xyz
x,y,z
-x,-y,z
1/2-x,y,z
1/2+x,-y,z
1/2+x,1/2+y,1/2+z
1/2-x,1/2-y,1/2+z
-x,1/2+y,1/2+z
x,1/2-y,1/2+z
loop_
_atom_site_type_symbol
_atom_site_label
_atom_site_fract_x
_atom_site_fract_y
_atom_site_fract_z
Si Si1 0.428346 0.658015 0.781540
Si Si2 0.419406 0.849090 0.132538
Si Si3 0.070532 0.843339 0.966852
Si Si4 0.417144 0.854606 0.546339
Si Si5 0.427177 0.654354 0.885258
Si Si6 0.073148 0.343641 0.206861
O O1 0.500000 0.500000 0.768102
O O2 0.250000 0.654876 0.775589
O O3 0.463262 0.680450 0.833665
O O4 0.504117 0.785047 0.752799
O O5 0.250000 0.869330 0.148877
O O6 0.414289 0.755156 0.087657
O O7 0.517265 0.769571 0.169635
O O8 0.500000 0.000000 0.121533
O O9 0.250000 0.853541 0.969867
O O10 0.027913 0.785480 0.918070
O O11 0.016978 0.724855 0.003206
O O12 0.000000 0.000000 0.976784
O O13 0.250000 0.897184 0.534215
O O14 0.500000 0.000000 0.560489
O O15 0.500000 0.500000 0.899527
O O16 0.250000 0.637888 0.888457
O O17 0.250000 0.353068 0.208785
O O18 0.000000 0.500000 0.195609
#
# Coordination Sequence:
#
# PCOD9381123 Si02
#       6
#     8   8   8   8   8   8
#     4  10  20  37  59  85 115 150 190 235 283 337
#     4  11  23  40  61  87 116 150 189 232 280 335
#     4  10  21  37  55  82 115 149 188 231 277 331
#     4  10  22  38  59  85 115 148 187 231 279 332
#     4   9  19  35  57  83 113 147 188 232 278 331
#     4  12  25  41  60  84 114 150 189 235 285 338
#
# _framework density 9.8765429999999999
#
# number of rings (size 3 to 8) (size 9 to 14) (size 15 to 20)
#    0.000    1.667    0.000    4.500    0.000    5.333 
#    0.000    1.667    0.000    0.000    0.000    0.000 
#    0.000    0.000    0.000    0.000    0.000    0.000 
#
# Total GULP energy -134001.384700 kJ/mol
# GULP energy per Si atom -5583.391029 kJ/mol
# Density = 0.985406 g / cm^3
# Si number density = 9.876543 Si / 1000 Ang^3
#
#
#
# Elastic Constant Matrix: (Units=GPa)
#
#
# Indices 1 2 3 4 5 6 
#
# 1 76.7246 44.0144 25.5058 0.0000 0.0000 0.0000
# 2 44.0144 84.4192 17.3627 0.0000 -0.0001 0.0000
# 3 25.5058 17.3627 38.1455 0.0000 0.0000 0.0000
# 4 0.0000 0.0000 0.0000 21.9434 0.0000 0.0000
# 5 0.0000 -0.0001 0.0000 0.0000 -412.1551 0.0000
# 6 0.0000 0.0000 0.0000 0.0000 0.0000 26.6590
#
#
#
# Elastic Compliance Matrix: (Units=1/GPa)
#
#
# Indices 1 2 3 4 5 6 
#
# 1 0.021764 -0.009217 -0.010357 0.000000 0.000000 0.000000
# 2 -0.009217 0.016973 -0.001562 0.000000 0.000000 0.000000
# 3 -0.010357 -0.001562 0.033852 0.000000 0.000000 0.000000
# 4 0.000000 0.000000 0.000000 0.045572 0.000000 0.000000
# 5 0.000000 0.000000 0.000000 0.000000 -0.002426 0.000000
# 6 0.000000 0.000000 0.000000 0.000000 0.000000 0.037511
#
#
# Mechanical properties :
#
#
# Convention : Reuss Voigt Hill
#
# Bulk Modulus (GPa) = 32.98676 41.45054 37.21865
# Shear Modulus (GPa) = 24.31624 -65.21678 -20.45027
#
# Velocity S-wave (km/s) = 3.51238 -5.75219 -3.22109
# Velocity P-wave (km/s) = 5.76063 4.80489 2.24699
#
# Compressibility (1/GPa) = 0.03031520
#
# Stress axis : x y z
#
# Youngs Moduli (GPa) = 45.94672 58.91820 29.54051
#
# Poissons Ratio (x) = 0.54307 0.30596
# Poissons Ratio (y) = 0.42350 0.04615
# Poissons Ratio (z) = 0.47588 0.09205
#
# Static dielectric constant tensor:
#      x y z
#    x 2.667110 0.000000 0.000000 
#    y 0.000000 1.670030 0.000000 
#    z 0.000000 0.000000 1.693130 
# 
# From -- ./inp_files/24975.got.cif
#   From: 2010.05.17/outbox.ucp.g08.bks.cvg/sg46_13_cif.got.tgz:24975.got - 2010.06.11 16:34:52.
