data_PCOD9381838
_publ_section_title
;
Structure prediction by ZEFSAII (Michael W. Deem and Ramdas Pophale) SiO2 
 PCOD9381838
Probable space group: P M M M
;
_chemical_formula_sum "Si O2"
_cell_formula_units_Z 40
_cell_length_a 7.440150
_cell_length_b 19.516132
_cell_length_c 13.755361
_cell_angle_alpha 90.000000
_cell_angle_beta 90.000000
_cell_angle_gamma 90.000000
_cell_volume 1997.318989
_symmetry_space_group_name_H-M "P M M M"
_symmetry_group_IT_number 47
_symmetry_cell_setting 'orthorhombic'
loop_
_space_group_symop_operation_xyz
x,y,z
-x,-y,z
x,-y,-z
-x,y,-z
-x,-y,-z
x,y,-z
-x,y,z
x,-y,z
loop_
_atom_site_type_symbol
_atom_site_label
_atom_site_fract_x
_atom_site_fract_y
_atom_site_fract_z
Si Si1 0.500000 0.917249 0.891502
Si Si2 0.281078 0.419966 0.108465
Si Si3 0.288972 0.348549 0.697093
Si Si4 0.280486 0.579760 0.500000
Si Si5 0.783905 0.207115 0.608818
Si Si6 0.214422 0.079550 0.732457
O O1 0.674928 0.900041 0.828186
O O2 0.500000 0.000000 0.898913
O O3 0.500000 0.888527 0.000000
O O4 0.500000 0.416754 0.106985
O O5 0.233867 0.500000 0.122199
O O6 0.216176 0.376427 0.200740
O O7 0.221144 0.398702 0.000000
O O8 0.500000 0.365995 0.698454
O O9 0.215617 0.383917 0.598850
O O10 0.271650 0.267611 0.680795
O O11 0.232816 0.500000 0.500000
O O12 0.500000 0.584172 0.500000
O O13 0.714876 0.220339 0.500000
O O14 0.732657 0.132655 0.648677
O O15 0.000000 0.208364 0.604809
O O16 0.000000 0.084390 0.747975
O O17 0.255717 0.000000 0.709357
#
# Coordination Sequence:
#
# PCOD9381838 Si02
#       6
#     4   8   8   4   8   8
#     4   9  18  34  57  85 113 141 178 229 282 327
#     4   8  14  26  46  72 100 130 167 213 262 311
#     4  10  18  29  48  74 101 133 171 215 266 321
#     4   9  16  26  43  71 100 127 168 218 264 314
#     4  10  21  36  53  73 103 143 178 218 273 329
#     4   9  19  36  57  82 111 146 188 230 275 329
#
# _framework density 20.026845999999999
#
# number of rings (size 3 to 8) (size 9 to 14) (size 15 to 20)
#    0.000    2.800    1.000    1.200    1.400    3.200 
#    0.000    5.000    0.000    6.600    0.000    1.400 
#    0.000    0.000    0.000    0.000    0.000    0.000 
#
# Total GULP energy -223090.703690 kJ/mol
# GULP energy per Si atom -5577.267592 kJ/mol
# Density = 1.998126 g / cm^3
# Si number density = 20.026846 Si / 1000 Ang^3
#
#
#
# Elastic Constant Matrix: (Units=GPa)
#
#
# Indices 1 2 3 4 5 6 
#
# 1 55.6990 6.5419 20.4173 0.0000 0.0000 0.0000
# 2 6.5419 100.5245 85.1814 0.0000 0.0000 0.0000
# 3 20.4173 85.1814 185.1352 0.0000 0.0000 0.0000
# 4 0.0000 0.0000 0.0000 30.3779 0.0000 0.0000
# 5 0.0000 0.0000 0.0000 0.0000 10.4375 0.0000
# 6 0.0000 0.0000 0.0000 0.0000 0.0000 24.6917
#
#
#
# Elastic Compliance Matrix: (Units=1/GPa)
#
#
# Indices 1 2 3 4 5 6 
#
# 1 0.018757 0.000872 -0.002470 0.000000 0.000000 0.000000
# 2 0.000872 0.016345 -0.007617 0.000000 0.000000 0.000000
# 3 -0.002470 -0.007617 0.009178 0.000000 0.000000 0.000000
# 4 0.000000 0.000000 0.000000 0.032919 0.000000 0.000000
# 5 0.000000 0.000000 0.000000 0.000000 0.095809 0.000000
# 6 0.000000 0.000000 0.000000 0.000000 0.000000 0.040499
#
#
# Mechanical properties :
#
#
# Convention : Reuss Voigt Hill
#
# Bulk Modulus (GPa) = 38.68251 62.84889 50.76570
# Shear Modulus (GPa) = 20.78547 28.38262 24.58405
#
# Velocity S-wave (km/s) = 3.22511 3.76869 3.50745
# Velocity P-wave (km/s) = 5.76417 7.09844 6.46582
#
# Compressibility (1/GPa) = 0.02585147
#
# Stress axis : x y z
#
# Youngs Moduli (GPa) = 53.31469 61.18002 108.95251
#
# Poissons Ratio (x) = -0.05336 0.26910
# Poissons Ratio (y) = -0.04650 0.82986
# Poissons Ratio (z) = 0.13168 0.46599
#
# Static dielectric constant tensor:
#      x y z
#    x 1.758060 0.000000 0.000000 
#    y 0.000000 1.682180 0.000000 
#    z 0.000000 0.000000 1.714330 
# 
# From -- ./inp_files/15125.got.cif
#   From: 2010.05.17/outbox.cif.g08.bks.cpg/sg47_8_cif.got.tgz:15125.got - 2010.06.03 20:15:42.
