data_PCOD9381625
_publ_section_title
;
Structure prediction by ZEFSAII (Michael W. Deem and Ramdas Pophale) SiO2 
 PCOD9381625
Probable space group: P M M M
;
_chemical_formula_sum "Si O2"
_cell_formula_units_Z 56
_cell_length_a 7.505958
_cell_length_b 19.313812
_cell_length_c 19.715814
_cell_angle_alpha 90.000000
_cell_angle_beta 90.000000
_cell_angle_gamma 90.000000
_cell_volume 2858.175170
_symmetry_space_group_name_H-M "P M M M"
_symmetry_group_IT_number 47
_symmetry_cell_setting 'orthorhombic'
loop_
_space_group_symop_operation_xyz
x,y,z
-x,-y,z
x,-y,-z
-x,y,-z
-x,-y,-z
x,y,-z
-x,y,z
x,-y,z
loop_
_atom_site_type_symbol
_atom_site_label
_atom_site_fract_x
_atom_site_fract_y
_atom_site_fract_z
Si Si1 0.218003 0.077068 0.217680
Si Si2 0.294343 0.073608 0.581537
Si Si3 0.202133 0.228185 0.424168
Si Si4 0.283242 0.424168 0.079482
Si Si5 0.290338 0.720446 0.864065
Si Si6 0.206736 0.133858 0.925246
Si Si7 0.784286 0.220107 0.281544
O O1 0.279805 0.094915 0.141006
O O2 0.275246 0.141109 0.264792
O O3 0.000000 0.078205 0.217900
O O4 0.275523 0.000000 0.236781
O O5 0.298668 0.068161 0.500000
O O6 0.500000 0.079943 0.603581
O O7 0.195722 0.145523 0.590743
O O8 0.219901 0.000000 0.607163
O O9 0.282060 0.237585 0.500000
O O10 0.284734 0.251389 0.352689
O O11 0.000000 0.254537 0.428154
O O12 0.500000 0.424498 0.083674
O O13 0.222834 0.500000 0.104236
O O14 0.219636 0.355078 0.116509
O O15 0.237922 0.418819 0.000000
O O16 0.500000 0.721748 0.879553
O O17 0.211837 0.784714 0.906219
O O18 0.264459 0.736823 0.784976
O O19 0.000000 0.112894 0.928750
O O20 0.285453 0.122151 0.000000
O O21 0.000000 0.219147 0.285428
#
# Coordination Sequence:
#
# PCOD9381625 Si02
#       7
#     8   8   8   8   8   8   8
#     4   8  14  25  40  56  74 101 139 176 208 248
#     4   8  14  24  36  51  74 102 127 155 202 262
#     4   9  17  28  42  59  77 100 135 178 217 253
#     4   8  14  25  42  66  94 119 142 169 198 227
#     4  10  18  28  45  66  87 113 144 172 200 243
#     4   9  17  28  42  60  82 110 143 179 218 251
#     4   9  18  31  44  59  82 110 138 173 219 263
#
# _framework density 19.592919999999999
#
# number of rings (size 3 to 8) (size 9 to 14) (size 15 to 20)
#    0.000    3.286    0.000    2.571    0.000    2.571 
#    0.000    4.286    0.000    8.571    0.000    9.000 
#    0.000    0.571    0.000    7.143    0.000    0.000 
#
# Total GULP energy -311898.990934 kJ/mol
# GULP energy per Si atom -5569.624838 kJ/mol
# Density = 1.954833 g / cm^3
# Si number density = 19.592920 Si / 1000 Ang^3
#
#
#
# Elastic Constant Matrix: (Units=GPa)
#
#
# Indices 1 2 3 4 5 6 
#
# 1 53.6876 -7.1865 -5.5475 0.0000 0.0000 0.0000
# 2 -7.1865 79.6655 20.9712 0.0000 0.0000 0.0000
# 3 -5.5475 20.9712 131.3186 0.0000 0.0000 0.0000
# 4 0.0000 0.0000 0.0000 4.9275 0.0000 0.0000
# 5 0.0000 0.0000 0.0000 0.0000 7.4058 0.0000
# 6 0.0000 0.0000 0.0000 0.0000 0.0000 12.9015
#
#
#
# Elastic Compliance Matrix: (Units=1/GPa)
#
#
# Indices 1 2 3 4 5 6 
#
# 1 0.018892 0.001560 0.000549 0.000000 0.000000 0.000000
# 2 0.001560 0.013232 -0.002047 0.000000 0.000000 0.000000
# 3 0.000549 -0.002047 0.007965 0.000000 0.000000 0.000000
# 4 0.000000 0.000000 0.000000 0.202941 0.000000 0.000000
# 5 0.000000 0.000000 0.000000 0.000000 0.135030 0.000000
# 6 0.000000 0.000000 0.000000 0.000000 0.000000 0.077510
#
#
# Mechanical properties :
#
#
# Convention : Reuss Voigt Hill
#
# Bulk Modulus (GPa) = 24.86822 31.23845 28.05333
# Shear Modulus (GPa) = 10.66436 22.14260 16.40348
#
# Velocity S-wave (km/s) = 2.33555 3.36539 2.89661
# Velocity P-wave (km/s) = 4.47136 5.57490 5.05334
#
# Compressibility (1/GPa) = 0.04021196
#
# Stress axis : x y z
#
# Youngs Moduli (GPa) = 52.93310 75.57376 125.54616
#
# Poissons Ratio (x) = -0.11787 -0.06892
# Poissons Ratio (y) = -0.08256 0.25702
# Poissons Ratio (z) = -0.02906 0.15472
#
# Static dielectric constant tensor:
#      x y z
#    x 1.739420 0.000000 0.000000 
#    y 0.000000 1.686300 0.000000 
#    z 0.000000 0.000000 1.752390 
# 
# From -- ./inp_files/26933.got.cif
#   From: 2010.05.17/outbox.cif.g08.bks.cpg/sg47_14_cif.got.tgz:26933.got - 2010.06.03 20:15:42.
