data_PCOD9381986
_publ_section_title
;
Structure prediction by ZEFSAII (Michael W. Deem and Ramdas Pophale) SiO2 
 PCOD9381986
Probable space group: P M M M
;
_chemical_formula_sum "Si O2"
_cell_formula_units_Z 52
_cell_length_a 13.039948
_cell_length_b 8.294049
_cell_length_c 27.277708
_cell_angle_alpha 90.000000
_cell_angle_beta 90.000000
_cell_angle_gamma 90.000000
_cell_volume 2950.192349
_symmetry_space_group_name_H-M "P M M M"
_symmetry_group_IT_number 47
_symmetry_cell_setting 'orthorhombic'
loop_
_space_group_symop_operation_xyz
x,y,z
-x,-y,z
x,-y,-z
-x,y,-z
-x,-y,-z
x,y,-z
-x,y,z
x,-y,z
loop_
_atom_site_type_symbol
_atom_site_label
_atom_site_fract_x
_atom_site_fract_y
_atom_site_fract_z
Si Si1 0.500000 0.694700 0.218096
Si Si2 0.619520 0.803043 0.500000
Si Si3 0.305441 0.194504 0.605598
Si Si4 0.117009 0.807254 0.776342
Si Si5 0.116962 0.307350 0.667766
Si Si6 0.380111 0.696385 0.054379
Si Si7 0.300121 0.305168 0.157288
Si Si8 0.500000 0.805026 0.330051
O O1 0.500000 0.500000 0.216916
O O2 0.602022 0.749532 0.189496
O O3 0.500000 0.748918 0.274182
O O4 0.500000 0.755279 0.500000
O O5 0.673120 0.749344 0.550190
O O6 0.620431 0.000000 0.500000
O O7 0.197981 0.246785 0.628294
O O8 0.398674 0.249691 0.640684
O O9 0.308659 0.000000 0.605094
O O10 0.148867 0.747868 0.722275
O O11 0.196448 0.749083 0.816842
O O12 0.000000 0.749698 0.784752
O O13 0.116443 0.000000 0.775664
O O14 0.115777 0.500000 0.667023
O O15 0.000000 0.248444 0.659643
O O16 0.500000 0.739638 0.061231
O O17 0.377084 0.500000 0.054108
O O18 0.316266 0.751419 0.101374
O O19 0.347628 0.750868 0.000000
O O20 0.302005 0.500000 0.156874
O O21 0.500000 0.000000 0.330480
#
# Coordination Sequence:
#
# PCOD9381986 Si02
#       8
#     4   4   8   8   8   8   8   4
#     4  10  20  30  42  69 105 134 156 193 248 301
#     4   9  16  32  56  79 104 134 169 208 247 290
#     4  10  19  33  55  79 102 132 169 207 248 295
#     4  10  21  36  53  73  98 131 172 213 252 298
#     4  10  21  37  55  75 101 133 168 208 255 302
#     4   8  13  24  45  72 101 133 168 205 247 295
#     4  10  18  30  49  74 104 133 165 205 251 301
#     4  10  20  31  46  71 101 131 164 199 242 295
#
# _framework density 17.625971
#
# number of rings (size 3 to 8) (size 9 to 14) (size 15 to 20)
#    0.000    2.385    1.538    2.308    0.000    5.538 
#    0.000    0.769    0.000    3.692    0.000    4.308 
#    0.000    0.000    0.000    0.000    0.000    0.000 
#
# Total GULP energy -290101.504168 kJ/mol
# GULP energy per Si atom -5578.875080 kJ/mol
# Density = 1.758585 g / cm^3
# Si number density = 17.625971 Si / 1000 Ang^3
#
#
#
# Elastic Constant Matrix: (Units=GPa)
#
#
# Indices 1 2 3 4 5 6 
#
# 1 100.6157 11.8053 96.9064 0.0000 0.0000 0.0000
# 2 11.8053 8.3260 17.9486 0.0000 0.0000 0.0000
# 3 96.9064 17.9486 195.7706 0.0000 0.0000 0.0000
# 4 0.0000 0.0000 0.0000 22.0845 0.0000 0.0000
# 5 0.0000 0.0000 0.0000 0.0000 23.8043 0.0000
# 6 0.0000 0.0000 0.0000 0.0000 0.0000 18.3953
#
#
#
# Elastic Compliance Matrix: (Units=1/GPa)
#
#
# Indices 1 2 3 4 5 6 
#
# 1 0.019467 -0.008511 -0.008856 0.000000 0.000000 0.000000
# 2 -0.008511 0.153412 -0.009852 0.000000 0.000000 0.000000
# 3 -0.008856 -0.009852 0.010395 0.000000 0.000000 0.000000
# 4 0.000000 0.000000 0.000000 0.045281 0.000000 0.000000
# 5 0.000000 0.000000 0.000000 0.000000 0.042009 0.000000
# 6 0.000000 0.000000 0.000000 0.000000 0.000000 0.054362
#
#
# Mechanical properties :
#
#
# Convention : Reuss Voigt Hill
#
# Bulk Modulus (GPa) = 7.76183 62.00367 34.88275
# Shear Modulus (GPa) = 11.83973 24.72697 18.28335
#
# Velocity S-wave (km/s) = 2.59457 3.74956 3.22420
# Velocity P-wave (km/s) = 3.65909 7.34843 5.80467
#
# Compressibility (1/GPa) = 0.12883560
#
# Stress axis : x y z
#
# Youngs Moduli (GPa) = 51.37008 6.51841 96.20160
#
# Poissons Ratio (x) = 0.05548 0.85193
# Poissons Ratio (y) = 0.43721 0.94779
# Poissons Ratio (z) = 0.45492 0.06422
#
# Static dielectric constant tensor:
#      x y z
#    x 1.590930 0.000000 0.000000 
#    y 0.000000 1.622480 0.000000 
#    z 0.000000 0.000000 1.593950 
# 
# From -- ./inp_files/33611.got.cif
#   From: 2010.05.17/outbox.cif.g08.bks.cpg/sg47_17_cif.got.tgz:33611.got - 2010.06.03 20:15:42.
