data_PCOD9381033
_publ_section_title
;
Structure prediction by ZEFSAII (Michael W. Deem and Ramdas Pophale) SiO2 
 PCOD9381033
Probable space group: I M A 2
;
_chemical_formula_sum "Si O2"
_cell_formula_units_Z 24
_cell_length_a 11.921050
_cell_length_b 13.102186
_cell_length_c 6.427101
_cell_angle_alpha 90.000000
_cell_angle_beta 90.000000
_cell_angle_gamma 90.000000
_cell_volume 1003.860567
_symmetry_space_group_name_H-M "I M A 2"
_symmetry_group_IT_number 46
_symmetry_cell_setting 'orthorhombic'
loop_
_space_group_symop_operation_xyz
x,y,z
-x,-y,z
1/2-x,y,z
1/2+x,-y,z
1/2+x,1/2+y,1/2+z
1/2-x,1/2-y,1/2+z
-x,1/2+y,1/2+z
x,1/2-y,1/2+z
loop_
_atom_site_type_symbol
_atom_site_label
_atom_site_fract_x
_atom_site_fract_y
_atom_site_fract_z
Si Si1 0.000000 0.000000 0.660210
Si Si2 0.621745 0.859785 0.949885
Si Si3 0.515658 0.341397 0.816253
Si Si4 0.250000 0.709546 0.656549
O O1 0.098230 0.046432 0.798903
O O2 0.958864 0.092256 0.517664
O O3 0.750000 0.826394 0.943470
O O4 0.540521 0.766241 0.882719
O O5 0.582748 0.891441 0.179099
O O6 0.627403 0.338821 0.679149
O O7 0.250000 0.742097 0.404993
#
# Coordination Sequence:
#
# PCOD9381033 Si02
#       4
#     4   8   8   4
#     4  12  28  50  78 122 152 214 286 342 424 508
#     4  12  26  51  83 115 162 213 279 349 427 506
#     4  12  26  50  78 119 159 216 277 350 424 502
#     4  12  24  48  84 114 164 214 276 350 416 502
#
# _framework density 23.907702
#
# number of rings (size 3 to 8) (size 9 to 14) (size 15 to 20)
#    0.000    0.000    6.667    2.000    2.333    1.333 
#   12.000    0.000    0.000    0.000    0.000    0.000 
#    0.000    0.000    0.000    0.000    0.000    0.000 
#
# Total GULP energy -66944.363225 kJ/mol
# GULP energy per Si atom -5578.696935 kJ/mol
# Density = 2.385329 g / cm^3
# Si number density = 23.907702 Si / 1000 Ang^3
#
#
#
# Elastic Constant Matrix: (Units=GPa)
#
#
# Indices 1 2 3 4 5 6 
#
# 1 141.0651 34.5342 15.0735 0.0000 0.0000 0.0000
# 2 34.5342 91.3647 44.6209 0.0000 0.0000 0.0000
# 3 15.0735 44.6209 132.0755 0.0000 0.0000 0.0000
# 4 0.0000 0.0000 0.0000 51.0340 0.0000 0.0000
# 5 0.0000 0.0000 0.0000 0.0000 20.1574 0.0000
# 6 0.0000 0.0000 0.0000 0.0000 0.0000 17.1927
#
#
#
# Elastic Compliance Matrix: (Units=1/GPa)
#
#
# Indices 1 2 3 4 5 6 
#
# 1 0.007814 -0.003015 0.000127 0.000000 0.000000 0.000000
# 2 -0.003015 0.014272 -0.004477 0.000000 0.000000 0.000000
# 3 0.000127 -0.004477 0.009070 0.000000 0.000000 0.000000
# 4 0.000000 0.000000 0.000000 0.019595 0.000000 0.000000
# 5 0.000000 0.000000 0.000000 0.000000 0.049610 0.000000
# 6 0.000000 0.000000 0.000000 0.000000 0.000000 0.058164
#
#
# Mechanical properties :
#
#
# Convention : Reuss Voigt Hill
#
# Bulk Modulus (GPa) = 60.88991 61.44029 61.16510
# Shear Modulus (GPa) = 27.97523 35.69525 31.83524
#
# Velocity S-wave (km/s) = 3.42443 3.86818 3.65305
# Velocity P-wave (km/s) = 6.41558 6.76056 6.59033
#
# Compressibility (1/GPa) = 0.01642308
#
# Stress axis : x y z
#
# Youngs Moduli (GPa) = 127.98268 70.06913 110.25837
#
# Poissons Ratio (x) = 0.21129 -0.01400
# Poissons Ratio (y) = 0.38592 0.49367
# Poissons Ratio (z) = -0.01625 0.31373
#
# Static dielectric constant tensor:
#      x y z
#    x 1.843870 0.000000 0.000000 
#    y 0.000000 1.998300 0.000000 
#    z 0.000000 0.000000 2.033520 
# 
# From -- ./inp_files/556.got.cif
#   From: 2010.05.17/outbox.cif.g08.bks.cpg/sg46_1_cif.got.tgz:556.got - 2010.06.03 19:58:25.
