data_PCOD9381016
_publ_section_title
;
Structure prediction by ZEFSAII (Michael W. Deem and Ramdas Pophale) SiO2 
 PCOD9381016
Probable space group: I M A 2
;
_chemical_formula_sum "Si O2"
_cell_formula_units_Z 48
_cell_length_a 19.596788
_cell_length_b 8.950785
_cell_length_c 15.684948
_cell_angle_alpha 90.000000
_cell_angle_beta 90.000000
_cell_angle_gamma 90.000000
_cell_volume 2751.243966
_symmetry_space_group_name_H-M "I M A 2"
_symmetry_group_IT_number 46
_symmetry_cell_setting 'orthorhombic'
loop_
_space_group_symop_operation_xyz
x,y,z
-x,-y,z
1/2-x,y,z
1/2+x,-y,z
1/2+x,1/2+y,1/2+z
1/2-x,1/2-y,1/2+z
-x,1/2+y,1/2+z
x,1/2-y,1/2+z
loop_
_atom_site_type_symbol
_atom_site_label
_atom_site_fract_x
_atom_site_fract_y
_atom_site_fract_z
Si Si1 0.469914 0.665378 0.313500
Si Si2 0.326661 0.909938 0.746833
Si Si3 0.529914 0.164757 0.485819
Si Si4 0.528284 0.665866 0.649866
Si Si5 0.826565 0.088767 0.551918
Si Si6 0.672627 0.706778 0.150035
O O1 0.500000 0.500000 0.304125
O O2 0.388444 0.651997 0.300792
O O3 0.486553 0.733729 0.404969
O O4 0.389467 0.179484 0.150071
O O5 0.250000 0.881843 0.778345
O O6 0.331643 0.848931 0.649249
O O7 0.334207 0.088978 0.729048
O O8 0.499651 0.265591 0.737833
O O9 0.611338 0.148807 0.497858
O O10 0.500000 0.000000 0.473522
O O11 0.500000 0.500000 0.639173
O O12 0.500839 0.766851 0.572255
O O13 0.750000 0.117388 0.520183
O O14 0.833679 0.909953 0.570468
O O15 0.750000 0.766421 0.150465
#
# Coordination Sequence:
#
# PCOD9381016 Si02
#       6
#     8   8   8   8   8   8
#     4  12  22  37  58  86 120 154 193 243 290 342
#     4   8  15  32  60  84 108 152 193 229 292 346
#     4  12  22  37  58  86 120 154 193 243 290 342
#     4  12  22  38  59  87 116 154 196 243 287 340
#     4   8  15  32  60  84 108 152 193 229 292 346
#     4   8  15  33  62  84 109 153 192 227 291 353
#
# _framework density 17.446653000000001
#
# number of rings (size 3 to 8) (size 9 to 14) (size 15 to 20)
#    1.000    1.000    5.000    1.500    0.000    0.667 
#    0.000    1.667    0.000    8.000    0.000    0.000 
#    0.000    0.000    0.000    0.000    0.000    0.000 
#
# Total GULP energy -133623.757579 kJ/mol
# GULP energy per Si atom -5567.656566 kJ/mol
# Density = 1.740694 g / cm^3
# Si number density = 17.446653 Si / 1000 Ang^3
#
#
#
# Elastic Constant Matrix: (Units=GPa)
#
#
# Indices 1 2 3 4 5 6 
#
# 1 125.0009 12.3022 8.9262 0.0000 0.0000 0.0000
# 2 12.3022 29.9089 -14.8211 0.0000 0.0000 0.0000
# 3 8.9262 -14.8211 32.5257 0.0000 0.0000 0.0000
# 4 0.0000 0.0000 0.0000 24.1380 0.0000 0.0000
# 5 0.0000 0.0000 0.0000 0.0000 1.5851 0.0000
# 6 0.0000 0.0000 0.0000 0.0000 0.0000 26.6044
#
#
#
# Elastic Compliance Matrix: (Units=1/GPa)
#
#
# Indices 1 2 3 4 5 6 
#
# 1 0.009011 -0.006370 -0.005376 0.000000 0.000000 0.000000
# 2 -0.006370 0.047690 0.023479 0.000000 0.000000 0.000000
# 3 -0.005376 0.023479 0.042919 0.000000 0.000000 0.000000
# 4 0.000000 0.000000 0.000000 0.041429 0.000000 0.000000
# 5 0.000000 0.000000 0.000000 0.000000 0.630884 0.000000
# 6 0.000000 0.000000 0.000000 0.000000 0.000000 0.037588
#
#
# Mechanical properties :
#
#
# Convention : Reuss Voigt Hill
#
# Bulk Modulus (GPa) = 8.12436 22.25003 15.18720
# Shear Modulus (GPa) = 6.04535 22.53402 14.28969
#
# Velocity S-wave (km/s) = 1.86348 3.59778 2.86501
# Velocity P-wave (km/s) = 3.04908 5.48083 4.43489
#
# Compressibility (1/GPa) = 0.12308656
#
# Stress axis : x y z
#
# Youngs Moduli (GPa) = 110.97876 20.96877 23.29975
#
# Poissons Ratio (x) = 0.13357 0.12525
# Poissons Ratio (y) = 0.70695 -0.54706
# Poissons Ratio (z) = 0.59657 -0.49233
#
# Static dielectric constant tensor:
#      x y z
#    x 1.604740 0.000000 0.000000 
#    y 0.000000 1.580070 0.000000 
#    z 0.000000 0.000000 1.579060 
# 
# From -- ./inp_files/19435.got.cif
#   From: 2010.05.17/outbox.cif.g08.bks.cpg/sg46_10_cif.got.tgz:19435.got - 2010.06.03 19:58:25.
