data_PCOD9381549
_publ_section_title
;
Structure prediction by ZEFSAII (Michael W. Deem and Ramdas Pophale) SiO2 
 PCOD9381549
Probable space group: P M M M
;
_chemical_formula_sum "Si O2"
_cell_formula_units_Z 56
_cell_length_a 30.095321
_cell_length_b 8.990352
_cell_length_c 14.092826
_cell_angle_alpha 90.000000
_cell_angle_beta 90.000000
_cell_angle_gamma 90.000000
_cell_volume 3813.061112
_symmetry_space_group_name_H-M "P M M M"
_symmetry_group_IT_number 47
_symmetry_cell_setting 'orthorhombic'
loop_
_space_group_symop_operation_xyz
x,y,z
-x,-y,z
x,-y,-z
-x,y,-z
-x,-y,-z
x,y,-z
-x,y,z
x,-y,z
loop_
_atom_site_type_symbol
_atom_site_label
_atom_site_fract_x
_atom_site_fract_y
_atom_site_fract_z
Si Si1 0.640262 0.677473 0.611014
Si Si2 0.724104 0.822335 0.709008
Si Si3 0.221359 0.821284 0.109040
Si Si4 0.548892 0.174394 0.614935
Si Si5 0.138449 0.321165 0.786170
Si Si6 0.950223 0.680921 0.890320
Si Si7 0.182977 0.821363 0.390769
O O1 0.645965 0.723746 0.500000
O O2 0.640381 0.500000 0.613890
O O3 0.680571 0.741735 0.671871
O O4 0.592499 0.737620 0.645468
O O5 0.740156 0.783019 0.815390
O O6 0.766677 0.786639 0.642690
O O7 0.717067 0.000000 0.704539
O O8 0.176656 0.741256 0.144208
O O9 0.214591 0.000000 0.116685
O O10 0.231424 0.785249 0.000000
O O11 0.548180 0.184057 0.500000
O O12 0.500000 0.226608 0.647985
O O13 0.553308 0.000000 0.638900
O O14 0.140130 0.500000 0.785710
O O15 0.090351 0.271495 0.824383
O O16 0.150433 0.258365 0.682781
O O17 0.950347 0.500000 0.889474
O O18 0.000000 0.729432 0.862376
O O19 0.942590 0.725519 0.000000
O O20 0.176300 0.779615 0.500000
O O21 0.177932 0.000000 0.381685
#
# Coordination Sequence:
#
# PCOD9381549 Si02
#       7
#     8   8   8   8   8   8   8
#     4  10  19  27  37  57  85 114 140 170 209 246
#     4   9  17  29  44  60  78 105 141 174 203 240
#     4   9  18  32  47  62  84 114 143 171 207 252
#     4   8  14  25  40  56  75 104 142 177 206 240
#     4  10  18  27  44  69  90 108 136 174 213 251
#     4   8  14  25  41  62  88 114 137 164 203 252
#     4   9  18  32  47  61  81 113 148 177 208 248
#
# _framework density 14.686363
#
# number of rings (size 3 to 8) (size 9 to 14) (size 15 to 20)
#    0.000    3.000    0.000    3.429    0.000    5.143 
#    0.000    1.429    0.000    2.143    0.000    8.000 
#    0.000    0.571    0.000    6.571    0.000    2.143 
#
# Total GULP energy -311855.292067 kJ/mol
# GULP energy per Si atom -5568.844501 kJ/mol
# Density = 1.465294 g / cm^3
# Si number density = 14.686363 Si / 1000 Ang^3
#
#
#
# Elastic Constant Matrix: (Units=GPa)
#
#
# Indices 1 2 3 4 5 6 
#
# 1 151.0786 45.6123 73.9023 0.0000 0.0000 0.0000
# 2 45.6123 23.4409 32.7602 0.0000 0.0000 0.0000
# 3 73.9023 32.7602 102.6608 0.0000 0.0000 0.0000
# 4 0.0000 0.0000 0.0000 18.5252 0.0000 0.0000
# 5 0.0000 0.0000 0.0000 0.0000 20.2397 0.0000
# 6 0.0000 0.0000 0.0000 0.0000 0.0000 23.2155
#
#
#
# Elastic Compliance Matrix: (Units=1/GPa)
#
#
# Indices 1 2 3 4 5 6 
#
# 1 0.016526 -0.028033 -0.002951 0.000000 0.000000 0.000000
# 2 -0.028033 0.124553 -0.019566 0.000000 0.000000 0.000000
# 3 -0.002951 -0.019566 0.018109 0.000000 0.000000 0.000000
# 4 0.000000 0.000000 0.000000 0.053981 0.000000 0.000000
# 5 0.000000 0.000000 0.000000 0.000000 0.049408 0.000000
# 6 0.000000 0.000000 0.000000 0.000000 0.000000 0.043075
#
#
# Mechanical properties :
#
#
# Convention : Reuss Voigt Hill
#
# Bulk Modulus (GPa) = 17.21528 64.63667 40.92597
# Shear Modulus (GPa) = 11.73394 20.72313 16.22853
#
# Velocity S-wave (km/s) = 2.82967 3.76046 3.32777
# Velocity P-wave (km/s) = 4.73534 7.93484 6.53395
#
# Compressibility (1/GPa) = 0.05808795
#
# Stress axis : x y z
#
# Youngs Moduli (GPa) = 60.51071 8.02869 55.22123
#
# Poissons Ratio (x) = 0.22507 0.16296
# Poissons Ratio (y) = 1.69629 1.08048
# Poissons Ratio (z) = 0.17856 0.15709
#
# Static dielectric constant tensor:
#      x y z
#    x 1.483330 0.000000 0.000000 
#    y 0.000000 1.492680 0.000000 
#    z 0.000000 0.000000 1.477210 
# 
# From -- ./inp_files/22097.got.cif
#   From: 2010.05.17/outbox.cif.g08.bks.cpg/sg47_12_cif.got.tgz:22097.got - 2010.06.03 20:15:42.
