data_PCOD9381475
_publ_section_title
;
Structure prediction by ZEFSAII (Michael W. Deem and Ramdas Pophale) SiO2 
 PCOD9381475
Probable space group: P M M M
;
_chemical_formula_sum "Si O2"
_cell_formula_units_Z 64
_cell_length_a 7.645838
_cell_length_b 24.269341
_cell_length_c 20.044653
_cell_angle_alpha 90.000000
_cell_angle_beta 90.000000
_cell_angle_gamma 90.000000
_cell_volume 3719.474779
_symmetry_space_group_name_H-M "P M M M"
_symmetry_group_IT_number 47
_symmetry_cell_setting 'orthorhombic'
loop_
_space_group_symop_operation_xyz
x,y,z
-x,-y,z
x,-y,-z
-x,y,-z
-x,-y,-z
x,y,-z
-x,y,z
x,-y,z
loop_
_atom_site_type_symbol
_atom_site_label
_atom_site_fract_x
_atom_site_fract_y
_atom_site_fract_z
Si Si1 0.713382 0.561740 0.922718
Si Si2 0.210585 0.162503 0.793925
Si Si3 0.789556 0.729119 0.716710
Si Si4 0.793871 0.256703 0.427024
Si Si5 0.290404 0.938019 0.703185
Si Si6 0.206740 0.782355 0.074422
Si Si7 0.711960 0.872167 0.425897
Si Si8 0.708262 0.670465 0.149606
O O1 0.500000 0.561477 0.921051
O O2 0.770604 0.500000 0.903688
O O3 0.774819 0.611846 0.876809
O O4 0.762890 0.571410 0.000000
O O5 0.274386 0.211758 0.745205
O O6 0.254390 0.103681 0.763497
O O7 0.277361 0.177168 0.867941
O O8 0.000000 0.166902 0.795516
O O9 0.721405 0.718927 0.642042
O O10 0.749463 0.684933 0.773852
O O11 0.000000 0.732994 0.712137
O O12 0.717948 0.271088 0.500000
O O13 0.776599 0.190539 0.419497
O O14 0.000000 0.269997 0.429653
O O15 0.500000 0.941353 0.696634
O O16 0.224466 0.909416 0.635057
O O17 0.223037 0.000000 0.712186
O O18 0.224611 0.720896 0.104288
O O19 0.000000 0.793541 0.069418
O O20 0.281988 0.786387 0.000000
O O21 0.761949 0.892261 0.500000
O O22 0.500000 0.870263 0.423494
O O23 0.500000 0.670670 0.142206
#
# Coordination Sequence:
#
# PCOD9381475 Si02
#       8
#     8   8   8   8   8   8   8   8
#     4   8  14  25  40  59  87 121 152 181 209 236
#     4   9  17  30  46  63  80 103 135 167 206 255
#     4   9  17  29  43  61  87 115 140 172 217 257
#     4   9  16  27  44  62  81 109 143 174 206 250
#     4  10  20  31  43  60  82 108 137 170 208 250
#     4   9  18  32  48  65  87 112 135 168 216 259
#     4   9  17  28  42  60  82 108 137 169 205 245
#     4  10  18  26  42  68  92 115 147 180 206 242
#
# _framework density 17.20673
#
# number of rings (size 3 to 8) (size 9 to 14) (size 15 to 20)
#    0.000    2.875    1.250    1.875    0.000    3.750 
#    0.000    1.250    0.000    1.875    0.000    9.625 
#    0.000    0.500    0.000    6.250    0.000    0.000 
#
# Total GULP energy -356610.171822 kJ/mol
# GULP energy per Si atom -5572.033935 kJ/mol
# Density = 1.716757 g / cm^3
# Si number density = 17.206730 Si / 1000 Ang^3
#
#
#
# Elastic Constant Matrix: (Units=GPa)
#
#
# Indices 1 2 3 4 5 6 
#
# 1 30.7418 -8.9890 2.3989 0.0000 0.0000 0.0000
# 2 -8.9890 86.0822 66.2745 0.0000 0.0000 0.0000
# 3 2.3989 66.2745 164.4356 0.0000 0.0000 0.0000
# 4 0.0000 0.0000 0.0000 23.3400 0.0000 0.0000
# 5 0.0000 0.0000 0.0000 0.0000 10.6699 0.0000
# 6 0.0000 0.0000 0.0000 0.0000 0.0000 19.9175
#
#
#
# Elastic Compliance Matrix: (Units=1/GPa)
#
#
# Indices 1 2 3 4 5 6 
#
# 1 0.034439 0.005775 -0.002830 0.000000 0.000000 0.000000
# 2 0.005775 0.017812 -0.007263 0.000000 0.000000 0.000000
# 3 -0.002830 -0.007263 0.009050 0.000000 0.000000 0.000000
# 4 0.000000 0.000000 0.000000 0.042845 0.000000 0.000000
# 5 0.000000 0.000000 0.000000 0.000000 0.093722 0.000000
# 6 0.000000 0.000000 0.000000 0.000000 0.000000 0.050207
#
#
# Mechanical properties :
#
#
# Convention : Reuss Voigt Hill
#
# Bulk Modulus (GPa) = 18.98829 44.51425 31.75127
# Shear Modulus (GPa) = 18.23057 25.55717 21.89387
#
# Velocity S-wave (km/s) = 3.25853 3.85814 3.57094
# Velocity P-wave (km/s) = 5.02162 6.76561 5.95777
#
# Compressibility (1/GPa) = 0.05266402
#
# Stress axis : x y z
#
# Youngs Moduli (GPa) = 29.03727 56.14291 110.49690
#
# Poissons Ratio (x) = -0.32422 0.31270
# Poissons Ratio (y) = -0.16769 0.80255
# Poissons Ratio (z) = 0.08217 0.40777
#
# Static dielectric constant tensor:
#      x y z
#    x 1.663800 0.000000 0.000000 
#    y 0.000000 1.557980 0.000000 
#    z 0.000000 0.000000 1.633840 
# 
# From -- ./inp_files/12929.got.cif
#   From: 2010.05.17/outbox.cif.g08.bks.cpg/sg47_7_cif.got.tgz:12929.got - 2010.06.03 20:15:42.
