data_PCOD9381706
_publ_section_title
;
Structure prediction by ZEFSAII (Michael W. Deem and Ramdas Pophale) SiO2 
 PCOD9381706
Probable space group: P M M M
;
_chemical_formula_sum "Si O2"
_cell_formula_units_Z 52
_cell_length_a 18.803365
_cell_length_b 17.544510
_cell_length_c 7.661796
_cell_angle_alpha 90.000000
_cell_angle_beta 90.000000
_cell_angle_gamma 90.000000
_cell_volume 2527.594515
_symmetry_space_group_name_H-M "P M M M"
_symmetry_group_IT_number 47
_symmetry_cell_setting 'orthorhombic'
loop_
_space_group_symop_operation_xyz
x,y,z
-x,-y,z
x,-y,-z
-x,y,-z
-x,-y,-z
x,y,-z
-x,y,z
x,-y,z
loop_
_atom_site_type_symbol
_atom_site_label
_atom_site_fract_x
_atom_site_fract_y
_atom_site_fract_z
Si Si1 0.422225 0.323109 0.794929
Si Si2 0.715886 0.588310 0.213877
Si Si3 0.000000 0.411588 0.785935
Si Si4 0.818657 0.000000 0.698420
Si Si5 0.858055 0.327188 0.208913
Si Si6 0.806575 0.836290 0.289707
Si Si7 0.656765 0.000000 0.203310
Si Si8 0.642617 0.834581 0.291957
O O1 0.500000 0.339120 0.718486
O O2 0.355283 0.369697 0.722492
O O3 0.404163 0.233750 0.780303
O O4 0.425338 0.342244 0.000000
O O5 0.717484 0.500000 0.263462
O O6 0.786313 0.632247 0.275038
O O7 0.716073 0.591363 0.000000
O O8 0.929180 0.367961 0.726145
O O9 0.000000 0.500000 0.733495
O O10 0.000000 0.410777 0.000000
O O11 0.835637 0.082442 0.778178
O O12 0.846282 0.000000 0.500000
O O13 0.731959 0.000000 0.694799
O O14 0.851820 0.237673 0.246058
O O15 0.858042 0.336501 0.000000
O O16 0.802858 0.842870 0.500000
O O17 0.724706 0.825736 0.227796
O O18 0.619204 0.079628 0.245928
O O19 0.674771 0.000000 0.000000
O O20 0.642880 0.827231 0.500000
#
# Coordination Sequence:
#
# PCOD9381706 Si02
#       8
#     8   8   4   4   8   8   4   8
#     4  10  20  33  50  74 103 132 168 217 265 307
#     4   9  17  30  50  75 101 130 166 209 258 311
#     4   9  18  32  51  78 109 138 170 213 261 307
#     4   8  16  30  46  72 106 140 174 210 253 303
#     4  10  18  30  52  78 104 134 172 211 253 307
#     4   9  17  30  50  74 102 134 170 211 253 299
#     4  10  18  28  49  77 105 133 169 217 262 305
#     4  10  19  33  51  72 102 139 176 212 256 311
#
# _framework density 20.57292
#
# number of rings (size 3 to 8) (size 9 to 14) (size 15 to 20)
#    0.000    2.538    1.538    2.538    0.000    4.923 
#    0.000    2.308    0.000    6.462    0.000    4.308 
#    0.000    0.000    0.000    0.000    0.000    0.000 
#
# Total GULP energy -290127.416660 kJ/mol
# GULP energy per Si atom -5579.373397 kJ/mol
# Density = 2.052609 g / cm^3
# Si number density = 20.572920 Si / 1000 Ang^3
#
#
#
# Elastic Constant Matrix: (Units=GPa)
#
#
# Indices 1 2 3 4 5 6 
#
# 1 139.0054 97.4508 8.1901 0.0000 0.0000 0.0000
# 2 97.4508 177.1118 -8.1093 0.0000 0.0000 0.0000
# 3 8.1901 -8.1093 43.8628 0.0000 0.0000 0.0000
# 4 0.0000 0.0000 0.0000 33.8554 0.0000 0.0000
# 5 0.0000 0.0000 0.0000 0.0000 2.0376 0.0000
# 6 0.0000 0.0000 0.0000 0.0000 0.0000 0.0352
#
#
#
# Elastic Compliance Matrix: (Units=1/GPa)
#
#
# Indices 1 2 3 4 5 6 
#
# 1 0.012239 -0.006897 -0.003560 0.000000 0.000000 0.000000
# 2 -0.006897 0.009581 0.003059 0.000000 0.000000 0.000000
# 3 -0.003560 0.003059 0.024029 0.000000 0.000000 0.000000
# 4 0.000000 0.000000 0.000000 0.029537 0.000000 0.000000
# 5 0.000000 0.000000 0.000000 0.000000 0.490772 0.000000
# 6 0.000000 0.000000 0.000000 0.000000 0.000000 28.434106
#
#
# Mechanical properties :
#
#
# Convention : Reuss Voigt Hill
#
# Bulk Modulus (GPa) = 32.20390 61.67148 46.93769
# Shear Modulus (GPa) = 0.17226 24.68220 12.42723
#
# Velocity S-wave (km/s) = 0.28968 3.46749 2.46042
# Velocity P-wave (km/s) = 3.97485 6.78774 5.56205
#
# Compressibility (1/GPa) = 0.03105214
#
# Stress axis : x y z
#
# Youngs Moduli (GPa) = 81.70516 104.37055 41.61683
#
# Poissons Ratio (x) = 0.71987 0.14818
# Poissons Ratio (y) = 0.56354 -0.12732
# Poissons Ratio (z) = 0.29091 -0.31929
#
# Static dielectric constant tensor:
#      x y z
#    x 1.718690 0.000000 0.000000 
#    y 0.000000 1.740520 0.000000 
#    z 0.000000 0.000000 1.769320 
# 
# From -- ./inp_files/9644.got.cif
#   From: 2010.05.17/outbox.cif.g08.bks.cpg/sg47_5_cif.got.tgz:9644.got - 2010.06.03 20:15:42.
