data_PCOD9381104
_publ_section_title
;
Structure prediction by ZEFSAII (Michael W. Deem and Ramdas Pophale) SiO2 
 PCOD9381104
Probable space group: I M A 2
;
_chemical_formula_sum "Si O2"
_cell_formula_units_Z 24
_cell_length_a 9.000000
_cell_length_b 15.000000
_cell_length_c 18.000000
_cell_angle_alpha 90.000000
_cell_angle_beta 90.000000
_cell_angle_gamma 90.000000
_cell_volume 2430.000000
_symmetry_space_group_name_H-M "I M A 2"
_symmetry_group_IT_number 46
_symmetry_cell_setting 'orthorhombic'
loop_
_space_group_symop_operation_xyz
x,y,z
-x,-y,z
1/2-x,y,z
1/2+x,-y,z
1/2+x,1/2+y,1/2+z
1/2-x,1/2-y,1/2+z
-x,1/2+y,1/2+z
x,1/2-y,1/2+z
loop_
_atom_site_type_symbol
_atom_site_label
_atom_site_fract_x
_atom_site_fract_y
_atom_site_fract_z
Si Si1 0.430191 0.220636 0.516740
Si Si2 0.429488 0.407839 0.145370
Si Si3 0.427899 0.592228 0.734866
Si Si4 0.070865 0.408888 0.572397
Si Si5 0.425985 0.089775 0.817016
Si Si6 0.428001 0.288523 0.856770
O O1 0.250000 0.219174 0.516703
O O2 0.480268 0.168755 0.589712
O O3 0.471780 0.323440 0.524694
O O4 0.474263 0.178416 0.438386
O O5 0.500000 0.500000 0.119599
O O6 0.250000 0.411798 0.143615
O O7 0.474284 0.395554 0.231090
O O8 0.500000 0.500000 0.763263
O O9 0.250000 0.585702 0.728259
O O10 0.503493 0.606010 0.654593
O O11 0.479530 0.667661 0.791428
O O12 0.250000 0.416011 0.576886
O O13 0.000000 0.500000 0.543862
O O14 0.250000 0.074755 0.816917
O O15 0.453022 0.182470 0.857209
O O16 0.500000 0.000000 0.845996
O O17 0.250000 0.303090 0.844685
#
# Coordination Sequence:
#
# PCOD9381104 Si02
#       6
#     8   8   8   8   8   8
#     4   9  19  34  54  77 106 141 174 208 260 321
#     4   9  17  32  51  73  97 128 168 209 249 297
#     4  11  22  37  57  81 106 139 181 228 274 321
#     4  10  19  35  57  81 107 140 180 223 267 318
#     4   9  18  32  53  76 102 135 172 212 256 303
#     4  10  20  36  55  78 108 143 177 216 267 324
#
# _framework density 9.8765429999999999
#
# number of rings (size 3 to 8) (size 9 to 14) (size 15 to 20)
#    0.000    2.333    0.000    4.000    0.000    4.667 
#    0.000    9.167    0.000    0.000    0.000    0.000 
#    0.000    0.000    0.000    0.000    0.000    0.000 
#
# Total GULP energy -133854.603918 kJ/mol
# GULP energy per Si atom -5577.275163 kJ/mol
# Density = 0.985406 g / cm^3
# Si number density = 9.876543 Si / 1000 Ang^3
#
#
#
# Elastic Constant Matrix: (Units=GPa)
#
#
# Indices 1 2 3 4 5 6 
#
# 1 55.3956 23.1366 16.4506 0.0000 0.0000 0.0000
# 2 23.1366 64.5955 29.9293 0.0000 0.0000 0.0000
# 3 16.4506 29.9293 51.6329 0.0000 0.0000 0.0000
# 4 0.0000 0.0000 0.0000 -427.0035 0.0000 0.0000
# 5 0.0000 0.0000 0.0000 0.0000 -5.0232 0.0000
# 6 0.0000 0.0000 0.0000 0.0000 0.0000 32.4896
#
#
#
# Elastic Compliance Matrix: (Units=1/GPa)
#
#
# Indices 1 2 3 4 5 6 
#
# 1 0.021627 -0.006226 -0.003282 0.000000 0.000000 0.000000
# 2 -0.006226 0.022958 -0.011324 0.000000 0.000000 0.000000
# 3 -0.003282 -0.011324 0.026977 0.000000 0.000000 0.000000
# 4 0.000000 0.000000 0.000000 -0.002342 0.000000 0.000000
# 5 0.000000 0.000000 0.000000 0.000000 -0.199074 0.000000
# 6 0.000000 0.000000 0.000000 0.000000 0.000000 0.030779
#
#
# Mechanical properties :
#
#
# Convention : Reuss Voigt Hill
#
# Bulk Modulus (GPa) = 33.44617 34.51743 33.98180
# Shear Modulus (GPa) = -105.38057 -73.10025 -89.24041
#
# Velocity S-wave (km/s) = -7.31196 -6.08994 -6.72875
# Velocity P-wave (km/s) = 7.37004 5.65132 6.56715
#
# Compressibility (1/GPa) = 0.02989879
#
# Stress axis : x y z
#
# Youngs Moduli (GPa) = 46.23909 43.55858 37.06852
#
# Poissons Ratio (x) = 0.27118 0.12165
# Poissons Ratio (y) = 0.28787 0.41976
# Poissons Ratio (z) = 0.15174 0.49326
#
# Static dielectric constant tensor:
#      x y z
#    x 1.657090 0.000000 0.000000 
#    y 0.000000 1.722000 0.000000 
#    z 0.000000 0.000000 1.712970 
# 
# From -- ./inp_files/18168.got.cif
#   From: 2010.05.17/outbox.ucp.g08.bks.cvg/sg46_10_cif.got.tgz:18168.got - 2010.06.11 16:34:52.
