data_PCOD9381197
_publ_section_title
;
Structure prediction by ZEFSAII (Michael W. Deem and Ramdas Pophale) SiO2 
 PCOD9381197
Probable space group: P M M M
;
_chemical_formula_sum "Si O2"
_cell_formula_units_Z 64
_cell_length_a 14.943839
_cell_length_b 30.319128
_cell_length_c 7.356957
_cell_angle_alpha 90.000000
_cell_angle_beta 90.000000
_cell_angle_gamma 90.000000
_cell_volume 3333.320737
_symmetry_space_group_name_H-M "P M M M"
_symmetry_group_IT_number 47
_symmetry_cell_setting 'orthorhombic'
loop_
_space_group_symop_operation_xyz
x,y,z
-x,-y,z
x,-y,-z
-x,y,-z
-x,-y,-z
x,y,-z
-x,y,z
x,-y,z
loop_
_atom_site_type_symbol
_atom_site_label
_atom_site_fract_x
_atom_site_fract_y
_atom_site_fract_z
Si Si1 0.727466 0.222885 0.209282
Si Si2 0.102723 0.728963 0.222201
Si Si3 0.396048 0.855656 0.777430
Si Si4 0.601526 0.595137 0.280766
Si Si5 0.393352 0.952624 0.781036
Si Si6 0.896287 0.629630 0.779123
Si Si7 0.780374 0.451502 0.787839
Si Si8 0.396712 0.694932 0.719369
O O1 0.823480 0.236501 0.287608
O O2 0.667933 0.183435 0.287524
O O3 0.668134 0.267267 0.212191
O O4 0.743850 0.210419 0.000000
O O5 0.128411 0.679136 0.279887
O O6 0.000000 0.737180 0.275771
O O7 0.104343 0.729063 0.000000
O O8 0.500000 0.849363 0.722322
O O9 0.362836 0.904340 0.719394
O O10 0.397496 0.855117 0.000000
O O11 0.600604 0.595448 0.500000
O O12 0.500000 0.585932 0.220641
O O13 0.676081 0.560856 0.222283
O O14 0.626239 0.645054 0.221703
O O15 0.500000 0.952699 0.744869
O O16 0.357417 0.000000 0.714172
O O17 0.383267 0.952958 0.000000
O O18 0.834730 0.590035 0.710736
O O19 0.000000 0.622197 0.731242
O O20 0.891331 0.630296 0.000000
O O21 0.797343 0.500000 0.709425
O O22 0.805319 0.453662 0.000000
O O23 0.393389 0.695748 0.500000
O O24 0.500000 0.703384 0.772513
#
# Coordination Sequence:
#
# PCOD9381197 Si02
#       8
#     8   8   8   8   8   8   8   8
#     4  10  17  24  39  61  83 106 130 160 200 239
#     4   8  14  24  38  57  79 102 129 159 190 228
#     4   8  13  19  27  46  76 102 127 162 198 232
#     4   9  19  35  50  61  77 107 142 165 183 218
#     4   7   9  14  24  37  59  96 133 160 192 231
#     4   8  14  26  43  61  82 106 128 151 184 230
#     4  10  20  31  45  68  90 102 120 157 200 234
#     4   9  18  31  44  59  81 107 133 160 189 225
#
# _framework density 19.200071999999999
#
# number of rings (size 3 to 8) (size 9 to 14) (size 15 to 20)
#    0.000    3.375    0.000    3.750    0.000    3.250 
#    0.000    3.750    0.000    0.750    0.000    4.375 
#    0.000    1.000    0.000   11.625    0.000    4.000 
#
# Total GULP energy -356824.560973 kJ/mol
# GULP energy per Si atom -5575.383765 kJ/mol
# Density = 1.915637 g / cm^3
# Si number density = 19.200072 Si / 1000 Ang^3
#
#
#
# Elastic Constant Matrix: (Units=GPa)
#
#
# Indices 1 2 3 4 5 6 
#
# 1 83.5699 84.6465 1.2358 0.0000 0.0000 0.0000
# 2 84.6465 140.0115 6.3815 0.0000 0.0000 0.0000
# 3 1.2358 6.3815 69.4164 0.0000 0.0000 0.0000
# 4 0.0000 0.0000 0.0000 198.7097 0.0000 0.0000
# 5 0.0000 0.0000 0.0000 0.0000 11.6325 0.0000
# 6 0.0000 0.0000 0.0000 0.0000 0.0000 18.9907
#
#
#
# Elastic Compliance Matrix: (Units=1/GPa)
#
#
# Indices 1 2 3 4 5 6 
#
# 1 0.030964 -0.018773 0.001175 0.000000 0.000000 0.000000
# 2 -0.018773 0.018555 -0.001371 0.000000 0.000000 0.000000
# 3 0.001175 -0.001371 0.014511 0.000000 0.000000 0.000000
# 4 0.000000 0.000000 0.000000 0.005032 0.000000 0.000000
# 5 0.000000 0.000000 0.000000 0.000000 0.085966 0.000000
# 6 0.000000 0.000000 0.000000 0.000000 0.000000 0.052657
#
#
# Mechanical properties :
#
#
# Convention : Reuss Voigt Hill
#
# Bulk Modulus (GPa) = 38.33045 53.05838 45.69441
# Shear Modulus (GPa) = 19.66012 59.24884 39.45448
#
# Velocity S-wave (km/s) = 3.20341 5.56108 4.53803
# Velocity P-wave (km/s) = 5.80427 8.30233 7.16304
#
# Compressibility (1/GPa) = 0.02608892
#
# Stress axis : x y z
#
# Youngs Moduli (GPa) = 32.29580 53.89526 68.91326
#
# Poissons Ratio (x) = 1.01179 -0.08094
# Poissons Ratio (y) = 0.60630 0.09451
# Poissons Ratio (z) = -0.03793 0.07392
#
# Static dielectric constant tensor:
#      x y z
#    x 1.648840 0.000000 0.000000 
#    y 0.000000 1.691330 0.000000 
#    z 0.000000 0.000000 1.746740 
# 
# From -- ./inp_files/8337.got.cif
#   From: 2010.05.17/outbox.cif.g08.bks.cpg/sg47_5_cif.got.tgz:8337.got - 2010.06.03 20:15:42.
