data_PCOD9381286
_publ_section_title
;
Structure prediction by ZEFSAII (Michael W. Deem and Ramdas Pophale) SiO2 
 PCOD9381286
Probable space group: P M M M
;
_chemical_formula_sum "Si O2"
_cell_formula_units_Z 40
_cell_length_a 7.607485
_cell_length_b 25.228857
_cell_length_c 13.128021
_cell_angle_alpha 90.000000
_cell_angle_beta 90.000000
_cell_angle_gamma 90.000000
_cell_volume 2519.636799
_symmetry_space_group_name_H-M "P M M M"
_symmetry_group_IT_number 47
_symmetry_cell_setting 'orthorhombic'
loop_
_space_group_symop_operation_xyz
x,y,z
-x,-y,z
x,-y,-z
-x,y,-z
-x,-y,-z
x,y,-z
-x,y,z
x,-y,z
loop_
_atom_site_type_symbol
_atom_site_label
_atom_site_fract_x
_atom_site_fract_y
_atom_site_fract_z
Si Si1 0.214429 0.258767 0.381659
Si Si2 0.798004 0.858349 0.375940
Si Si3 0.711559 0.440229 0.884792
Si Si4 0.215559 0.561046 0.500000
Si Si5 0.790826 0.629788 0.307598
Si Si6 0.500000 0.939247 0.624203
O O1 0.265894 0.266118 0.500000
O O2 0.268736 0.200288 0.345588
O O3 0.275656 0.310134 0.319981
O O4 0.000000 0.256886 0.380640
O O5 0.798883 0.857123 0.500000
O O6 0.670317 0.905491 0.344060
O O7 0.000000 0.865823 0.343335
O O8 0.500000 0.441886 0.887537
O O9 0.772888 0.500000 0.857796
O O10 0.761004 0.398058 0.799874
O O11 0.772483 0.428335 0.000000
O O12 0.272270 0.500000 0.500000
O O13 0.275113 0.592448 0.600637
O O14 0.000000 0.560665 0.500000
O O15 0.000000 0.633230 0.322924
O O16 0.500000 0.940124 0.500000
O O17 0.500000 0.000000 0.658728
#
# Coordination Sequence:
#
# PCOD9381286 Si02
#       6
#     8   8   8   4   8   4
#     4   8  13  24  40  57  80 107 132 161 204 255
#     4   8  14  24  37  51  72 106 140 171 210 251
#     4   9  19  35  48  56  75 108 140 173 216 262
#     4   9  16  24  37  61  89 109 123 156 216 267
#     4  10  17  27  45  66  83 102 134 173 211 255
#     4   9  16  24  34  52  76 102 139 184 215 237
#
# _framework density 15.875303000000001
#
# number of rings (size 3 to 8) (size 9 to 14) (size 15 to 20)
#    0.000    3.200    1.000    2.400    0.000    2.000 
#    1.800    3.500    0.000    1.800    0.000    0.000 
#    0.000    0.000    0.000    0.000    0.000    2.000 
#
# Total GULP energy -222796.708178 kJ/mol
# GULP energy per Si atom -5569.917704 kJ/mol
# Density = 1.583917 g / cm^3
# Si number density = 15.875303 Si / 1000 Ang^3
#
#
#
# Elastic Constant Matrix: (Units=GPa)
#
#
# Indices 1 2 3 4 5 6 
#
# 1 47.4750 42.3218 7.8302 0.0000 0.0000 0.0000
# 2 42.3218 183.0294 54.9382 0.0000 0.0000 0.0000
# 3 7.8302 54.9382 49.8034 0.0000 0.0000 0.0000
# 4 0.0000 0.0000 0.0000 10.9591 0.0000 0.0000
# 5 0.0000 0.0000 0.0000 0.0000 16.4721 0.0000
# 6 0.0000 0.0000 0.0000 0.0000 0.0000 36.6801
#
#
#
# Elastic Compliance Matrix: (Units=1/GPa)
#
#
# Indices 1 2 3 4 5 6 
#
# 1 0.027044 -0.007441 0.003956 0.000000 0.000000 0.000000
# 2 -0.007441 0.010215 -0.010099 0.000000 0.000000 0.000000
# 3 0.003956 -0.010099 0.030597 0.000000 0.000000 0.000000
# 4 0.000000 0.000000 0.000000 0.091249 0.000000 0.000000
# 5 0.000000 0.000000 0.000000 0.000000 0.060709 0.000000
# 6 0.000000 0.000000 0.000000 0.000000 0.000000 0.027263
#
#
# Mechanical properties :
#
#
# Convention : Reuss Voigt Hill
#
# Bulk Modulus (GPa) = 24.57624 54.49869 39.53746
# Shear Modulus (GPa) = 17.37271 24.50342 20.93806
#
# Velocity S-wave (km/s) = 3.31164 3.93299 3.63562
# Velocity P-wave (km/s) = 5.48972 7.41811 6.52554
#
# Compressibility (1/GPa) = 0.04068971
#
# Stress axis : x y z
#
# Youngs Moduli (GPa) = 36.97611 97.89111 32.68298
#
# Poissons Ratio (x) = 0.72840 -0.12930
# Poissons Ratio (y) = 0.27514 0.33006
# Poissons Ratio (z) = -0.14628 0.98858
#
# Static dielectric constant tensor:
#      x y z
#    x 1.594120 0.000000 0.000000 
#    y 0.000000 1.553120 0.000000 
#    z 0.000000 0.000000 1.496520 
# 
# From -- ./inp_files/21260.got.cif
#   From: 2010.05.17/outbox.cif.g08.bks.cpg/sg47_11_cif.got.tgz:21260.got - 2010.06.03 20:15:42.
