data_PCOD9381387
_publ_section_title
;
Structure prediction by ZEFSAII (Michael W. Deem and Ramdas Pophale) SiO2 
 PCOD9381387
Probable space group: P M M M
;
_chemical_formula_sum "Si O2"
_cell_formula_units_Z 45
_cell_length_a 12.281246
_cell_length_b 7.400233
_cell_length_c 24.219722
_cell_angle_alpha 90.000000
_cell_angle_beta 90.000000
_cell_angle_gamma 90.000000
_cell_volume 2201.187199
_symmetry_space_group_name_H-M "P M M M"
_symmetry_group_IT_number 47
_symmetry_cell_setting 'orthorhombic'
loop_
_space_group_symop_operation_xyz
x,y,z
-x,-y,z
x,-y,-z
-x,y,-z
-x,-y,-z
x,y,-z
-x,y,z
x,-y,z
loop_
_atom_site_type_symbol
_atom_site_label
_atom_site_fract_x
_atom_site_fract_y
_atom_site_fract_z
Si Si1 0.801759 0.779126 0.500000
Si Si2 0.500000 0.710431 0.657085
Si Si3 0.374434 0.779286 0.063122
Si Si4 0.872386 0.221171 0.273523
Si Si5 0.000000 0.500000 0.500000
Si Si6 0.735671 0.205197 0.168754
Si Si7 0.737787 0.794723 0.620655
Si Si8 0.500000 0.288184 0.211855
O O1 0.908364 0.659993 0.500000
O O2 0.746501 0.726700 0.558207
O O3 0.815296 0.000000 0.500000
O O4 0.500000 0.500000 0.641844
O O5 0.611908 0.792115 0.636345
O O6 0.500000 0.726096 0.722645
O O7 0.500000 0.725263 0.076178
O O8 0.286688 0.714069 0.108028
O O9 0.374002 0.000000 0.065108
O O10 0.352211 0.726526 0.000000
O O11 0.811103 0.283787 0.217414
O O12 0.808263 0.286187 0.328581
O O13 0.000000 0.269662 0.274860
O O14 0.865792 0.000000 0.272812
O O15 0.611957 0.203116 0.191373
O O16 0.775080 0.000000 0.160504
O O17 0.778375 0.000000 0.617988
O O18 0.500000 0.500000 0.196891
#
# Coordination Sequence:
#
# PCOD9381387 Si02
#       8
#     4   4   8   8   1   8   8   4
#     4  10  25  44  64  95 122 155 204 248 291 346
#     4  11  23  36  56  82 117 147 180 223 279 352
#     4   8  13  21  38  68 100 127 163 214 262 309
#     4   9  18  31  51  78 103 132 175 229 273 312
#     4  12  26  44  72  88 120 168 202 248 292 346
#     4  10  17  29  51  72  96 133 179 215 255 326
#     4  10  21  39  61  83 113 147 186 233 281 337
#     4  11  21  31  45  75 111 139 165 219 272 319
#
# _framework density 20.443512999999999
#
# number of rings (size 3 to 8) (size 9 to 14) (size 15 to 20)
#    0.000    2.311    2.667    1.200    2.489    1.067 
#    0.000    1.778    0.000    3.200    0.000    3.733 
#    0.000    0.000    0.000    1.600    0.000    1.778 
#
# Total GULP energy -250521.190787 kJ/mol
# GULP energy per Si atom -5567.137573 kJ/mol
# Density = 2.039698 g / cm^3
# Si number density = 20.443513 Si / 1000 Ang^3
#
#
#
# Elastic Constant Matrix: (Units=GPa)
#
#
# Indices 1 2 3 4 5 6 
#
# 1 115.5589 -4.4149 79.8515 0.0000 0.0000 0.0000
# 2 -4.4149 59.2673 24.0119 0.0000 0.0000 0.0000
# 3 79.8515 24.0119 184.5523 0.0000 0.0000 0.0000
# 4 0.0000 0.0000 0.0000 -8.2662 0.0000 0.0000
# 5 0.0000 0.0000 0.0000 0.0000 -29.1939 0.0000
# 6 0.0000 0.0000 0.0000 0.0000 0.0000 -145.6354
#
#
#
# Elastic Compliance Matrix: (Units=1/GPa)
#
#
# Indices 1 2 3 4 5 6 
#
# 1 0.012969 0.003420 -0.006056 0.000000 0.000000 0.000000
# 2 0.003420 0.018713 -0.003914 0.000000 0.000000 0.000000
# 3 -0.006056 -0.003914 0.008548 0.000000 0.000000 0.000000
# 4 0.000000 0.000000 0.000000 -0.120974 0.000000 0.000000
# 5 0.000000 0.000000 0.000000 0.000000 -0.034254 0.000000
# 6 0.000000 0.000000 0.000000 0.000000 0.000000 -0.006866
#
#
# Mechanical properties :
#
#
# Convention : Reuss Voigt Hill
#
# Bulk Modulus (GPa) = 36.86117 62.03062 49.44589
# Shear Modulus (GPa) = -50.14127 -19.29044 -34.71585
#
# Velocity S-wave (km/s) = -4.95782 -3.07513 -4.12531
# Velocity P-wave (km/s) = 3.83450 4.21897 1.24424
#
# Compressibility (1/GPa) = 0.02712882
#
# Stress axis : x y z
#
# Youngs Moduli (GPa) = 77.10534 53.43768 116.98215
#
# Poissons Ratio (x) = -0.18275 0.70850
# Poissons Ratio (y) = -0.26369 0.45792
# Poissons Ratio (z) = 0.46698 0.20918
#
# Static dielectric constant tensor:
#      x y z
#    x 1.693140 0.000000 0.000000 
#    y 0.000000 1.790680 0.000000 
#    z 0.000000 0.000000 1.746460 
# 
# From -- ./inp_files/32418.got.cif
#   From: 2010.05.17/outbox.cif.g08.bks.cpg/sg47_17_cif.got.tgz:32418.got - 2010.06.03 20:15:42.
