data_PCOD9381999
_publ_section_title
;
Structure prediction by ZEFSAII (Michael W. Deem and Ramdas Pophale) SiO2 
 PCOD9381999
Probable space group: P M M M
;
_chemical_formula_sum "Si O2"
_cell_formula_units_Z 64
_cell_length_a 14.660754
_cell_length_b 9.449790
_cell_length_c 31.978695
_cell_angle_alpha 90.000000
_cell_angle_beta 90.000000
_cell_angle_gamma 90.000000
_cell_volume 4430.361872
_symmetry_space_group_name_H-M "P M M M"
_symmetry_group_IT_number 47
_symmetry_cell_setting 'orthorhombic'
loop_
_space_group_symop_operation_xyz
x,y,z
-x,-y,z
x,-y,-z
-x,y,-z
-x,-y,-z
x,y,-z
-x,y,z
x,-y,z
loop_
_atom_site_type_symbol
_atom_site_label
_atom_site_fract_x
_atom_site_fract_y
_atom_site_fract_z
Si Si1 0.781019 0.332180 0.452904
Si Si2 0.207709 0.170449 0.294643
Si Si3 0.889026 0.336553 0.873501
Si Si4 0.891831 0.670302 0.220194
Si Si5 0.110812 0.165330 0.046040
Si Si6 0.604649 0.168284 0.428136
Si Si7 0.891519 0.833104 0.617496
Si Si8 0.600151 0.170722 0.328666
O O1 0.816798 0.309524 0.500000
O O2 0.774735 0.500000 0.445511
O O3 0.681426 0.260831 0.449771
O O4 0.843524 0.258385 0.418184
O O5 0.163178 0.249239 0.255734
O O6 0.151239 0.199277 0.337154
O O7 0.311501 0.218890 0.303489
O O8 0.206235 0.000000 0.288364
O O9 0.862173 0.500000 0.878176
O O10 0.862786 0.287139 0.826970
O O11 0.856270 0.248238 0.913260
O O12 0.000000 0.333094 0.873655
O O13 0.881199 0.500000 0.223356
O O14 0.000000 0.700319 0.224766
O O15 0.000000 0.173334 0.046351
O O16 0.134400 0.000000 0.049087
O O17 0.140147 0.218372 0.000000
O O18 0.500000 0.197677 0.440772
O O19 0.611871 0.196924 0.378229
O O20 0.620805 0.000000 0.434472
O O21 0.000000 0.811275 0.618189
O O22 0.873338 0.000000 0.609438
O O23 0.500000 0.224595 0.315870
O O24 0.598526 0.000000 0.324856
#
# Coordination Sequence:
#
# PCOD9381999 Si02
#       8
#     8   8   8   8   8   8   8   8
#     4  11  24  38  51  70  97 124 146 173 212 258
#     4  10  18  30  50  72  90 108 137 176 212 251
#     4   8  14  24  35  47  68 101 140 178 212 249
#     4   9  18  30  41  57  85 118 148 179 217 257
#     4   8  13  20  30  46  68  94 128 174 224 264
#     4   9  17  33  57  78  95 118 146 174 207 250
#     4  10  21  37  55  73  91 112 145 188 222 251
#     4   8  14  27  49  73  93 111 132 164 206 248
#
# _framework density 14.445773000000001
#
# number of rings (size 3 to 8) (size 9 to 14) (size 15 to 20)
#    0.000    2.875    1.250    2.625    0.000    4.000 
#    0.000    5.000    0.000    0.375    0.000    0.000 
#    0.000    0.000    0.000    0.000    0.000    0.625 
#
# Total GULP energy -356431.066444 kJ/mol
# GULP energy per Si atom -5569.235413 kJ/mol
# Density = 1.441289 g / cm^3
# Si number density = 14.445773 Si / 1000 Ang^3
#
#
#
# Elastic Constant Matrix: (Units=GPa)
#
#
# Indices 1 2 3 4 5 6 
#
# 1 62.2544 33.6285 54.2658 0.0000 0.0000 0.0000
# 2 33.6285 42.1019 61.4693 0.0000 0.0000 0.0000
# 3 54.2658 61.4693 134.2396 0.0000 0.0000 0.0000
# 4 0.0000 0.0000 0.0000 28.7066 0.0000 0.0000
# 5 0.0000 0.0000 0.0000 0.0000 1.1146 0.0000
# 6 0.0000 0.0000 0.0000 0.0000 0.0000 12.4812
#
#
#
# Elastic Compliance Matrix: (Units=1/GPa)
#
#
# Indices 1 2 3 4 5 6 
#
# 1 0.028741 -0.018083 -0.003338 0.000000 0.000000 0.000000
# 2 -0.018083 0.083038 -0.030714 0.000000 0.000000 0.000000
# 3 -0.003338 -0.030714 0.022863 0.000000 0.000000 0.000000
# 4 0.000000 0.000000 0.000000 0.034835 0.000000 0.000000
# 5 0.000000 0.000000 0.000000 0.000000 0.897169 0.000000
# 6 0.000000 0.000000 0.000000 0.000000 0.000000 0.080121
#
#
# Mechanical properties :
#
#
# Convention : Reuss Voigt Hill
#
# Bulk Modulus (GPa) = 32.92480 59.70258 46.31369
# Shear Modulus (GPa) = 3.96460 14.40930 9.18695
#
# Velocity S-wave (km/s) = 1.65844 3.16171 2.52456
# Velocity P-wave (km/s) = 5.14866 7.39912 6.37400
#
# Compressibility (1/GPa) = 0.03037225
#
# Stress axis : x y z
#
# Youngs Moduli (GPa) = 34.79376 12.04268 43.73898
#
# Poissons Ratio (x) = 0.21776 0.14601
# Poissons Ratio (y) = 0.62917 1.34339
# Poissons Ratio (z) = 0.11615 0.36988
#
# Static dielectric constant tensor:
#      x y z
#    x 1.472640 0.000000 0.000000 
#    y 0.000000 1.475000 0.000000 
#    z 0.000000 0.000000 1.481560 
# 
# From -- ./inp_files/34684.got.cif
#   From: 2010.05.17/outbox.cif.g08.bks.cpg/sg47_18_cif.got.tgz:34684.got - 2010.06.03 20:15:42.
