data_PCOD9381409
_publ_section_title
;
Structure prediction by ZEFSAII (Michael W. Deem and Ramdas Pophale) SiO2 
 PCOD9381409
Probable space group: P M M M
;
_chemical_formula_sum "Si O2"
_cell_formula_units_Z 64
_cell_length_a 18.253010
_cell_length_b 13.030073
_cell_length_c 15.160136
_cell_angle_alpha 90.000000
_cell_angle_beta 90.000000
_cell_angle_gamma 90.000000
_cell_volume 3605.657226
_symmetry_space_group_name_H-M "P M M M"
_symmetry_group_IT_number 47
_symmetry_cell_setting 'orthorhombic'
loop_
_space_group_symop_operation_xyz
x,y,z
-x,-y,z
x,-y,-z
-x,y,-z
-x,-y,-z
x,y,-z
-x,y,z
x,-y,z
loop_
_atom_site_type_symbol
_atom_site_label
_atom_site_fract_x
_atom_site_fract_y
_atom_site_fract_z
Si Si1 0.621908 0.384823 0.289354
Si Si2 0.081216 0.623347 0.398324
Si Si3 0.260982 0.882053 0.597655
Si Si4 0.585646 0.114333 0.857653
Si Si5 0.419488 0.167132 0.650384
Si Si6 0.624564 0.663449 0.094449
Si Si7 0.795279 0.618002 0.901858
Si Si8 0.786506 0.297770 0.280995
O O1 0.608387 0.500000 0.320893
O O2 0.587696 0.290959 0.343389
O O3 0.593658 0.374409 0.187924
O O4 0.709838 0.361587 0.288118
O O5 0.090333 0.656193 0.500000
O O6 0.080788 0.500000 0.397748
O O7 0.148452 0.658869 0.340002
O O8 0.000000 0.657826 0.368182
O O9 0.237118 0.845125 0.500000
O O10 0.349217 0.874526 0.600658
O O11 0.232911 0.812380 0.677761
O O12 0.239134 0.000000 0.607684
O O13 0.500000 0.122146 0.883713
O O14 0.587526 0.127735 0.751639
O O15 0.626082 0.212596 0.897118
O O16 0.611935 0.000000 0.880951
O O17 0.500000 0.138509 0.617661
O O18 0.706969 0.621548 0.092269
O O19 0.589660 0.636768 0.000000
O O20 0.816820 0.500000 0.881295
O O21 0.811696 0.692458 0.820391
O O22 0.823174 0.644510 0.000000
#
# Coordination Sequence:
#
# PCOD9381409 Si02
#       8
#     8   8   8   8   8   8   8   8
#     4   9  17  28  44  65  84 110 151 191 231 282
#     4   9  17  28  45  74 108 137 166 199 235 280
#     4  10  21  34  49  72  97 122 158 204 250 291
#     4   9  17  28  40  53  72 103 143 185 231 283
#     4   9  18  31  46  63  84 113 150 191 234 284
#     4   9  16  25  37  55  79 104 136 183 234 282
#     4   9  17  29  47  71  95 120 154 194 234 279
#     4  10  17  30  51  70  95 131 165 196 237 288
#
# _framework density 17.749884999999999
#
# number of rings (size 3 to 8) (size 9 to 14) (size 15 to 20)
#    0.000    2.750    0.000    4.125    0.000    2.500 
#    0.000    1.250    0.000    7.125    0.000   14.000 
#    0.000    0.000    0.000    1.125    0.000    0.375 
#
# Total GULP energy -356523.192462 kJ/mol
# GULP energy per Si atom -5570.674882 kJ/mol
# Density = 1.770949 g / cm^3
# Si number density = 17.749885 Si / 1000 Ang^3
#
#
#
# Elastic Constant Matrix: (Units=GPa)
#
#
# Indices 1 2 3 4 5 6 
#
# 1 60.5242 8.1331 26.0502 0.0000 0.0000 0.0000
# 2 8.1331 93.1287 28.0542 0.0000 0.0000 0.0000
# 3 26.0502 28.0542 90.6646 0.0000 0.0000 0.0000
# 4 0.0000 0.0000 0.0000 20.5893 0.0000 0.0000
# 5 0.0000 0.0000 0.0000 0.0000 76.2890 0.0000
# 6 0.0000 0.0000 0.0000 0.0000 0.0000 7.6266
#
#
#
# Elastic Compliance Matrix: (Units=1/GPa)
#
#
# Indices 1 2 3 4 5 6 
#
# 1 0.018854 -0.000016 -0.005412 0.000000 0.000000 0.000000
# 2 -0.000016 0.011842 -0.003659 0.000000 0.000000 0.000000
# 3 -0.005412 -0.003659 0.013717 0.000000 0.000000 0.000000
# 4 0.000000 0.000000 0.000000 0.048569 0.000000 0.000000
# 5 0.000000 0.000000 0.000000 0.000000 0.013108 0.000000
# 6 0.000000 0.000000 0.000000 0.000000 0.000000 0.131120
#
#
# Mechanical properties :
#
#
# Convention : Reuss Voigt Hill
#
# Bulk Modulus (GPa) = 38.11423 40.97695 39.54559
# Shear Modulus (GPa) = 18.93003 33.03965 25.98484
#
# Velocity S-wave (km/s) = 3.26925 4.31908 3.83030
# Velocity P-wave (km/s) = 5.98082 6.92881 6.47220
#
# Compressibility (1/GPa) = 0.02623692
#
# Stress axis : x y z
#
# Youngs Moduli (GPa) = 53.03921 84.44779 72.90182
#
# Poissons Ratio (x) = 0.00137 0.39456
# Poissons Ratio (y) = 0.00086 0.26678
# Poissons Ratio (z) = 0.28706 0.30904
#
# Static dielectric constant tensor:
#      x y z
#    x 1.591380 0.000000 0.000000 
#    y 0.000000 1.620420 0.000000 
#    z 0.000000 0.000000 1.662560 
# 
# From -- ./inp_files/24697.got.cif
#   From: 2010.05.17/outbox.cif.g08.bks.cpg/sg47_13_cif.got.tgz:24697.got - 2010.06.03 20:15:42.
