data_PCOD9381672
_publ_section_title
;
Structure prediction by ZEFSAII (Michael W. Deem and Ramdas Pophale) SiO2 
 PCOD9381672
Probable space group: P M M M
;
_chemical_formula_sum "Si O2"
_cell_formula_units_Z 44
_cell_length_a 17.767595
_cell_length_b 8.024897
_cell_length_c 18.143440
_cell_angle_alpha 90.000000
_cell_angle_beta 90.000000
_cell_angle_gamma 90.000000
_cell_volume 2586.948279
_symmetry_space_group_name_H-M "P M M M"
_symmetry_group_IT_number 47
_symmetry_cell_setting 'orthorhombic'
loop_
_space_group_symop_operation_xyz
x,y,z
-x,-y,z
x,-y,-z
-x,y,-z
-x,-y,-z
x,y,-z
-x,y,z
x,-y,z
loop_
_atom_site_type_symbol
_atom_site_label
_atom_site_fract_x
_atom_site_fract_y
_atom_site_fract_z
Si Si1 0.913510 0.699897 0.500000
Si Si2 0.323480 0.500000 0.920336
Si Si3 0.161494 0.197677 0.652502
Si Si4 0.767072 0.183006 0.126076
Si Si5 0.914285 0.696346 0.802651
Si Si6 0.682914 0.809807 0.284551
Si Si7 0.410502 0.500000 0.764753
O O1 0.913980 0.500000 0.500000
O O2 0.872360 0.759519 0.573710
O O3 0.000000 0.759293 0.500000
O O4 0.270630 0.337105 0.915063
O O5 0.376897 0.500000 0.848392
O O6 0.362843 0.500000 0.000000
O O7 0.115089 0.281575 0.718797
O O8 0.249905 0.240782 0.659947
O O9 0.156666 0.000000 0.665502
O O10 0.854364 0.214296 0.144702
O O11 0.725744 0.183192 0.205758
O O12 0.756027 0.000000 0.092826
O O13 0.912198 0.500000 0.819538
O O14 0.000000 0.756434 0.808724
O O15 0.621479 0.665758 0.275387
O O16 0.656621 0.000000 0.300359
O O17 0.500000 0.500000 0.766666
#
# Coordination Sequence:
#
# PCOD9381672 Si02
#       7
#     4   4   8   8   8   8   4
#     4  11  23  33  43  67 105 146 181 218 264 302
#     4  10  20  35  53  74 105 135 159 193 233 291
#     4  10  20  32  47  68  97 138 179 212 253 303
#     4   9  17  31  50  71  95 129 173 211 245 287
#     4  10  18  28  46  71  97 126 166 219 268 299
#     4   8  17  32  51  75 100 129 169 211 245 288
#     4  10  20  33  56  84 106 131 155 189 249 305
#
# _framework density 17.008458000000001
#
# number of rings (size 3 to 8) (size 9 to 14) (size 15 to 20)
#    0.000    2.455    0.909    3.000    5.091    5.273 
#    0.000    0.000    0.000    1.091    0.000    7.636 
#    0.000    2.909    0.000    0.000    0.000    0.000 
#
# Total GULP energy -245259.647885 kJ/mol
# GULP energy per Si atom -5574.082906 kJ/mol
# Density = 1.696975 g / cm^3
# Si number density = 17.008458 Si / 1000 Ang^3
#
#
#
# Elastic Constant Matrix: (Units=GPa)
#
#
# Indices 1 2 3 4 5 6 
#
# 1 127.9475 63.2453 28.4059 0.0000 0.0000 0.0000
# 2 63.2453 102.6355 16.1594 0.0000 0.0000 0.0000
# 3 28.4059 16.1594 51.4549 0.0000 0.0000 0.0000
# 4 0.0000 0.0000 0.0000 608.5956 0.0000 0.0000
# 5 0.0000 0.0000 0.0000 0.0000 8.8295 0.0000
# 6 0.0000 0.0000 0.0000 0.0000 0.0000 7.8724
#
#
#
# Elastic Compliance Matrix: (Units=1/GPa)
#
#
# Indices 1 2 3 4 5 6 
#
# 1 0.012193 -0.006789 -0.004599 0.000000 0.000000 0.000000
# 2 -0.006789 0.014030 -0.000658 0.000000 0.000000 0.000000
# 3 -0.004599 -0.000658 0.022180 0.000000 0.000000 0.000000
# 4 0.000000 0.000000 0.000000 0.001643 0.000000 0.000000
# 5 0.000000 0.000000 0.000000 0.000000 0.113256 0.000000
# 6 0.000000 0.000000 0.000000 0.000000 0.000000 0.127026
#
#
# Mechanical properties :
#
#
# Convention : Reuss Voigt Hill
#
# Bulk Modulus (GPa) = 41.13447 55.29544 48.21496
# Shear Modulus (GPa) = 15.50268 136.67466 76.08867
#
# Velocity S-wave (km/s) = 3.02233 8.97392 6.69574
# Velocity P-wave (km/s) = 6.03461 11.83031 9.39076
#
# Compressibility (1/GPa) = 0.02431051
#
# Stress axis : x y z
#
# Youngs Moduli (GPa) = 82.01657 71.27356 45.08559
#
# Poissons Ratio (x) = 0.48389 0.20734
# Poissons Ratio (y) = 0.55683 0.02968
# Poissons Ratio (z) = 0.37718 0.04692
#
# Static dielectric constant tensor:
#      x y z
#    x 1.561200 0.000000 0.000000 
#    y 0.000000 1.607470 0.000000 
#    z 0.000000 0.000000 1.562620 
# 
# From -- ./inp_files/27952.got.cif
#   From: 2010.05.17/outbox.cif.g08.bks.cpg/sg47_14_cif.got.tgz:27952.got - 2010.06.03 20:15:42.
