data_PCOD9381170
_publ_section_title
;
Structure prediction by ZEFSAII (Michael W. Deem and Ramdas Pophale) SiO2 
 PCOD9381170
Probable space group: P M M M
;
_chemical_formula_sum "Si O2"
_cell_formula_units_Z 64
_cell_length_a 22.258355
_cell_length_b 19.564780
_cell_length_c 7.262887
_cell_angle_alpha 90.000000
_cell_angle_beta 90.000000
_cell_angle_gamma 90.000000
_cell_volume 3162.840714
_symmetry_space_group_name_H-M "P M M M"
_symmetry_group_IT_number 47
_symmetry_cell_setting 'orthorhombic'
loop_
_space_group_symop_operation_xyz
x,y,z
-x,-y,z
x,-y,-z
-x,y,-z
-x,-y,-z
x,y,-z
-x,y,z
x,-y,z
loop_
_atom_site_type_symbol
_atom_site_label
_atom_site_fract_x
_atom_site_fract_y
_atom_site_fract_z
Si Si1 0.064965 0.628805 0.776229
Si Si2 0.192322 0.425460 0.775930
Si Si3 0.093646 0.924883 0.211140
Si Si4 0.108413 0.222328 0.775706
Si Si5 0.430179 0.076678 0.775838
Si Si6 0.765052 0.924637 0.720514
Si Si7 0.334682 0.182912 0.793832
Si Si8 0.762215 0.279397 0.224904
O O1 0.123244 0.586906 0.718584
O O2 0.074415 0.708282 0.723882
O O3 0.000000 0.603890 0.715434
O O4 0.065530 0.627642 0.000000
O O5 0.213579 0.500000 0.716101
O O6 0.227520 0.357554 0.718829
O O7 0.193041 0.424984 0.000000
O O8 0.080224 0.849495 0.289437
O O9 0.166469 0.922442 0.212882
O O10 0.077097 0.000000 0.290504
O O11 0.072668 0.925753 0.000000
O O12 0.178125 0.236114 0.720080
O O13 0.108214 0.218976 0.000000
O O14 0.500000 0.086137 0.727410
O O15 0.387825 0.137889 0.709115
O O16 0.411898 0.000000 0.716489
O O17 0.426499 0.076704 0.000000
O O18 0.766227 0.916699 0.500000
O O19 0.721124 0.869595 0.803059
O O20 0.741428 0.000000 0.764705
O O21 0.300497 0.247654 0.709663
O O22 0.354466 0.202165 0.000000
O O23 0.761805 0.277108 0.000000
#
# Coordination Sequence:
#
# PCOD9381170 Si02
#       8
#     8   8   8   8   8   8   8   8
#     4   8  13  19  28  43  64  94 126 149 175 212
#     4   8  13  20  29  43  69 100 122 145 178 215
#     4   9  15  23  36  50  64  89 124 152 178 219
#     4   8  12  20  31  44  64  86 113 151 183 207
#     4   8  14  23  34  51  73  93 119 158 193 212
#     4  10  19  26  32  49  77  99 116 148 190 221
#     4  10  16  24  40  55  69  95 128 154 178 218
#     4   8  13  20  31  49  67  86 118 152 179 212
#
# _framework density 20.234974999999999
#
# number of rings (size 3 to 8) (size 9 to 14) (size 15 to 20)
#    0.000    3.375    1.250    2.625    0.000    1.500 
#    0.000    1.250    0.000    0.750    0.000    4.375 
#    0.000    1.500    0.000   10.125    0.000    4.750 
#
# Total GULP energy -356814.889184 kJ/mol
# GULP energy per Si atom -5575.232643 kJ/mol
# Density = 2.018892 g / cm^3
# Si number density = 20.234975 Si / 1000 Ang^3
#
#
#
# Elastic Constant Matrix: (Units=GPa)
#
#
# Indices 1 2 3 4 5 6 
#
# 1 89.2863 40.0870 -0.0001 0.0000 0.0000 0.0000
# 2 40.0870 149.4914 5.8063 0.0000 0.0000 0.0000
# 3 -0.0001 5.8063 92.5559 0.0000 0.0000 0.0000
# 4 0.0000 0.0000 0.0000 -29.7021 0.0000 0.0000
# 5 0.0000 0.0000 0.0000 0.0000 -43.8750 0.0000
# 6 0.0000 0.0000 0.0000 0.0000 0.0000 8.9709
#
#
#
# Elastic Compliance Matrix: (Units=1/GPa)
#
#
# Indices 1 2 3 4 5 6 
#
# 1 0.012737 -0.003424 0.000215 0.000000 0.000000 0.000000
# 2 -0.003424 0.007626 -0.000478 0.000000 0.000000 0.000000
# 3 0.000215 -0.000478 0.010834 0.000000 0.000000 0.000000
# 4 0.000000 0.000000 0.000000 -0.033668 0.000000 0.000000
# 5 0.000000 0.000000 0.000000 0.000000 -0.022792 0.000000
# 6 0.000000 0.000000 0.000000 0.000000 0.000000 0.111471
#
#
# Mechanical properties :
#
#
# Convention : Reuss Voigt Hill
#
# Bulk Modulus (GPa) = 41.97706 47.01333 44.49520
# Shear Modulus (GPa) = 49.24900 6.10812 27.67856
#
# Velocity S-wave (km/s) = 4.93876 1.73930 3.70247
# Velocity P-wave (km/s) = 7.30149 5.22663 6.34938
#
# Compressibility (1/GPa) = 0.02382253
#
# Stress axis : x y z
#
# Youngs Moduli (GPa) = 78.51049 131.12917 92.29948
#
# Poissons Ratio (x) = 0.44897 -0.01983
# Poissons Ratio (y) = 0.26881 0.04416
# Poissons Ratio (z) = -0.01686 0.06273
#
# Static dielectric constant tensor:
#      x y z
#    x 1.698630 0.000000 0.000000 
#    y 0.000000 1.758750 0.000000 
#    z 0.000000 0.000000 1.774180 
# 
# From -- ./inp_files/12943.got.cif
#   From: 2010.05.17/outbox.cif.g08.bks.cpg/sg47_7_cif.got.tgz:12943.got - 2010.06.03 20:15:42.
