data_PCOD9381797
_publ_section_title
;
Structure prediction by ZEFSAII (Michael W. Deem and Ramdas Pophale) SiO2 
 PCOD9381797
Probable space group: P M M M
;
_chemical_formula_sum "Si O2"
_cell_formula_units_Z 52
_cell_length_a 13.231091
_cell_length_b 27.305967
_cell_length_c 7.631521
_cell_angle_alpha 90.000000
_cell_angle_beta 90.000000
_cell_angle_gamma 90.000000
_cell_volume 2757.174931
_symmetry_space_group_name_H-M "P M M M"
_symmetry_group_IT_number 47
_symmetry_cell_setting 'orthorhombic'
loop_
_space_group_symop_operation_xyz
x,y,z
-x,-y,z
x,-y,-z
-x,y,-z
-x,-y,-z
x,y,-z
-x,y,z
x,-y,z
loop_
_atom_site_type_symbol
_atom_site_label
_atom_site_fract_x
_atom_site_fract_y
_atom_site_fract_z
Si Si1 0.884041 0.606474 0.708801
Si Si2 0.000000 0.119175 0.211986
Si Si3 0.188314 0.944808 0.791435
Si Si4 0.000000 0.766381 0.291759
Si Si5 0.198353 0.708652 0.715021
Si Si6 0.613946 0.884625 0.288759
Si Si7 0.385487 0.772711 0.286122
Si Si8 0.114781 0.500000 0.207807
O O1 0.891694 0.612092 0.500000
O O2 0.820419 0.652839 0.772693
O O3 0.840206 0.552392 0.741407
O O4 0.000000 0.608261 0.778847
O O5 0.099931 0.090763 0.276310
O O6 0.000000 0.175862 0.262003
O O7 0.000000 0.118023 0.000000
O O8 0.297898 0.921128 0.764399
O O9 0.182170 0.000000 0.720014
O O10 0.172309 0.948057 0.000000
O O11 0.101604 0.740375 0.226168
O O12 0.000000 0.757907 0.500000
O O13 0.200497 0.709168 0.500000
O O14 0.300665 0.734955 0.773919
O O15 0.611735 0.884158 0.500000
O O16 0.500000 0.897262 0.228672
O O17 0.636899 0.828768 0.231593
O O18 0.384524 0.772751 0.500000
O O19 0.500000 0.760888 0.231814
O O20 0.000000 0.500000 0.283780
O O21 0.107997 0.500000 0.000000
#
# Coordination Sequence:
#
# PCOD9381797 Si02
#       8
#     8   4   8   4   8   8   8   4
#     4   9  15  25  40  60  86 115 147 181 217 254
#     4  10  21  36  50  66  91 123 156 191 231 273
#     4  10  21  36  52  68  89 120 157 193 230 275
#     4  10  18  29  47  70  93 118 149 183 222 271
#     4   9  15  24  41  65  91 117 147 182 217 259
#     4   9  18  33  52  74  98 121 147 185 234 282
#     4   8  14  25  42  65  92 119 144 173 216 267
#     4   9  17  27  39  57  84 119 152 180 215 260
#
# _framework density 18.859884999999998
#
# number of rings (size 3 to 8) (size 9 to 14) (size 15 to 20)
#    0.000    2.846    0.769    2.308    0.000    4.615 
#    0.000    2.308    0.000    2.308    0.000    0.538 
#    0.000    4.308    0.000    0.000    0.000    0.000 
#
# Total GULP energy -289984.190116 kJ/mol
# GULP energy per Si atom -5576.619041 kJ/mol
# Density = 1.881696 g / cm^3
# Si number density = 18.859885 Si / 1000 Ang^3
#
#
#
# Elastic Constant Matrix: (Units=GPa)
#
#
# Indices 1 2 3 4 5 6 
#
# 1 90.3500 76.6364 -3.6675 0.0000 0.0000 0.0000
# 2 76.6364 167.4364 -4.6562 0.0000 0.0000 0.0000
# 3 -3.6675 -4.6562 32.7946 0.0000 0.0000 0.0000
# 4 0.0000 0.0000 0.0000 26.4708 0.0000 0.0000
# 5 0.0000 0.0000 0.0000 0.0000 7.8382 0.0000
# 6 0.0000 0.0000 0.0000 0.0000 0.0000 0.4814
#
#
#
# Elastic Compliance Matrix: (Units=1/GPa)
#
#
# Indices 1 2 3 4 5 6 
#
# 1 0.018116 -0.008268 0.000852 0.000000 0.000000 0.000000
# 2 -0.008268 0.009770 0.000462 0.000000 0.000000 0.000000
# 3 0.000852 0.000462 0.030654 0.000000 0.000000 0.000000
# 4 0.000000 0.000000 0.000000 0.037778 0.000000 0.000000
# 5 0.000000 0.000000 0.000000 0.000000 0.127580 0.000000
# 6 0.000000 0.000000 0.000000 0.000000 0.000000 2.077245
#
#
# Mechanical properties :
#
#
# Convention : Reuss Voigt Hill
#
# Bulk Modulus (GPa) = 22.40537 47.46736 34.93636
# Shear Modulus (GPa) = 2.14599 21.77596 11.96098
#
# Velocity S-wave (km/s) = 1.06786 3.40165 2.52107
# Velocity P-wave (km/s) = 3.66417 6.37584 5.19988
#
# Compressibility (1/GPa) = 0.04463216
#
# Stress axis : x y z
#
# Youngs Moduli (GPa) = 55.20087 102.35892 32.62240
#
# Poissons Ratio (x) = 0.84630 -0.02780
# Poissons Ratio (y) = 0.45640 -0.01509
# Poissons Ratio (z) = -0.04703 -0.04734
#
# Static dielectric constant tensor:
#      x y z
#    x 1.636440 0.000000 0.000000 
#    y 0.000000 1.659210 0.000000 
#    z 0.000000 0.000000 1.717710 
# 
# From -- ./inp_files/4678.got.cif
#   From: 2010.05.17/outbox.cif.g08.bks.cpg/sg47_3_cif.got.tgz:4678.got - 2010.06.03 20:15:42.
