data_PCOD9381043
_publ_section_title
;
Structure prediction by ZEFSAII (Michael W. Deem and Ramdas Pophale) SiO2 
 PCOD9381043
Probable space group: I M A 2
;
_chemical_formula_sum "Si O2"
_cell_formula_units_Z 28
_cell_length_a 18.984921
_cell_length_b 8.687511
_cell_length_c 7.138177
_cell_angle_alpha 90.000000
_cell_angle_beta 90.000000
_cell_angle_gamma 90.000000
_cell_volume 1177.311739
_symmetry_space_group_name_H-M "I M A 2"
_symmetry_group_IT_number 46
_symmetry_cell_setting 'orthorhombic'
loop_
_space_group_symop_operation_xyz
x,y,z
-x,-y,z
1/2-x,y,z
1/2+x,-y,z
1/2+x,1/2+y,1/2+z
1/2-x,1/2-y,1/2+z
-x,1/2+y,1/2+z
x,1/2-y,1/2+z
loop_
_atom_site_type_symbol
_atom_site_label
_atom_site_fract_x
_atom_site_fract_y
_atom_site_fract_z
Si Si1 0.397583 0.137760 0.108120
Si Si2 0.104551 0.012777 0.510362
Si Si3 0.750000 0.129579 0.587797
Si Si4 0.750000 0.019883 0.011563
Si Si5 0.500000 0.000000 0.804718
O O1 0.420494 0.058601 0.303059
O O2 0.387285 0.321258 0.110927
O O3 0.320941 0.069360 0.061328
O O4 0.453948 0.099736 0.947595
O O5 0.178447 0.927080 0.492095
O O6 0.053303 0.921047 0.653670
O O7 0.750000 0.052699 0.791017
O O8 0.750000 0.312292 0.604543
#
# Coordination Sequence:
#
# PCOD9381043 Si02
#       5
#     8   8   4   4   4
#     4  12  25  49  75 106 142 192 243 292 358 428
#     4  12  25  49  75 106 142 192 243 292 358 428
#     4  12  25  48  73 109 143 183 240 304 357 416
#     4  12  25  48  73 109 143 183 240 304 357 416
#     4  12  26  46  72 108 148 182 242 294 352 436
#
# _framework density 23.782997000000002
#
# number of rings (size 3 to 8) (size 9 to 14) (size 15 to 20)
#    0.000    0.000    5.714    4.286    0.000    2.286 
#   10.286    0.000    0.000    0.000    0.000    0.000 
#    0.000    0.000    0.000    0.000    0.000    0.000 
#
# Total GULP energy -78336.239011 kJ/mol
# GULP energy per Si atom -5595.445644 kJ/mol
# Density = 2.372887 g / cm^3
# Si number density = 23.782997 Si / 1000 Ang^3
#
#
#
# Elastic Constant Matrix: (Units=GPa)
#
#
# Indices 1 2 3 4 5 6 
#
# 1 147.4417 63.1889 39.2304 0.0000 0.0000 0.0000
# 2 63.1889 78.2028 28.9814 0.0000 0.0000 0.0000
# 3 39.2304 28.9814 162.6224 0.0000 0.0000 0.0000
# 4 0.0000 0.0000 0.0000 29.0935 0.0000 0.0000
# 5 0.0000 0.0000 0.0000 0.0000 26.8970 0.0000
# 6 0.0000 0.0000 0.0000 0.0000 0.0000 11.9926
#
#
#
# Elastic Compliance Matrix: (Units=1/GPa)
#
#
# Indices 1 2 3 4 5 6 
#
# 1 0.010555 -0.008122 -0.001099 0.000000 0.000000 0.000000
# 2 -0.008122 0.019941 -0.001594 0.000000 0.000000 0.000000
# 3 -0.001099 -0.001594 0.006698 0.000000 0.000000 0.000000
# 4 0.000000 0.000000 0.000000 0.034372 0.000000 0.000000
# 5 0.000000 0.000000 0.000000 0.000000 0.037179 0.000000
# 6 0.000000 0.000000 0.000000 0.000000 0.000000 0.083385
#
#
# Mechanical properties :
#
#
# Convention : Reuss Voigt Hill
#
# Bulk Modulus (GPa) = 64.24936 72.34092 68.29514
# Shear Modulus (GPa) = 22.83646 30.72103 26.77875
#
# Velocity S-wave (km/s) = 3.10207 3.59795 3.35918
# Velocity P-wave (km/s) = 6.31696 6.90966 6.61995
#
# Compressibility (1/GPa) = 0.01556436
#
# Stress axis : x y z
#
# Youngs Moduli (GPa) = 94.73786 50.14902 149.28782
#
# Poissons Ratio (x) = 0.40729 0.16406
# Poissons Ratio (y) = 0.76943 0.23803
# Poissons Ratio (z) = 0.10411 0.07996
#
# Static dielectric constant tensor:
#      x y z
#    x 1.930350 0.000000 0.000000 
#    y 0.000000 1.932320 0.000000 
#    z 0.000000 0.000000 1.930920 
# 
# From -- ./inp_files/6303.got.cif
#   From: 2010.05.17/outbox.cif.g08.bks.cpg/sg46_4_cif.got.tgz:6303.got - 2010.06.03 19:58:25.
