data_PCOD9381944
_publ_section_title
;
Structure prediction by ZEFSAII (Michael W. Deem and Ramdas Pophale) SiO2 
 PCOD9381944
Probable space group: P M M M
;
_chemical_formula_sum "Si O2"
_cell_formula_units_Z 64
_cell_length_a 20.136072
_cell_length_b 20.136051
_cell_length_c 7.357097
_cell_angle_alpha 90.000000
_cell_angle_beta 90.000000
_cell_angle_gamma 90.000000
_cell_volume 2983.015706
_symmetry_space_group_name_H-M "P M M M"
_symmetry_group_IT_number 47
_symmetry_cell_setting 'orthorhombic'
loop_
_space_group_symop_operation_xyz
x,y,z
-x,-y,z
x,-y,-z
-x,y,-z
-x,-y,-z
x,y,-z
-x,y,z
x,-y,z
loop_
_atom_site_type_symbol
_atom_site_label
_atom_site_fract_x
_atom_site_fract_y
_atom_site_fract_z
Si Si1 0.815012 0.815012 0.221895
Si Si2 0.073056 0.423667 0.719391
Si Si3 0.196037 0.666340 0.208189
Si Si4 0.576333 0.073057 0.280608
Si Si5 0.333659 0.803963 0.791811
Si Si6 0.076515 0.076515 0.221361
Si Si7 0.682139 0.576508 0.221651
Si Si8 0.423492 0.317860 0.221651
O O1 0.824894 0.738391 0.281254
O O2 0.738392 0.824894 0.281254
O O3 0.869204 0.869204 0.283538
O O4 0.818529 0.818529 0.000000
O O5 0.074819 0.422667 0.500000
O O6 0.081015 0.500000 0.776119
O O7 0.132332 0.379849 0.787822
O O8 0.000000 0.400529 0.776608
O O9 0.257569 0.624128 0.286445
O O10 0.215557 0.678936 0.000000
O O11 0.577333 0.074819 0.500000
O O12 0.500000 0.081017 0.223880
O O13 0.620151 0.132331 0.212178
O O14 0.599470 0.000000 0.223391
O O15 0.375872 0.742431 0.713555
O O16 0.321064 0.784443 0.000000
O O17 0.000000 0.091557 0.275658
O O18 0.091557 0.000000 0.275658
O O19 0.077043 0.077043 0.000000
O O20 0.687498 0.500000 0.282480
O O21 0.613733 0.613733 0.269959
O O22 0.685530 0.574699 0.000000
O O23 0.500000 0.312502 0.282480
O O24 0.425301 0.314469 0.000000
#
# Coordination Sequence:
#
# PCOD9381944 Si02
#       8
#     8   8   8   8   8   8   8   8
#     4   9  17  28  44  67 100 130 153 192 246 288
#     4   9  19  35  51  68  95 130 164 200 245 294
#     4  10  18  30  48  72  99 126 158 198 242 292
#     4   9  19  35  51  68  95 130 164 200 245 294
#     4  10  18  30  48  72  99 126 158 198 242 292
#     4   8  14  25  40  59  87 125 164 194 226 278
#     4   9  16  26  41  62  90 124 158 193 237 284
#     4   9  16  26  41  62  90 124 158 193 237 284
#
# _framework density 21.454796999999999
#
# number of rings (size 3 to 8) (size 9 to 14) (size 15 to 20)
#    0.000    2.875    1.250    1.875    0.000    3.250 
#    0.000    5.625    0.000    0.000    0.000    0.000 
#    0.000    0.000    0.000   10.750    0.000    9.500 
#
# Total GULP energy -356994.602283 kJ/mol
# GULP energy per Si atom -5578.040661 kJ/mol
# Density = 2.140597 g / cm^3
# Si number density = 21.454797 Si / 1000 Ang^3
#
#
#
# Elastic Constant Matrix: (Units=GPa)
#
#
# Indices 1 2 3 4 5 6 
#
# 1 171.7032 127.7862 7.6271 0.0000 0.0000 0.0000
# 2 127.7862 171.7057 7.6269 0.0000 0.0000 0.0000
# 3 7.6271 7.6269 76.0037 0.0000 0.0000 0.0000
# 4 0.0000 0.0000 0.0000 5.3452 0.0000 0.0000
# 5 0.0000 0.0000 0.0000 0.0000 5.3442 0.0000
# 6 0.0000 0.0000 0.0000 0.0000 0.0000 53.2752
#
#
#
# Elastic Compliance Matrix: (Units=1/GPa)
#
#
# Indices 1 2 3 4 5 6 
#
# 1 0.013063 -0.009707 -0.000337 0.000000 0.000000 0.000000
# 2 -0.009707 0.013063 -0.000337 0.000000 0.000000 0.000000
# 3 -0.000337 -0.000337 0.013225 0.000000 0.000000 0.000000
# 4 0.000000 0.000000 0.000000 0.187085 0.000000 0.000000
# 5 0.000000 0.000000 0.000000 0.000000 0.187118 0.000000
# 6 0.000000 0.000000 0.000000 0.000000 0.000000 0.018770
#
#
# Mechanical properties :
#
#
# Convention : Reuss Voigt Hill
#
# Bulk Modulus (GPa) = 53.79239 78.38812 66.09025
# Shear Modulus (GPa) = 10.88658 31.21774 21.05216
#
# Velocity S-wave (km/s) = 2.25504 3.81865 3.13586
# Velocity P-wave (km/s) = 5.64864 7.48722 6.63195
#
# Compressibility (1/GPa) = 0.01858999
#
# Stress axis : x y z
#
# Youngs Moduli (GPa) = 76.55235 76.55348 75.61523
#
# Poissons Ratio (x) = 0.74308 0.02547
# Poissons Ratio (y) = 0.74307 0.02546
# Poissons Ratio (z) = 0.02579 0.02578
#
# Static dielectric constant tensor:
#      x y z
#    x 1.749190 0.000000 0.000000 
#    y 0.000000 1.749190 0.000000 
#    z 0.000000 0.000000 1.829440 
# 
# From -- ./inp_files/9943.got.cif
#   From: 2010.05.17/outbox.cif.g08.bks.cpg/sg47_5_cif.got.tgz:9943.got - 2010.06.03 20:15:42.
