data_PCOD9381129
_publ_section_title
;
Structure prediction by ZEFSAII (Michael W. Deem and Ramdas Pophale) SiO2 
 PCOD9381129
Probable space group: I M A 2
;
_chemical_formula_sum "Si O2"
_cell_formula_units_Z 32
_cell_length_a 30.000000
_cell_length_b 12.000000
_cell_length_c 9.000000
_cell_angle_alpha 90.000000
_cell_angle_beta 90.000000
_cell_angle_gamma 90.000000
_cell_volume 3240.000000
_symmetry_space_group_name_H-M "I M A 2"
_symmetry_group_IT_number 46
_symmetry_cell_setting 'orthorhombic'
loop_
_space_group_symop_operation_xyz
x,y,z
-x,-y,z
1/2-x,y,z
1/2+x,-y,z
1/2+x,1/2+y,1/2+z
1/2-x,1/2-y,1/2+z
-x,1/2+y,1/2+z
x,1/2-y,1/2+z
loop_
_atom_site_type_symbol
_atom_site_label
_atom_site_fract_x
_atom_site_fract_y
_atom_site_fract_z
Si Si1 0.385693 0.345504 0.843210
Si Si2 0.700054 0.698632 0.680427
Si Si3 0.508517 0.131623 0.628152
Si Si4 0.199765 0.412724 0.365238
Si Si5 0.946539 0.015102 0.170445
Si Si6 0.940052 0.238066 0.356423
Si Si7 0.088820 0.136898 0.664252
Si Si8 0.609840 0.048949 0.875864
O O1 0.339041 0.368246 0.762126
O O2 0.424684 0.424413 0.780265
O O3 0.397182 0.219693 0.794995
O O4 0.381732 0.357242 0.018079
O O5 0.750000 0.665551 0.728457
O O6 0.696326 0.669559 0.507335
O O7 0.695823 0.828633 0.725681
O O8 0.541817 0.182762 0.506989
O O9 0.524231 0.174093 0.789100
O O10 0.459012 0.178904 0.607749
O O11 0.500000 0.000000 0.611059
O O12 0.250000 0.460477 0.365298
O O13 0.160307 0.502541 0.378607
O O14 0.936962 0.136042 0.242080
O O15 0.919654 0.008693 0.016127
O O16 0.000000 0.000000 0.155486
O O17 0.896973 0.317617 0.370843
O O18 0.089356 0.013205 0.731518
#
# Coordination Sequence:
#
# PCOD9381129 Si02
#       8
#     8   8   8   8   8   8   8   8
#     4  12  23  39  62  94 132 170 214 264 320 389
#     4  10  20  37  62  95 132 165 201 259 327 388
#     4  12  24  43  62  92 127 178 217 274 323 384
#     4  10  21  41  66  97 133 168 210 265 333 396
#     4  12  26  44  64  91 130 178 221 269 324 383
#     4  12  26  45  63  88 127 170 230 270 317 386
#     4  12  24  37  61  92 131 168 217 261 321 389
#     4  12  25  42  66  94 128 175 215 271 331 389
#
# _framework density 9.8765429999999999
#
# number of rings (size 3 to 8) (size 9 to 14) (size 15 to 20)
#    0.000    0.500    5.000    4.875    1.750    0.000 
#    0.000    0.000    0.000    1.500    0.000    0.000 
#    0.000    0.000    0.000    0.000    0.000    0.000 
#
# Total GULP energy -178763.895791 kJ/mol
# GULP energy per Si atom -5586.371743 kJ/mol
# Density = 0.985406 g / cm^3
# Si number density = 9.876543 Si / 1000 Ang^3
#
#
#
# Elastic Constant Matrix: (Units=GPa)
#
#
# Indices 1 2 3 4 5 6 
#
# 1 152.6683 38.3500 23.9065 0.0000 0.0000 0.0000
# 2 38.3500 106.3658 24.4577 0.0000 0.0000 0.0000
# 3 23.9065 24.4577 79.7870 0.0000 0.0000 0.0000
# 4 0.0000 0.0000 0.0000 25.4421 0.0000 0.0000
# 5 0.0000 0.0000 0.0000 0.0000 29.0114 0.0000
# 6 0.0000 0.0000 0.0000 0.0000 0.0000 34.7692
#
#
#
# Elastic Compliance Matrix: (Units=1/GPa)
#
#
# Indices 1 2 3 4 5 6 
#
# 1 0.007365 -0.002311 -0.001498 0.000000 0.000000 0.000000
# 2 -0.002311 0.010840 -0.002630 0.000000 0.000000 0.000000
# 3 -0.001498 -0.002630 0.013789 0.000000 0.000000 0.000000
# 4 0.000000 0.000000 0.000000 0.039305 0.000000 0.000000
# 5 0.000000 0.000000 0.000000 0.000000 0.034469 0.000000
# 6 0.000000 0.000000 0.000000 0.000000 0.000000 0.028761
#
#
# Mechanical properties :
#
#
# Convention : Reuss Voigt Hill
#
# Bulk Modulus (GPa) = 52.31761 56.91660 54.61711
# Shear Modulus (GPa) = 32.51410 34.65169 33.58289
#
# Velocity S-wave (km/s) = 4.06153 4.19291 4.12774
# Velocity P-wave (km/s) = 6.96692 7.23307 7.10124
#
# Compressibility (1/GPa) = 0.01911402
#
# Stress axis : x y z
#
# Youngs Moduli (GPa) = 135.77163 92.25482 72.52348
#
# Poissons Ratio (x) = 0.21320 0.10867
# Poissons Ratio (y) = 0.31377 0.19076
# Poissons Ratio (z) = 0.20345 0.24266
#
# Static dielectric constant tensor:
#      x y z
#    x 1.766480 0.000000 0.000000 
#    y 0.000000 1.700510 0.000000 
#    z 0.000000 0.000000 1.720740 
# 
# From -- ./inp_files/8502.got.cif
#   From: 2010.05.17/outbox.ucp.g08.bks.cvg/sg46_5_cif.got.tgz:8502.got - 2010.06.11 16:34:52.
