data_PCOD9381968
_publ_section_title
;
Structure prediction by ZEFSAII (Michael W. Deem and Ramdas Pophale) SiO2 
 PCOD9381968
Probable space group: P M M M
;
_chemical_formula_sum "Si O2"
_cell_formula_units_Z 52
_cell_length_a 15.814298
_cell_length_b 7.482489
_cell_length_c 20.605859
_cell_angle_alpha 90.000000
_cell_angle_beta 90.000000
_cell_angle_gamma 90.000000
_cell_volume 2438.297700
_symmetry_space_group_name_H-M "P M M M"
_symmetry_group_IT_number 47
_symmetry_cell_setting 'orthorhombic'
loop_
_space_group_symop_operation_xyz
x,y,z
-x,-y,z
x,-y,-z
-x,y,-z
-x,-y,-z
x,y,-z
-x,y,z
x,-y,z
loop_
_atom_site_type_symbol
_atom_site_label
_atom_site_fract_x
_atom_site_fract_y
_atom_site_fract_z
Si Si1 0.162490 0.783304 0.149587
Si Si2 0.000000 0.217640 0.071546
Si Si3 0.903008 0.706777 0.292743
Si Si4 0.669815 0.785561 0.925302
Si Si5 0.407858 0.713561 0.792262
Si Si6 0.595165 0.215663 0.573940
Si Si7 0.724977 0.710532 0.687066
O O1 0.083974 0.727933 0.106546
O O2 0.135076 0.716229 0.219994
O O3 0.245446 0.720069 0.111510
O O4 0.167428 0.000000 0.153982
O O5 0.000000 0.000000 0.071058
O O6 0.000000 0.285044 0.000000
O O7 0.911821 0.500000 0.312509
O O8 0.819142 0.785757 0.327759
O O9 0.000000 0.781523 0.295044
O O10 0.601564 0.747365 0.869262
O O11 0.676297 0.000000 0.930378
O O12 0.658786 0.720500 0.000000
O O13 0.500000 0.781534 0.770122
O O14 0.407570 0.500000 0.783143
O O15 0.328774 0.784299 0.749202
O O16 0.612906 0.273617 0.500000
O O17 0.500000 0.276107 0.591224
O O18 0.663646 0.273234 0.625905
O O19 0.594274 0.000000 0.573916
O O20 0.737313 0.500000 0.700111
#
# Coordination Sequence:
#
# PCOD9381968 Si02
#       7
#     8   4   8   8   8   8   8
#     4  10  18  30  49  71  94 125 168 215 264 321
#     4   9  16  26  43  67  93 121 156 205 264 319
#     4  10  20  34  53  76 105 138 173 217 266 311
#     4  10  21  35  50  70  97 130 172 222 273 324
#     4  10  21  36  53  74 100 133 176 221 265 317
#     4   9  19  36  58  87 121 150 175 208 254 306
#     4  10  20  35  56  81 110 143 179 218 259 308
#
# _framework density 21.326352
#
# number of rings (size 3 to 8) (size 9 to 14) (size 15 to 20)
#    0.000    2.231    2.308    1.385    0.000    5.231 
#    0.000    2.308    0.000    2.308    0.000    3.231 
#    0.000    0.000    0.000    0.000    0.000    0.000 
#
# Total GULP energy -289802.189080 kJ/mol
# GULP energy per Si atom -5573.119021 kJ/mol
# Density = 2.127781 g / cm^3
# Si number density = 21.326352 Si / 1000 Ang^3
#
#
#
# Elastic Constant Matrix: (Units=GPa)
#
#
# Indices 1 2 3 4 5 6 
#
# 1 190.6898 9.9298 68.1924 0.0000 0.0000 0.0000
# 2 9.9298 62.7884 -3.4476 0.0000 0.0000 0.0000
# 3 68.1924 -3.4476 99.6056 0.0000 0.0000 0.0000
# 4 0.0000 0.0000 0.0000 24.7694 0.0000 0.0000
# 5 0.0000 0.0000 0.0000 0.0000 31.4772 0.0000
# 6 0.0000 0.0000 0.0000 0.0000 0.0000 9.0827
#
#
#
# Elastic Compliance Matrix: (Units=1/GPa)
#
#
# Indices 1 2 3 4 5 6 
#
# 1 0.007062 -0.001385 -0.004883 0.000000 0.000000 0.000000
# 2 -0.001385 0.016228 0.001510 0.000000 0.000000 0.000000
# 3 -0.004883 0.001510 0.013435 0.000000 0.000000 0.000000
# 4 0.000000 0.000000 0.000000 0.040372 0.000000 0.000000
# 5 0.000000 0.000000 0.000000 0.000000 0.031769 0.000000
# 6 0.000000 0.000000 0.000000 0.000000 0.000000 0.110099
#
#
# Mechanical properties :
#
#
# Convention : Reuss Voigt Hill
#
# Bulk Modulus (GPa) = 36.75184 55.82589 46.28887
# Shear Modulus (GPa) = 21.04794 31.62647 26.33720
#
# Velocity S-wave (km/s) = 3.14498 3.85512 3.51801
# Velocity P-wave (km/s) = 5.51890 6.78599 6.18498
#
# Compressibility (1/GPa) = 0.02720952
#
# Stress axis : x y z
#
# Youngs Moduli (GPa) = 141.59338 61.62011 74.43283
#
# Poissons Ratio (x) = 0.08535 0.36346
# Poissons Ratio (y) = 0.19611 -0.11239
# Poissons Ratio (z) = 0.69141 -0.09304
#
# Static dielectric constant tensor:
#      x y z
#    x 1.838580 0.000000 0.000000 
#    y 0.000000 1.833130 0.000000 
#    z 0.000000 0.000000 1.772350 
# 
# From -- ./inp_files/21375.got.cif
#   From: 2010.05.17/outbox.cif.g08.bks.cpg/sg47_11_cif.got.tgz:21375.got - 2010.06.03 20:15:42.
