data_PCOD9381225
_publ_section_title
;
Structure prediction by ZEFSAII (Michael W. Deem and Ramdas Pophale) SiO2 
 PCOD9381225
Probable space group: P M M M
;
_chemical_formula_sum "Si O2"
_cell_formula_units_Z 64
_cell_length_a 7.465337
_cell_length_b 15.046007
_cell_length_c 32.158468
_cell_angle_alpha 90.000000
_cell_angle_beta 90.000000
_cell_angle_gamma 90.000000
_cell_volume 3612.152091
_symmetry_space_group_name_H-M "P M M M"
_symmetry_group_IT_number 47
_symmetry_cell_setting 'orthorhombic'
loop_
_space_group_symop_operation_xyz
x,y,z
-x,-y,z
x,-y,-z
-x,y,-z
-x,-y,-z
x,y,-z
-x,y,z
x,-y,z
loop_
_atom_site_type_symbol
_atom_site_label
_atom_site_fract_x
_atom_site_fract_y
_atom_site_fract_z
Si Si1 0.781928 0.401679 0.256928
Si Si2 0.782191 0.598710 0.159673
Si Si3 0.784678 0.103305 0.455318
Si Si4 0.209682 0.785472 0.283900
Si Si5 0.781618 0.898181 0.047198
Si Si6 0.290388 0.898718 0.363622
Si Si7 0.219154 0.897946 0.205424
Si Si8 0.781113 0.216145 0.124937
O O1 0.719048 0.500000 0.269922
O O2 0.734716 0.388590 0.208272
O O3 0.718230 0.315026 0.281756
O O4 0.000000 0.404879 0.258846
O O5 0.722508 0.500000 0.146778
O O6 0.721654 0.682935 0.133104
O O7 0.000000 0.598518 0.158533
O O8 0.723798 0.141604 0.500000
O O9 0.732958 0.139105 0.410269
O O10 0.000000 0.103346 0.456053
O O11 0.724662 0.000000 0.454778
O O12 0.221481 0.835008 0.327679
O O13 0.282456 0.847269 0.246853
O O14 0.000000 0.776390 0.274041
O O15 0.721252 0.830120 0.082436
O O16 0.000000 0.897412 0.047425
O O17 0.728562 0.000000 0.056814
O O18 0.725391 0.877379 0.000000
O O19 0.500000 0.906614 0.356157
O O20 0.213615 0.000000 0.361940
O O21 0.271876 0.843733 0.164442
O O22 0.000000 0.899424 0.205849
O O23 0.278043 0.000000 0.204574
O O24 0.000000 0.216810 0.124449
#
# Coordination Sequence:
#
# PCOD9381225 Si02
#       8
#     8   8   8   8   8   8   8   8
#     4   8  13  22  36  54  74  93 118 157 203 244
#     4   8  12  18  28  42  60  80 104 139 187 237
#     4   8  14  26  44  63  81 104 139 181 215 237
#     4  10  17  26  40  57  77 102 132 167 203 238
#     4   8  13  19  25  33  47  72 107 144 182 227
#     4  10  20  30  39  55  83 118 147 167 195 239
#     4   9  15  20  28  46  68  88 113 149 190 226
#     4   9  13  18  27  39  56  78 106 143 187 230
#
# _framework density 17.717969
#
# number of rings (size 3 to 8) (size 9 to 14) (size 15 to 20)
#    0.000    3.250    1.250    2.625    0.000    3.000 
#    0.000    1.250    0.000    0.750    0.000    2.625 
#    0.000    0.500    0.000    5.750    0.000    2.500 
#
# Total GULP energy -356559.375028 kJ/mol
# GULP energy per Si atom -5571.240235 kJ/mol
# Density = 1.767764 g / cm^3
# Si number density = 17.717969 Si / 1000 Ang^3
#
#
#
# Elastic Constant Matrix: (Units=GPa)
#
#
# Indices 1 2 3 4 5 6 
#
# 1 46.9616 4.5683 -5.4797 0.0000 0.0000 0.0000
# 2 4.5683 158.1569 92.3839 0.0000 0.0000 0.0000
# 3 -5.4797 92.3839 126.0600 0.0000 0.0000 0.0000
# 4 0.0000 0.0000 0.0000 9.0292 0.0000 0.0000
# 5 0.0000 0.0000 0.0000 0.0000 -62.3095 0.0000
# 6 0.0000 0.0000 0.0000 0.0000 0.0000 -7.9900
#
#
#
# Elastic Compliance Matrix: (Units=1/GPa)
#
#
# Indices 1 2 3 4 5 6 
#
# 1 0.021782 -0.002067 0.002462 0.000000 0.000000 0.000000
# 2 -0.002067 0.011252 -0.008336 0.000000 0.000000 0.000000
# 3 0.002462 -0.008336 0.014149 0.000000 0.000000 0.000000
# 4 0.000000 0.000000 0.000000 0.110752 0.000000 0.000000
# 5 0.000000 0.000000 0.000000 0.000000 -0.016049 0.000000
# 6 0.000000 0.000000 0.000000 0.000000 0.000000 -0.125157
#
#
# Mechanical properties :
#
#
# Convention : Reuss Voigt Hill
#
# Bulk Modulus (GPa) = 31.94840 57.12483 44.53661
# Shear Modulus (GPa) = 116.15916 3.72635 59.94276
#
# Velocity S-wave (km/s) = 8.10570 1.45180 5.82281
# Velocity P-wave (km/s) = 10.27979 5.92634 8.39034
#
# Compressibility (1/GPa) = 0.03130047
#
# Stress axis : x y z
#
# Youngs Moduli (GPa) = 45.90871 88.87563 70.67819
#
# Poissons Ratio (x) = 0.18372 -0.17400
# Poissons Ratio (y) = 0.09490 0.58915
# Poissons Ratio (z) = -0.11302 0.74084
#
# Static dielectric constant tensor:
#      x y z
#    x 1.834310 0.000000 0.000000 
#    y 0.000000 1.613100 0.000000 
#    z 0.000000 0.000000 1.597410 
# 
# From -- ./inp_files/34448.got.cif
#   From: 2010.05.17/outbox.cif.g08.bks.cpg/sg47_18_cif.got.tgz:34448.got - 2010.06.03 20:15:42.
