data_PCOD9381030
_publ_section_title
;
Structure prediction by ZEFSAII (Michael W. Deem and Ramdas Pophale) SiO2 
 PCOD9381030
Probable space group: I M A 2
;
_chemical_formula_sum "Si O2"
_cell_formula_units_Z 48
_cell_length_a 29.212748
_cell_length_b 7.403109
_cell_length_c 9.671518
_cell_angle_alpha 90.000000
_cell_angle_beta 90.000000
_cell_angle_gamma 90.000000
_cell_volume 2091.612365
_symmetry_space_group_name_H-M "I M A 2"
_symmetry_group_IT_number 46
_symmetry_cell_setting 'orthorhombic'
loop_
_space_group_symop_operation_xyz
x,y,z
-x,-y,z
1/2-x,y,z
1/2+x,-y,z
1/2+x,1/2+y,1/2+z
1/2-x,1/2-y,1/2+z
-x,1/2+y,1/2+z
x,1/2-y,1/2+z
loop_
_atom_site_type_symbol
_atom_site_label
_atom_site_fract_x
_atom_site_fract_y
_atom_site_fract_z
Si Si1 0.199474 0.066302 0.205490
Si Si2 0.487337 0.188575 0.175487
Si Si3 0.931008 0.721725 0.427094
Si Si4 0.426354 0.861499 0.519098
Si Si5 0.327043 0.396316 0.389987
Si Si6 0.365956 0.740631 0.274515
O O1 0.250000 0.986008 0.227739
O O2 0.196059 0.251762 0.290299
O O3 0.159184 0.931319 0.252630
O O4 0.192706 0.105929 0.043621
O O5 0.462553 0.304581 0.292791
O O6 0.500000 0.000000 0.247707
O O7 0.451242 0.122644 0.059935
O O8 0.527648 0.286883 0.091582
O O9 0.880173 0.661565 0.396411
O O10 0.930988 0.930153 0.476494
O O11 0.408230 0.760476 0.381824
O O12 0.386487 0.832557 0.631707
O O13 0.329157 0.598668 0.332042
#
# Coordination Sequence:
#
# PCOD9381030 Si02
#       6
#     8   8   8   8   8   8
#     4  12  28  50  77 112 149 195 258 320 387 465
#     4  12  25  40  64 102 144 194 243 302 350 435
#     4  12  25  44  68 104 145 193 249 297 370 439
#     4  12  24  45  72 104 153 200 251 309 374 442
#     4  12  26  49  77 111 151 202 246 311 390 455
#     4  12  25  48  75 110 147 205 246 309 383 456
#
# _framework density 22.948802000000001
#
# number of rings (size 3 to 8) (size 9 to 14) (size 15 to 20)
#    0.000    0.000    3.333    8.000    0.000    2.667 
#    0.000    0.000    0.000    0.000    0.000    0.000 
#    0.000    0.000    0.000    0.000    0.000    0.000 
#
# Total GULP energy -134503.635106 kJ/mol
# GULP energy per Si atom -5604.318129 kJ/mol
# Density = 2.289657 g / cm^3
# Si number density = 22.948802 Si / 1000 Ang^3
#
#
#
# Elastic Constant Matrix: (Units=GPa)
#
#
# Indices 1 2 3 4 5 6 
#
# 1 80.6285 2.0735 9.3954 0.0000 0.0000 0.0000
# 2 2.0735 86.7327 9.7778 0.0000 0.0000 0.0000
# 3 9.3954 9.7778 110.8923 0.0000 0.0000 0.0000
# 4 0.0000 0.0000 0.0000 33.3902 0.0000 0.0000
# 5 0.0000 0.0000 0.0000 0.0000 823.6837 0.0000
# 6 0.0000 0.0000 0.0000 0.0000 0.0000 22.1147
#
#
#
# Elastic Compliance Matrix: (Units=1/GPa)
#
#
# Indices 1 2 3 4 5 6 
#
# 1 0.012529 -0.000182 -0.001046 0.000000 0.000000 0.000000
# 2 -0.000182 0.011648 -0.001012 0.000000 0.000000 0.000000
# 3 -0.001046 -0.001012 0.009196 0.000000 0.000000 0.000000
# 4 0.000000 0.000000 0.000000 0.029949 0.000000 0.000000
# 5 0.000000 0.000000 0.000000 0.000000 0.001214 0.000000
# 6 0.000000 0.000000 0.000000 0.000000 0.000000 0.045219
#
#
# Mechanical properties :
#
#
# Convention : Reuss Voigt Hill
#
# Bulk Modulus (GPa) = 34.60804 35.63852 35.12328
# Shear Modulus (GPa) = 40.36696 192.97152 116.66924
#
# Velocity S-wave (km/s) = 4.19859 9.17989 7.13788
# Velocity P-wave (km/s) = 6.21430 11.31034 9.12528
#
# Compressibility (1/GPa) = 0.02889502
#
# Stress axis : x y z
#
# Youngs Moduli (GPa) = 79.81440 85.85112 108.74838
#
# Poissons Ratio (x) = 0.01560 0.11370
# Poissons Ratio (y) = 0.01450 0.11002
# Poissons Ratio (z) = 0.08345 0.08685
#
# Static dielectric constant tensor:
#      x y z
#    x 1.446800 0.000000 0.000000 
#    y 0.000000 1.876380 0.000000 
#    z 0.000000 0.000000 1.822260 
# 
# From -- ./inp_files/8391.got.cif
#   From: 2010.05.17/outbox.cif.g08.bks.cpg/sg46_5_cif.got.tgz:8391.got - 2010.06.03 19:58:25.
