data_PCOD9381868
_publ_section_title
;
Structure prediction by ZEFSAII (Michael W. Deem and Ramdas Pophale) SiO2 
 PCOD9381868
Probable space group: P M M M
;
_chemical_formula_sum "Si O2"
_cell_formula_units_Z 64
_cell_length_a 20.504402
_cell_length_b 7.983266
_cell_length_c 21.082490
_cell_angle_alpha 90.000000
_cell_angle_beta 90.000000
_cell_angle_gamma 90.000000
_cell_volume 3451.036963
_symmetry_space_group_name_H-M "P M M M"
_symmetry_group_IT_number 47
_symmetry_cell_setting 'orthorhombic'
loop_
_space_group_symop_operation_xyz
x,y,z
-x,-y,z
x,-y,-z
-x,y,-z
-x,-y,-z
x,y,-z
-x,y,z
x,-y,z
loop_
_atom_site_type_symbol
_atom_site_label
_atom_site_fract_x
_atom_site_fract_y
_atom_site_fract_z
Si Si1 0.714182 0.306020 0.398110
Si Si2 0.146650 0.194715 0.568712
Si Si3 0.430689 0.201046 0.249179
Si Si4 0.925278 0.696435 0.305667
Si Si5 0.925260 0.795125 0.927915
Si Si6 0.289922 0.795066 0.749584
Si Si7 0.428857 0.199443 0.598222
Si Si8 0.159022 0.196756 0.811939
O O1 0.727842 0.500000 0.408642
O O2 0.774942 0.207030 0.426512
O O3 0.715654 0.266209 0.322824
O O4 0.641138 0.268080 0.422907
O O5 0.126514 0.263930 0.500000
O O6 0.113771 0.279944 0.629014
O O7 0.128315 0.000000 0.571630
O O8 0.500000 0.269807 0.225433
O O9 0.360767 0.260954 0.225151
O O10 0.429487 0.226020 0.325456
O O11 0.431848 0.000000 0.239682
O O12 0.925605 0.500000 0.290049
O O13 0.888312 0.786785 0.248471
O O14 0.000000 0.754292 0.312201
O O15 0.876384 0.732390 0.873986
O O16 0.000000 0.744325 0.914318
O O17 0.924920 0.000000 0.926509
O O18 0.909029 0.745257 0.000000
O O19 0.228966 0.733870 0.790452
O O20 0.288962 0.000000 0.746834
O O21 0.500000 0.262712 0.575051
O O22 0.427765 0.000000 0.586961
O O23 0.169599 0.000000 0.824416
#
# Coordination Sequence:
#
# PCOD9381868 Si02
#       8
#     8   8   8   8   8   8   8   8
#     4  11  20  30  48  72 100 129 157 197 250 301
#     4  11  24  41  59  75  92 121 164 208 246 293
#     4   7  10  18  33  54  82 116 151 188 230 272
#     4  11  24  39  55  77 103 127 152 191 247 306
#     4   8  14  25  42  67  98 129 163 204 249 293
#     4   9  16  26  42  65  92 122 161 202 238 284
#     4   8  14  26  45  67  93 127 164 200 238 285
#     4  10  18  29  50  75  99 129 165 205 243 288
#
# _framework density 18.545151000000001
#
# number of rings (size 3 to 8) (size 9 to 14) (size 15 to 20)
#    0.000    2.625    1.250    4.125    0.000    3.000 
#    0.000    1.250    0.000    0.750    0.000    4.375 
#    0.000    0.500    0.000    7.000    0.000    0.125 
#
# Total GULP energy -356739.614224 kJ/mol
# GULP energy per Si atom -5574.056472 kJ/mol
# Density = 1.850294 g / cm^3
# Si number density = 18.545151 Si / 1000 Ang^3
#
#
#
# Elastic Constant Matrix: (Units=GPa)
#
#
# Indices 1 2 3 4 5 6 
#
# 1 142.6774 -3.6850 56.9178 0.0000 0.0000 0.0000
# 2 -3.6850 18.1184 -4.6307 0.0000 0.0000 0.0000
# 3 56.9178 -4.6307 85.7752 0.0000 0.0000 0.0000
# 4 0.0000 0.0000 0.0000 -29.7666 0.0000 0.0000
# 5 0.0000 0.0000 0.0000 0.0000 122.6306 0.0000
# 6 0.0000 0.0000 0.0000 0.0000 0.0000 -204.1060
#
#
#
# Elastic Compliance Matrix: (Units=1/GPa)
#
#
# Indices 1 2 3 4 5 6 
#
# 1 0.009534 0.000327 -0.006309 0.000000 0.000000 0.000000
# 2 0.000327 0.055976 0.002805 0.000000 0.000000 0.000000
# 3 -0.006309 0.002805 0.015996 0.000000 0.000000 0.000000
# 4 0.000000 0.000000 0.000000 -0.033595 0.000000 0.000000
# 5 0.000000 0.000000 0.000000 0.000000 0.008155 0.000000
# 6 0.000000 0.000000 0.000000 0.000000 0.000000 -0.004899
#
#
# Mechanical properties :
#
#
# Convention : Reuss Voigt Hill
#
# Bulk Modulus (GPa) = 13.30638 38.19726 25.75182
# Shear Modulus (GPa) = 60.55383 -9.05046 25.75168
#
# Velocity S-wave (km/s) = 5.72040 -2.21152 3.73043
# Velocity P-wave (km/s) = 7.12891 3.75773 5.69833
#
# Compressibility (1/GPa) = 0.07515192
#
# Stress axis : x y z
#
# Youngs Moduli (GPa) = 104.88748 17.86487 62.51490
#
# Poissons Ratio (x) = -0.00584 0.39440
# Poissons Ratio (y) = -0.03427 -0.17536
# Poissons Ratio (z) = 0.66172 -0.05011
#
# Static dielectric constant tensor:
#      x y z
#    x 1.698340 0.000000 0.000000 
#    y 0.000000 1.648440 0.000000 
#    z 0.000000 0.000000 1.622740 
# 
# From -- ./inp_files/31497.got.cif
#   From: 2010.05.17/outbox.cif.g08.bks.cpg/sg47_16_cif.got.tgz:31497.got - 2010.06.03 20:15:42.
