data_PCOD9381075
_publ_section_title
;
Structure prediction by ZEFSAII (Michael W. Deem and Ramdas Pophale) SiO2 
 PCOD9381075
Probable space group: I M A 2
;
_chemical_formula_sum "Si O2"
_cell_formula_units_Z 32
_cell_length_a 9.000000
_cell_length_b 24.000000
_cell_length_c 18.000000
_cell_angle_alpha 90.000000
_cell_angle_beta 90.000000
_cell_angle_gamma 90.000000
_cell_volume 3888.000000
_symmetry_space_group_name_H-M "I M A 2"
_symmetry_group_IT_number 46
_symmetry_cell_setting 'orthorhombic'
loop_
_space_group_symop_operation_xyz
x,y,z
-x,-y,z
1/2-x,y,z
1/2+x,-y,z
1/2+x,1/2+y,1/2+z
1/2-x,1/2-y,1/2+z
-x,1/2+y,1/2+z
x,1/2-y,1/2+z
loop_
_atom_site_type_symbol
_atom_site_label
_atom_site_fract_x
_atom_site_fract_y
_atom_site_fract_z
Si Si1 0.574179 0.724194 0.706020
Si Si2 0.919115 0.219050 0.930377
Si Si3 0.926537 0.612969 0.484384
Si Si4 0.928184 0.119979 0.137280
Si Si5 0.426694 0.559321 0.792685
Si Si6 0.420456 0.828751 0.761164
Si Si7 0.929760 0.440328 0.337393
Si Si8 0.571684 0.174476 0.352764
O O1 0.750000 0.721105 0.694550
O O2 0.488434 0.682793 0.650492
O O3 0.517941 0.787948 0.710494
O O4 0.527041 0.698907 0.786113
O O5 0.750000 0.211351 0.958561
O O6 0.919512 0.197362 0.844729
O O7 0.953335 0.284799 0.922741
O O8 0.030113 0.178100 0.972123
O O9 0.750000 0.605318 0.482435
O O10 0.995601 0.596339 0.563469
O O11 0.003744 0.580139 0.416437
O O12 0.750000 0.120610 0.130334
O O13 0.967514 0.084541 0.211322
O O14 0.500000 0.500000 0.806216
O O15 0.250000 0.551738 0.792048
O O16 0.459855 0.608629 0.852048
O O17 0.250000 0.827690 0.734807
O O18 0.467815 0.892318 0.776865
O O19 0.750000 0.442646 0.342564
O O20 0.000000 0.500000 0.319590
O O21 0.750000 0.180355 0.334311
#
# Coordination Sequence:
#
# PCOD9381075 Si02
#       8
#     8   8   8   8   8   8   8   8
#     4  10  17  25  42  66  85 103 135 179 222 257
#     4   8  14  27  45  61  80 108 140 172 211 258
#     4  11  21  31  44  64  88 112 145 185 221 257
#     4  10  20  34  46  57  82 119 153 180 213 257
#     4   9  18  30  44  61  82 111 145 179 210 244
#     4   8  15  28  44  61  83 111 139 170 215 266
#     4  10  20  33  47  63  86 118 153 184 216 254
#     4   8  15  28  43  59  81 110 140 169 209 261
#
# _framework density 8.2304530000000007
#
# number of rings (size 3 to 8) (size 9 to 14) (size 15 to 20)
#    0.000    2.750    0.000    5.250    0.000    8.000 
#    0.000    1.250    0.000    0.000    0.000    0.000 
#    0.000    1.000    0.000    6.250    0.000    4.750 
#
# Total GULP energy -178185.530208 kJ/mol
# GULP energy per Si atom -5568.297819 kJ/mol
# Density = 0.821172 g / cm^3
# Si number density = 8.230453 Si / 1000 Ang^3
#
#
#
# Elastic Constant Matrix: (Units=GPa)
#
#
# Indices 1 2 3 4 5 6 
#
# 1 62.4594 28.0373 0.1106 0.0000 0.0000 0.0000
# 2 28.0373 130.2742 2.7673 0.0000 0.0000 0.0000
# 3 0.1106 2.7673 -0.4575 0.0000 0.0000 0.0000
# 4 0.0000 0.0000 0.0000 13.4508 0.0000 0.0000
# 5 0.0000 0.0000 0.0000 0.0000 14.6309 0.0000
# 6 0.0000 0.0000 0.0000 0.0000 0.0000 30.6987
#
#
#
# Elastic Compliance Matrix: (Units=1/GPa)
#
#
# Indices 1 2 3 4 5 6 
#
# 1 0.017581 -0.003433 -0.016515 0.000000 0.000000 0.000000
# 2 -0.003433 0.007472 0.044368 0.000000 0.000000 0.000000
# 3 -0.016515 0.044368 -1.921305 -0.000002 0.000001 0.000000
# 4 0.000000 0.000000 -0.000002 0.074345 0.000000 0.000000
# 5 0.000000 0.000000 0.000001 0.000000 0.068349 0.000000
# 6 0.000000 0.000000 0.000000 0.000000 0.000000 0.032575
#
#
# Mechanical properties :
#
#
# Convention : Reuss Voigt Hill
#
# Bulk Modulus (GPa) = -0.54130 28.23406 13.84638
# Shear Modulus (GPa) = -2.09588 22.51345 10.20878
#
# Velocity S-wave (km/s) = -1.12961 3.70224 2.49305
# Velocity P-wave (km/s) = 1.42510 5.95524 4.08864
#
# Compressibility (1/GPa) = -1.84741284
#
# Stress axis : x y z
#
# Youngs Moduli (GPa) = 56.88090 133.82500 -0.52048
#
# Poissons Ratio (x) = 0.45940 -0.00860
# Poissons Ratio (y) = 0.19526 0.02309
# Poissons Ratio (z) = 0.93938 -5.93749
#
# Static dielectric constant tensor:
#      x y z
#    x 1.547410 0.000000 0.000000 
#    y 0.000000 1.608120 0.000000 
#    z 0.000000 0.000000 1.548720 
# 
# From -- ./inp_files/18639.got.cif
#   From: 2010.05.17/outbox.ucp.g08.bks.cvg/sg46_10_cif.got.tgz:18639.got - 2010.06.11 16:34:52.
