data_PCOD9381753
_publ_section_title
;
Structure prediction by ZEFSAII (Michael W. Deem and Ramdas Pophale) SiO2 
 PCOD9381753
Probable space group: P M M M
;
_chemical_formula_sum "Si O2"
_cell_formula_units_Z 28
_cell_length_a 7.389540
_cell_length_b 11.860105
_cell_length_c 18.057924
_cell_angle_alpha 90.000000
_cell_angle_beta 90.000000
_cell_angle_gamma 90.000000
_cell_volume 1582.609467
_symmetry_space_group_name_H-M "P M M M"
_symmetry_group_IT_number 47
_symmetry_cell_setting 'orthorhombic'
loop_
_space_group_symop_operation_xyz
x,y,z
-x,-y,z
x,-y,-z
-x,y,-z
-x,-y,-z
x,y,-z
-x,y,z
x,-y,z
loop_
_atom_site_type_symbol
_atom_site_label
_atom_site_fract_x
_atom_site_fract_y
_atom_site_fract_z
Si Si1 0.782046 0.366396 0.292525
Si Si2 0.291017 0.500000 0.912034
Si Si3 0.779569 0.868104 0.000000
Si Si4 0.500000 0.364064 0.583479
Si Si5 0.796679 0.740275 0.144435
O O1 0.742533 0.500000 0.275627
O O2 0.675684 0.336330 0.367116
O O3 0.719941 0.283332 0.226212
O O4 0.000000 0.358476 0.299155
O O5 0.500000 0.500000 0.886533
O O6 0.197594 0.612959 0.885708
O O7 0.291444 0.500000 0.000000
O O8 0.713313 0.810794 0.923492
O O9 0.000000 0.853038 0.000000
O O10 0.739485 0.000000 0.000000
O O11 0.500000 0.500000 0.577787
O O12 0.500000 0.318380 0.500000
O O13 0.000000 0.785445 0.155187
#
# Coordination Sequence:
#
# PCOD9381753 Si02
#       5
#     8   4   4   4   8
#     4   9  17  27  42  67  92 118 156 194 229 274
#     4  11  21  27  39  67  91 116 157 198 238 272
#     4   9  18  31  47  66  90 125 164 197 232 278
#     4   9  18  30  44  63  91 128 152 175 229 288
#     4  10  18  29  46  65  90 122 157 198 236 268
#
# _framework density 17.692298000000001
#
# number of rings (size 3 to 8) (size 9 to 14) (size 15 to 20)
#    0.000    2.429    2.857    0.429    2.000    1.143 
#    0.000    2.857    0.000    1.714    0.000    0.000 
#    0.000    2.286    0.000   11.143    0.000    0.286 
#
# Total GULP energy -155887.446704 kJ/mol
# GULP energy per Si atom -5567.408811 kJ/mol
# Density = 1.765203 g / cm^3
# Si number density = 17.692298 Si / 1000 Ang^3
#
#
#
# Elastic Constant Matrix: (Units=GPa)
#
#
# Indices 1 2 3 4 5 6 
#
# 1 75.2357 2.5611 40.9673 0.0000 0.0000 0.0000
# 2 2.5611 56.3390 43.2262 0.0000 0.0000 0.0000
# 3 40.9673 43.2262 182.8924 0.0000 0.0000 0.0000
# 4 0.0000 0.0000 0.0000 5.8664 0.0000 0.0000
# 5 0.0000 0.0000 0.0000 0.0000 -33.6508 0.0000
# 6 0.0000 0.0000 0.0000 0.0000 0.0000 -4.6957
#
#
#
# Elastic Compliance Matrix: (Units=1/GPa)
#
#
# Indices 1 2 3 4 5 6 
#
# 1 0.015394 0.002377 -0.004010 0.000000 0.000000 0.000000
# 2 0.002377 0.022048 -0.005743 0.000000 0.000000 0.000000
# 3 -0.004010 -0.005743 0.007723 0.000000 0.000000 0.000000
# 4 0.000000 0.000000 0.000000 0.170462 0.000000 0.000000
# 5 0.000000 0.000000 0.000000 0.000000 -0.029717 0.000000
# 6 0.000000 0.000000 0.000000 0.000000 0.000000 -0.212960
#
#
# Mechanical properties :
#
#
# Convention : Reuss Voigt Hill
#
# Bulk Modulus (GPa) = 32.88102 54.21959 43.55030
# Shear Modulus (GPa) = -2317.13730 8.68482 -1154.22624
#
# Velocity S-wave (km/s) = -36.22886 2.21799 -25.56962
# Velocity P-wave (km/s) = 41.61028 6.10505 29.10450
#
# Compressibility (1/GPa) = 0.03041268
#
# Stress axis : x y z
#
# Youngs Moduli (GPa) = 64.95959 45.35488 129.47693
#
# Poissons Ratio (x) = -0.10780 0.51920
# Poissons Ratio (y) = -0.15440 0.74365
# Poissons Ratio (z) = 0.26049 0.26050
#
# Static dielectric constant tensor:
#      x y z
#    x 1.681020 0.000000 0.000000 
#    y 0.000000 1.572470 0.000000 
#    z 0.000000 0.000000 1.646920 
# 
# From -- ./inp_files/3519.got.cif
#   From: 2010.05.17/outbox.cif.g08.bks.cpg/sg47_2_cif.got.tgz:3519.got - 2010.06.03 20:15:42.
