data_PCOD9381180
_publ_section_title
;
Structure prediction by ZEFSAII (Michael W. Deem and Ramdas Pophale) SiO2 
 PCOD9381180
Probable space group: P M M M
;
_chemical_formula_sum "Si O2"
_cell_formula_units_Z 64
_cell_length_a 21.084463
_cell_length_b 7.324697
_cell_length_c 20.263049
_cell_angle_alpha 90.000000
_cell_angle_beta 90.000000
_cell_angle_gamma 90.000000
_cell_volume 3129.370636
_symmetry_space_group_name_H-M "P M M M"
_symmetry_group_IT_number 47
_symmetry_cell_setting 'orthorhombic'
loop_
_space_group_symop_operation_xyz
x,y,z
-x,-y,z
x,-y,-z
-x,y,-z
-x,-y,-z
x,y,-z
-x,y,z
x,-y,z
loop_
_atom_site_type_symbol
_atom_site_label
_atom_site_fract_x
_atom_site_fract_y
_atom_site_fract_z
Si Si1 0.242617 0.218755 0.428822
Si Si2 0.433327 0.717623 0.742384
Si Si3 0.194803 0.277372 0.196057
Si Si4 0.929159 0.277937 0.276517
Si Si5 0.094024 0.710786 0.426441
Si Si6 0.570515 0.716358 0.099753
Si Si7 0.715673 0.721501 0.925909
Si Si8 0.301217 0.292866 0.705657
O O1 0.268578 0.270353 0.500000
O O2 0.170228 0.282928 0.425157
O O3 0.281891 0.295719 0.369376
O O4 0.241483 0.000000 0.423627
O O5 0.500000 0.793452 0.718392
O O6 0.434514 0.500000 0.728270
O O7 0.430682 0.736118 0.821267
O O8 0.368924 0.795816 0.714666
O O9 0.190656 0.500000 0.192755
O O10 0.126093 0.218892 0.225372
O O11 0.231998 0.220639 0.128765
O O12 0.243730 0.215513 0.252613
O O13 0.923967 0.500000 0.280309
O O14 0.923832 0.214437 0.353672
O O15 0.000000 0.231833 0.253358
O O16 0.075956 0.786783 0.500000
O O17 0.073125 0.500000 0.427111
O O18 0.500000 0.785094 0.077014
O O19 0.570389 0.500000 0.083421
O O20 0.641420 0.784198 0.080840
O O21 0.712247 0.500000 0.920038
O O22 0.736433 0.767785 0.000000
O O23 0.307020 0.500000 0.732011
#
# Coordination Sequence:
#
# PCOD9381180 Si02
#       8
#     8   8   8   8   8   8   8   8
#     4  10  20  31  43  63  91 117 141 174 217 259
#     4   8  13  21  36  60  85 106 133 176 226 262
#     4   9  15  24  37  57  80 104 142 183 213 248
#     4   9  16  25  39  60  84 108 136 178 223 251
#     4   9  16  27  44  65  87 111 141 173 208 257
#     4   8  12  18  28  46  76 110 140 169 205 253
#     4   9  15  21  30  47  77 116 148 174 210 255
#     4  10  16  26  47  66  82 111 148 185 216 251
#
# _framework density 20.451395999999999
#
# number of rings (size 3 to 8) (size 9 to 14) (size 15 to 20)
#    0.000    3.000    2.500    1.125    0.000    1.250 
#    0.000    2.500    0.000    1.500    0.000    7.000 
#    0.000    0.500    0.000    0.000    0.000    5.250 
#
# Total GULP energy -356283.253213 kJ/mol
# GULP energy per Si atom -5566.925831 kJ/mol
# Density = 2.040485 g / cm^3
# Si number density = 20.451396 Si / 1000 Ang^3
#
#
#
# Elastic Constant Matrix: (Units=GPa)
#
#
# Indices 1 2 3 4 5 6 
#
# 1 195.1768 7.9608 95.3680 0.0000 0.0000 0.0000
# 2 7.9608 76.6023 3.5120 0.0000 0.0000 0.0000
# 3 95.3680 3.5120 124.5903 0.0000 0.0000 0.0000
# 4 0.0000 0.0000 0.0000 33.7109 0.0000 0.0000
# 5 0.0000 0.0000 0.0000 0.0000 25.2095 0.0000
# 6 0.0000 0.0000 0.0000 0.0000 0.0000 6.0584
#
#
#
# Elastic Compliance Matrix: (Units=1/GPa)
#
#
# Indices 1 2 3 4 5 6 
#
# 1 0.008209 -0.000566 -0.006268 0.000000 0.000000 0.000000
# 2 -0.000566 0.013110 0.000064 0.000000 0.000000 0.000000
# 3 -0.006268 0.000064 0.012822 0.000000 0.000000 0.000000
# 4 0.000000 0.000000 0.000000 0.029664 0.000000 0.000000
# 5 0.000000 0.000000 0.000000 0.000000 0.039668 0.000000
# 6 0.000000 0.000000 0.000000 0.000000 0.000000 0.165060
#
#
# Mechanical properties :
#
#
# Convention : Reuss Voigt Hill
#
# Bulk Modulus (GPa) = 48.53988 67.78345 58.16166
# Shear Modulus (GPa) = 17.30459 32.29767 24.80113
#
# Velocity S-wave (km/s) = 2.91199 3.97828 3.48614
# Velocity P-wave (km/s) = 5.92385 7.37007 6.68618
#
# Compressibility (1/GPa) = 0.02060162
#
# Stress axis : x y z
#
# Youngs Moduli (GPa) = 121.81379 76.27577 77.98941
#
# Poissons Ratio (x) = 0.04315 0.48883
# Poissons Ratio (y) = 0.06892 -0.00495
# Poissons Ratio (z) = 0.76351 -0.00484
#
# Static dielectric constant tensor:
#      x y z
#    x 1.742960 0.000000 0.000000 
#    y 0.000000 1.788960 0.000000 
#    z 0.000000 0.000000 1.710190 
# 
# From -- ./inp_files/31540.got.cif
#   From: 2010.05.17/outbox.cif.g08.bks.cpg/sg47_16_cif.got.tgz:31540.got - 2010.06.03 20:15:42.
