data_PCOD9381531
_publ_section_title
;
Structure prediction by ZEFSAII (Michael W. Deem and Ramdas Pophale) SiO2 
 PCOD9381531
Probable space group: P M M M
;
_chemical_formula_sum "Si O2"
_cell_formula_units_Z 48
_cell_length_a 7.510902
_cell_length_b 24.771877
_cell_length_c 14.300484
_cell_angle_alpha 90.000000
_cell_angle_beta 90.000000
_cell_angle_gamma 90.000000
_cell_volume 2660.735762
_symmetry_space_group_name_H-M "P M M M"
_symmetry_group_IT_number 47
_symmetry_cell_setting 'orthorhombic'
loop_
_space_group_symop_operation_xyz
x,y,z
-x,-y,z
x,-y,-z
-x,y,-z
-x,-y,-z
x,y,-z
-x,y,z
x,-y,z
loop_
_atom_site_type_symbol
_atom_site_label
_atom_site_fract_x
_atom_site_fract_y
_atom_site_fract_z
Si Si1 0.782977 0.060389 0.891523
Si Si2 0.718314 0.332514 0.710641
Si Si3 0.714270 0.224647 0.604711
Si Si4 0.210102 0.832368 0.206313
Si Si5 0.708166 0.722148 0.895944
Si Si6 0.282974 0.439588 0.608190
O O1 0.720480 0.109816 0.827829
O O2 0.000000 0.059757 0.888707
O O3 0.723975 0.000000 0.864624
O O4 0.733470 0.069726 0.000000
O O5 0.500000 0.332367 0.711305
O O6 0.772833 0.283456 0.642331
O O7 0.781664 0.316234 0.814187
O O8 0.776923 0.390206 0.672190
O O9 0.779960 0.213685 0.500000
O O10 0.500000 0.226390 0.601207
O O11 0.760637 0.181917 0.685229
O O12 0.283105 0.782770 0.145063
O O13 0.000000 0.832004 0.189186
O O14 0.500000 0.708484 0.903288
O O15 0.786063 0.719011 0.000000
O O16 0.230964 0.430809 0.500000
O O17 0.500000 0.439322 0.609523
O O18 0.226305 0.500000 0.636100
#
# Coordination Sequence:
#
# PCOD9381531 Si02
#       6
#     8   8   8   8   8   8
#     4   8  14  25  41  61  84 108 132 159 196 243
#     4   8  13  22  36  53  74 103 137 166 194 235
#     4   9  17  29  44  60  81 112 143 166 195 241
#     4  10  18  27  43  66  87 105 130 168 209 242
#     4   9  17  28  41  57  80 111 141 166 197 242
#     4   8  12  17  28  49  75 100 127 163 205 243
#
# _framework density 18.040123000000001
#
# number of rings (size 3 to 8) (size 9 to 14) (size 15 to 20)
#    0.000    3.333    0.000    3.500    0.000    3.333 
#    0.000    0.000    0.000    3.000    0.000   12.833 
#    0.000   10.667    0.000   42.667    0.000   40.000 
#
# Total GULP energy -267474.599569 kJ/mol
# GULP energy per Si atom -5572.387491 kJ/mol
# Density = 1.799906 g / cm^3
# Si number density = 18.040123 Si / 1000 Ang^3
#
#
#
# Elastic Constant Matrix: (Units=GPa)
#
#
# Indices 1 2 3 4 5 6 
#
# 1 45.1314 -0.3308 -1.6759 0.0000 0.0000 0.0000
# 2 -0.3308 174.0757 105.2042 0.0000 0.0000 0.0000
# 3 -1.6759 105.2042 143.1625 0.0000 0.0000 0.0000
# 4 0.0000 0.0000 0.0000 20.6538 0.0000 0.0000
# 5 0.0000 0.0000 0.0000 0.0000 5.0949 0.0000
# 6 0.0000 0.0000 0.0000 0.0000 0.0000 13.0218
#
#
#
# Elastic Compliance Matrix: (Units=1/GPa)
#
#
# Indices 1 2 3 4 5 6 
#
# 1 0.022171 -0.000206 0.000411 0.000000 0.000000 0.000000
# 2 -0.000206 0.010336 -0.007598 0.000000 0.000000 0.000000
# 3 0.000411 -0.007598 0.012573 0.000000 0.000000 0.000000
# 4 0.000000 0.000000 0.000000 0.048417 0.000000 0.000000
# 5 0.000000 0.000000 0.000000 0.000000 0.196274 0.000000
# 6 0.000000 0.000000 0.000000 0.000000 0.000000 0.076794
#
#
# Mechanical properties :
#
#
# Convention : Reuss Voigt Hill
#
# Bulk Modulus (GPa) = 33.00943 63.19608 48.10276
# Shear Modulus (GPa) = 12.77300 25.03223 18.90261
#
# Velocity S-wave (km/s) = 2.66378 3.72907 3.24050
# Velocity P-wave (km/s) = 5.27242 7.32449 6.38148
#
# Compressibility (1/GPa) = 0.03029437
#
# Stress axis : x y z
#
# Youngs Moduli (GPa) = 45.10341 96.74745 79.53311
#
# Poissons Ratio (x) = 0.01997 -0.03270
# Poissons Ratio (y) = 0.00931 0.60430
# Poissons Ratio (z) = -0.01855 0.73509
#
# Static dielectric constant tensor:
#      x y z
#    x 1.715980 0.000000 0.000000 
#    y 0.000000 1.608660 0.000000 
#    z 0.000000 0.000000 1.622810 
# 
# From -- ./inp_files/6735.got.cif
#   From: 2010.05.17/outbox.cif.g08.bks.cpg/sg47_4_cif.got.tgz:6735.got - 2010.06.03 20:15:42.
