data_PCOD9381523
_publ_section_title
;
Structure prediction by ZEFSAII (Michael W. Deem and Ramdas Pophale) SiO2 
 PCOD9381523
Probable space group: P M M M
;
_chemical_formula_sum "Si O2"
_cell_formula_units_Z 40
_cell_length_a 23.245208
_cell_length_b 7.900971
_cell_length_c 14.686714
_cell_angle_alpha 90.000000
_cell_angle_beta 90.000000
_cell_angle_gamma 90.000000
_cell_volume 2697.357697
_symmetry_space_group_name_H-M "P M M M"
_symmetry_group_IT_number 47
_symmetry_cell_setting 'orthorhombic'
loop_
_space_group_symop_operation_xyz
x,y,z
-x,-y,z
x,-y,-z
-x,y,-z
-x,-y,-z
x,y,-z
-x,y,z
x,-y,z
loop_
_atom_site_type_symbol
_atom_site_label
_atom_site_fract_x
_atom_site_fract_y
_atom_site_fract_z
Si Si1 0.644800 0.188165 0.110708
Si Si2 0.227478 0.294820 0.893751
Si Si3 0.000000 0.707330 0.105689
Si Si4 0.433735 0.500000 0.111183
Si Si5 0.933906 0.795792 0.602269
Si Si6 0.885650 0.297861 0.790646
O O1 0.710749 0.225475 0.136765
O O2 0.601515 0.334416 0.140990
O O3 0.627646 0.000000 0.139432
O O4 0.644637 0.192698 0.000000
O O5 0.230860 0.500000 0.890080
O O6 0.173587 0.234431 0.834302
O O7 0.218317 0.249210 0.000000
O O8 0.057574 0.766869 0.156821
O O9 0.000000 0.500000 0.108516
O O10 0.000000 0.756257 0.000000
O O11 0.500000 0.500000 0.140286
O O12 0.433706 0.500000 0.000000
O O13 0.917865 0.740268 0.500000
O O14 0.894158 0.737036 0.684256
O O15 0.000000 0.738842 0.619431
O O16 0.934450 0.000000 0.602426
O O17 0.885136 0.500000 0.804095
#
# Coordination Sequence:
#
# PCOD9381523 Si02
#       6
#     8   8   4   4   8   8
#     4   9  16  26  40  57  78 108 146 180 211 251
#     4   9  16  27  41  57  81 112 141 171 211 258
#     4   9  16  26  38  57  84 106 129 167 214 259
#     4   9  16  26  40  58  82 109 138 179 222 249
#     4   9  18  32  46  57  74 102 131 166 219 272
#     4  10  18  27  43  64  79  99 135 174 213 256
#
# _framework density 14.829328
#
# number of rings (size 3 to 8) (size 9 to 14) (size 15 to 20)
#    0.000    2.800    2.000    1.200    0.000    4.000 
#    0.000    3.000    0.000    2.400    0.000    0.000 
#    0.000    0.000    0.000    0.000    0.000    2.000 
#
# Total GULP energy -222899.202691 kJ/mol
# GULP energy per Si atom -5572.480067 kJ/mol
# Density = 1.479558 g / cm^3
# Si number density = 14.829328 Si / 1000 Ang^3
#
#
#
# Elastic Constant Matrix: (Units=GPa)
#
#
# Indices 1 2 3 4 5 6 
#
# 1 130.1079 50.2680 43.5548 0.0000 0.0000 0.0000
# 2 50.2680 56.3072 13.2527 0.0000 0.0000 0.0000
# 3 43.5548 13.2527 57.6710 0.0000 0.0000 0.0000
# 4 0.0000 0.0000 0.0000 0.3446 0.0000 0.0000
# 5 0.0000 0.0000 0.0000 0.0000 3.7167 0.0000
# 6 0.0000 0.0000 0.0000 0.0000 0.0000 4.4443
#
#
#
# Elastic Compliance Matrix: (Units=1/GPa)
#
#
# Indices 1 2 3 4 5 6 
#
# 1 0.014974 -0.011318 -0.008708 0.000000 0.000000 0.000000
# 2 -0.011318 0.027330 0.002267 0.000000 0.000000 0.000000
# 3 -0.008708 0.002267 0.023395 0.000000 0.000000 0.000000
# 4 0.000000 0.000000 0.000000 2.902041 0.000000 0.000000
# 5 0.000000 0.000000 0.000000 0.000000 0.269059 0.000000
# 6 0.000000 0.000000 0.000000 0.000000 0.000000 0.225005
#
#
# Mechanical properties :
#
#
# Convention : Reuss Voigt Hill
#
# Bulk Modulus (GPa) = 33.13230 50.91524 42.02377
# Shear Modulus (GPa) = 1.42556 10.83516 6.13036
#
# Velocity S-wave (km/s) = 0.98153 2.70600 2.03542
# Velocity P-wave (km/s) = 4.86574 6.64620 5.82441
#
# Compressibility (1/GPa) = 0.03018203
#
# Stress axis : x y z
#
# Youngs Moduli (GPa) = 66.78319 36.58923 42.74419
#
# Poissons Ratio (x) = 0.41413 0.37220
# Poissons Ratio (y) = 0.75588 -0.09692
# Poissons Ratio (z) = 0.58153 -0.08296
#
# Static dielectric constant tensor:
#      x y z
#    x 1.484480 0.000000 0.000000 
#    y 0.000000 1.538870 0.000000 
#    z 0.000000 0.000000 1.464580 
# 
# From -- ./inp_files/6661.got.cif
#   From: 2010.05.17/outbox.cif.g08.bks.cpg/sg47_4_cif.got.tgz:6661.got - 2010.06.03 20:15:42.
