data_PCOD9381734
_publ_section_title
;
Structure prediction by ZEFSAII (Michael W. Deem and Ramdas Pophale) SiO2 
 PCOD9381734
Probable space group: P M M M
;
_chemical_formula_sum "Si O2"
_cell_formula_units_Z 52
_cell_length_a 16.161391
_cell_length_b 14.254652
_cell_length_c 14.450335
_cell_angle_alpha 90.000000
_cell_angle_beta 90.000000
_cell_angle_gamma 90.000000
_cell_volume 3328.995991
_symmetry_space_group_name_H-M "P M M M"
_symmetry_group_IT_number 47
_symmetry_cell_setting 'orthorhombic'
loop_
_space_group_symop_operation_xyz
x,y,z
-x,-y,z
x,-y,-z
-x,y,-z
-x,-y,-z
x,y,-z
-x,y,z
x,-y,z
loop_
_atom_site_type_symbol
_atom_site_label
_atom_site_fract_x
_atom_site_fract_y
_atom_site_fract_z
Si Si1 0.097498 0.108810 0.768347
Si Si2 0.758554 0.391549 0.611467
Si Si3 0.093961 0.746796 0.609942
Si Si4 0.158741 0.728671 0.889654
Si Si5 0.000000 0.607196 0.112941
Si Si6 0.409613 0.387140 0.707509
Si Si7 0.324003 0.610646 0.106181
O O1 0.104602 0.158760 0.668720
O O2 0.149799 0.173143 0.837658
O O3 0.000000 0.114639 0.795228
O O4 0.120907 0.000000 0.767097
O O5 0.753279 0.391274 0.500000
O O6 0.770266 0.500000 0.641467
O O7 0.836283 0.327724 0.638373
O O8 0.671848 0.355156 0.652721
O O9 0.101776 0.763218 0.500000
O O10 0.000000 0.712008 0.626983
O O11 0.243585 0.673073 0.873264
O O12 0.081644 0.663858 0.858994
O O13 0.151445 0.742570 0.000000
O O14 0.000000 0.500000 0.145661
O O15 0.000000 0.604272 0.000000
O O16 0.500000 0.350227 0.679836
O O17 0.411708 0.500000 0.693778
O O18 0.392152 0.370702 0.816002
O O19 0.301511 0.500000 0.113111
O O20 0.350155 0.627406 0.000000
#
# Coordination Sequence:
#
# PCOD9381734 Si02
#       7
#     8   8   8   8   4   8   8
#     4  10  20  32  45  61  85 117 155 196 231 266
#     4   9  17  29  46  68  94 122 149 181 221 266
#     4   9  18  32  49  67  89 118 152 188 225 265
#     4  10  18  29  44  63  89 119 151 187 224 265
#     4   9  16  26  41  61  86 117 151 183 215 255
#     4   9  17  28  42  61  88 123 158 188 217 256
#     4   9  17  28  43  63  88 119 151 185 225 264
#
# _framework density 15.620326
#
# number of rings (size 3 to 8) (size 9 to 14) (size 15 to 20)
#    0.000    2.692    0.769    1.385    0.000    3.385 
#    0.000    7.692    0.000    0.000    0.000    0.000 
#    0.000    9.846    0.000   27.077    0.000    1.538 
#
# Total GULP energy -289793.993703 kJ/mol
# GULP energy per Si atom -5572.961417 kJ/mol
# Density = 1.558477 g / cm^3
# Si number density = 15.620326 Si / 1000 Ang^3
#
#
#
# Elastic Constant Matrix: (Units=GPa)
#
#
# Indices 1 2 3 4 5 6 
#
# 1 83.9821 42.8588 27.5042 0.0000 0.0000 0.0000
# 2 42.8588 79.9871 22.8459 0.0000 0.0000 0.0000
# 3 27.5042 22.8459 34.5849 0.0000 0.0000 0.0000
# 4 0.0000 0.0000 0.0000 18.3598 0.0000 0.0000
# 5 0.0000 0.0000 0.0000 0.0000 11.9175 0.0000
# 6 0.0000 0.0000 0.0000 0.0000 0.0000 6.4414
#
#
#
# Elastic Compliance Matrix: (Units=1/GPa)
#
#
# Indices 1 2 3 4 5 6 
#
# 1 0.018970 -0.007217 -0.010318 0.000000 0.000000 0.000000
# 2 -0.007217 0.018155 -0.006253 0.000000 0.000000 0.000000
# 3 -0.010318 -0.006253 0.041251 0.000000 0.000000 0.000000
# 4 0.000000 0.000000 0.000000 0.054467 0.000000 0.000000
# 5 0.000000 0.000000 0.000000 0.000000 0.083910 0.000000
# 6 0.000000 0.000000 0.000000 0.000000 0.000000 0.155246
#
#
# Mechanical properties :
#
#
# Convention : Reuss Voigt Hill
#
# Bulk Modulus (GPa) = 32.46957 42.77464 37.62210
# Shear Modulus (GPa) = 11.63216 14.36676 12.99946
#
# Velocity S-wave (km/s) = 2.73184 3.03602 2.88794
# Velocity P-wave (km/s) = 5.54820 6.30344 5.93784
#
# Compressibility (1/GPa) = 0.03079807
#
# Stress axis : x y z
#
# Youngs Moduli (GPa) = 52.71533 55.08055 24.24181
#
# Poissons Ratio (x) = 0.39753 0.25014
# Poissons Ratio (y) = 0.38046 0.15159
# Poissons Ratio (z) = 0.54394 0.34443
#
# Static dielectric constant tensor:
#      x y z
#    x 1.522010 0.000000 0.000000 
#    y 0.000000 1.487560 0.000000 
#    z 0.000000 0.000000 1.562170 
# 
# From -- ./inp_files/22869.got.cif
#   From: 2010.05.17/outbox.cif.g08.bks.cpg/sg47_12_cif.got.tgz:22869.got - 2010.06.03 20:15:42.
