data_PCOD9381121
_publ_section_title
;
Structure prediction by ZEFSAII (Michael W. Deem and Ramdas Pophale) SiO2 
 PCOD9381121
Probable space group: I M A 2
;
_chemical_formula_sum "Si O2"
_cell_formula_units_Z 24
_cell_length_a 9.000000
_cell_length_b 9.000000
_cell_length_c 30.000000
_cell_angle_alpha 90.000000
_cell_angle_beta 90.000000
_cell_angle_gamma 90.000000
_cell_volume 2430.000000
_symmetry_space_group_name_H-M "I M A 2"
_symmetry_group_IT_number 46
_symmetry_cell_setting 'orthorhombic'
loop_
_space_group_symop_operation_xyz
x,y,z
-x,-y,z
1/2-x,y,z
1/2+x,-y,z
1/2+x,1/2+y,1/2+z
1/2-x,1/2-y,1/2+z
-x,1/2+y,1/2+z
x,1/2-y,1/2+z
loop_
_atom_site_type_symbol
_atom_site_label
_atom_site_fract_x
_atom_site_fract_y
_atom_site_fract_z
Si Si1 0.415687 0.143553 0.853200
Si Si2 0.071786 0.342622 0.774916
Si Si3 0.927248 0.844463 0.689970
Si Si4 0.075719 0.843003 0.010012
Si Si5 0.084150 0.146368 0.437836
Si Si6 0.925852 0.153734 0.595589
O O1 0.250000 0.098538 0.839733
O O2 0.485694 0.225065 0.811011
O O3 0.408539 0.252960 0.894424
O O4 0.500000 0.000000 0.868075
O O5 0.250000 0.354025 0.780522
O O6 0.040434 0.280957 0.725986
O O7 0.000000 0.500000 0.782695
O O8 0.750000 0.862464 0.686320
O O9 0.997418 0.809322 0.642250
O O10 0.000000 0.000000 0.704676
O O11 0.250000 0.855325 0.001650
O O12 0.004538 0.727708 0.976281
O O13 0.051996 0.780942 0.059536
O O14 0.000000 0.000000 0.003793
O O15 0.250000 0.112834 0.453790
O O16 0.000000 0.000000 0.424607
O O17 0.750000 0.130032 0.601874
O O18 0.000000 0.000000 0.579564
#
# Coordination Sequence:
#
# PCOD9381121 Si02
#       6
#     8   8   8   8   8   8
#     4  10  22  39  59  85 115 148 187 230 278 332
#     4  10  22  38  56  82 114 148 187 229 276 330
#     4  10  20  35  57  83 111 145 186 231 278 331
#     4  11  24  40  59  84 115 151 190 234 284 337
#     4  11  23  39  61  87 116 150 189 233 281 335
#     4  10  21  37  58  83 111 146 187 231 281 335
#
# _framework density 9.8765429999999999
#
# number of rings (size 3 to 8) (size 9 to 14) (size 15 to 20)
#    0.000    1.667    0.000    5.000    0.000    9.333 
#    0.000    3.333    0.000    0.000    0.000    0.000 
#    0.000    0.000    0.000    0.000    0.000    0.000 
#
# Total GULP energy -133993.886831 kJ/mol
# GULP energy per Si atom -5583.078618 kJ/mol
# Density = 0.985406 g / cm^3
# Si number density = 9.876543 Si / 1000 Ang^3
#
#
#
# Elastic Constant Matrix: (Units=GPa)
#
#
# Indices 1 2 3 4 5 6 
#
# 1 24.8233 56.7025 25.1520 0.0000 0.0000 0.0000
# 2 56.7025 71.7047 24.9689 0.0000 0.0000 0.0000
# 3 25.1520 24.9689 15.1720 0.0000 0.0000 0.0000
# 4 0.0000 0.0000 0.0000 30.3211 0.0000 0.0000
# 5 0.0000 0.0000 0.0000 0.0000 45.2686 0.0000
# 6 0.0000 0.0000 0.0000 0.0000 0.0000 15.5897
#
#
#
# Elastic Compliance Matrix: (Units=1/GPa)
#
#
# Indices 1 2 3 4 5 6 
#
# 1 -0.040767 0.020388 0.034031 0.000000 0.000000 0.000000
# 2 0.020388 0.022470 -0.070778 0.000000 0.000000 0.000000
# 3 0.034031 -0.070778 0.125975 0.000000 0.000000 0.000000
# 4 0.000000 0.000000 0.000000 0.032980 0.000000 0.000000
# 5 0.000000 0.000000 0.000000 0.000000 0.022090 0.000000
# 6 0.000000 0.000000 0.000000 0.000000 0.000000 0.064145
#
#
# Mechanical properties :
#
#
# Convention : Reuss Voigt Hill
#
# Bulk Modulus (GPa) = 13.34052 36.14964 24.74508
# Shear Modulus (GPa) = 17.56863 18.56100 18.06481
#
# Velocity S-wave (km/s) = 2.98554 3.06870 3.02740
# Velocity P-wave (km/s) = 4.31890 5.55845 4.97741
#
# Compressibility (1/GPa) = 0.07495957
#
# Stress axis : x y z
#
# Youngs Moduli (GPa) = -24.52944 44.50322 7.93809
#
# Poissons Ratio (x) = -0.90731 -0.27014
# Poissons Ratio (y) = 0.50010 0.56184
# Poissons Ratio (z) = 0.83477 3.14985
#
# Static dielectric constant tensor:
#      x y z
#    x 1.508850 0.000000 0.000000 
#    y 0.000000 1.655670 0.000000 
#    z 0.000000 0.000000 1.669770 
# 
# From -- ./inp_files/24971.got.cif
#   From: 2010.05.17/outbox.ucp.g08.bks.cvg/sg46_13_cif.got.tgz:24971.got - 2010.06.11 16:34:52.
