data_PCOD9381535
_publ_section_title
;
Structure prediction by ZEFSAII (Michael W. Deem and Ramdas Pophale) SiO2 
 PCOD9381535
Probable space group: P M M M
;
_chemical_formula_sum "Si O2"
_cell_formula_units_Z 52
_cell_length_a 14.012922
_cell_length_b 23.321466
_cell_length_c 7.369148
_cell_angle_alpha 90.000000
_cell_angle_beta 90.000000
_cell_angle_gamma 90.000000
_cell_volume 2408.251450
_symmetry_space_group_name_H-M "P M M M"
_symmetry_group_IT_number 47
_symmetry_cell_setting 'orthorhombic'
loop_
_space_group_symop_operation_xyz
x,y,z
-x,-y,z
x,-y,-z
-x,y,-z
-x,-y,-z
x,y,-z
-x,y,z
x,-y,z
loop_
_atom_site_type_symbol
_atom_site_label
_atom_site_fract_x
_atom_site_fract_y
_atom_site_fract_z
Si Si1 0.693544 0.872066 0.277848
Si Si2 0.500000 0.065317 0.279191
Si Si3 0.391985 0.753628 0.284254
Si Si4 0.104691 0.103281 0.294615
Si Si5 0.105098 0.235555 0.783626
Si Si6 0.891804 0.434027 0.221220
Si Si7 0.757222 0.333509 0.782676
O O1 0.700109 0.872493 0.500000
O O2 0.596830 0.903617 0.223500
O O3 0.676117 0.805875 0.217918
O O4 0.789634 0.904552 0.213054
O O5 0.500000 0.066849 0.500000
O O6 0.500000 0.000000 0.220878
O O7 0.396946 0.761966 0.500000
O O8 0.500000 0.759384 0.213887
O O9 0.348360 0.690482 0.253161
O O10 0.104742 0.080205 0.500000
O O11 0.105938 0.172808 0.300868
O O12 0.000000 0.087665 0.214227
O O13 0.178808 0.281145 0.711421
O O14 0.000000 0.260616 0.758465
O O15 0.118348 0.227073 0.000000
O O16 0.877614 0.500000 0.277170
O O17 0.807031 0.391830 0.282231
O O18 0.000000 0.416359 0.275033
O O19 0.891708 0.433569 0.000000
O O20 0.766875 0.334690 0.000000
#
# Coordination Sequence:
#
# PCOD9381535 Si02
#       7
#     8   4   8   8   8   8   8
#     4   9  15  26  42  61  88 117 148 186 224 266
#     4   9  16  26  44  68  89 115 154 195 228 260
#     4  10  19  31  46  63  87 120 151 183 230 283
#     4   9  16  25  39  59  85 118 148 173 211 267
#     4   9  16  24  35  57  90 118 139 169 210 256
#     4   8  14  26  45  68  93 122 154 186 224 271
#     4  10  18  27  43  67  92 115 146 187 228 267
#
# _framework density 21.592428000000002
#
# number of rings (size 3 to 8) (size 9 to 14) (size 15 to 20)
#    0.000    2.846    2.308    0.923    0.000    2.154 
#    0.000    0.000    0.000    2.769    0.000    7.538 
#    0.000    4.923    0.000    3.846    0.000    4.000 
#
# Total GULP energy -289731.241449 kJ/mol
# GULP energy per Si atom -5571.754643 kJ/mol
# Density = 2.154328 g / cm^3
# Si number density = 21.592428 Si / 1000 Ang^3
#
#
#
# Elastic Constant Matrix: (Units=GPa)
#
#
# Indices 1 2 3 4 5 6 
#
# 1 173.3811 40.1964 4.8057 0.0000 0.0000 0.0000
# 2 40.1964 68.4780 -4.8910 0.0000 0.0000 0.0000
# 3 4.8057 -4.8910 76.0385 0.0000 0.0000 0.0000
# 4 0.0000 0.0000 0.0000 3.1896 0.0000 0.0000
# 5 0.0000 0.0000 0.0000 0.0000 6.6656 0.0000
# 6 0.0000 0.0000 0.0000 0.0000 0.0000 -5.8576
#
#
#
# Elastic Compliance Matrix: (Units=1/GPa)
#
#
# Indices 1 2 3 4 5 6 
#
# 1 0.006711 -0.003988 -0.000681 0.000000 0.000000 0.000000
# 2 -0.003988 0.017040 0.001348 0.000000 0.000000 0.000000
# 3 -0.000681 0.001348 0.013281 0.000000 0.000000 0.000000
# 4 0.000000 0.000000 0.000000 0.313523 0.000000 0.000000
# 5 0.000000 0.000000 0.000000 0.000000 0.150024 0.000000
# 6 0.000000 0.000000 0.000000 0.000000 0.000000 -0.170717
#
#
# Mechanical properties :
#
#
# Convention : Reuss Voigt Hill
#
# Bulk Modulus (GPa) = 32.90400 44.23554 38.56977
# Shear Modulus (GPa) = 14.42441 19.31860 16.87150
#
# Velocity S-wave (km/s) = 2.58743 2.99439 2.79832
# Velocity P-wave (km/s) = 4.91916 5.69967 5.32374
#
# Compressibility (1/GPa) = 0.03039144
#
# Stress axis : x y z
#
# Youngs Moduli (GPa) = 149.00731 58.68383 75.29576
#
# Poissons Ratio (x) = 0.23403 0.05125
# Poissons Ratio (y) = 0.59424 -0.10151
# Poissons Ratio (z) = 0.10142 -0.07911
#
# Static dielectric constant tensor:
#      x y z
#    x 1.870590 0.000000 0.000000 
#    y 0.000000 1.760570 0.000000 
#    z 0.000000 0.000000 1.856820 
# 
# From -- ./inp_files/6988.got.cif
#   From: 2010.05.17/outbox.cif.g08.bks.cpg/sg47_4_cif.got.tgz:6988.got - 2010.06.03 20:15:42.
