data_PCOD9381293
_publ_section_title
;
Structure prediction by ZEFSAII (Michael W. Deem and Ramdas Pophale) SiO2 
 PCOD9381293
Probable space group: P M M M
;
_chemical_formula_sum "Si O2"
_cell_formula_units_Z 64
_cell_length_a 14.796418
_cell_length_b 32.608900
_cell_length_c 7.398243
_cell_angle_alpha 90.000000
_cell_angle_beta 90.000000
_cell_angle_gamma 90.000000
_cell_volume 3569.614627
_symmetry_space_group_name_H-M "P M M M"
_symmetry_group_IT_number 47
_symmetry_cell_setting 'orthorhombic'
loop_
_space_group_symop_operation_xyz
x,y,z
-x,-y,z
x,-y,-z
-x,y,-z
-x,-y,-z
x,y,-z
-x,y,z
x,-y,z
loop_
_atom_site_type_symbol
_atom_site_label
_atom_site_fract_x
_atom_site_fract_y
_atom_site_fract_z
Si Si1 0.281519 0.122288 0.287795
Si Si2 0.704623 0.714510 0.212198
Si Si3 0.899732 0.256957 0.717487
Si Si4 0.394389 0.366405 0.779120
Si Si5 0.604362 0.796306 0.781399
Si Si6 0.100911 0.837744 0.279370
Si Si7 0.392034 0.455879 0.782097
Si Si8 0.603861 0.046310 0.279390
O O1 0.267689 0.114158 0.500000
O O2 0.345806 0.161981 0.273064
O O3 0.183836 0.135041 0.213229
O O4 0.331048 0.082233 0.213178
O O5 0.812405 0.717427 0.228913
O O6 0.662232 0.672589 0.285282
O O7 0.658946 0.756240 0.284925
O O8 0.682323 0.714497 0.000000
O O9 0.901422 0.256545 0.500000
O O10 0.886013 0.209676 0.776697
O O11 0.000000 0.270185 0.778858
O O12 0.500000 0.361760 0.729345
O O13 0.359714 0.411284 0.718299
O O14 0.392202 0.367131 0.000000
O O15 0.500000 0.795316 0.722447
O O16 0.604818 0.795756 0.000000
O O17 0.102872 0.837561 0.500000
O O18 0.000000 0.850628 0.225389
O O19 0.500000 0.455672 0.747527
O O20 0.356496 0.500000 0.715062
O O21 0.381472 0.456282 0.000000
O O22 0.604061 0.047059 0.500000
O O23 0.500000 0.053973 0.224663
O O24 0.628853 0.000000 0.225360
#
# Coordination Sequence:
#
# PCOD9381293 Si02
#       8
#     8   8   8   8   8   8   8   8
#     4  10  17  27  46  64  76  99 138 170 190 226
#     4  10  18  27  40  58  81 109 137 162 191 232
#     4   9  17  30  45  58  76 103 132 164 205 243
#     4   8  13  21  33  50  76 111 142 162 190 237
#     4  10  20  30  38  54  84 114 133 156 192 228
#     4   8  14  25  41  60  79  98 123 159 201 236
#     4   7   9  14  26  45  69  98 133 169 197 223
#     4   8  14  24  38  59  84 103 123 159 202 234
#
# _framework density 17.929106000000001
#
# number of rings (size 3 to 8) (size 9 to 14) (size 15 to 20)
#    0.000    3.250    1.250    3.000    0.000    2.500 
#    0.000    0.000    0.000    2.250    0.000    4.375 
#    0.000    1.000    0.000   10.500    0.000    5.125 
#
# Total GULP energy -356654.907180 kJ/mol
# GULP energy per Si atom -5572.732925 kJ/mol
# Density = 1.788830 g / cm^3
# Si number density = 17.929106 Si / 1000 Ang^3
#
#
#
# Elastic Constant Matrix: (Units=GPa)
#
#
# Indices 1 2 3 4 5 6 
#
# 1 118.1549 87.1370 -4.2969 0.0000 0.0000 0.0000
# 2 87.1370 164.0486 0.8221 0.0000 0.0000 0.0000
# 3 -4.2969 0.8221 56.9205 0.0000 0.0000 0.0000
# 4 0.0000 0.0000 0.0000 4.5933 0.0000 0.0000
# 5 0.0000 0.0000 0.0000 0.0000 9.2520 0.0000
# 6 0.0000 0.0000 0.0000 0.0000 0.0000 9.5887
#
#
#
# Elastic Compliance Matrix: (Units=1/GPa)
#
#
# Indices 1 2 3 4 5 6 
#
# 1 0.013991 -0.007437 0.001164 0.000000 0.000000 0.000000
# 2 -0.007437 0.010050 -0.000707 0.000000 0.000000 0.000000
# 3 0.001164 -0.000707 0.017666 0.000000 0.000000 0.000000
# 4 0.000000 0.000000 0.000000 0.217709 0.000000 0.000000
# 5 0.000000 0.000000 0.000000 0.000000 0.108084 0.000000
# 6 0.000000 0.000000 0.000000 0.000000 0.000000 0.104290
#
#
# Mechanical properties :
#
#
# Convention : Reuss Voigt Hill
#
# Bulk Modulus (GPa) = 36.04085 56.27206 46.15645
# Shear Modulus (GPa) = 10.10104 21.71758 15.90931
#
# Velocity S-wave (km/s) = 2.37615 3.48415 2.98207
# Velocity P-wave (km/s) = 5.26058 6.90216 6.13651
#
# Compressibility (1/GPa) = 0.02774629
#
# Stress axis : x y z
#
# Youngs Moduli (GPa) = 71.47697 99.50606 56.60460
#
# Poissons Ratio (x) = 0.74004 -0.06586
# Poissons Ratio (y) = 0.53158 0.04000
# Poissons Ratio (z) = -0.08317 0.07031
#
# Static dielectric constant tensor:
#      x y z
#    x 1.597420 0.000000 0.000000 
#    y 0.000000 1.628880 0.000000 
#    z 0.000000 0.000000 1.729760 
# 
# From -- ./inp_files/8202.got.cif
#   From: 2010.05.17/outbox.cif.g08.bks.cpg/sg47_5_cif.got.tgz:8202.got - 2010.06.03 20:15:42.
