data_PCOD9381234
_publ_section_title
;
Structure prediction by ZEFSAII (Michael W. Deem and Ramdas Pophale) SiO2 
 PCOD9381234
Probable space group: P M M M
;
_chemical_formula_sum "Si O2"
_cell_formula_units_Z 40
_cell_length_a 9.022831
_cell_length_b 22.922075
_cell_length_c 13.204181
_cell_angle_alpha 90.000000
_cell_angle_beta 90.000000
_cell_angle_gamma 90.000000
_cell_volume 2730.915240
_symmetry_space_group_name_H-M "P M M M"
_symmetry_group_IT_number 47
_symmetry_cell_setting 'orthorhombic'
loop_
_space_group_symop_operation_xyz
x,y,z
-x,-y,z
x,-y,-z
-x,y,-z
-x,-y,-z
x,y,-z
-x,y,z
x,-y,z
loop_
_atom_site_type_symbol
_atom_site_label
_atom_site_fract_x
_atom_site_fract_y
_atom_site_fract_z
Si Si1 0.180363 0.566854 0.114848
Si Si2 0.671286 0.000000 0.376512
Si Si3 0.676632 0.239903 0.620450
Si Si4 0.819909 0.566836 0.500000
Si Si5 0.829242 0.880948 0.376812
Si Si6 0.179638 0.643223 0.695142
O O1 0.225392 0.500000 0.137701
O O2 0.227194 0.611562 0.201378
O O3 0.000000 0.566919 0.115450
O O4 0.227288 0.581078 0.000000
O O5 0.752222 0.059147 0.343042
O O6 0.500000 0.000000 0.346071
O O7 0.674649 0.000000 0.500000
O O8 0.709668 0.247170 0.500000
O O9 0.500000 0.240009 0.632273
O O10 0.742937 0.177580 0.652847
O O11 0.750525 0.293616 0.678315
O O12 0.767328 0.500000 0.500000
O O13 0.776421 0.602198 0.399686
O O14 0.000000 0.564911 0.500000
O O15 0.827299 0.882065 0.500000
O O16 0.000000 0.878592 0.344770
O O17 0.000000 0.647917 0.694397
#
# Coordination Sequence:
#
# PCOD9381234 Si02
#       6
#     8   4   8   4   8   8
#     4   8  14  25  42  64  85 103 129 169 214 255
#     4   9  15  23  35  53  77 105 138 173 210 245
#     4  10  19  29  39  53  78 110 140 170 209 254
#     4   9  16  24  37  59  81 100 129 168 205 241
#     4   9  16  25  38  54  74 102 140 179 209 239
#     4  10  17  26  42  61  81 105 135 170 207 249
#
# _framework density 14.647104000000001
#
# number of rings (size 3 to 8) (size 9 to 14) (size 15 to 20)
#    0.000    2.800    1.000    2.700    0.000    6.800 
#    0.000    0.000    0.000    3.600    0.000    1.400 
#    0.000    0.000    0.000    0.900    0.000   18.700 
#
# Total GULP energy -222809.239175 kJ/mol
# GULP energy per Si atom -5570.230979 kJ/mol
# Density = 1.461377 g / cm^3
# Si number density = 14.647104 Si / 1000 Ang^3
#
#
#
# Elastic Constant Matrix: (Units=GPa)
#
#
# Indices 1 2 3 4 5 6 
#
# 1 45.6432 52.5722 28.0370 0.0000 0.0000 0.0000
# 2 52.5722 166.9107 63.8955 0.0000 0.0000 0.0000
# 3 28.0370 63.8955 65.2756 0.0000 0.0000 0.0000
# 4 0.0000 0.0000 0.0000 12.1710 0.0000 0.0000
# 5 0.0000 0.0000 0.0000 0.0000 5.4742 0.0000
# 6 0.0000 0.0000 0.0000 0.0000 0.0000 -11.9580
#
#
#
# Elastic Compliance Matrix: (Units=1/GPa)
#
#
# Indices 1 2 3 4 5 6 
#
# 1 0.036297 -0.008739 -0.007036 0.000000 0.000000 0.000000
# 2 -0.008739 0.011686 -0.007685 0.000000 0.000000 0.000000
# 3 -0.007036 -0.007685 0.025864 0.000000 0.000000 0.000000
# 4 0.000000 0.000000 0.000000 0.082163 0.000000 0.000000
# 5 0.000000 0.000000 0.000000 0.000000 0.182675 0.000000
# 6 0.000000 0.000000 0.000000 0.000000 0.000000 -0.083626
#
#
# Mechanical properties :
#
#
# Convention : Reuss Voigt Hill
#
# Bulk Modulus (GPa) = 37.13771 62.98209 50.05990
# Shear Modulus (GPa) = 16.07956 10.02575 13.05265
#
# Velocity S-wave (km/s) = 3.31690 2.61911 2.98844
# Velocity P-wave (km/s) = 6.33081 7.22768 6.79406
#
# Compressibility (1/GPa) = 0.02692681
#
# Stress axis : x y z
#
# Youngs Moduli (GPa) = 27.55083 85.57442 38.66341
#
# Poissons Ratio (x) = 0.74784 0.27202
# Poissons Ratio (y) = 0.24077 0.29713
# Poissons Ratio (z) = 0.19384 0.65765
#
# Static dielectric constant tensor:
#      x y z
#    x 1.487200 0.000000 0.000000 
#    y 0.000000 1.477700 0.000000 
#    z 0.000000 0.000000 1.465340 
# 
# From -- ./inp_files/15119.got.cif
#   From: 2010.05.17/outbox.cif.g08.bks.cpg/sg47_8_cif.got.tgz:15119.got - 2010.06.03 20:15:42.
