data_PCOD9381300
_publ_section_title
;
Structure prediction by ZEFSAII (Michael W. Deem and Ramdas Pophale) SiO2 
 PCOD9381300
Probable space group: P M M M
;
_chemical_formula_sum "Si O2"
_cell_formula_units_Z 64
_cell_length_a 7.559427
_cell_length_b 14.834508
_cell_length_c 32.523566
_cell_angle_alpha 90.000000
_cell_angle_beta 90.000000
_cell_angle_gamma 90.000000
_cell_volume 3647.205060
_symmetry_space_group_name_H-M "P M M M"
_symmetry_group_IT_number 47
_symmetry_cell_setting 'orthorhombic'
loop_
_space_group_symop_operation_xyz
x,y,z
-x,-y,z
x,-y,-z
-x,y,-z
-x,-y,-z
x,y,-z
-x,y,z
x,-y,z
loop_
_atom_site_type_symbol
_atom_site_label
_atom_site_fract_x
_atom_site_fract_y
_atom_site_fract_z
Si Si1 0.288895 0.899457 0.839118
Si Si2 0.210583 0.711747 0.124837
Si Si3 0.208134 0.100021 0.744010
Si Si4 0.210013 0.397118 0.365713
Si Si5 0.784117 0.604072 0.046324
Si Si6 0.217243 0.711603 0.713161
Si Si7 0.287302 0.604821 0.455775
Si Si8 0.216169 0.395910 0.794886
O O1 0.500000 0.901885 0.836762
O O2 0.239404 0.817642 0.868591
O O3 0.222410 0.880769 0.792834
O O4 0.225878 0.000000 0.850913
O O5 0.279177 0.669120 0.082549
O O6 0.278399 0.658906 0.165115
O O7 0.000000 0.696901 0.124538
O O8 0.279928 0.186000 0.719799
O O9 0.000000 0.095013 0.734432
O O10 0.284898 0.000000 0.736874
O O11 0.282340 0.500000 0.364465
O O12 0.277933 0.335792 0.328687
O O13 0.235457 0.357545 0.411469
O O14 0.000000 0.404453 0.359450
O O15 0.734700 0.500000 0.054741
O O16 0.000000 0.606275 0.045932
O O17 0.726249 0.627455 0.000000
O O18 0.270179 0.653051 0.752860
O O19 0.000000 0.713376 0.713070
O O20 0.227070 0.643384 0.500000
O O21 0.500000 0.604533 0.456478
O O22 0.227551 0.500000 0.455092
O O23 0.271186 0.500000 0.796133
O O24 0.000000 0.394980 0.795213
#
# Coordination Sequence:
#
# PCOD9381300 Si02
#       8
#     8   8   8   8   8   8   8   8
#     4  10  20  32  45  62  85 111 139 176 222 261
#     4  10  17  27  46  69  87 110 145 177 206 246
#     4   9  16  28  46  64  81 105 142 182 213 245
#     4   9  16  24  36  55  79 108 138 165 196 238
#     4   8  14  25  43  70  99 118 136 171 215 252
#     4   9  15  24  37  58  85 110 135 167 204 241
#     4   8  14  25  39  53  72 101 136 172 207 240
#     4   9  15  22  36  60  86 111 140 170 196 232
#
# _framework density 17.547684
#
# number of rings (size 3 to 8) (size 9 to 14) (size 15 to 20)
#    0.000    3.000    1.250    1.875    0.000    4.000 
#    0.000    1.875    0.000    2.250    0.000    3.500 
#    0.000    0.500    0.000    6.250    0.000    1.250 
#
# Total GULP energy -356627.456756 kJ/mol
# GULP energy per Si atom -5572.304012 kJ/mol
# Density = 1.750774 g / cm^3
# Si number density = 17.547684 Si / 1000 Ang^3
#
#
#
# Elastic Constant Matrix: (Units=GPa)
#
#
# Indices 1 2 3 4 5 6 
#
# 1 38.6399 1.0799 4.6256 0.0000 0.0000 0.0000
# 2 1.0799 124.2684 94.8350 0.0000 0.0000 0.0000
# 3 4.6256 94.8350 161.2691 0.0000 0.0000 0.0000
# 4 0.0000 0.0000 0.0000 11.4860 0.0000 0.0000
# 5 0.0000 0.0000 0.0000 0.0000 75.7527 0.0000
# 6 0.0000 0.0000 0.0000 0.0000 0.0000 -11.2100
#
#
#
# Elastic Compliance Matrix: (Units=1/GPa)
#
#
# Indices 1 2 3 4 5 6 
#
# 1 0.025996 0.000622 -0.001112 0.000000 0.000000 0.000000
# 2 0.000622 0.014613 -0.008611 0.000000 0.000000 0.000000
# 3 -0.001112 -0.008611 0.011297 0.000000 0.000000 0.000000
# 4 0.000000 0.000000 0.000000 0.087062 0.000000 0.000000
# 5 0.000000 0.000000 0.000000 0.000000 0.013201 0.000000
# 6 0.000000 0.000000 0.000000 0.000000 0.000000 -0.089206
#
#
# Mechanical properties :
#
#
# Convention : Reuss Voigt Hill
#
# Bulk Modulus (GPa) = 29.66954 58.36206 44.01580
# Shear Modulus (GPa) = 54.11355 30.11488 42.11421
#
# Velocity S-wave (km/s) = 5.55922 4.14717 4.90428
# Velocity P-wave (km/s) = 7.62570 7.50089 7.56355
#
# Compressibility (1/GPa) = 0.03370460
#
# Stress axis : x y z
#
# Youngs Moduli (GPa) = 38.46798 68.43046 88.52207
#
# Poissons Ratio (x) = -0.04259 0.09841
# Poissons Ratio (y) = -0.02394 0.76229
# Poissons Ratio (z) = 0.04276 0.58928
#
# Static dielectric constant tensor:
#      x y z
#    x 1.662620 0.000000 0.000000 
#    y 0.000000 1.580800 0.000000 
#    z 0.000000 0.000000 1.604770 
# 
# From -- ./inp_files/34451.got.cif
#   From: 2010.05.17/outbox.cif.g08.bks.cpg/sg47_18_cif.got.tgz:34451.got - 2010.06.03 20:15:42.
