data_PCOD9381175
_publ_section_title
;
Structure prediction by ZEFSAII (Michael W. Deem and Ramdas Pophale) SiO2 
 PCOD9381175
Probable space group: P M M M
;
_chemical_formula_sum "Si O2"
_cell_formula_units_Z 64
_cell_length_a 22.157637
_cell_length_b 7.425651
_cell_length_c 19.486134
_cell_angle_alpha 90.000000
_cell_angle_beta 90.000000
_cell_angle_gamma 90.000000
_cell_volume 3206.148707
_symmetry_space_group_name_H-M "P M M M"
_symmetry_group_IT_number 47
_symmetry_cell_setting 'orthorhombic'
loop_
_space_group_symop_operation_xyz
x,y,z
-x,-y,z
x,-y,-z
-x,y,-z
-x,-y,-z
x,y,-z
-x,y,z
x,-y,z
loop_
_atom_site_type_symbol
_atom_site_label
_atom_site_fract_x
_atom_site_fract_y
_atom_site_fract_z
Si Si1 0.065326 0.211135 0.375666
Si Si2 0.764812 0.721446 0.278859
Si Si3 0.767371 0.215152 0.923643
Si Si4 0.804495 0.707476 0.425503
Si Si5 0.908652 0.291810 0.075309
Si Si6 0.570135 0.280291 0.922898
Si Si7 0.894447 0.717907 0.222877
Si Si8 0.666886 0.702770 0.817495
O O1 0.123773 0.293149 0.411026
O O2 0.072767 0.231212 0.293302
O O3 0.000000 0.283989 0.396008
O O4 0.066929 0.000000 0.391852
O O5 0.764933 0.500000 0.277847
O O6 0.775759 0.784863 0.356364
O O7 0.824386 0.775273 0.234964
O O8 0.701457 0.784473 0.247545
O O9 0.835634 0.285303 0.922247
O O10 0.722766 0.303410 0.870450
O O11 0.769136 0.000000 0.912704
O O12 0.743680 0.249568 0.000000
O O13 0.792444 0.789356 0.500000
O O14 0.784621 0.500000 0.427962
O O15 0.928234 0.500000 0.074240
O O16 0.923060 0.215868 0.151033
O O17 0.925806 0.214021 0.000000
O O18 0.500000 0.233278 0.912972
O O19 0.573991 0.500000 0.922875
O O20 0.612967 0.213751 0.861793
O O21 0.588072 0.221802 0.000000
O O22 0.894548 0.500000 0.219171
O O23 0.647817 0.500000 0.798647
#
# Coordination Sequence:
#
# PCOD9381175 Si02
#       8
#     8   8   8   8   8   8   8   8
#     4  10  21  34  48  68  91 115 144 175 207 249
#     4   8  14  25  41  64  85 102 133 172 209 254
#     4  10  19  26  33  53  85 113 139 174 213 256
#     4   9  18  33  51  68  89 115 139 168 209 258
#     4   9  16  27  43  61  82 109 141 176 216 259
#     4   8  14  23  35  55  82 112 150 192 228 259
#     4   9  16  29  46  64  87 112 142 181 219 259
#     4  10  16  25  42  59  79 109 145 185 223 258
#
# _framework density 19.961645000000001
#
# number of rings (size 3 to 8) (size 9 to 14) (size 15 to 20)
#    0.000    2.875    1.250    2.250    0.000    3.250 
#    0.000    1.250    0.000    0.750    0.000    4.375 
#    0.000    0.500    0.000    7.000    0.000    0.000 
#
# Total GULP energy -356820.746318 kJ/mol
# GULP energy per Si atom -5575.324161 kJ/mol
# Density = 1.991621 g / cm^3
# Si number density = 19.961645 Si / 1000 Ang^3
#
#
#
# Elastic Constant Matrix: (Units=GPa)
#
#
# Indices 1 2 3 4 5 6 
#
# 1 89.7431 -3.0430 37.2599 0.0000 0.0000 0.0000
# 2 -3.0430 68.0093 5.7950 0.0000 0.0000 0.0000
# 3 37.2599 5.7950 138.0935 0.0000 0.0000 0.0000
# 4 0.0000 0.0000 0.0000 -20.9059 0.0000 0.0000
# 5 0.0000 0.0000 0.0000 0.0000 -35.4130 0.0000
# 6 0.0000 0.0000 0.0000 0.0000 0.0000 2.4221
#
#
#
# Elastic Compliance Matrix: (Units=1/GPa)
#
#
# Indices 1 2 3 4 5 6 
#
# 1 0.012598 0.000856 -0.003435 0.000000 0.000000 0.000000
# 2 0.000856 0.014815 -0.000853 0.000000 0.000000 0.000000
# 3 -0.003435 -0.000853 0.008204 0.000000 0.000000 0.000000
# 4 0.000000 0.000000 0.000000 -0.047833 0.000000 0.000000
# 5 0.000000 0.000000 0.000000 0.000000 -0.028238 0.000000
# 6 0.000000 0.000000 0.000000 0.000000 0.000000 0.412870
#
#
# Mechanical properties :
#
#
# Convention : Reuss Voigt Hill
#
# Bulk Modulus (GPa) = 34.77761 41.76330 38.27045
# Shear Modulus (GPa) = 12.85799 6.27624 9.56711
#
# Velocity S-wave (km/s) = 2.54073 1.77510 2.19161
# Velocity P-wave (km/s) = 5.10560 5.01682 5.06140
#
# Compressibility (1/GPa) = 0.02875414
#
# Stress axis : x y z
#
# Youngs Moduli (GPa) = 79.37665 67.49978 121.89015
#
# Poissons Ratio (x) = -0.05781 0.41871
# Poissons Ratio (y) = -0.06798 0.10394
# Poissons Ratio (z) = 0.27267 0.05756
#
# Static dielectric constant tensor:
#      x y z
#    x 1.694720 0.000000 0.000000 
#    y 0.000000 1.756100 0.000000 
#    z 0.000000 0.000000 1.770080 
# 
# From -- ./inp_files/11903.got.cif
#   From: 2010.05.17/outbox.cif.g08.bks.cpg/sg47_6_cif.got.tgz:11903.got - 2010.06.03 20:15:42.
