data_PCOD9381237
_publ_section_title
;
Structure prediction by ZEFSAII (Michael W. Deem and Ramdas Pophale) SiO2 
 PCOD9381237
Probable space group: P M M M
;
_chemical_formula_sum "Si O2"
_cell_formula_units_Z 52
_cell_length_a 24.212420
_cell_length_b 7.345568
_cell_length_c 15.081379
_cell_angle_alpha 90.000000
_cell_angle_beta 90.000000
_cell_angle_gamma 90.000000
_cell_volume 2682.283242
_symmetry_space_group_name_H-M "P M M M"
_symmetry_group_IT_number 47
_symmetry_cell_setting 'orthorhombic'
loop_
_space_group_symop_operation_xyz
x,y,z
-x,-y,z
x,-y,-z
-x,y,-z
-x,-y,-z
x,y,-z
-x,y,z
x,-y,z
loop_
_atom_site_type_symbol
_atom_site_label
_atom_site_fract_x
_atom_site_fract_y
_atom_site_fract_z
Si Si1 0.500000 0.290429 0.892176
Si Si2 0.619965 0.281855 0.899245
Si Si3 0.233832 0.221408 0.402290
Si Si4 0.272201 0.783287 0.215219
Si Si5 0.104412 0.778865 0.402182
Si Si6 0.832832 0.222489 0.102006
Si Si7 0.060927 0.222093 0.786090
O O1 0.500000 0.500000 0.860869
O O2 0.559821 0.211039 0.868407
O O3 0.500000 0.291752 0.000000
O O4 0.614234 0.500000 0.905284
O O5 0.670135 0.246658 0.833643
O O6 0.631728 0.216489 0.000000
O O7 0.252265 0.282877 0.500000
O O8 0.266703 0.285115 0.315942
O O9 0.169091 0.269653 0.391823
O O10 0.235611 0.000000 0.403695
O O11 0.221204 0.715531 0.155591
O O12 0.264550 0.000000 0.220583
O O13 0.085602 0.718493 0.500000
O O14 0.071951 0.719301 0.315275
O O15 0.102113 0.000000 0.402720
O O16 0.888472 0.279979 0.152213
O O17 0.832496 0.000000 0.102363
O O18 0.831300 0.279983 0.000000
O O19 0.000000 0.278729 0.815614
O O20 0.061807 0.000000 0.786130
#
# Coordination Sequence:
#
# PCOD9381237 Si02
#       7
#     4   8   8   8   8   8   8
#     4   7  12  26  45  61  82 115 146 166 191 235
#     4   9  17  29  45  65  89 116 143 168 197 238
#     4   8  13  22  37  55  76 104 136 168 206 255
#     4  10  17  26  42  63  85 109 139 175 212 247
#     4   8  12  19  30  43  62  90 125 164 205 248
#     4   9  16  24  32  45  69 100 132 166 204 244
#     4   9  15  21  28  40  62  95 133 167 201 245
#
# _framework density 19.386469000000002
#
# number of rings (size 3 to 8) (size 9 to 14) (size 15 to 20)
#    0.000    3.308    1.538    2.308    0.000    1.538 
#    0.000    3.462    0.000    1.846    0.000    0.538 
#    0.000    4.923    0.000    3.231    0.000    8.000 
#
# Total GULP energy -289953.619597 kJ/mol
# GULP energy per Si atom -5576.031146 kJ/mol
# Density = 1.934234 g / cm^3
# Si number density = 19.386469 Si / 1000 Ang^3
#
#
#
# Elastic Constant Matrix: (Units=GPa)
#
#
# Indices 1 2 3 4 5 6 
#
# 1 163.7922 2.2020 98.9887 0.0000 0.0000 0.0000
# 2 2.2020 71.2799 7.1599 0.0000 0.0000 0.0000
# 3 98.9887 7.1599 151.1454 0.0000 0.0000 0.0000
# 4 0.0000 0.0000 0.0000 0.8870 0.0000 0.0000
# 5 0.0000 0.0000 0.0000 0.0000 26.9417 0.0000
# 6 0.0000 0.0000 0.0000 0.0000 0.0000 11.1149
#
#
#
# Elastic Compliance Matrix: (Units=1/GPa)
#
#
# Indices 1 2 3 4 5 6 
#
# 1 0.010114 0.000355 -0.006641 0.000000 0.000000 0.000000
# 2 0.000355 0.014109 -0.000901 0.000000 0.000000 0.000000
# 3 -0.006641 -0.000901 0.011008 0.000000 0.000000 0.000000
# 4 0.000000 0.000000 0.000000 1.127388 0.000000 0.000000
# 5 0.000000 0.000000 0.000000 0.000000 0.037117 0.000000
# 6 0.000000 0.000000 0.000000 0.000000 0.000000 0.089970
#
#
# Mechanical properties :
#
#
# Convention : Reuss Voigt Hill
#
# Bulk Modulus (GPa) = 47.94490 66.99097 57.46793
# Shear Modulus (GPa) = 3.81379 26.31318 15.06349
#
# Velocity S-wave (km/s) = 1.40411 3.68815 2.79051
# Velocity P-wave (km/s) = 5.23579 7.26410 6.33169
#
# Compressibility (1/GPa) = 0.02085728
#
# Stress axis : x y z
#
# Youngs Moduli (GPa) = 98.87498 70.87826 90.84420
#
# Poissons Ratio (x) = -0.02513 0.60326
# Poissons Ratio (y) = -0.03506 0.08181
# Poissons Ratio (z) = 0.65658 0.06383
#
# Static dielectric constant tensor:
#      x y z
#    x 1.667640 0.000000 0.000000 
#    y 0.000000 1.794310 0.000000 
#    z 0.000000 0.000000 1.674120 
# 
# From -- ./inp_files/25625.got.cif
#   From: 2010.05.17/outbox.cif.g08.bks.cpg/sg47_13_cif.got.tgz:25625.got - 2010.06.03 20:15:42.
