data_PCOD9381077
_publ_section_title
;
Structure prediction by ZEFSAII (Michael W. Deem and Ramdas Pophale) SiO2 
 PCOD9381077
Probable space group: I M A 2
;
_chemical_formula_sum "Si O2"
_cell_formula_units_Z 28
_cell_length_a 9.000000
_cell_length_b 21.000000
_cell_length_c 15.000000
_cell_angle_alpha 90.000000
_cell_angle_beta 90.000000
_cell_angle_gamma 90.000000
_cell_volume 2835.000000
_symmetry_space_group_name_H-M "I M A 2"
_symmetry_group_IT_number 46
_symmetry_cell_setting 'orthorhombic'
loop_
_space_group_symop_operation_xyz
x,y,z
-x,-y,z
1/2-x,y,z
1/2+x,-y,z
1/2+x,1/2+y,1/2+z
1/2-x,1/2-y,1/2+z
-x,1/2+y,1/2+z
x,1/2-y,1/2+z
loop_
_atom_site_type_symbol
_atom_site_label
_atom_site_fract_x
_atom_site_fract_y
_atom_site_fract_z
Si Si1 0.070348 0.068102 0.103460
Si Si2 0.571364 0.753008 0.784453
Si Si3 0.572259 0.637761 0.426623
Si Si4 0.071186 0.567833 0.986582
Si Si5 0.581212 0.332607 0.135315
Si Si6 0.085411 0.942264 0.782401
Si Si7 0.571710 0.114834 0.287880
O O1 0.250000 0.063485 0.107111
O O2 0.006324 0.084787 0.201043
O O3 0.030743 0.122400 0.029221
O O4 0.000000 0.000000 0.076579
O O5 0.750000 0.746031 0.784344
O O6 0.529725 0.799178 0.868856
O O7 0.520255 0.782038 0.688307
O O8 0.488559 0.686547 0.795695
O O9 0.750000 0.635662 0.423000
O O10 0.503847 0.581463 0.367693
O O11 0.250000 0.563509 0.997437
O O12 0.037500 0.580935 0.882381
O O13 0.000000 0.500000 0.012430
O O14 0.025474 0.628842 0.047970
O O15 0.750000 0.307937 0.118247
O O16 0.593275 0.386863 0.210639
O O17 0.250000 0.961456 0.809165
O O18 0.000000 0.000000 0.738881
O O19 0.750000 0.113695 0.276027
#
# Coordination Sequence:
#
# PCOD9381077 Si02
#       7
#     8   8   8   8   8   8   8
#     4  11  23  40  61  87 117 152 194 240 289 341
#     4  10  21  39  61  87 117 151 191 235 284 341
#     4   9  20  37  57  82 114 148 186 232 284 341
#     4  10  22  39  60  86 116 151 192 236 286 339
#     4   9  19  36  56  82 115 149 186 231 282 341
#     4  10  18  28  48  77 111 148 185 227 279 336
#     4  11  24  41  60  83 114 155 197 241 288 337
#
# _framework density 9.8765429999999999
#
# number of rings (size 3 to 8) (size 9 to 14) (size 15 to 20)
#    0.000    2.000    0.000    3.000    0.000    7.429 
#    0.000    2.857    0.000    0.000    0.000    0.000 
#    0.000    0.000    0.000    0.000    0.000    0.000 
#
# Total GULP energy -156178.353994 kJ/mol
# GULP energy per Si atom -5577.798357 kJ/mol
# Density = 0.985406 g / cm^3
# Si number density = 9.876543 Si / 1000 Ang^3
#
#
#
# Elastic Constant Matrix: (Units=GPa)
#
#
# Indices 1 2 3 4 5 6 
#
# 1 18.1003 22.2899 17.9547 0.0000 0.0000 0.0000
# 2 22.2899 67.9682 15.8952 0.0000 0.0000 0.0000
# 3 17.9547 15.8952 120.8526 0.0000 0.0000 0.0000
# 4 0.0000 0.0000 0.0000 17.0936 0.0000 0.0000
# 5 0.0000 0.0000 0.0000 0.0000 18.3716 0.0000
# 6 0.0000 0.0000 0.0000 0.0000 0.0000 32.2820
#
#
#
# Elastic Compliance Matrix: (Units=1/GPa)
#
#
# Indices 1 2 3 4 5 6 
#
# 1 0.106333 -0.032166 -0.011567 0.000000 0.000000 0.000000
# 2 -0.032166 0.024910 0.001503 0.000000 0.000000 0.000000
# 3 -0.011567 0.001503 0.009795 0.000000 0.000000 0.000000
# 4 0.000000 0.000000 0.000000 0.058502 0.000000 0.000000
# 5 0.000000 0.000000 0.000000 0.000000 0.054432 0.000000
# 6 0.000000 0.000000 0.000000 0.000000 0.000000 0.030977
#
#
# Mechanical properties :
#
#
# Convention : Reuss Voigt Hill
#
# Bulk Modulus (GPa) = 17.67497 35.46677 26.57087
# Shear Modulus (GPa) = 12.87763 23.60152 18.23957
#
# Velocity S-wave (km/s) = 2.55606 3.46038 3.04201
# Velocity P-wave (km/s) = 4.20460 5.82749 5.08125
#
# Compressibility (1/GPa) = 0.05657717
#
# Stress axis : x y z
#
# Youngs Moduli (GPa) = 9.40439 40.14413 102.08893
#
# Poissons Ratio (x) = 1.29130 1.18085
# Poissons Ratio (y) = 0.30251 -0.15339
# Poissons Ratio (z) = 0.10878 -0.06032
#
# Static dielectric constant tensor:
#      x y z
#    x 1.792380 0.000000 0.000000 
#    y 0.000000 1.729720 0.000000 
#    z 0.000000 0.000000 1.696150 
# 
# From -- ./inp_files/14141.got.cif
#   From: 2010.05.17/outbox.ucp.g08.bks.cvg/sg46_8_cif.got.tgz:14141.got - 2010.06.11 16:34:52.
