data_PCOD9381723
_publ_section_title
;
Structure prediction by ZEFSAII (Michael W. Deem and Ramdas Pophale) SiO2 
 PCOD9381723
Probable space group: P M M M
;
_chemical_formula_sum "Si O2"
_cell_formula_units_Z 48
_cell_length_a 16.663371
_cell_length_b 7.470180
_cell_length_c 20.010008
_cell_angle_alpha 90.000000
_cell_angle_beta 90.000000
_cell_angle_gamma 90.000000
_cell_volume 2490.813395
_symmetry_space_group_name_H-M "P M M M"
_symmetry_group_IT_number 47
_symmetry_cell_setting 'orthorhombic'
loop_
_space_group_symop_operation_xyz
x,y,z
-x,-y,z
x,-y,-z
-x,y,-z
-x,-y,-z
x,y,-z
-x,y,z
x,-y,z
loop_
_atom_site_type_symbol
_atom_site_label
_atom_site_fract_x
_atom_site_fract_y
_atom_site_fract_z
Si Si1 0.238863 0.706128 0.764449
Si Si2 0.587659 0.280974 0.722829
Si Si3 0.092090 0.707711 0.149680
Si Si4 0.090001 0.218745 0.500000
Si Si5 0.791866 0.215486 0.386594
Si Si6 0.614728 0.290433 0.572366
Si Si7 0.903374 0.202643 0.000000
O O1 0.248083 0.500000 0.787033
O O2 0.330380 0.780833 0.759252
O O3 0.166414 0.787337 0.808302
O O4 0.209275 0.710225 0.687907
O O5 0.500000 0.233170 0.751259
O O6 0.592405 0.500000 0.721020
O O7 0.588664 0.219427 0.644987
O O8 0.085914 0.500000 0.169919
O O9 0.116285 0.713771 0.071477
O O10 0.000000 0.782041 0.156650
O O11 0.135932 0.274407 0.566657
O O12 0.000000 0.280742 0.500000
O O13 0.091214 0.000000 0.500000
O O14 0.710403 0.273575 0.422681
O O15 0.791706 0.000000 0.381754
O O16 0.589815 0.214887 0.500000
O O17 0.592688 0.500000 0.571875
O O18 0.000000 0.200875 0.000000
O O19 0.873145 0.000000 0.000000
#
# Coordination Sequence:
#
# PCOD9381723 Si02
#       7
#     8   8   8   4   8   8   4
#     4   9  18  31  46  66  90 116 148 184 219 260
#     4   8  14  25  41  62  86 111 142 182 226 268
#     4   9  17  30  48  69  96 127 151 173 211 261
#     4   9  18  30  41  55  76 105 144 186 227 269
#     4  10  18  29  44  59  78 109 146 184 226 270
#     4   9  16  26  42  60  79 103 134 178 228 277
#     4   9  17  29  47  73 102 125 148 180 211 247
#
# _framework density 19.270813
#
# number of rings (size 3 to 8) (size 9 to 14) (size 15 to 20)
#    0.000    3.000    0.833    1.750    0.000    2.667 
#    0.000    1.667    0.000   11.500    0.000    5.250 
#    0.000    4.667    0.000    0.000    0.000    0.000 
#
# Total GULP energy -267231.190513 kJ/mol
# GULP energy per Si atom -5567.316469 kJ/mol
# Density = 1.922695 g / cm^3
# Si number density = 19.270813 Si / 1000 Ang^3
#
#
#
# Elastic Constant Matrix: (Units=GPa)
#
#
# Indices 1 2 3 4 5 6 
#
# 1 186.2007 2.8636 68.8188 0.0000 0.0000 0.0000
# 2 2.8636 59.0168 -3.9209 0.0000 0.0000 0.0000
# 3 68.8188 -3.9209 86.6884 0.0000 0.0000 0.0000
# 4 0.0000 0.0000 0.0000 35.4038 0.0000 0.0000
# 5 0.0000 0.0000 0.0000 0.0000 -14.9237 0.0000
# 6 0.0000 0.0000 0.0000 0.0000 0.0000 9.9263
#
#
#
# Elastic Compliance Matrix: (Units=1/GPa)
#
#
# Indices 1 2 3 4 5 6 
#
# 1 0.007636 -0.000776 -0.006097 0.000000 0.000000 0.000000
# 2 -0.000776 0.017074 0.001388 0.000000 0.000000 0.000000
# 3 -0.006097 0.001388 0.016438 0.000000 0.000000 0.000000
# 4 0.000000 0.000000 0.000000 0.028246 0.000000 0.000000
# 5 0.000000 0.000000 0.000000 0.000000 -0.067008 0.000000
# 6 0.000000 0.000000 0.000000 0.000000 0.000000 0.100743
#
#
# Mechanical properties :
#
#
# Convention : Reuss Voigt Hill
#
# Bulk Modulus (GPa) = 33.13514 51.93655 42.53585
# Shear Modulus (GPa) = 40.27133 23.69091 31.98112
#
# Velocity S-wave (km/s) = 4.57635 3.51004 4.07819
# Velocity P-wave (km/s) = 6.71980 6.59064 6.65553
#
# Compressibility (1/GPa) = 0.03017944
#
# Stress axis : x y z
#
# Youngs Moduli (GPa) = 130.96087 58.56798 60.83290
#
# Poissons Ratio (x) = 0.04542 0.37089
# Poissons Ratio (y) = 0.10157 -0.08443
# Poissons Ratio (z) = 0.79846 -0.08129
#
# Static dielectric constant tensor:
#      x y z
#    x 1.714180 0.000000 0.000000 
#    y 0.000000 1.723890 0.000000 
#    z 0.000000 0.000000 1.646640 
# 
# From -- ./inp_files/31230.got.cif
#   From: 2010.05.17/outbox.cif.g08.bks.cpg/sg47_16_cif.got.tgz:31230.got - 2010.06.03 20:15:42.
