data_PCOD9381074
_publ_section_title
;
Structure prediction by ZEFSAII (Michael W. Deem and Ramdas Pophale) SiO2 
 PCOD9381074
Probable space group: I M A 2
;
_chemical_formula_sum "Si O2"
_cell_formula_units_Z 32
_cell_length_a 15.000000
_cell_length_b 9.000000
_cell_length_c 24.000000
_cell_angle_alpha 90.000000
_cell_angle_beta 90.000000
_cell_angle_gamma 90.000000
_cell_volume 3240.000000
_symmetry_space_group_name_H-M "I M A 2"
_symmetry_group_IT_number 46
_symmetry_cell_setting 'orthorhombic'
loop_
_space_group_symop_operation_xyz
x,y,z
-x,-y,z
1/2-x,y,z
1/2+x,-y,z
1/2+x,1/2+y,1/2+z
1/2-x,1/2-y,1/2+z
-x,1/2+y,1/2+z
x,1/2-y,1/2+z
loop_
_atom_site_type_symbol
_atom_site_label
_atom_site_fract_x
_atom_site_fract_y
_atom_site_fract_z
Si Si1 0.096675 0.076819 0.147760
Si Si2 0.853192 0.239984 0.852197
Si Si3 0.155642 0.210913 0.938835
Si Si4 0.973830 0.173724 0.955013
Si Si5 0.850880 0.146121 0.238878
Si Si6 0.844322 0.451913 0.531771
Si Si7 0.023728 0.334838 0.209334
Si Si8 0.852179 0.906136 0.812031
O O1 0.081450 0.246633 0.163981
O O2 0.143513 0.999904 0.201016
O O3 0.141709 0.038853 0.089181
O O4 0.000000 0.000000 0.143870
O O5 0.750000 0.240529 0.869100
O O6 0.912204 0.237305 0.906784
O O7 0.867216 0.366186 0.805410
O O8 0.869241 0.081890 0.821111
O O9 0.250000 0.292227 0.944067
O O10 0.144525 0.163797 0.874121
O O11 0.061594 0.274253 0.957329
O O12 0.161496 0.068249 0.980308
O O13 0.924607 0.154213 0.013783
O O14 0.000000 0.000000 0.939156
O O15 0.750000 0.207997 0.233673
O O16 0.930729 0.248499 0.217280
O O17 0.750000 0.370709 0.534768
O O18 0.078169 0.342259 0.267758
O O19 0.000000 0.500000 0.192248
O O20 0.750000 0.887961 0.792128
#
# Coordination Sequence:
#
# PCOD9381074 Si02
#       8
#     8   8   8   8   8   8   8   8
#     4  10  22  38  51  74 108 149 188 225 290 356
#     4  10  17  27  46  75 109 139 177 226 291 348
#     4   9  17  26  42  73 105 136 174 229 293 334
#     4  10  16  24  45  73 105 138 175 241 292 325
#     4  10  21  35  52  75 112 153 184 229 290 354
#     4  10  18  30  49  72 104 138 177 226 281 340
#     4  11  22  35  57  81 109 147 194 243 284 342
#     4  10  18  29  48  80 114 140 180 238 297 343
#
# _framework density 9.8765429999999999
#
# number of rings (size 3 to 8) (size 9 to 14) (size 15 to 20)
#    0.000    2.000    3.750    2.625    0.000    1.000 
#    0.000    0.000    0.000    0.000    0.000    9.625 
#    0.000    4.000    0.000    3.625    0.000    0.000 
#
# Total GULP energy -178174.786138 kJ/mol
# GULP energy per Si atom -5567.962067 kJ/mol
# Density = 0.985406 g / cm^3
# Si number density = 9.876543 Si / 1000 Ang^3
#
#
#
# Elastic Constant Matrix: (Units=GPa)
#
#
# Indices 1 2 3 4 5 6 
#
# 1 130.7334 24.7750 49.7904 0.0000 0.0000 0.0000
# 2 24.7750 37.7283 31.7332 0.0000 0.0000 0.0000
# 3 49.7904 31.7332 100.1752 0.0000 0.0000 0.0000
# 4 0.0000 0.0000 0.0000 11.1945 0.0000 0.0000
# 5 0.0000 0.0000 0.0000 0.0000 56.8032 0.0000
# 6 0.0000 0.0000 0.0000 0.0000 0.0000 -10.5478
#
#
#
# Elastic Compliance Matrix: (Units=1/GPa)
#
#
# Indices 1 2 3 4 5 6 
#
# 1 0.009703 -0.003156 -0.003823 0.000000 0.000000 0.000000
# 2 -0.003156 0.037159 -0.010202 0.000000 0.000000 0.000000
# 3 -0.003823 -0.010202 0.015115 0.000000 0.000000 0.000000
# 4 0.000000 0.000000 0.000000 0.089330 0.000000 0.000000
# 5 0.000000 0.000000 0.000000 0.000000 0.017605 0.000000
# 6 0.000000 0.000000 0.000000 0.000000 0.000000 -0.094807
#
#
# Mechanical properties :
#
#
# Convention : Reuss Voigt Hill
#
# Bulk Modulus (GPa) = 36.21402 53.47044 44.84223
# Shear Modulus (GPa) = 42.49069 22.31252 32.40160
#
# Velocity S-wave (km/s) = 4.64302 3.36456 4.05449
# Velocity P-wave (km/s) = 6.86416 6.49783 6.68350
#
# Compressibility (1/GPa) = 0.02761362
#
# Stress axis : x y z
#
# Youngs Moduli (GPa) = 103.05748 26.91126 66.16134
#
# Poissons Ratio (x) = 0.08494 0.25294
# Poissons Ratio (y) = 0.32528 0.67500
# Poissons Ratio (z) = 0.39399 0.27456
#
# Static dielectric constant tensor:
#      x y z
#    x 1.825630 0.000000 0.000000 
#    y 0.000000 1.680940 0.000000 
#    z 0.000000 0.000000 1.691680 
# 
# From -- ./inp_files/23692.got.cif
#   From: 2010.05.17/outbox.ucp.g08.bks.cvg/sg46_12_cif.got.tgz:23692.got - 2010.06.11 16:34:52.
