data_PCOD9381173
_publ_section_title
;
Structure prediction by ZEFSAII (Michael W. Deem and Ramdas Pophale) SiO2 
 PCOD9381173
Probable space group: P M M M
;
_chemical_formula_sum "Si O2"
_cell_formula_units_Z 64
_cell_length_a 19.255126
_cell_length_b 7.728180
_cell_length_c 22.648229
_cell_angle_alpha 90.000000
_cell_angle_beta 90.000000
_cell_angle_gamma 90.000000
_cell_volume 3370.216817
_symmetry_space_group_name_H-M "P M M M"
_symmetry_group_IT_number 47
_symmetry_cell_setting 'orthorhombic'
loop_
_space_group_symop_operation_xyz
x,y,z
-x,-y,z
x,-y,-z
-x,y,-z
-x,-y,-z
x,y,-z
-x,y,z
x,-y,z
loop_
_atom_site_type_symbol
_atom_site_label
_atom_site_fract_x
_atom_site_fract_y
_atom_site_fract_z
Si Si1 0.275572 0.202520 0.763887
Si Si2 0.824360 0.706096 0.671789
Si Si3 0.771781 0.793861 0.107398
Si Si4 0.622265 0.296336 0.936436
Si Si5 0.923747 0.291335 0.906517
Si Si6 0.575755 0.709624 0.189838
Si Si7 0.924035 0.708960 0.228659
Si Si8 0.921074 0.711429 0.432204
O O1 0.251401 0.268577 0.699692
O O2 0.236347 0.273799 0.823879
O O3 0.356735 0.234435 0.774526
O O4 0.262516 0.000000 0.764055
O O5 0.834780 0.500000 0.669358
O O6 0.869150 0.779853 0.726183
O O7 0.859871 0.771406 0.611736
O O8 0.705091 0.720721 0.073650
O O9 0.845425 0.756702 0.075664
O O10 0.763941 0.000000 0.109717
O O11 0.605138 0.500000 0.938058
O O12 0.587107 0.225605 0.877379
O O13 0.603381 0.220375 0.000000
O O14 0.926112 0.500000 0.909144
O O15 0.922313 0.229194 0.838314
O O16 0.000000 0.233256 0.930572
O O17 0.500000 0.764694 0.211580
O O18 0.577065 0.500000 0.188510
O O19 0.916348 0.500000 0.224662
O O20 0.000000 0.743192 0.253475
O O21 0.910658 0.766760 0.500000
O O22 0.920796 0.500000 0.432454
O O23 0.000000 0.761589 0.413885
#
# Coordination Sequence:
#
# PCOD9381173 Si02
#       8
#     8   8   8   8   8   8   8   8
#     4  10  20  31  43  64  94 124 153 185 225 273
#     4  10  16  24  43  64  86 119 159 200 235 271
#     4  10  19  30  44  62  89 121 149 184 229 272
#     4   9  18  32  51  73  94 118 148 180 215 258
#     4   9  16  26  41  60  82 109 143 184 228 274
#     4   9  18  33  53  75  98 122 147 177 215 264
#     4   8  13  20  33  56  81 106 141 183 224 264
#     4   8  14  24  39  63  94 126 164 210 252 283
#
# _framework density 18.989877
#
# number of rings (size 3 to 8) (size 9 to 14) (size 15 to 20)
#    0.000    2.875    1.250    2.250    0.000    3.500 
#    0.000    1.250    0.000    2.250    0.000    7.000 
#    0.000    0.500    0.000    5.750    0.000    1.625 
#
# Total GULP energy -356295.207500 kJ/mol
# GULP energy per Si atom -5567.112617 kJ/mol
# Density = 1.894666 g / cm^3
# Si number density = 18.989877 Si / 1000 Ang^3
#
#
#
# Elastic Constant Matrix: (Units=GPa)
#
#
# Indices 1 2 3 4 5 6 
#
# 1 100.6734 -2.9532 37.5270 0.0000 0.0000 0.0000
# 2 -2.9532 33.2164 4.4922 0.0000 0.0000 0.0000
# 3 37.5270 4.4922 95.5805 0.0000 0.0000 0.0000
# 4 0.0000 0.0000 0.0000 -1.3709 0.0000 0.0000
# 5 0.0000 0.0000 0.0000 0.0000 38.7203 0.0000
# 6 0.0000 0.0000 0.0000 0.0000 0.0000 -59.7824
#
#
#
# Elastic Compliance Matrix: (Units=1/GPa)
#
#
# Indices 1 2 3 4 5 6 
#
# 1 0.011728 0.001676 -0.004683 0.000000 0.000000 0.000000
# 2 0.001676 0.030538 -0.002093 0.000000 0.000000 0.000000
# 3 -0.004683 -0.002093 0.012400 0.000000 0.000000 0.000000
# 4 0.000000 0.000000 0.000000 -0.729457 0.000000 0.000000
# 5 0.000000 0.000000 0.000000 0.000000 0.025826 0.000000
# 6 0.000000 0.000000 0.000000 0.000000 0.000000 -0.016727
#
#
# Mechanical properties :
#
#
# Convention : Reuss Voigt Hill
#
# Bulk Modulus (GPa) = 22.49010 34.17805 28.33407
# Shear Modulus (GPa) = -7.80433 8.20703 0.20135
#
# Velocity S-wave (km/s) = -2.02945 2.08115 0.32597
# Velocity P-wave (km/s) = 2.52535 4.87975 3.88519
#
# Compressibility (1/GPa) = 0.04446402
#
# Stress axis : x y z
#
# Youngs Moduli (GPa) = 85.26541 32.74638 80.64773
#
# Poissons Ratio (x) = -0.05489 0.37771
# Poissons Ratio (y) = -0.14291 0.16882
# Poissons Ratio (z) = 0.39934 0.06855
#
# Static dielectric constant tensor:
#      x y z
#    x 1.726230 0.000000 0.000000 
#    y 0.000000 1.695890 0.000000 
#    z 0.000000 0.000000 1.696400 
# 
# From -- ./inp_files/31334.got.cif
#   From: 2010.05.17/outbox.cif.g08.bks.cpg/sg47_16_cif.got.tgz:31334.got - 2010.06.03 20:15:42.
