data_PCOD9381555
_publ_section_title
;
Structure prediction by ZEFSAII (Michael W. Deem and Ramdas Pophale) SiO2 
 PCOD9381555
Probable space group: P M M M
;
_chemical_formula_sum "Si O2"
_cell_formula_units_Z 64
_cell_length_a 29.044737
_cell_length_b 14.384309
_cell_length_c 8.576240
_cell_angle_alpha 90.000000
_cell_angle_beta 90.000000
_cell_angle_gamma 90.000000
_cell_volume 3583.054204
_symmetry_space_group_name_H-M "P M M M"
_symmetry_group_IT_number 47
_symmetry_cell_setting 'orthorhombic'
loop_
_space_group_symop_operation_xyz
x,y,z
-x,-y,z
x,-y,-z
-x,y,-z
-x,-y,-z
x,y,-z
-x,y,z
x,-y,z
loop_
_atom_site_type_symbol
_atom_site_label
_atom_site_fract_x
_atom_site_fract_y
_atom_site_fract_z
Si Si1 0.301933 0.607803 0.687267
Si Si2 0.195838 0.889158 0.327057
Si Si3 0.553935 0.895343 0.809994
Si Si4 0.371639 0.753862 0.820169
Si Si5 0.801399 0.391931 0.312324
Si Si6 0.870529 0.242569 0.178729
Si Si7 0.287015 0.108099 0.175386
Si Si8 0.946191 0.104323 0.189986
O O1 0.300741 0.611652 0.500000
O O2 0.307002 0.500000 0.733860
O O3 0.345176 0.668039 0.742618
O O4 0.250295 0.638096 0.742678
O O5 0.180850 0.858969 0.500000
O O6 0.165611 0.841521 0.196603
O O7 0.248759 0.863249 0.298955
O O8 0.192899 0.000000 0.317228
O O9 0.500000 0.885502 0.772305
O O10 0.584032 0.807991 0.752669
O O11 0.568809 0.000000 0.759692
O O12 0.558003 0.895055 0.000000
O O13 0.332690 0.833222 0.817393
O O14 0.381546 0.728503 0.000000
O O15 0.800624 0.388750 0.500000
O O16 0.807380 0.500000 0.266033
O O17 0.843277 0.327797 0.256227
O O18 0.916214 0.192136 0.246170
O O19 0.879391 0.267357 0.000000
O O20 0.297685 0.000000 0.198465
O O21 0.267402 0.118017 0.000000
O O22 0.000000 0.113206 0.230164
O O23 0.930580 0.000000 0.241337
O O24 0.942987 0.104346 0.000000
#
# Coordination Sequence:
#
# PCOD9381555 Si02
#       8
#     8   8   8   8   8   8   8   8
#     4   9  19  35  51  66  88 122 160 193 230 280
#     4  10  20  31  42  60  91 129 162 188 220 273
#     4   8  14  26  45  69  97 127 156 186 224 274
#     4  10  18  27  45  72  94 115 150 194 235 272
#     4   9  19  36  54  70  93 127 162 194 232 283
#     4  11  20  29  48  75  97 119 153 198 243 282
#     4   9  17  28  41  61  92 123 149 183 227 273
#     4   8  15  29  48  70  97 128 160 193 231 277
#
# _framework density 17.861858000000002
#
# number of rings (size 3 to 8) (size 9 to 14) (size 15 to 20)
#    0.000    2.750    0.000    3.750    0.000    6.250 
#    0.000    1.250    0.000    3.750    0.000   10.500 
#    0.000    0.000    0.000    0.000    0.000    0.000 
#
# Total GULP energy -356314.570919 kJ/mol
# GULP energy per Si atom -5567.415171 kJ/mol
# Density = 1.782120 g / cm^3
# Si number density = 17.861858 Si / 1000 Ang^3
#
#
#
# Elastic Constant Matrix: (Units=GPa)
#
#
# Indices 1 2 3 4 5 6 
#
# 1 83.0015 60.6117 10.4014 0.0000 0.0000 0.0000
# 2 60.6117 106.7401 17.9071 0.0000 0.0000 0.0000
# 3 10.4014 17.9071 9.2309 0.0000 0.0000 0.0000
# 4 0.0000 0.0000 0.0000 1.6304 0.0000 0.0000
# 5 0.0000 0.0000 0.0000 0.0000 7.4433 0.0000
# 6 0.0000 0.0000 0.0000 0.0000 0.0000 36.3506
#
#
#
# Elastic Compliance Matrix: (Units=1/GPa)
#
#
# Indices 1 2 3 4 5 6 
#
# 1 0.020587 -0.011561 -0.000770 0.000000 0.000000 0.000000
# 2 -0.011561 0.020381 -0.026510 0.000000 0.000000 0.000000
# 3 -0.000770 -0.026510 0.160627 0.000000 0.000000 0.000000
# 4 0.000000 0.000000 0.000000 0.613330 0.000000 0.000000
# 5 0.000000 0.000000 0.000000 0.000000 0.134350 0.000000
# 6 0.000000 0.000000 0.000000 0.000000 0.000000 0.027510
#
#
# Mechanical properties :
#
#
# Convention : Reuss Voigt Hill
#
# Bulk Modulus (GPa) = 8.07022 41.86809 24.96916
# Shear Modulus (GPa) = 4.56300 16.42169 10.49234
#
# Velocity S-wave (km/s) = 1.60005 3.03540 2.42630
# Velocity P-wave (km/s) = 2.81806 5.98128 4.67532
#
# Compressibility (1/GPa) = 0.12391238
#
# Stress axis : x y z
#
# Youngs Moduli (GPa) = 48.57483 49.06604 6.22560
#
# Poissons Ratio (x) = 0.56725 0.00480
# Poissons Ratio (y) = 0.56157 0.16504
# Poissons Ratio (z) = 0.03742 1.30074
#
# Static dielectric constant tensor:
#      x y z
#    x 1.625230 0.000000 0.000000 
#    y 0.000000 1.628630 0.000000 
#    z 0.000000 0.000000 1.643770 
# 
# From -- ./inp_files/14336.got.cif
#   From: 2010.05.17/outbox.cif.g08.bks.cpg/sg47_8_cif.got.tgz:14336.got - 2010.06.03 20:15:42.
