data_PCOD9381518
_publ_section_title
;
Structure prediction by ZEFSAII (Michael W. Deem and Ramdas Pophale) SiO2 
 PCOD9381518
Probable space group: P M M M
;
_chemical_formula_sum "Si O2"
_cell_formula_units_Z 36
_cell_length_a 23.105780
_cell_length_b 7.672790
_cell_length_c 13.554062
_cell_angle_alpha 90.000000
_cell_angle_beta 90.000000
_cell_angle_gamma 90.000000
_cell_volume 2402.942694
_symmetry_space_group_name_H-M "P M M M"
_symmetry_group_IT_number 47
_symmetry_cell_setting 'orthorhombic'
loop_
_space_group_symop_operation_xyz
x,y,z
-x,-y,z
x,-y,-z
-x,y,-z
-x,-y,-z
x,y,-z
-x,y,z
x,-y,z
loop_
_atom_site_type_symbol
_atom_site_label
_atom_site_fract_x
_atom_site_fract_y
_atom_site_fract_z
Si Si1 0.780999 0.796563 0.307937
Si Si2 0.137304 0.500000 0.611074
Si Si3 0.345219 0.297991 0.381835
Si Si4 0.565929 0.000000 0.619786
Si Si5 0.150451 0.796367 0.887610
Si Si6 0.931567 0.500000 0.809820
O O1 0.821784 0.667830 0.370253
O O2 0.714648 0.751337 0.329259
O O3 0.799945 0.767192 0.194240
O O4 0.790892 0.000000 0.331496
O O5 0.115016 0.500000 0.500000
O O6 0.088687 0.500000 0.695543
O O7 0.335956 0.275629 0.500000
O O8 0.359052 0.500000 0.364218
O O9 0.396805 0.169315 0.351729
O O10 0.500000 0.000000 0.655993
O O11 0.563420 0.000000 0.500000
O O12 0.098251 0.668431 0.859399
O O13 0.133457 0.000000 0.880403
O O14 0.169024 0.762516 0.000000
O O15 0.000000 0.500000 0.820238
#
# Coordination Sequence:
#
# PCOD9381518 Si02
#       6
#     8   4   8   4   8   4
#     4  10  18  29  47  69  93 120 152 191 233 281
#     4  10  20  32  47  68  93 121 154 193 233 271
#     4  10  18  27  42  64  91 123 155 189 226 268
#     4   9  18  30  42  60  89 127 166 195 221 259
#     4   9  19  34  50  70  95 120 147 189 239 280
#     4  10  21  35  50  69  93 123 157 188 225 278
#
# _framework density 14.981629999999999
#
# number of rings (size 3 to 8) (size 9 to 14) (size 15 to 20)
#    0.000    2.333    2.222    1.000    0.000    3.333 
#    0.000    3.333    0.000    0.000    0.000    6.222 
#    0.000    1.778    0.000    2.000    0.000    0.222 
#
# Total GULP energy -200656.016194 kJ/mol
# GULP energy per Si atom -5573.778228 kJ/mol
# Density = 1.494753 g / cm^3
# Si number density = 14.981630 Si / 1000 Ang^3
#
#
#
# Elastic Constant Matrix: (Units=GPa)
#
#
# Indices 1 2 3 4 5 6 
#
# 1 106.4947 58.6654 24.3075 0.0000 0.0000 0.0000
# 2 58.6654 104.5397 40.3976 0.0000 0.0000 0.0000
# 3 24.3075 40.3976 71.9568 0.0000 0.0000 0.0000
# 4 0.0000 0.0000 0.0000 16.1628 0.0000 0.0000
# 5 0.0000 0.0000 0.0000 0.0000 9.3034 0.0000
# 6 0.0000 0.0000 0.0000 0.0000 0.0000 17.5082
#
#
#
# Elastic Compliance Matrix: (Units=1/GPa)
#
#
# Indices 1 2 3 4 5 6 
#
# 1 0.013601 -0.007480 -0.000395 0.000000 0.000000 0.000000
# 2 -0.007480 0.016329 -0.006641 0.000000 0.000000 0.000000
# 3 -0.000395 -0.006641 0.017759 0.000000 0.000000 0.000000
# 4 0.000000 0.000000 0.000000 0.061871 0.000000 0.000000
# 5 0.000000 0.000000 0.000000 0.000000 0.107487 0.000000
# 6 0.000000 0.000000 0.000000 0.000000 0.000000 0.057116
#
#
# Mechanical properties :
#
#
# Convention : Reuss Voigt Hill
#
# Bulk Modulus (GPa) = 53.59749 58.85914 56.22831
# Shear Modulus (GPa) = 16.15958 19.23626 17.69792
#
# Velocity S-wave (km/s) = 3.28781 3.58717 3.44074
# Velocity P-wave (km/s) = 7.08985 7.51863 7.30739
#
# Compressibility (1/GPa) = 0.01865759
#
# Stress axis : x y z
#
# Youngs Moduli (GPa) = 73.52544 61.23900 56.30939
#
# Poissons Ratio (x) = 0.45805 0.02225
# Poissons Ratio (y) = 0.54995 0.37395
# Poissons Ratio (z) = 0.02906 0.40668
#
# Static dielectric constant tensor:
#      x y z
#    x 1.459940 0.000000 0.000000 
#    y 0.000000 1.516930 0.000000 
#    z 0.000000 0.000000 1.494480 
# 
# From -- ./inp_files/18865.got.cif
#   From: 2010.05.17/outbox.cif.g08.bks.cpg/sg47_10_cif.got.tgz:18865.got - 2010.06.03 20:15:42.
