data_PCOD9381287
_publ_section_title
;
Structure prediction by ZEFSAII (Michael W. Deem and Ramdas Pophale) SiO2 
 PCOD9381287
Probable space group: P M M M
;
_chemical_formula_sum "Si O2"
_cell_formula_units_Z 40
_cell_length_a 21.207708
_cell_length_b 12.359049
_cell_length_c 7.378099
_cell_angle_alpha 90.000000
_cell_angle_beta 90.000000
_cell_angle_gamma 90.000000
_cell_volume 1933.852150
_symmetry_space_group_name_H-M "P M M M"
_symmetry_group_IT_number 47
_symmetry_cell_setting 'orthorhombic'
loop_
_space_group_symop_operation_xyz
x,y,z
-x,-y,z
x,-y,-z
-x,y,-z
-x,-y,-z
x,y,-z
-x,y,z
x,-y,z
loop_
_atom_site_type_symbol
_atom_site_label
_atom_site_fract_x
_atom_site_fract_y
_atom_site_fract_z
Si Si1 0.571292 0.877647 0.717063
Si Si2 0.244642 0.000000 0.779594
Si Si3 0.302028 0.222960 0.214905
Si Si4 0.068589 0.759205 0.778949
Si Si5 0.097578 0.000000 0.780783
Si Si6 0.191629 0.624045 0.778321
O O1 0.569211 0.883685 0.500000
O O2 0.500000 0.855387 0.780645
O O3 0.623092 0.787246 0.760515
O O4 0.588952 0.000000 0.782575
O O5 0.276077 0.109209 0.711251
O O6 0.171311 0.000000 0.737719
O O7 0.249652 0.000000 0.000000
O O8 0.256853 0.318673 0.281606
O O9 0.291635 0.221982 0.000000
O O10 0.071652 0.884550 0.719230
O O11 0.130452 0.693442 0.720766
O O12 0.000000 0.713629 0.726685
O O13 0.070800 0.759900 0.000000
O O14 0.090009 0.000000 0.000000
O O15 0.187711 0.500000 0.719796
O O16 0.190857 0.623682 0.000000
#
# Coordination Sequence:
#
# PCOD9381287 Si02
#       6
#     8   4   8   8   4   8
#     4   9  18  31  46  68  98 123 139 166 217 273
#     4   9  14  21  36  59  83 110 143 182 222 258
#     4  10  17  27  45  66  89 118 152 186 218 258
#     4   9  15  21  31  49  77 115 152 183 220 269
#     4   9  13  20  31  48  78 111 145 182 223 270
#     4   9  17  27  38  55  81 115 154 192 228 261
#
# _framework density 20.684104999999999
#
# number of rings (size 3 to 8) (size 9 to 14) (size 15 to 20)
#    0.000    2.800    3.000    0.900    0.000    2.000 
#    0.000    3.000    0.000    1.200    0.000    4.200 
#    0.000    0.800    0.000    6.000    0.000    6.400 
#
# Total GULP energy -223069.021453 kJ/mol
# GULP energy per Si atom -5576.725536 kJ/mol
# Density = 2.063703 g / cm^3
# Si number density = 20.684105 Si / 1000 Ang^3
#
#
#
# Elastic Constant Matrix: (Units=GPa)
#
#
# Indices 1 2 3 4 5 6 
#
# 1 176.2914 94.6630 -1.0476 0.0000 0.0000 0.0000
# 2 94.6630 136.8472 5.1615 0.0000 0.0000 0.0000
# 3 -1.0476 5.1615 71.1321 0.0000 0.0000 0.0000
# 4 0.0000 0.0000 0.0000 -5.0008 0.0000 0.0000
# 5 0.0000 0.0000 0.0000 0.0000 45.7202 0.0000
# 6 0.0000 0.0000 0.0000 0.0000 0.0000 -7.7420
#
#
#
# Elastic Compliance Matrix: (Units=1/GPa)
#
#
# Indices 1 2 3 4 5 6 
#
# 1 0.009049 -0.006282 0.000589 0.000000 0.000000 0.000000
# 2 -0.006282 0.011688 -0.000941 0.000000 0.000000 0.000000
# 3 0.000589 -0.000941 0.014135 0.000000 0.000000 0.000000
# 4 0.000000 0.000000 0.000000 -0.199968 0.000000 0.000000
# 5 0.000000 0.000000 0.000000 0.000000 0.021872 0.000000
# 6 0.000000 0.000000 0.000000 0.000000 0.000000 -0.129165
#
#
# Mechanical properties :
#
#
# Convention : Reuss Voigt Hill
#
# Bulk Modulus (GPa) = 46.28370 64.64717 55.46543
# Shear Modulus (GPa) = -19.84763 25.62839 2.89038
#
# Velocity S-wave (km/s) = -3.10104 3.52382 1.18340
# Velocity P-wave (km/s) = 3.09889 6.91945 5.36106
#
# Compressibility (1/GPa) = 0.02160588
#
# Stress axis : x y z
#
# Youngs Moduli (GPa) = 110.50829 85.55543 70.74497
#
# Poissons Ratio (x) = 0.53745 -0.04168
# Poissons Ratio (y) = 0.69420 0.06655
# Poissons Ratio (z) = -0.06510 0.08048
#
# Static dielectric constant tensor:
#      x y z
#    x 1.769060 0.000000 0.000000 
#    y 0.000000 1.705520 0.000000 
#    z 0.000000 0.000000 1.806710 
# 
# From -- ./inp_files/10732.got.cif
#   From: 2010.05.17/outbox.cif.g08.bks.cpg/sg47_6_cif.got.tgz:10732.got - 2010.06.03 20:15:42.
