data_PCOD9381454
_publ_section_title
;
Structure prediction by ZEFSAII (Michael W. Deem and Ramdas Pophale) SiO2 
 PCOD9381454
Probable space group: P M M M
;
_chemical_formula_sum "Si O2"
_cell_formula_units_Z 56
_cell_length_a 7.461038
_cell_length_b 14.251335
_cell_length_c 30.590648
_cell_angle_alpha 90.000000
_cell_angle_beta 90.000000
_cell_angle_gamma 90.000000
_cell_volume 3252.696015
_symmetry_space_group_name_H-M "P M M M"
_symmetry_group_IT_number 47
_symmetry_cell_setting 'orthorhombic'
loop_
_space_group_symop_operation_xyz
x,y,z
-x,-y,z
x,-y,-z
-x,y,-z
-x,-y,-z
x,y,-z
-x,y,z
x,-y,z
loop_
_atom_site_type_symbol
_atom_site_label
_atom_site_fract_x
_atom_site_fract_y
_atom_site_fract_z
Si Si1 0.208671 0.604164 0.820697
Si Si2 0.781620 0.108737 0.048737
Si Si3 0.719001 0.390318 0.642430
Si Si4 0.219716 0.208662 0.863761
Si Si5 0.784209 0.105012 0.224215
Si Si6 0.284145 0.612312 0.452976
Si Si7 0.289247 0.703385 0.269210
O O1 0.287705 0.500000 0.823466
O O2 0.283717 0.687384 0.850814
O O3 0.214183 0.643609 0.771271
O O4 0.000000 0.596817 0.832610
O O5 0.721303 0.170892 0.089402
O O6 0.000000 0.110241 0.048973
O O7 0.729462 0.000000 0.055073
O O8 0.724630 0.138260 0.000000
O O9 0.500000 0.388467 0.641578
O O10 0.769214 0.500000 0.647751
O O11 0.780138 0.354811 0.594589
O O12 0.780556 0.330637 0.683964
O O13 0.274151 0.140559 0.823845
O O14 0.000000 0.209195 0.863609
O O15 0.736455 0.187227 0.258034
O O16 0.000000 0.101968 0.223132
O O17 0.718976 0.000000 0.233695
O O18 0.216443 0.648712 0.500000
O O19 0.500000 0.624570 0.453418
O O20 0.252339 0.500000 0.452748
O O21 0.500000 0.684010 0.268883
#
# Coordination Sequence:
#
# PCOD9381454 Si02
#       7
#     8   8   8   8   8   8   8
#     4   9  17  28  40  53  72 101 135 164 186 214
#     4   8  12  17  28  49  74  95 115 144 185 231
#     4   8  13  20  30  47  73 102 126 148 179 218
#     4   8  13  22  36  52  70  95 125 152 180 217
#     4   9  17  29  43  56  73 100 130 156 183 220
#     4   7   9  14  25  41  63  93 125 150 172 206
#     4  10  18  26  38  57  80 102 124 154 192 228
#
# _framework density 17.216487000000001
#
# number of rings (size 3 to 8) (size 9 to 14) (size 15 to 20)
#    0.000    3.571    0.000    3.857    0.000    2.857 
#    0.000    0.000    0.000    0.429    0.000    3.000 
#    0.000   12.000    0.000   59.857    0.000   48.857 
#
# Total GULP energy -311782.999836 kJ/mol
# GULP energy per Si atom -5567.553568 kJ/mol
# Density = 1.717730 g / cm^3
# Si number density = 17.216487 Si / 1000 Ang^3
#
#
#
# Elastic Constant Matrix: (Units=GPa)
#
#
# Indices 1 2 3 4 5 6 
#
# 1 47.7337 -1.1848 0.2625 0.0000 0.0000 0.0000
# 2 -1.1848 102.9073 80.8900 0.0000 0.0000 0.0000
# 3 0.2625 80.8900 184.6252 0.0000 0.0000 0.0000
# 4 0.0000 0.0000 0.0000 21.6537 0.0000 0.0000
# 5 0.0000 0.0000 0.0000 0.0000 6.5061 0.0000
# 6 0.0000 0.0000 0.0000 0.0000 0.0000 3.0455
#
#
#
# Elastic Compliance Matrix: (Units=1/GPa)
#
#
# Indices 1 2 3 4 5 6 
#
# 1 0.020961 0.000404 -0.000207 0.000000 0.000000 0.000000
# 2 0.000404 0.014830 -0.006498 0.000000 0.000000 0.000000
# 3 -0.000207 -0.006498 0.008264 0.000000 0.000000 0.000000
# 4 0.000000 0.000000 0.000000 0.046181 0.000000 0.000000
# 5 0.000000 0.000000 0.000000 0.000000 0.153701 0.000000
# 6 0.000000 0.000000 0.000000 0.000000 0.000000 0.328353
#
#
# Mechanical properties :
#
#
# Convention : Reuss Voigt Hill
#
# Bulk Modulus (GPa) = 31.79405 55.02240 43.40823
# Shear Modulus (GPa) = 8.39805 23.26098 15.82952
#
# Velocity S-wave (km/s) = 2.21100 3.67970 3.03552
# Velocity P-wave (km/s) = 5.00253 7.07687 6.12811
#
# Compressibility (1/GPa) = 0.03145243
#
# Stress axis : x y z
#
# Youngs Moduli (GPa) = 47.70832 67.43148 121.01195
#
# Poissons Ratio (x) = -0.02723 0.02502
# Poissons Ratio (y) = -0.01927 0.78634
# Poissons Ratio (z) = 0.00986 0.43817
#
# Static dielectric constant tensor:
#      x y z
#    x 1.720130 0.000000 0.000000 
#    y 0.000000 1.571420 0.000000 
#    z 0.000000 0.000000 1.608570 
# 
# From -- ./inp_files/22090.got.cif
#   From: 2010.05.17/outbox.cif.g08.bks.cpg/sg47_12_cif.got.tgz:22090.got - 2010.06.03 20:15:42.
