data_PCOD9381692
_publ_section_title
;
Structure prediction by ZEFSAII (Michael W. Deem and Ramdas Pophale) SiO2 
 PCOD9381692
Probable space group: P M M M
;
_chemical_formula_sum "Si O2"
_cell_formula_units_Z 52
_cell_length_a 8.990553
_cell_length_b 24.532891
_cell_length_c 14.063849
_cell_angle_alpha 90.000000
_cell_angle_beta 90.000000
_cell_angle_gamma 90.000000
_cell_volume 3101.982402
_symmetry_space_group_name_H-M "P M M M"
_symmetry_group_IT_number 47
_symmetry_cell_setting 'orthorhombic'
loop_
_space_group_symop_operation_xyz
x,y,z
-x,-y,z
x,-y,-z
-x,y,-z
-x,-y,-z
x,y,-z
-x,y,z
x,-y,z
loop_
_atom_site_type_symbol
_atom_site_label
_atom_site_fract_x
_atom_site_fract_y
_atom_site_fract_z
Si Si1 0.322027 0.167958 0.717788
Si Si2 0.322883 0.436672 0.300653
Si Si3 0.167817 0.565967 0.500000
Si Si4 0.318960 0.938184 0.609165
Si Si5 0.179456 0.769114 0.108648
Si Si6 0.175613 0.339164 0.212992
Si Si7 0.175287 0.262813 0.606744
O O1 0.500000 0.168237 0.726629
O O2 0.271300 0.108453 0.682224
O O3 0.250660 0.190043 0.815157
O O4 0.271375 0.210969 0.637488
O O5 0.500000 0.432970 0.308058
O O6 0.283008 0.500000 0.282188
O O7 0.251521 0.420719 0.402495
O O8 0.262719 0.395419 0.221304
O O9 0.158352 0.500000 0.500000
O O10 0.000000 0.588793 0.500000
O O11 0.273370 0.925998 0.500000
O O12 0.500000 0.937880 0.609246
O O13 0.271732 0.000000 0.632225
O O14 0.221567 0.706911 0.137033
O O15 0.000000 0.771858 0.118451
O O16 0.219714 0.780914 0.000000
O O17 0.198503 0.308437 0.313731
O O18 0.000000 0.349988 0.201502
O O19 0.209458 0.281027 0.500000
O O20 0.000000 0.248096 0.611336
#
# Coordination Sequence:
#
# PCOD9381692 Si02
#       7
#     8   8   4   8   8   8   8
#     4  10  18  28  47  75 100 123 160 205 245 286
#     4  10  20  32  45  65  95 126 155 190 234 281
#     4   9  17  29  45  63  85 121 165 197 220 257
#     4   8  14  25  42  67 102 141 173 199 230 270
#     4   9  19  37  57  73  92 121 155 195 248 302
#     4   9  18  31  49  71  90 116 157 197 233 280
#     4   9  18  31  45  64  95 132 162 193 236 283
#
# _framework density 16.763473999999999
#
# number of rings (size 3 to 8) (size 9 to 14) (size 15 to 20)
#    0.000    2.846    0.000    3.000    1.077    5.538 
#    0.000    0.000    0.000    2.769    0.000   11.846 
#    0.000    0.000    0.000    0.000    0.000    0.000 
#
# Total GULP energy -289774.025326 kJ/mol
# GULP energy per Si atom -5572.577410 kJ/mol
# Density = 1.672532 g / cm^3
# Si number density = 16.763474 Si / 1000 Ang^3
#
#
#
# Elastic Constant Matrix: (Units=GPa)
#
#
# Indices 1 2 3 4 5 6 
#
# 1 26.6151 36.1731 19.2621 0.0000 0.0000 0.0000
# 2 36.1731 104.5184 36.8768 0.0000 0.0000 0.0000
# 3 19.2621 36.8768 70.3402 0.0000 0.0000 0.0000
# 4 0.0000 0.0000 0.0000 18.3962 0.0000 0.0000
# 5 0.0000 0.0000 0.0000 0.0000 18.0378 0.0000
# 6 0.0000 0.0000 0.0000 0.0000 0.0000 1.5289
#
#
#
# Elastic Compliance Matrix: (Units=1/GPa)
#
#
# Indices 1 2 3 4 5 6 
#
# 1 0.074856 -0.022913 -0.008486 0.000000 0.000000 0.000000
# 2 -0.022913 0.018753 -0.003557 0.000000 0.000000 0.000000
# 3 -0.008486 -0.003557 0.018405 0.000000 0.000000 0.000000
# 4 0.000000 0.000000 0.000000 0.054359 0.000000 0.000000
# 5 0.000000 0.000000 0.000000 0.000000 0.055439 0.000000
# 6 0.000000 0.000000 0.000000 0.000000 0.000000 0.654050
#
#
# Mechanical properties :
#
#
# Convention : Reuss Voigt Hill
#
# Bulk Modulus (GPa) = 23.75205 42.89973 33.32589
# Shear Modulus (GPa) = 5.20938 14.87004 10.03971
#
# Velocity S-wave (km/s) = 1.76475 2.98157 2.44991
# Velocity P-wave (km/s) = 4.28394 6.12370 5.28450
#
# Compressibility (1/GPa) = 0.04210163
#
# Stress axis : x y z
#
# Youngs Moduli (GPa) = 13.35907 53.32598 54.33251
#
# Poissons Ratio (x) = 1.22185 0.46108
# Poissons Ratio (y) = 0.30609 0.19325
# Poissons Ratio (z) = 0.11337 0.18967
#
# Static dielectric constant tensor:
#      x y z
#    x 1.565590 0.000000 0.000000 
#    y 0.000000 1.585160 0.000000 
#    z 0.000000 0.000000 1.559540 
# 
# From -- ./inp_files/21463.got.cif
#   From: 2010.05.17/outbox.cif.g08.bks.cpg/sg47_11_cif.got.tgz:21463.got - 2010.06.03 20:15:42.
