data_PCOD9381553
_publ_section_title
;
Structure prediction by ZEFSAII (Michael W. Deem and Ramdas Pophale) SiO2 
 PCOD9381553
Probable space group: P M M M
;
_chemical_formula_sum "Si O2"
_cell_formula_units_Z 44
_cell_length_a 13.835077
_cell_length_b 7.281456
_cell_length_c 19.731839
_cell_angle_alpha 90.000000
_cell_angle_beta 90.000000
_cell_angle_gamma 90.000000
_cell_volume 1987.775682
_symmetry_space_group_name_H-M "P M M M"
_symmetry_group_IT_number 47
_symmetry_cell_setting 'orthorhombic'
loop_
_space_group_symop_operation_xyz
x,y,z
-x,-y,z
x,-y,-z
-x,y,-z
-x,-y,-z
x,y,-z
-x,y,z
x,-y,z
loop_
_atom_site_type_symbol
_atom_site_label
_atom_site_fract_x
_atom_site_fract_y
_atom_site_fract_z
Si Si1 0.614248 0.722396 0.147020
Si Si2 0.386725 0.276935 0.425608
Si Si3 0.116531 0.220136 0.927685
Si Si4 0.298341 0.711760 0.287023
Si Si5 0.889505 0.221727 0.780129
Si Si6 0.616059 0.278861 0.000000
O O1 0.500000 0.763286 0.149279
O O2 0.623428 0.500000 0.145977
O O3 0.660213 0.792359 0.216786
O O4 0.652924 0.788065 0.073401
O O5 0.352279 0.214913 0.500000
O O6 0.500000 0.231112 0.419757
O O7 0.380224 0.500000 0.426445
O O8 0.332991 0.210216 0.358363
O O9 0.148388 0.288291 0.854049
O O10 0.000000 0.251329 0.927527
O O11 0.128709 0.000000 0.928350
O O12 0.154004 0.292079 0.000000
O O13 0.331456 0.500000 0.287051
O O14 0.183658 0.718470 0.277400
O O15 0.000000 0.281052 0.771152
O O16 0.889992 0.000000 0.782245
O O17 0.624790 0.500000 0.000000
O O18 0.500000 0.241141 0.000000
#
# Coordination Sequence:
#
# PCOD9381553 Si02
#       6
#     8   8   8   8   8   4
#     4   8  13  22  37  58  85 116 146 174 208 257
#     4   8  14  26  46  72  99 123 146 176 218 269
#     4   7  10  20  40  60  74  97 142 192 225 253
#     4  10  18  27  44  71  94 113 144 188 230 265
#     4   9  18  32  47  62  85 120 157 189 225 271
#     4   7  10  18  32  50  78 117 150 170 197 247
#
# _framework density 22.135294999999999
#
# number of rings (size 3 to 8) (size 9 to 14) (size 15 to 20)
#    0.000    3.727    0.000    3.818    0.000    2.545 
#    1.636    0.000    0.000    3.273    0.000    7.636 
#    0.000    2.182    0.000    0.000    0.000    0.000 
#
# Total GULP energy -245509.053055 kJ/mol
# GULP energy per Si atom -5579.751206 kJ/mol
# Density = 2.208491 g / cm^3
# Si number density = 22.135295 Si / 1000 Ang^3
#
#
#
# Elastic Constant Matrix: (Units=GPa)
#
#
# Indices 1 2 3 4 5 6 
#
# 1 74.3464 -3.4603 90.3405 0.0000 0.0000 0.0000
# 2 -3.4603 94.8156 12.9222 0.0000 0.0000 0.0000
# 3 90.3405 12.9222 253.9053 0.0000 0.0000 0.0000
# 4 0.0000 0.0000 0.0000 -5.3381 0.0000 0.0000
# 5 0.0000 0.0000 0.0000 0.0000 39.6716 0.0000
# 6 0.0000 0.0000 0.0000 0.0000 0.0000 10.8518
#
#
#
# Elastic Compliance Matrix: (Units=1/GPa)
#
#
# Indices 1 2 3 4 5 6 
#
# 1 0.024089 0.002062 -0.008676 0.000000 0.000000 0.000000
# 2 0.002062 0.010797 -0.001283 0.000000 0.000000 0.000000
# 3 -0.008676 -0.001283 0.007091 0.000000 0.000000 0.000000
# 4 0.000000 0.000000 0.000000 -0.187332 0.000000 0.000000
# 5 0.000000 0.000000 0.000000 0.000000 0.025207 0.000000
# 6 0.000000 0.000000 0.000000 0.000000 0.000000 0.092150
#
#
# Mechanical properties :
#
#
# Convention : Reuss Voigt Hill
#
# Bulk Modulus (GPa) = 38.19456 69.18577 53.69017
# Shear Modulus (GPa) = -1438.02528 30.58806 -703.71861
#
# Velocity S-wave (km/s) = -25.51594 3.72138 -17.84957
# Velocity P-wave (km/s) = 29.16833 7.05611 20.01253
#
# Compressibility (1/GPa) = 0.02618174
#
# Stress axis : x y z
#
# Youngs Moduli (GPa) = 41.51326 92.61933 141.03091
#
# Poissons Ratio (x) = -0.19094 1.22355
# Poissons Ratio (y) = -0.08558 0.18094
# Poissons Ratio (z) = 0.36016 0.11883
#
# Static dielectric constant tensor:
#      x y z
#    x 1.825920 0.000000 0.000000 
#    y 0.000000 1.869590 0.000000 
#    z 0.000000 0.000000 1.835610 
# 
# From -- ./inp_files/27447.got.cif
#   From: 2010.05.17/outbox.cif.g08.bks.cpg/sg47_14_cif.got.tgz:27447.got - 2010.06.03 20:15:42.
