data_PCOD9381752
_publ_section_title
;
Structure prediction by ZEFSAII (Michael W. Deem and Ramdas Pophale) SiO2 
 PCOD9381752
Probable space group: P M M M
;
_chemical_formula_sum "Si O2"
_cell_formula_units_Z 32
_cell_length_a 7.482296
_cell_length_b 18.976526
_cell_length_c 12.206192
_cell_angle_alpha 90.000000
_cell_angle_beta 90.000000
_cell_angle_gamma 90.000000
_cell_volume 1733.132602
_symmetry_space_group_name_H-M "P M M M"
_symmetry_group_IT_number 47
_symmetry_cell_setting 'orthorhombic'
loop_
_space_group_symop_operation_xyz
x,y,z
-x,-y,z
x,-y,-z
-x,y,-z
-x,-y,-z
x,y,-z
-x,y,z
x,-y,z
loop_
_atom_site_type_symbol
_atom_site_label
_atom_site_fract_x
_atom_site_fract_y
_atom_site_fract_z
Si Si1 0.287612 0.924198 0.367626
Si Si2 0.285544 0.229228 0.374659
Si Si3 0.781118 0.500000 0.374689
Si Si4 0.213574 0.366724 0.234584
Si Si5 0.218498 0.582645 0.000000
O O1 0.270930 0.923714 0.500000
O O2 0.500000 0.925346 0.343235
O O3 0.217214 0.847384 0.334329
O O4 0.213974 0.000000 0.328996
O O5 0.221228 0.243175 0.500000
O O6 0.500000 0.223000 0.382174
O O7 0.248287 0.292644 0.292656
O O8 0.723114 0.500000 0.500000
O O9 0.720767 0.569638 0.311154
O O10 0.000000 0.500000 0.374778
O O11 0.000000 0.374416 0.229260
O O12 0.279461 0.379181 0.111080
O O13 0.270161 0.500000 0.000000
O O14 0.000000 0.583066 0.000000
#
# Coordination Sequence:
#
# PCOD9381752 Si02
#       5
#     8   8   4   8   4
#     4   7  10  19  37  59  82 111 144 170 195 239
#     4   9  17  28  42  64  94 119 138 168 212 259
#     4   9  16  25  40  62  83 105 136 169 202 248
#     4  10  18  29  46  64  83 109 144 183 217 250
#     4   9  16  30  49  65  78 103 148 194 221 241
#
# _framework density 18.463677000000001
#
# number of rings (size 3 to 8) (size 9 to 14) (size 15 to 20)
#    0.000    3.250    1.250    3.000    0.000    1.500 
#    0.000    1.250    0.000    3.750    0.000    4.375 
#    0.000    7.000    0.000    0.000    0.000    0.000 
#
# Total GULP energy -178221.478693 kJ/mol
# GULP energy per Si atom -5569.421209 kJ/mol
# Density = 1.842165 g / cm^3
# Si number density = 18.463677 Si / 1000 Ang^3
#
#
#
# Elastic Constant Matrix: (Units=GPa)
#
#
# Indices 1 2 3 4 5 6 
#
# 1 49.0566 3.2811 8.2598 0.0000 0.0000 0.0000
# 2 3.2811 220.9087 103.2825 0.0000 0.0000 0.0000
# 3 8.2598 103.2825 136.0684 0.0000 0.0000 0.0000
# 4 0.0000 0.0000 0.0000 1.6542 0.0000 0.0000
# 5 0.0000 0.0000 0.0000 0.0000 5.1777 0.0000
# 6 0.0000 0.0000 0.0000 0.0000 0.0000 18.5563
#
#
#
# Elastic Compliance Matrix: (Units=1/GPa)
#
#
# Indices 1 2 3 4 5 6 
#
# 1 0.020622 0.000432 -0.001580 0.000000 0.000000 0.000000
# 2 0.000432 0.007026 -0.005359 0.000000 0.000000 0.000000
# 3 -0.001580 -0.005359 0.011513 0.000000 0.000000 0.000000
# 4 0.000000 0.000000 0.000000 0.604507 0.000000 0.000000
# 5 0.000000 0.000000 0.000000 0.000000 0.193138 0.000000
# 6 0.000000 0.000000 0.000000 0.000000 0.000000 0.053890
#
#
# Mechanical properties :
#
#
# Convention : Reuss Voigt Hill
#
# Bulk Modulus (GPa) = 38.24530 70.63115 54.43823
# Shear Modulus (GPa) = 5.47990 24.49167 14.98579
#
# Velocity S-wave (km/s) = 1.72464 3.64604 2.85201
# Velocity P-wave (km/s) = 4.97239 7.48745 6.35557
#
# Compressibility (1/GPa) = 0.02614700
#
# Stress axis : x y z
#
# Youngs Moduli (GPa) = 48.49257 142.32839 86.85720
#
# Poissons Ratio (x) = -0.06155 0.13724
# Poissons Ratio (y) = -0.02097 0.46550
# Poissons Ratio (z) = 0.07662 0.76278
#
# Static dielectric constant tensor:
#      x y z
#    x 1.722570 0.000000 0.000000 
#    y 0.000000 1.686010 0.000000 
#    z 0.000000 0.000000 1.604700 
# 
# From -- ./inp_files/3583.got.cif
#   From: 2010.05.17/outbox.cif.g08.bks.cpg/sg47_2_cif.got.tgz:3583.got - 2010.06.03 20:15:42.
