data_PCOD9381783
_publ_section_title
;
Structure prediction by ZEFSAII (Michael W. Deem and Ramdas Pophale) SiO2 
 PCOD9381783
Probable space group: P M M M
;
_chemical_formula_sum "Si O2"
_cell_formula_units_Z 56
_cell_length_a 19.639243
_cell_length_b 8.620793
_cell_length_c 19.198600
_cell_angle_alpha 90.000000
_cell_angle_beta 90.000000
_cell_angle_gamma 90.000000
_cell_volume 3250.435265
_symmetry_space_group_name_H-M "P M M M"
_symmetry_group_IT_number 47
_symmetry_cell_setting 'orthorhombic'
loop_
_space_group_symop_operation_xyz
x,y,z
-x,-y,z
x,-y,-z
-x,y,-z
-x,-y,-z
x,y,-z
-x,y,z
x,-y,z
loop_
_atom_site_type_symbol
_atom_site_label
_atom_site_fract_x
_atom_site_fract_y
_atom_site_fract_z
Si Si1 0.210484 0.685368 0.709886
Si Si2 0.574384 0.318627 0.415567
Si Si3 0.710202 0.185954 0.839593
Si Si4 0.923762 0.688675 0.211519
Si Si5 0.282153 0.815858 0.419754
Si Si6 0.161629 0.312709 0.079180
Si Si7 0.422962 0.188949 0.919512
O O1 0.211721 0.500000 0.713158
O O2 0.265389 0.747999 0.765599
O O3 0.135935 0.739155 0.735950
O O4 0.229736 0.740595 0.633353
O O5 0.572560 0.311087 0.500000
O O6 0.500000 0.262969 0.390701
O O7 0.581573 0.500000 0.396925
O O8 0.641492 0.227142 0.394721
O O9 0.768195 0.239051 0.894017
O O10 0.636931 0.240547 0.868088
O O11 0.709448 0.000000 0.835478
O O12 0.925626 0.500000 0.214289
O O13 0.896678 0.730667 0.134534
O O14 0.000000 0.745563 0.225216
O O15 0.274791 0.761351 0.500000
O O16 0.274631 0.000000 0.419015
O O17 0.168823 0.500000 0.082466
O O18 0.146599 0.268636 0.000000
O O19 0.500000 0.238509 0.901376
O O20 0.422661 0.000000 0.918794
O O21 0.409218 0.234923 0.000000
#
# Coordination Sequence:
#
# PCOD9381783 Si02
#       7
#     8   8   8   8   8   8   8
#     4  10  20  34  52  72  95 124 156 193 240 291
#     4   8  14  26  45  69  97 127 156 187 227 274
#     4  10  18  29  47  68  92 124 161 200 242 287
#     4   8  15  29  49  72  95 121 157 198 237 279
#     4  10  20  33  51  75 100 126 159 199 239 283
#     4   9  17  28  44  69  99 128 157 192 235 282
#     4   8  14  25  42  65  91 120 159 205 245 276
#
# _framework density 17.228460999999999
#
# number of rings (size 3 to 8) (size 9 to 14) (size 15 to 20)
#    0.000    3.000    0.000    3.429    0.000    2.286 
#    0.000    3.571    0.000   15.429    0.000   12.000 
#    0.000    0.000    0.000    0.000    0.000    0.000 
#
# Total GULP energy -311938.644090 kJ/mol
# GULP energy per Si atom -5570.332930 kJ/mol
# Density = 1.718925 g / cm^3
# Si number density = 17.228461 Si / 1000 Ang^3
#
#
#
# Elastic Constant Matrix: (Units=GPa)
#
#
# Indices 1 2 3 4 5 6 
#
# 1 140.4649 23.3980 73.8786 0.0000 0.0000 0.0000
# 2 23.3980 20.8653 22.8225 0.0000 0.0000 0.0000
# 3 73.8786 22.8225 95.5769 0.0000 0.0000 0.0000
# 4 0.0000 0.0000 0.0000 22.2051 0.0000 0.0000
# 5 0.0000 0.0000 0.0000 0.0000 12.3240 0.0000
# 6 0.0000 0.0000 0.0000 0.0000 0.0000 -19.7973
#
#
#
# Elastic Compliance Matrix: (Units=1/GPa)
#
#
# Indices 1 2 3 4 5 6 
#
# 1 0.012314 -0.004598 -0.008420 0.000000 0.000000 0.000000
# 2 -0.004598 0.066587 -0.012345 0.000000 0.000000 0.000000
# 3 -0.008420 -0.012345 0.019919 0.000000 0.000000 0.000000
# 4 0.000000 0.000000 0.000000 0.045035 0.000000 0.000000
# 5 0.000000 0.000000 0.000000 0.000000 0.081143 0.000000
# 6 0.000000 0.000000 0.000000 0.000000 0.000000 -0.050512
#
#
# Mechanical properties :
#
#
# Convention : Reuss Voigt Hill
#
# Bulk Modulus (GPa) = 20.79371 55.23392 38.01382
# Shear Modulus (GPa) = 20.72584 12.06688 16.39636
#
# Velocity S-wave (km/s) = 3.47219 2.64939 3.08831
# Velocity P-wave (km/s) = 5.30758 6.44114 5.90164
#
# Compressibility (1/GPa) = 0.04809146
#
# Stress axis : x y z
#
# Youngs Moduli (GPa) = 81.20879 15.01802 50.20228
#
# Poissons Ratio (x) = 0.06906 0.42272
# Poissons Ratio (y) = 0.37344 0.61977
# Poissons Ratio (z) = 0.68380 0.18540
#
# Static dielectric constant tensor:
#      x y z
#    x 1.596030 0.000000 0.000000 
#    y 0.000000 1.585810 0.000000 
#    z 0.000000 0.000000 1.584470 
# 
# From -- ./inp_files/28741.got.cif
#   From: 2010.05.17/outbox.cif.g08.bks.cpg/sg47_15_cif.got.tgz:28741.got - 2010.06.03 20:15:42.
