data_PCOD9381611
_publ_section_title
;
Structure prediction by ZEFSAII (Michael W. Deem and Ramdas Pophale) SiO2 
 PCOD9381611
Probable space group: P M M M
;
_chemical_formula_sum "Si O2"
_cell_formula_units_Z 56
_cell_length_a 8.127780
_cell_length_b 31.502641
_cell_length_c 14.066101
_cell_angle_alpha 90.000000
_cell_angle_beta 90.000000
_cell_angle_gamma 90.000000
_cell_volume 3601.576429
_symmetry_space_group_name_H-M "P M M M"
_symmetry_group_IT_number 47
_symmetry_cell_setting 'orthorhombic'
loop_
_space_group_symop_operation_xyz
x,y,z
-x,-y,z
x,-y,-z
-x,y,-z
-x,-y,-z
x,y,-z
-x,y,z
x,-y,z
loop_
_atom_site_type_symbol
_atom_site_label
_atom_site_fract_x
_atom_site_fract_y
_atom_site_fract_z
Si Si1 0.813343 0.105362 0.114256
Si Si2 0.302612 0.237340 0.394436
Si Si3 0.800629 0.278443 0.106355
Si Si4 0.196279 0.322694 0.296744
Si Si5 0.803952 0.500000 0.609170
Si Si6 0.500000 0.951405 0.884603
Si Si7 0.303047 0.807720 0.203292
Si Si8 0.695881 0.590795 0.609090
O O1 0.666268 0.073578 0.143131
O O2 0.782863 0.150157 0.165405
O O3 0.000000 0.090140 0.133215
O O4 0.799555 0.111710 0.000000
O O5 0.238142 0.227917 0.500000
O O6 0.500000 0.233222 0.396454
O O7 0.263654 0.285725 0.365316
O O8 0.244696 0.207455 0.308024
O O9 0.747343 0.310259 0.190250
O O10 0.735411 0.232067 0.135053
O O11 0.000000 0.276659 0.107609
O O12 0.747936 0.290023 0.000000
O O13 0.246118 0.368992 0.331329
O O14 0.000000 0.319694 0.298882
O O15 0.738504 0.500000 0.500000
O O16 0.747122 0.544967 0.650146
O O17 0.000000 0.500000 0.606761
O O18 0.500000 0.000000 0.851036
O O19 0.500000 0.952326 0.000000
O O20 0.500000 0.814581 0.204978
O O21 0.761579 0.593999 0.500000
O O22 0.500000 0.591964 0.604301
#
# Coordination Sequence:
#
# PCOD9381611 Si02
#       8
#     8   8   8   8   4   4   8   8
#     4  10  19  30  46  68  95 126 157 191 232 275
#     4   9  18  31  44  60  87 122 155 187 225 267
#     4   9  18  31  44  60  85 116 150 188 227 264
#     4  10  19  29  43  63  85 113 149 184 219 262
#     4   9  17  29  45  65  86 107 136 175 213 250
#     4   9  18  32  48  68  95 125 159 195 230 275
#     4  10  18  28  44  65  90 120 155 193 228 268
#     4  10  19  30  44  62  87 116 142 170 210 261
#
# _framework density 15.548747000000001
#
# number of rings (size 3 to 8) (size 9 to 14) (size 15 to 20)
#    0.000    2.429    0.714    2.357    0.000    7.143 
#    0.000    1.429    0.000    0.000    0.000    0.500 
#    0.000    5.143    0.000    1.286    0.000    0.143 
#
# Total GULP energy -312121.029529 kJ/mol
# GULP energy per Si atom -5573.589813 kJ/mol
# Density = 1.551336 g / cm^3
# Si number density = 15.548747 Si / 1000 Ang^3
#
#
#
# Elastic Constant Matrix: (Units=GPa)
#
#
# Indices 1 2 3 4 5 6 
#
# 1 43.0154 29.3838 21.7118 0.0000 0.0000 0.0000
# 2 29.3838 114.2373 39.1267 0.0000 0.0000 0.0000
# 3 21.7118 39.1267 75.1437 0.0000 0.0000 0.0000
# 4 0.0000 0.0000 0.0000 18.6062 0.0000 0.0000
# 5 0.0000 0.0000 0.0000 0.0000 15.3949 0.0000
# 6 0.0000 0.0000 0.0000 0.0000 0.0000 12.1890
#
#
#
# Elastic Compliance Matrix: (Units=1/GPa)
#
#
# Indices 1 2 3 4 5 6 
#
# 1 0.030066 -0.005791 -0.005672 0.000000 0.000000 0.000000
# 2 -0.005791 0.011769 -0.004455 0.000000 0.000000 0.000000
# 3 -0.005672 -0.004455 0.017266 0.000000 0.000000 0.000000
# 4 0.000000 0.000000 0.000000 0.053745 0.000000 0.000000
# 5 0.000000 0.000000 0.000000 0.000000 0.064956 0.000000
# 6 0.000000 0.000000 0.000000 0.000000 0.000000 0.082041
#
#
# Mechanical properties :
#
#
# Convention : Reuss Voigt Hill
#
# Bulk Modulus (GPa) = 36.67559 45.87123 41.27341
# Shear Modulus (GPa) = 16.62407 18.71629 17.67018
#
# Velocity S-wave (km/s) = 3.27335 3.47323 3.37477
# Velocity P-wave (km/s) = 6.15833 6.75648 6.46433
#
# Compressibility (1/GPa) = 0.02726609
#
# Stress axis : x y z
#
# Youngs Moduli (GPa) = 33.25999 84.96887 57.91636
#
# Poissons Ratio (x) = 0.49204 0.32850
# Poissons Ratio (y) = 0.19260 0.25801
# Poissons Ratio (z) = 0.18865 0.37852
#
# Static dielectric constant tensor:
#      x y z
#    x 1.545580 0.000000 0.000000 
#    y 0.000000 1.499690 0.000000 
#    z 0.000000 0.000000 1.532640 
# 
# From -- ./inp_files/22114.got.cif
#   From: 2010.05.17/outbox.cif.g08.bks.cpg/sg47_12_cif.got.tgz:22114.got - 2010.06.03 20:15:42.
