data_PCOD9381651
_publ_section_title
;
Structure prediction by ZEFSAII (Michael W. Deem and Ramdas Pophale) SiO2 
 PCOD9381651
Probable space group: P M M M
;
_chemical_formula_sum "Si O2"
_cell_formula_units_Z 64
_cell_length_a 15.047571
_cell_length_b 29.090379
_cell_length_c 7.710287
_cell_angle_alpha 90.000000
_cell_angle_beta 90.000000
_cell_angle_gamma 90.000000
_cell_volume 3375.097511
_symmetry_space_group_name_H-M "P M M M"
_symmetry_group_IT_number 47
_symmetry_cell_setting 'orthorhombic'
loop_
_space_group_symop_operation_xyz
x,y,z
-x,-y,z
x,-y,-z
-x,y,-z
-x,-y,-z
x,y,-z
-x,y,z
x,-y,z
loop_
_atom_site_type_symbol
_atom_site_label
_atom_site_fract_x
_atom_site_fract_y
_atom_site_fract_z
Si Si1 0.899599 0.181531 0.206289
Si Si2 0.899018 0.447418 0.787908
Si Si3 0.599948 0.677436 0.792095
Si Si4 0.723725 0.134842 0.291488
Si Si5 0.398948 0.947389 0.288240
Si Si6 0.601361 0.782287 0.290648
Si Si7 0.773317 0.367636 0.797590
Si Si8 0.898266 0.714842 0.704024
O O1 0.826386 0.143641 0.250468
O O2 0.871267 0.231945 0.273606
O O3 0.000000 0.172412 0.271850
O O4 0.903668 0.185209 0.000000
O O5 0.879682 0.500000 0.737255
O O6 0.829197 0.409975 0.722859
O O7 0.000000 0.436017 0.734005
O O8 0.899057 0.446253 0.000000
O O9 0.500000 0.670359 0.723280
O O10 0.625283 0.730506 0.759976
O O11 0.677458 0.645012 0.720855
O O12 0.596446 0.671553 0.000000
O O13 0.716329 0.134418 0.500000
O O14 0.674600 0.088877 0.228220
O O15 0.668265 0.178960 0.226081
O O16 0.398047 0.947388 0.500000
O O17 0.500000 0.934109 0.237818
O O18 0.383213 0.000000 0.233019
O O19 0.601249 0.784123 0.500000
O O20 0.500000 0.790997 0.231837
O O21 0.833568 0.321896 0.788740
O O22 0.758962 0.378630 0.000000
O O23 0.898519 0.704750 0.500000
O O24 0.000000 0.710892 0.770148
#
# Coordination Sequence:
#
# PCOD9381651 Si02
#       8
#     8   8   8   8   8   8   8   8
#     4  10  21  35  48  63  88 123 159 191 224 267
#     4   8  14  25  42  65  89 110 139 183 228 268
#     4   9  18  30  41  57  85 118 149 182 219 256
#     4  10  18  28  47  72  94 118 151 191 230 266
#     4   8  14  26  46  73 102 127 151 183 226 276
#     4   9  17  28  42  63  91 119 146 177 215 262
#     4  10  18  28  46  67  87 117 154 187 220 264
#     4  10  20  32  46  67  95 121 145 180 226 271
#
# _framework density 18.962416000000001
#
# number of rings (size 3 to 8) (size 9 to 14) (size 15 to 20)
#    0.000    2.750    0.000    3.000    0.000    6.500 
#    0.000    0.000    0.000    2.625    0.000    7.875 
#    0.000    0.000    0.000    4.250    0.000    4.625 
#
# Total GULP energy -357029.253318 kJ/mol
# GULP energy per Si atom -5578.582083 kJ/mol
# Density = 1.891926 g / cm^3
# Si number density = 18.962416 Si / 1000 Ang^3
#
#
#
# Elastic Constant Matrix: (Units=GPa)
#
#
# Indices 1 2 3 4 5 6 
#
# 1 123.0722 97.0953 1.5820 0.0000 0.0000 0.0000
# 2 97.0953 109.4779 0.8367 0.0000 0.0000 0.0000
# 3 1.5820 0.8367 32.0150 0.0000 0.0000 0.0000
# 4 0.0000 0.0000 0.0000 10.4768 0.0000 0.0000
# 5 0.0000 0.0000 0.0000 0.0000 9.7938 0.0000
# 6 0.0000 0.0000 0.0000 0.0000 0.0000 33.4744
#
#
#
# Elastic Compliance Matrix: (Units=1/GPa)
#
#
# Indices 1 2 3 4 5 6 
#
# 1 0.027073 -0.024006 -0.000710 0.000000 0.000000 0.000000
# 2 -0.024006 0.030422 0.000391 0.000000 0.000000 0.000000
# 3 -0.000710 0.000391 0.031260 0.000000 0.000000 0.000000
# 4 0.000000 0.000000 0.000000 0.095449 0.000000 0.000000
# 5 0.000000 0.000000 0.000000 0.000000 0.102106 0.000000
# 6 0.000000 0.000000 0.000000 0.000000 0.000000 0.029874
#
#
# Mechanical properties :
#
#
# Convention : Reuss Voigt Hill
#
# Bulk Modulus (GPa) = 24.93434 51.51036 38.22235
# Shear Modulus (GPa) = 13.22045 21.75239 17.48642
#
# Velocity S-wave (km/s) = 2.64330 3.39061 3.04001
# Velocity P-wave (km/s) = 4.74278 6.52317 5.70288
#
# Compressibility (1/GPa) = 0.04010532
#
# Stress axis : x y z
#
# Youngs Moduli (GPa) = 36.93690 32.87125 31.98956
#
# Poissons Ratio (x) = 0.78910 0.02273
# Poissons Ratio (y) = 0.88669 -0.01251
# Poissons Ratio (z) = 0.02624 -0.01286
#
# Static dielectric constant tensor:
#      x y z
#    x 1.689850 0.000000 0.000000 
#    y 0.000000 1.637570 0.000000 
#    z 0.000000 0.000000 1.727260 
# 
# From -- ./inp_files/8200.got.cif
#   From: 2010.05.17/outbox.cif.g08.bks.cpg/sg47_5_cif.got.tgz:8200.got - 2010.06.03 20:15:42.
