data_PCOD9381166
_publ_section_title
;
Structure prediction by ZEFSAII (Michael W. Deem and Ramdas Pophale) SiO2 
 PCOD9381166
Probable space group: P M M M
;
_chemical_formula_sum "Si O2"
_cell_formula_units_Z 48
_cell_length_a 16.079659
_cell_length_b 9.277957
_cell_length_c 15.154482
_cell_angle_alpha 90.000000
_cell_angle_beta 90.000000
_cell_angle_gamma 90.000000
_cell_volume 2260.842383
_symmetry_space_group_name_H-M "P M M M"
_symmetry_group_IT_number 47
_symmetry_cell_setting 'orthorhombic'
loop_
_space_group_symop_operation_xyz
x,y,z
-x,-y,z
x,-y,-z
-x,y,-z
-x,-y,-z
x,y,-z
-x,y,z
x,-y,z
loop_
_atom_site_type_symbol
_atom_site_label
_atom_site_fract_x
_atom_site_fract_y
_atom_site_fract_z
Si Si1 0.668030 0.167676 0.143304
Si Si2 0.163870 0.660206 0.646071
Si Si3 0.500000 0.673182 0.846816
Si Si4 0.831817 0.663732 0.143286
Si Si5 0.000000 0.836895 0.895196
Si Si6 0.319901 0.836766 0.640660
Si Si7 0.500000 0.172301 0.340834
Si Si8 0.000000 0.161365 0.394892
O O1 0.584763 0.254326 0.117326
O O2 0.751470 0.247354 0.111196
O O3 0.673074 0.167857 0.251441
O O4 0.664454 0.000000 0.116640
O O5 0.150223 0.500000 0.611263
O O6 0.176873 0.652001 0.751185
O O7 0.247604 0.732007 0.610224
O O8 0.082900 0.755743 0.631938
O O9 0.500000 0.500000 0.855685
O O10 0.500000 0.723093 0.743876
O O11 0.835268 0.500000 0.108198
O O12 0.917058 0.749544 0.128609
O O13 0.000000 0.000000 0.858150
O O14 0.000000 0.848538 0.000000
O O15 0.413362 0.804844 0.609757
O O16 0.297407 0.000000 0.616707
O O17 0.500000 0.000000 0.313168
O O18 0.000000 0.153864 0.500000
O O19 0.000000 0.000000 0.358151
#
# Coordination Sequence:
#
# PCOD9381166 Si02
#       8
#     8   8   4   8   4   8   4   4
#     4   9  16  27  43  65  96 133 168 202 245 295
#     4  10  20  33  51  76 103 130 162 202 249 300
#     4  10  16  22  36  62  97 132 165 204 247 290
#     4  10  20  34  53  78 104 131 167 209 253 299
#     4  11  24  39  54  74 100 133 172 209 250 302
#     4   8  14  25  42  65  95 130 165 199 236 283
#     4   8  14  24  38  60  93 132 167 198 239 287
#     4  11  24  39  54  72  94 125 166 207 248 298
#
# _framework density 21.231023
#
# number of rings (size 3 to 8) (size 9 to 14) (size 15 to 20)
#    0.000    2.500    0.000    4.250    0.000    9.333 
#    0.000    0.000    0.000    0.000    0.000    1.167 
#    0.000    9.333    0.000    0.000    0.000    0.000 
#
# Total GULP energy -267972.097893 kJ/mol
# GULP energy per Si atom -5582.752039 kJ/mol
# Density = 2.118270 g / cm^3
# Si number density = 21.231023 Si / 1000 Ang^3
#
#
#
# Elastic Constant Matrix: (Units=GPa)
#
#
# Indices 1 2 3 4 5 6 
#
# 1 232.5014 148.0324 0.5573 0.0000 0.0000 0.0000
# 2 148.0324 223.7584 6.5224 0.0000 0.0000 0.0000
# 3 0.5573 6.5224 45.1871 0.0000 0.0000 0.0000
# 4 0.0000 0.0000 0.0000 -3.8894 0.0000 0.0000
# 5 0.0000 0.0000 0.0000 0.0000 -48.0082 0.0000
# 6 0.0000 0.0000 0.0000 0.0000 0.0000 -71.5120
#
#
#
# Elastic Compliance Matrix: (Units=1/GPa)
#
#
# Indices 1 2 3 4 5 6 
#
# 1 0.007449 -0.004946 0.000622 0.000000 0.000000 0.000000
# 2 -0.004946 0.007772 -0.001061 0.000000 0.000000 0.000000
# 3 0.000622 -0.001061 0.022276 0.000000 0.000000 0.000000
# 4 0.000000 0.000000 0.000000 -0.257112 0.000000 0.000000
# 5 0.000000 0.000000 0.000000 0.000000 -0.020830 0.000000
# 6 0.000000 0.000000 0.000000 0.000000 0.000000 -0.013984
#
#
# Mechanical properties :
#
#
# Convention : Reuss Voigt Hill
#
# Bulk Modulus (GPa) = 37.41542 90.18567 63.80054
# Shear Modulus (GPa) = -21.29923 -1.59293 -11.44608
#
# Velocity S-wave (km/s) = -3.17079 -0.86713 -2.32442
# Velocity P-wave (km/s) = 2.06302 6.44732 4.78665
#
# Compressibility (1/GPa) = 0.02672695
#
# Stress axis : x y z
#
# Youngs Moduli (GPa) = 134.25349 128.66518 44.89200
#
# Poissons Ratio (x) = 0.63637 -0.02793
# Poissons Ratio (y) = 0.66401 0.04762
# Poissons Ratio (z) = -0.08351 0.13649
#
# Static dielectric constant tensor:
#      x y z
#    x 1.756270 0.000000 0.000000 
#    y 0.000000 1.752830 0.000000 
#    z 0.000000 0.000000 1.796190 
# 
# From -- ./inp_files/28105.got.cif
#   From: 2010.05.17/outbox.cif.g08.bks.cpg/sg47_15_cif.got.tgz:28105.got - 2010.06.03 20:15:42.
