data_PCOD9381801
_publ_section_title
;
Structure prediction by ZEFSAII (Michael W. Deem and Ramdas Pophale) SiO2 
 PCOD9381801
Probable space group: P M M M
;
_chemical_formula_sum "Si O2"
_cell_formula_units_Z 56
_cell_length_a 7.524880
_cell_length_b 20.847445
_cell_length_c 16.247953
_cell_angle_alpha 90.000000
_cell_angle_beta 90.000000
_cell_angle_gamma 90.000000
_cell_volume 2548.889859
_symmetry_space_group_name_H-M "P M M M"
_symmetry_group_IT_number 47
_symmetry_cell_setting 'orthorhombic'
loop_
_space_group_symop_operation_xyz
x,y,z
-x,-y,z
x,-y,-z
-x,y,-z
-x,-y,-z
x,y,-z
-x,y,z
x,-y,z
loop_
_atom_site_type_symbol
_atom_site_label
_atom_site_fract_x
_atom_site_fract_y
_atom_site_fract_z
Si Si1 0.296185 0.111109 0.410444
Si Si2 0.283148 0.927571 0.768056
Si Si3 0.283179 0.828724 0.091693
Si Si4 0.214329 0.430877 0.229950
Si Si5 0.708616 0.288918 0.192706
Si Si6 0.797174 0.746950 0.624933
Si Si7 0.782736 0.604933 0.411845
O O1 0.216710 0.095053 0.500000
O O2 0.500000 0.088019 0.412249
O O3 0.216979 0.086273 0.324644
O O4 0.297761 0.188279 0.400668
O O5 0.500000 0.922527 0.764976
O O6 0.223434 0.876684 0.836241
O O7 0.238059 0.000000 0.791731
O O8 0.500000 0.831862 0.090158
O O9 0.233294 0.756529 0.118459
O O10 0.221330 0.844683 0.000000
O O11 0.274263 0.500000 0.196832
O O12 0.265397 0.365055 0.185239
O O13 0.275021 0.425020 0.325484
O O14 0.000000 0.431043 0.231205
O O15 0.500000 0.277603 0.205111
O O16 0.795720 0.263878 0.276842
O O17 0.727364 0.679499 0.591269
O O18 0.000000 0.754003 0.597333
O O19 0.727808 0.577216 0.500000
O O20 0.000000 0.603431 0.410049
#
# Coordination Sequence:
#
# PCOD9381801 Si02
#       7
#     8   8   8   8   8   8   8
#     4  10  19  30  46  71 103 137 174 216 260 302
#     4   9  17  30  48  73 107 141 171 207 257 314
#     4   9  17  30  51  79 106 130 163 212 266 316
#     4   9  18  31  47  70 100 135 174 212 253 306
#     4  10  18  31  52  75 102 131 166 212 264 314
#     4  10  18  29  47  70  98 133 174 214 258 306
#     4   8  14  24  39  62  90 119 157 204 246 284
#
# _framework density 21.97035
#
# number of rings (size 3 to 8) (size 9 to 14) (size 15 to 20)
#    0.000    2.714    1.429    2.143    0.000    2.000 
#    0.000    4.286    0.000    6.429    0.000    8.000 
#    0.000    1.143    0.000    0.000    0.000    0.000 
#
# Total GULP energy -312455.139455 kJ/mol
# GULP energy per Si atom -5579.556062 kJ/mol
# Density = 2.192034 g / cm^3
# Si number density = 21.970350 Si / 1000 Ang^3
#
#
#
# Elastic Constant Matrix: (Units=GPa)
#
#
# Indices 1 2 3 4 5 6 
#
# 1 59.4769 1.3184 4.5845 0.0000 0.0000 0.0000
# 2 1.3184 132.0940 65.9363 0.0000 0.0000 0.0000
# 3 4.5845 65.9363 138.8023 0.0000 0.0000 0.0000
# 4 0.0000 0.0000 0.0000 -17.0084 0.0000 0.0000
# 5 0.0000 0.0000 0.0000 0.0000 2.7124 0.0000
# 6 0.0000 0.0000 0.0000 0.0000 0.0000 17.9156
#
#
#
# Elastic Compliance Matrix: (Units=1/GPa)
#
#
# Indices 1 2 3 4 5 6 
#
# 1 0.016858 0.000144 -0.000625 0.000000 0.000000 0.000000
# 2 0.000144 0.009925 -0.004719 0.000000 0.000000 0.000000
# 3 -0.000625 -0.004719 0.009467 0.000000 0.000000 0.000000
# 4 0.000000 0.000000 0.000000 -0.058794 0.000000 0.000000
# 5 0.000000 0.000000 0.000000 0.000000 0.368671 0.000000
# 6 0.000000 0.000000 0.000000 0.000000 0.000000 0.055817
#
#
# Mechanical properties :
#
#
# Convention : Reuss Voigt Hill
#
# Bulk Modulus (GPa) = 38.68690 52.67241 45.67966
# Shear Modulus (GPa) = 11.87759 17.95952 14.91855
#
# Velocity S-wave (km/s) = 2.32764 2.86220 2.60865
# Velocity P-wave (km/s) = 4.98706 5.91179 5.46901
#
# Compressibility (1/GPa) = 0.02584854
#
# Stress axis : x y z
#
# Youngs Moduli (GPa) = 59.31818 100.75936 105.63017
#
# Poissons Ratio (x) = -0.01449 0.06603
# Poissons Ratio (y) = -0.00853 0.49850
# Poissons Ratio (z) = 0.03708 0.47552
#
# Static dielectric constant tensor:
#      x y z
#    x 1.851040 0.000000 0.000000 
#    y 0.000000 1.800870 0.000000 
#    z 0.000000 0.000000 1.795540 
# 
# From -- ./inp_files/11276.got.cif
#   From: 2010.05.17/outbox.cif.g08.bks.cpg/sg47_6_cif.got.tgz:11276.got - 2010.06.03 20:15:42.
