data_PCOD9381966
_publ_section_title
;
Structure prediction by ZEFSAII (Michael W. Deem and Ramdas Pophale) SiO2 
 PCOD9381966
Probable space group: P M M M
;
_chemical_formula_sum "Si O2"
_cell_formula_units_Z 40
_cell_length_a 25.396523
_cell_length_b 9.122636
_cell_length_c 10.507374
_cell_angle_alpha 90.000000
_cell_angle_beta 90.000000
_cell_angle_gamma 90.000000
_cell_volume 2434.382400
_symmetry_space_group_name_H-M "P M M M"
_symmetry_group_IT_number 47
_symmetry_cell_setting 'orthorhombic'
loop_
_space_group_symop_operation_xyz
x,y,z
-x,-y,z
x,-y,-z
-x,y,-z
-x,-y,-z
x,y,-z
-x,y,z
x,-y,z
loop_
_atom_site_type_symbol
_atom_site_label
_atom_site_fract_x
_atom_site_fract_y
_atom_site_fract_z
Si Si1 0.374597 0.177438 0.750999
Si Si2 0.836481 0.832145 0.845170
Si Si3 0.941593 0.671290 0.154733
Si Si4 0.560826 0.821654 0.500000
Si Si5 0.440158 0.821956 0.000000
Si Si6 0.271618 0.674988 0.150996
O O1 0.406658 0.221080 0.625265
O O2 0.409010 0.221017 0.873830
O O3 0.317937 0.250539 0.768933
O O4 0.368963 0.000000 0.750963
O O5 0.891571 0.763214 0.800285
O O6 0.785354 0.737717 0.810770
O O7 0.830637 0.000000 0.804095
O O8 0.838303 0.831306 0.000000
O O9 0.935524 0.500000 0.188310
O O10 0.000000 0.721180 0.195961
O O11 0.941468 0.677565 0.000000
O O12 0.500000 0.770879 0.500000
O O13 0.558701 0.000000 0.500000
O O14 0.500000 0.768505 0.000000
O O15 0.441945 0.000000 0.000000
O O16 0.272675 0.500000 0.163105
O O17 0.279538 0.710994 0.000000
#
# Coordination Sequence:
#
# PCOD9381966 Si02
#       6
#     8   8   8   4   4   8
#     4  10  18  30  49  71  94 119 150 188 227 272
#     4   9  16  24  36  55  79 108 146 191 235 276
#     4   8  13  21  32  47  72 109 150 187 225 272
#     4   9  18  32  51  75  99 121 148 185 230 279
#     4   9  16  26  45  71  93 115 146 183 220 261
#     4  10  19  30  44  62  87 117 151 191 235 280
#
# _framework density 16.431270999999999
#
# number of rings (size 3 to 8) (size 9 to 14) (size 15 to 20)
#    0.000    2.800    1.000    2.400    0.000    6.000 
#    0.000    2.500    0.000    3.600    0.000    0.000 
#    0.000    0.000    0.000    0.900    0.000   17.800 
#
# Total GULP energy -222811.844766 kJ/mol
# GULP energy per Si atom -5570.296119 kJ/mol
# Density = 1.639387 g / cm^3
# Si number density = 16.431271 Si / 1000 Ang^3
#
#
#
# Elastic Constant Matrix: (Units=GPa)
#
#
# Indices 1 2 3 4 5 6 
#
# 1 178.4223 57.9096 51.8338 0.0000 0.0000 0.0000
# 2 57.9096 46.6848 22.8263 0.0000 0.0000 0.0000
# 3 51.8338 22.8263 68.9324 0.0000 0.0000 0.0000
# 4 0.0000 0.0000 0.0000 5.9187 0.0000 0.0000
# 5 0.0000 0.0000 0.0000 0.0000 11.5883 0.0000
# 6 0.0000 0.0000 0.0000 0.0000 0.0000 -83.5569
#
#
#
# Elastic Compliance Matrix: (Units=1/GPa)
#
#
# Indices 1 2 3 4 5 6 
#
# 1 0.010308 -0.010734 -0.004196 0.000000 0.000000 0.000000
# 2 -0.010734 0.036737 -0.004093 0.000000 0.000000 0.000000
# 3 -0.004196 -0.004093 0.019018 0.000000 0.000000 0.000000
# 4 0.000000 0.000000 0.000000 0.168956 0.000000 0.000000
# 5 0.000000 0.000000 0.000000 0.000000 0.086294 0.000000
# 6 0.000000 0.000000 0.000000 0.000000 0.000000 -0.011968
#
#
# Mechanical properties :
#
#
# Convention : Reuss Voigt Hill
#
# Bulk Modulus (GPa) = 35.69582 62.13100 48.91341
# Shear Modulus (GPa) = 14.01615 -2.44533 5.78541
#
# Velocity S-wave (km/s) = 2.92381 -1.22125 1.87846
# Velocity P-wave (km/s) = 5.75932 5.99217 5.87690
#
# Compressibility (1/GPa) = 0.02801448
#
# Stress axis : x y z
#
# Youngs Moduli (GPa) = 97.01407 27.22046 52.58197
#
# Poissons Ratio (x) = 0.29220 0.22065
# Poissons Ratio (y) = 1.04139 0.21524
# Poissons Ratio (z) = 0.40711 0.11142
#
# Static dielectric constant tensor:
#      x y z
#    x 1.559190 0.000000 0.000000 
#    y 0.000000 1.548540 0.000000 
#    z 0.000000 0.000000 1.537290 
# 
# From -- ./inp_files/12982.got.cif
#   From: 2010.05.17/outbox.cif.g08.bks.cpg/sg47_7_cif.got.tgz:12982.got - 2010.06.03 20:15:42.
