data_PCOD9381739
_publ_section_title
;
Structure prediction by ZEFSAII (Michael W. Deem and Ramdas Pophale) SiO2 
 PCOD9381739
Probable space group: P M M M
;
_chemical_formula_sum "Si O2"
_cell_formula_units_Z 64
_cell_length_a 21.098352
_cell_length_b 7.474977
_cell_length_c 20.262173
_cell_angle_alpha 90.000000
_cell_angle_beta 90.000000
_cell_angle_gamma 90.000000
_cell_volume 3195.541143
_symmetry_space_group_name_H-M "P M M M"
_symmetry_group_IT_number 47
_symmetry_cell_setting 'orthorhombic'
loop_
_space_group_symop_operation_xyz
x,y,z
-x,-y,z
x,-y,-z
-x,y,-z
-x,-y,-z
x,y,-z
-x,y,z
x,-y,z
loop_
_atom_site_type_symbol
_atom_site_label
_atom_site_fract_x
_atom_site_fract_y
_atom_site_fract_z
Si Si1 0.737827 0.784408 0.381599
Si Si2 0.123131 0.216056 0.572642
Si Si3 0.430553 0.280705 0.282568
Si Si4 0.931421 0.710496 0.288201
Si Si5 0.929491 0.784387 0.924037
Si Si6 0.298968 0.705583 0.767040
Si Si7 0.399494 0.290462 0.571043
Si Si8 0.170516 0.288476 0.812394
O O1 0.804514 0.727500 0.412285
O O2 0.728723 0.711289 0.307678
O O3 0.676566 0.725320 0.422480
O O4 0.737269 0.000000 0.378261
O O5 0.103337 0.277724 0.500000
O O6 0.081249 0.273315 0.634282
O O7 0.122561 0.000000 0.572236
O O8 0.500000 0.231787 0.257327
O O9 0.426839 0.500000 0.284414
O O10 0.369454 0.215996 0.241778
O O11 0.424256 0.218964 0.358956
O O12 0.933438 0.500000 0.272115
O O13 0.873086 0.787757 0.246643
O O14 0.000000 0.788283 0.270983
O O15 0.872064 0.729666 0.877319
O O16 0.000000 0.723535 0.901455
O O17 0.930676 0.000000 0.923849
O O18 0.921379 0.726401 0.000000
O O19 0.308866 0.500000 0.787901
O O20 0.242037 0.785746 0.810661
O O21 0.419255 0.214016 0.500000
O O22 0.416746 0.500000 0.570254
O O23 0.178977 0.500000 0.799859
#
# Coordination Sequence:
#
# PCOD9381739 Si02
#       8
#     8   8   8   8   8   8   8   8
#     4  10  18  29  45  63  84 109 143 190 240 288
#     4  10  21  34  46  61  82 110 147 194 246 293
#     4   8  14  25  42  64  89 116 148 189 235 283
#     4  10  21  35  49  66  88 115 149 190 237 285
#     4   9  19  35  53  76 108 141 168 193 224 268
#     4   9  17  30  48  69  93 119 152 192 233 276
#     4   9  17  27  40  59  82 110 145 185 234 291
#     4  10  19  32  52  75 100 127 159 198 234 274
#
# _framework density 20.027906999999999
#
# number of rings (size 3 to 8) (size 9 to 14) (size 15 to 20)
#    0.000    2.625    1.250    2.250    0.000    4.250 
#    0.000    3.125    0.000    6.000    0.000    3.500 
#    0.000    0.500    0.000    6.250    0.000    1.000 
#
# Total GULP energy -357021.439485 kJ/mol
# GULP energy per Si atom -5578.459992 kJ/mol
# Density = 1.998232 g / cm^3
# Si number density = 20.027907 Si / 1000 Ang^3
#
#
#
# Elastic Constant Matrix: (Units=GPa)
#
#
# Indices 1 2 3 4 5 6 
#
# 1 175.0823 4.8255 53.1169 0.0000 0.0000 0.0000
# 2 4.8255 61.3935 -7.2123 0.0000 0.0000 0.0000
# 3 53.1169 -7.2123 63.6257 0.0000 0.0000 0.0000
# 4 0.0000 0.0000 0.0000 16.4384 0.0000 0.0000
# 5 0.0000 0.0000 0.0000 0.0000 15.2370 0.0000
# 6 0.0000 0.0000 0.0000 0.0000 0.0000 57.0166
#
#
#
# Elastic Compliance Matrix: (Units=1/GPa)
#
#
# Indices 1 2 3 4 5 6 
#
# 1 0.007764 -0.001390 -0.006639 0.000000 0.000000 0.000000
# 2 -0.001390 0.016757 0.003060 0.000000 0.000000 0.000000
# 3 -0.006639 0.003060 0.021607 0.000000 0.000000 0.000000
# 4 0.000000 0.000000 0.000000 0.060833 0.000000 0.000000
# 5 0.000000 0.000000 0.000000 0.000000 0.065630 0.000000
# 6 0.000000 0.000000 0.000000 0.000000 0.000000 0.017539
#
#
# Mechanical properties :
#
#
# Convention : Reuss Voigt Hill
#
# Bulk Modulus (GPa) = 27.63279 44.61798 36.12539
# Shear Modulus (GPa) = 23.57030 34.36318 28.96674
#
# Velocity S-wave (km/s) = 3.43428 4.14667 3.80718
# Velocity P-wave (km/s) = 5.43625 6.72702 6.11578
#
# Compressibility (1/GPa) = 0.03618889
#
# Stress axis : x y z
#
# Youngs Moduli (GPa) = 128.79636 59.67609 46.28216
#
# Poissons Ratio (x) = 0.08296 0.30729
# Poissons Ratio (y) = 0.17906 -0.14163
# Poissons Ratio (z) = 0.85513 -0.18262
#
# Static dielectric constant tensor:
#      x y z
#    x 1.762310 0.000000 0.000000 
#    y 0.000000 1.774550 0.000000 
#    z 0.000000 0.000000 1.680360 
# 
# From -- ./inp_files/11894.got.cif
#   From: 2010.05.17/outbox.cif.g08.bks.cpg/sg47_6_cif.got.tgz:11894.got - 2010.06.03 20:15:42.
