data_PCOD9381276
_publ_section_title
;
Structure prediction by ZEFSAII (Michael W. Deem and Ramdas Pophale) SiO2 
 PCOD9381276
Probable space group: P M M M
;
_chemical_formula_sum "Si O2"
_cell_formula_units_Z 32
_cell_length_a 10.470702
_cell_length_b 11.928994
_cell_length_c 17.044220
_cell_angle_alpha 90.000000
_cell_angle_beta 90.000000
_cell_angle_gamma 90.000000
_cell_volume 2128.907299
_symmetry_space_group_name_H-M "P M M M"
_symmetry_group_IT_number 47
_symmetry_cell_setting 'orthorhombic'
loop_
_space_group_symop_operation_xyz
x,y,z
-x,-y,z
x,-y,-z
-x,y,-z
-x,-y,-z
x,y,-z
-x,y,z
x,-y,z
loop_
_atom_site_type_symbol
_atom_site_label
_atom_site_fract_x
_atom_site_fract_y
_atom_site_fract_z
Si Si1 0.500000 0.364279 0.909326
Si Si2 0.000000 0.364674 0.088103
Si Si3 0.751919 0.364207 0.189256
Si Si4 0.845316 0.000000 0.408657
Si Si5 0.154539 0.626206 0.500000
Si Si6 0.155301 0.241013 0.342504
O O1 0.500000 0.500000 0.914035
O O2 0.374598 0.334133 0.859523
O O3 0.500000 0.323794 0.000000
O O4 0.126574 0.335365 0.135339
O O5 0.000000 0.500000 0.083115
O O6 0.000000 0.319588 0.000000
O O7 0.751968 0.500000 0.203276
O O8 0.773201 0.297315 0.269640
O O9 0.810764 0.887518 0.361913
O O10 0.800576 0.000000 0.500000
O O11 0.000000 0.000000 0.413578
O O12 0.203969 0.500000 0.500000
O O13 0.188826 0.690958 0.578788
O O14 0.000000 0.622060 0.500000
O O15 0.000000 0.248824 0.330569
#
# Coordination Sequence:
#
# PCOD9381276 Si02
#       6
#     4   4   8   4   4   8
#     4   9  18  32  48  68  97 132 162 188 231 293
#     4   9  16  26  42  66  95 122 148 188 241 285
#     4  10  18  28  45  70  99 125 156 196 235 284
#     4   9  16  28  44  65  94 129 163 201 233 275
#     4   9  16  23  37  62  96 128 152 184 233 284
#     4  10  17  27  43  67  96 127 160 196 237 275
#
# _framework density 15.031184
#
# number of rings (size 3 to 8) (size 9 to 14) (size 15 to 20)
#    0.000    2.500    2.500    1.500    0.000    4.000 
#    0.000    0.000    0.000    1.500    0.000    9.625 
#    0.000    0.000    0.000    0.000    0.000    0.000 
#
# Total GULP energy -178177.467565 kJ/mol
# GULP energy per Si atom -5568.045861 kJ/mol
# Density = 1.499697 g / cm^3
# Si number density = 15.031184 Si / 1000 Ang^3
#
#
#
# Elastic Constant Matrix: (Units=GPa)
#
#
# Indices 1 2 3 4 5 6 
#
# 1 90.3355 31.3343 68.5961 0.0000 0.0000 0.0000
# 2 31.3343 95.0528 70.6902 0.0000 0.0000 0.0000
# 3 68.5961 70.6902 177.5360 0.0000 0.0000 0.0000
# 4 0.0000 0.0000 0.0000 -0.5415 0.0000 0.0000
# 5 0.0000 0.0000 0.0000 0.0000 12.6528 0.0000
# 6 0.0000 0.0000 0.0000 0.0000 0.0000 8.0098
#
#
#
# Elastic Compliance Matrix: (Units=1/GPa)
#
#
# Indices 1 2 3 4 5 6 
#
# 1 0.015726 -0.000945 -0.005700 0.000000 0.000000 0.000000
# 2 -0.000945 0.015003 -0.005609 0.000000 0.000000 0.000000
# 3 -0.005700 -0.005609 0.010068 0.000000 0.000000 0.000000
# 4 0.000000 0.000000 0.000000 -1.846834 0.000000 0.000000
# 5 0.000000 0.000000 0.000000 0.000000 0.079034 0.000000
# 6 0.000000 0.000000 0.000000 0.000000 0.000000 0.124847
#
#
# Mechanical properties :
#
#
# Convention : Reuss Voigt Hill
#
# Bulk Modulus (GPa) = 61.38762 78.24061 69.81412
# Shear Modulus (GPa) = -3.18022 16.84447 6.83212
#
# Velocity S-wave (km/s) = -1.45614 3.35122 2.13428
# Velocity P-wave (km/s) = 6.17266 8.19387 7.25400
#
# Compressibility (1/GPa) = 0.01628993
#
# Stress axis : x y z
#
# Youngs Moduli (GPa) = 63.58976 66.65253 99.32290
#
# Poissons Ratio (x) = 0.06300 0.56612
# Poissons Ratio (y) = 0.06010 0.55707
# Poissons Ratio (z) = 0.36245 0.37383
#
# Static dielectric constant tensor:
#      x y z
#    x 1.493200 0.000000 0.000000 
#    y 0.000000 1.494480 0.000000 
#    z 0.000000 0.000000 1.496760 
# 
# From -- ./inp_files/26118.got.cif
#   From: 2010.05.17/outbox.cif.g08.bks.cpg/sg47_14_cif.got.tgz:26118.got - 2010.06.03 20:15:42.
