data_PCOD9381649
_publ_section_title
;
Structure prediction by ZEFSAII (Michael W. Deem and Ramdas Pophale) SiO2 
 PCOD9381649
Probable space group: P M M M
;
_chemical_formula_sum "Si O2"
_cell_formula_units_Z 64
_cell_length_a 15.042882
_cell_length_b 29.061711
_cell_length_c 8.006879
_cell_angle_alpha 90.000000
_cell_angle_beta 90.000000
_cell_angle_gamma 90.000000
_cell_volume 3500.382420
_symmetry_space_group_name_H-M "P M M M"
_symmetry_group_IT_number 47
_symmetry_cell_setting 'orthorhombic'
loop_
_space_group_symop_operation_xyz
x,y,z
-x,-y,z
x,-y,-z
-x,y,-z
-x,-y,-z
x,y,-z
-x,y,z
x,-y,z
loop_
_atom_site_type_symbol
_atom_site_label
_atom_site_fract_x
_atom_site_fract_y
_atom_site_fract_z
Si Si1 0.599353 0.051991 0.299962
Si Si2 0.602758 0.214356 0.300775
Si Si3 0.227898 0.367681 0.196979
Si Si4 0.100767 0.447099 0.204180
Si Si5 0.398812 0.318597 0.202504
Si Si6 0.102716 0.285668 0.699357
Si Si7 0.272053 0.867561 0.194455
Si Si8 0.898867 0.181272 0.797532
O O1 0.594044 0.049675 0.500000
O O2 0.500000 0.065815 0.239226
O O3 0.674148 0.089049 0.261634
O O4 0.617584 0.000000 0.238381
O O5 0.607528 0.208065 0.500000
O O6 0.500000 0.207272 0.248193
O O7 0.625820 0.266949 0.258012
O O8 0.666752 0.177428 0.218429
O O9 0.173463 0.410982 0.267091
O O10 0.324728 0.354192 0.265142
O O11 0.166483 0.322762 0.217975
O O12 0.239611 0.376684 0.000000
O O13 0.117500 0.500000 0.252887
O O14 0.000000 0.434476 0.255902
O O15 0.101054 0.445903 0.000000
O O16 0.500000 0.327704 0.258294
O O17 0.398263 0.318948 0.000000
O O18 0.108155 0.291063 0.500000
O O19 0.125581 0.233146 0.744210
O O20 0.000000 0.293069 0.751847
O O21 0.175544 0.854048 0.266219
O O22 0.259269 0.876286 0.000000
O O23 0.000000 0.172245 0.740867
O O24 0.898653 0.180498 0.000000
#
# Coordination Sequence:
#
# PCOD9381649 Si02
#       8
#     8   8   8   8   8   8   8   8
#     4   9  19  36  55  74  98 127 155 184 225 278
#     4  10  20  32  46  66  94 127 158 186 222 272
#     4  10  18  28  46  67  86 116 155 188 223 271
#     4   8  14  25  42  65  89 110 139 183 228 270
#     4   9  18  31  44  61  89 121 152 189 229 265
#     4  10  20  31  44  67  97 123 149 186 230 272
#     4  11  21  31  49  75  97 121 156 195 233 270
#     4   9  19  35  50  65  92 129 163 192 224 267
#
# _framework density 18.283715999999998
#
# number of rings (size 3 to 8) (size 9 to 14) (size 15 to 20)
#    0.000    2.500    0.000    3.375    0.000    8.500 
#    0.000    0.625    0.000    1.125    0.000    7.000 
#    0.000    0.000    0.000    4.250    0.000    4.625 
#
# Total GULP energy -357034.146105 kJ/mol
# GULP energy per Si atom -5578.658533 kJ/mol
# Density = 1.824210 g / cm^3
# Si number density = 18.283716 Si / 1000 Ang^3
#
#
#
# Elastic Constant Matrix: (Units=GPa)
#
#
# Indices 1 2 3 4 5 6 
#
# 1 95.2630 77.3446 -4.2404 0.0000 0.0000 0.0000
# 2 77.3446 95.5313 -4.9025 0.0000 0.0000 0.0000
# 3 -4.2404 -4.9025 8.0725 0.0000 0.0000 0.0000
# 4 0.0000 0.0000 0.0000 20.7522 0.0000 0.0000
# 5 0.0000 0.0000 0.0000 0.0000 7.1110 0.0000
# 6 0.0000 0.0000 0.0000 0.0000 0.0000 33.0419
#
#
#
# Elastic Compliance Matrix: (Units=1/GPa)
#
#
# Indices 1 2 3 4 5 6 
#
# 1 0.030643 -0.024755 0.001063 0.000000 0.000000 0.000000
# 2 -0.024755 0.030803 0.005703 0.000000 0.000000 0.000000
# 3 0.001063 0.005703 0.127899 0.000000 0.000000 0.000000
# 4 0.000000 0.000000 0.000000 0.048188 0.000000 0.000000
# 5 0.000000 0.000000 0.000000 0.000000 0.140626 0.000000
# 6 0.000000 0.000000 0.000000 0.000000 0.000000 0.030265
#
#
# Mechanical properties :
#
#
# Convention : Reuss Voigt Hill
#
# Bulk Modulus (GPa) = 6.52032 37.25224 21.88628
# Shear Modulus (GPa) = 10.09031 20.89203 15.49117
#
# Velocity S-wave (km/s) = 2.35175 3.38399 2.91394
# Velocity P-wave (km/s) = 3.30881 5.97388 4.82885
#
# Compressibility (1/GPa) = 0.15336674
#
# Stress axis : x y z
#
# Youngs Moduli (GPa) = 32.63341 32.46447 7.81867
#
# Poissons Ratio (x) = 0.80366 -0.00831
# Poissons Ratio (y) = 0.80785 -0.04459
# Poissons Ratio (z) = -0.03467 -0.18516
#
# Static dielectric constant tensor:
#      x y z
#    x 1.665710 0.000000 0.000000 
#    y 0.000000 1.608590 0.000000 
#    z 0.000000 0.000000 1.648410 
# 
# From -- ./inp_files/7887.got.cif
#   From: 2010.05.17/outbox.cif.g08.bks.cpg/sg47_4_cif.got.tgz:7887.got - 2010.06.03 20:15:42.
