data_PCOD9381719
_publ_section_title
;
Structure prediction by ZEFSAII (Michael W. Deem and Ramdas Pophale) SiO2 
 PCOD9381719
Probable space group: P M M M
;
_chemical_formula_sum "Si O2"
_cell_formula_units_Z 64
_cell_length_a 7.484214
_cell_length_b 20.504652
_cell_length_c 21.042015
_cell_angle_alpha 90.000000
_cell_angle_beta 90.000000
_cell_angle_gamma 90.000000
_cell_volume 3229.132947
_symmetry_space_group_name_H-M "P M M M"
_symmetry_group_IT_number 47
_symmetry_cell_setting 'orthorhombic'
loop_
_space_group_symop_operation_xyz
x,y,z
-x,-y,z
x,-y,-z
-x,y,-z
-x,-y,-z
x,y,-z
-x,y,z
x,-y,z
loop_
_atom_site_type_symbol
_atom_site_label
_atom_site_fract_x
_atom_site_fract_y
_atom_site_fract_z
Si Si1 0.207571 0.391720 0.431265
Si Si2 0.712497 0.213274 0.254999
Si Si3 0.293216 0.329362 0.820938
Si Si4 0.216483 0.426967 0.291579
Si Si5 0.215078 0.929403 0.291658
Si Si6 0.284435 0.246334 0.396489
Si Si7 0.209202 0.898397 0.567740
Si Si8 0.718260 0.426392 0.926840
O O1 0.285166 0.411096 0.500000
O O2 0.281710 0.416600 0.364033
O O3 0.216821 0.313266 0.425791
O O4 0.000000 0.412030 0.431972
O O5 0.500000 0.223776 0.256541
O O6 0.785045 0.259525 0.199529
O O7 0.739349 0.135814 0.253375
O O8 0.779277 0.238622 0.323521
O O9 0.500000 0.318517 0.838646
O O10 0.286533 0.373738 0.757481
O O11 0.214470 0.372477 0.877642
O O12 0.264035 0.500000 0.270641
O O13 0.000000 0.421383 0.292044
O O14 0.283591 0.921579 0.364480
O O15 0.000000 0.929762 0.295106
O O16 0.273934 0.000000 0.266818
O O17 0.500000 0.248095 0.398180
O O18 0.224242 0.179970 0.429615
O O19 0.285686 0.920614 0.500000
O O20 0.000000 0.916439 0.567743
O O21 0.500000 0.426697 0.924685
O O22 0.774991 0.500000 0.909428
O O23 0.768773 0.414160 0.000000
#
# Coordination Sequence:
#
# PCOD9381719 Si02
#       8
#     8   8   8   8   8   8   8   8
#     4  10  20  32  45  59  78 108 146 190 241 289
#     4   9  18  30  45  66  90 116 148 184 225 270
#     4  10  18  31  51  73  96 124 158 192 225 267
#     4  10  21  34  47  65  88 115 151 195 240 283
#     4   9  18  31  46  64  86 114 147 184 229 278
#     4  10  18  29  43  61  84 108 139 183 230 276
#     4   9  17  28  42  60  82 108 139 176 222 278
#     4   8  14  25  44  73 105 133 160 189 222 262
#
# _framework density 19.819559999999999
#
# number of rings (size 3 to 8) (size 9 to 14) (size 15 to 20)
#    0.000    2.625    1.250    1.500    0.000    4.500 
#    0.000    2.500    0.000    0.375    0.000    7.000 
#    0.000    0.500    0.000    6.250    0.000    1.000 
#
# Total GULP energy -357100.333404 kJ/mol
# GULP energy per Si atom -5579.692709 kJ/mol
# Density = 1.977445 g / cm^3
# Si number density = 19.819560 Si / 1000 Ang^3
#
#
#
# Elastic Constant Matrix: (Units=GPa)
#
#
# Indices 1 2 3 4 5 6 
#
# 1 59.9419 -4.0107 1.6020 0.0000 0.0000 0.0000
# 2 -4.0107 135.6697 60.1937 0.0000 0.0000 0.0000
# 3 1.6020 60.1937 96.1160 0.0000 0.0000 0.0000
# 4 0.0000 0.0000 0.0000 8.9616 0.0000 0.0000
# 5 0.0000 0.0000 0.0000 0.0000 7.0351 0.0000
# 6 0.0000 0.0000 0.0000 0.0000 0.0000 9.1760
#
#
#
# Elastic Compliance Matrix: (Units=1/GPa)
#
#
# Indices 1 2 3 4 5 6 
#
# 1 0.016762 0.000858 -0.000817 0.000000 0.000000 0.000000
# 2 0.000858 0.010251 -0.006434 0.000000 0.000000 0.000000
# 3 -0.000817 -0.006434 0.014447 0.000000 0.000000 0.000000
# 4 0.000000 0.000000 0.000000 0.111587 0.000000 0.000000
# 5 0.000000 0.000000 0.000000 0.000000 0.142145 0.000000
# 6 0.000000 0.000000 0.000000 0.000000 0.000000 0.108980
#
#
# Mechanical properties :
#
#
# Convention : Reuss Voigt Hill
#
# Bulk Modulus (GPa) = 34.87430 45.25529 40.06480
# Shear Modulus (GPa) = 11.72289 20.63070 16.17680
#
# Velocity S-wave (km/s) = 2.43468 3.22984 2.86003
# Velocity P-wave (km/s) = 5.05348 6.06567 5.58256
#
# Compressibility (1/GPa) = 0.02867441
#
# Stress axis : x y z
#
# Youngs Moduli (GPa) = 59.65855 97.55312 69.21827
#
# Poissons Ratio (x) = -0.08369 0.05652
# Poissons Ratio (y) = -0.05118 0.44535
# Poissons Ratio (z) = 0.04872 0.62766
#
# Static dielectric constant tensor:
#      x y z
#    x 1.752270 0.000000 0.000000 
#    y 0.000000 1.717780 0.000000 
#    z 0.000000 0.000000 1.698900 
# 
# From -- ./inp_files/30124.got.cif
#   From: 2010.05.17/outbox.cif.g08.bks.cpg/sg47_16_cif.got.tgz:30124.got - 2010.06.03 20:15:42.
