data_PCOD9381365
_publ_section_title
;
Structure prediction by ZEFSAII (Michael W. Deem and Ramdas Pophale) SiO2 
 PCOD9381365
Probable space group: P M M M
;
_chemical_formula_sum "Si O2"
_cell_formula_units_Z 40
_cell_length_a 7.733161
_cell_length_b 21.092268
_cell_length_c 12.341052
_cell_angle_alpha 90.000000
_cell_angle_beta 90.000000
_cell_angle_gamma 90.000000
_cell_volume 2012.947811
_symmetry_space_group_name_H-M "P M M M"
_symmetry_group_IT_number 47
_symmetry_cell_setting 'orthorhombic'
loop_
_space_group_symop_operation_xyz
x,y,z
-x,-y,z
x,-y,-z
-x,y,-z
-x,-y,-z
x,y,-z
-x,y,z
x,-y,z
loop_
_atom_site_type_symbol
_atom_site_label
_atom_site_fract_x
_atom_site_fract_y
_atom_site_fract_z
Si Si1 0.201612 0.092650 0.500000
Si Si2 0.289145 0.238470 0.500000
Si Si3 0.295577 0.698809 0.277886
Si Si4 0.788323 0.069268 0.740433
Si Si5 0.205470 0.189985 0.878022
Si Si6 0.208045 0.571920 0.623053
O O1 0.218731 0.168012 0.500000
O O2 0.273986 0.071473 0.384249
O O3 0.000000 0.073899 0.500000
O O4 0.500000 0.237307 0.500000
O O5 0.227713 0.272561 0.608812
O O6 0.500000 0.707000 0.276779
O O7 0.229025 0.742666 0.181292
O O8 0.259046 0.624278 0.289190
O O9 0.726613 0.131085 0.805825
O O10 0.000000 0.072552 0.737202
O O11 0.743160 0.000000 0.787164
O O12 0.000000 0.179680 0.885296
O O13 0.276572 0.190070 0.000000
O O14 0.270265 0.588313 0.500000
O O15 0.266213 0.500000 0.646231
O O16 0.000000 0.571218 0.618808
#
# Coordination Sequence:
#
# PCOD9381365 Si02
#       6
#     4   4   8   8   8   8
#     4  10  17  28  50  75 101 133 168 210 261 320
#     4  10  20  31  46  74 106 136 170 211 256 308
#     4  11  21  34  53  77 108 142 176 215 260 309
#     4   9  17  29  48  76 105 131 165 214 269 320
#     4  10  21  36  54  76 100 133 181 228 267 310
#     4   9  18  32  52  81 115 146 173 204 249 307
#
# _framework density 19.871355999999999
#
# number of rings (size 3 to 8) (size 9 to 14) (size 15 to 20)
#    0.000    2.200    3.000    1.500    0.000    3.200 
#    0.000    3.000    0.000    3.600    0.000    5.600 
#    0.000    0.000    0.000    0.000    0.000    0.000 
#
# Total GULP energy -223106.984822 kJ/mol
# GULP energy per Si atom -5577.674621 kJ/mol
# Density = 1.982613 g / cm^3
# Si number density = 19.871356 Si / 1000 Ang^3
#
#
#
# Elastic Constant Matrix: (Units=GPa)
#
#
# Indices 1 2 3 4 5 6 
#
# 1 29.1811 -5.5494 8.5945 0.0000 0.0000 0.0000
# 2 -5.5494 155.3249 74.0833 0.0000 0.0000 0.0000
# 3 8.5945 74.0833 133.3045 0.0000 0.0000 0.0000
# 4 0.0000 0.0000 0.0000 -71.4683 0.0000 0.0000
# 5 0.0000 0.0000 0.0000 0.0000 5.9970 0.0000
# 6 0.0000 0.0000 0.0000 0.0000 0.0000 326.5811
#
#
#
# Elastic Compliance Matrix: (Units=1/GPa)
#
#
# Indices 1 2 3 4 5 6 
#
# 1 0.036110 0.003266 -0.004143 0.000000 0.000000 0.000000
# 2 0.003266 0.009056 -0.005243 0.000000 0.000000 0.000000
# 3 -0.004143 -0.005243 0.010683 0.000000 0.000000 0.000000
# 4 0.000000 0.000000 0.000000 -0.013992 0.000000 0.000000
# 5 0.000000 0.000000 0.000000 0.000000 0.166751 0.000000
# 6 0.000000 0.000000 0.000000 0.000000 0.000000 0.003062
#
#
# Mechanical properties :
#
#
# Convention : Reuss Voigt Hill
#
# Bulk Modulus (GPa) = 22.93152 52.45191 37.69171
# Shear Modulus (GPa) = 20.96911 68.26743 44.61827
#
# Velocity S-wave (km/s) = 3.25197 5.86765 4.74366
# Velocity P-wave (km/s) = 5.06611 8.50639 7.00087
#
# Compressibility (1/GPa) = 0.04360811
#
# Stress axis : x y z
#
# Youngs Moduli (GPa) = 27.69292 110.42890 93.60983
#
# Poissons Ratio (x) = -0.36070 0.38786
# Poissons Ratio (y) = -0.09046 0.49081
# Poissons Ratio (z) = 0.11474 0.57900
#
# Static dielectric constant tensor:
#      x y z
#    x 1.729820 0.000000 0.000000 
#    y 0.000000 1.722440 0.000000 
#    z 0.000000 0.000000 1.703900 
# 
# From -- ./inp_files/15082.got.cif
#   From: 2010.05.17/outbox.cif.g08.bks.cpg/sg47_8_cif.got.tgz:15082.got - 2010.06.03 20:15:42.
