data_PCOD9381296
_publ_section_title
;
Structure prediction by ZEFSAII (Michael W. Deem and Ramdas Pophale) SiO2 
 PCOD9381296
Probable space group: P M M M
;
_chemical_formula_sum "Si O2"
_cell_formula_units_Z 56
_cell_length_a 7.392666
_cell_length_b 14.753257
_cell_length_c 27.313592
_cell_angle_alpha 90.000000
_cell_angle_beta 90.000000
_cell_angle_gamma 90.000000
_cell_volume 2978.981532
_symmetry_space_group_name_H-M "P M M M"
_symmetry_group_IT_number 47
_symmetry_cell_setting 'orthorhombic'
loop_
_space_group_symop_operation_xyz
x,y,z
-x,-y,z
x,-y,-z
-x,y,-z
-x,-y,-z
x,y,-z
-x,y,z
x,-y,z
loop_
_atom_site_type_symbol
_atom_site_label
_atom_site_fract_x
_atom_site_fract_y
_atom_site_fract_z
Si Si1 0.779410 0.899433 0.700948
Si Si2 0.781609 0.100515 0.587056
Si Si3 0.781924 0.391893 0.947367
Si Si4 0.281046 0.604636 0.349353
Si Si5 0.289143 0.297669 0.447145
Si Si6 0.211506 0.717951 0.747986
Si Si7 0.778525 0.605432 0.159828
O O1 0.726361 0.888456 0.644000
O O2 0.712599 0.815831 0.733005
O O3 0.000000 0.897274 0.700802
O O4 0.724678 0.000000 0.717096
O O5 0.720142 0.189116 0.558723
O O6 0.000000 0.100755 0.585443
O O7 0.722666 0.000000 0.570433
O O8 0.745959 0.500000 0.947232
O O9 0.720061 0.359856 0.893952
O O10 0.000000 0.381861 0.947802
O O11 0.715207 0.355833 0.000000
O O12 0.500000 0.606948 0.349496
O O13 0.224216 0.500000 0.349279
O O14 0.214103 0.656169 0.398103
O O15 0.223532 0.655627 0.300196
O O16 0.210073 0.323308 0.500000
O O17 0.500000 0.323603 0.448263
O O18 0.286283 0.665787 0.795022
O O19 0.000000 0.732524 0.758701
O O20 0.724833 0.500000 0.165793
O O21 0.000000 0.604945 0.160086
#
# Coordination Sequence:
#
# PCOD9381296 Si02
#       7
#     8   8   8   8   8   8   8
#     4   8  14  25  42  63  84 105 129 158 195 240
#     4   9  17  31  50  69  88 109 132 159 197 246
#     4   7   9  14  24  39  67 107 138 159 192 235
#     4  10  21  35  48  62  82 108 136 165 200 244
#     4  10  21  35  49  65  84 106 135 170 202 235
#     4  10  17  27  46  66  84 106 133 169 207 241
#     4   8  13  19  29  52  81 104 132 168 201 233
#
# _framework density 18.798369999999998
#
# number of rings (size 3 to 8) (size 9 to 14) (size 15 to 20)
#    0.000    3.143    1.429    2.571    0.000    2.000 
#    0.000    2.857    0.000    0.429    0.000    2.000 
#    0.000    1.143    0.000   13.286    0.000    4.571 
#
# Total GULP energy -312169.689693 kJ/mol
# GULP energy per Si atom -5574.458745 kJ/mol
# Density = 1.875558 g / cm^3
# Si number density = 18.798370 Si / 1000 Ang^3
#
#
#
# Elastic Constant Matrix: (Units=GPa)
#
#
# Indices 1 2 3 4 5 6 
#
# 1 61.0598 -6.3058 -2.0127 0.0000 0.0000 0.0000
# 2 -6.3058 90.6572 62.6207 0.0000 0.0000 0.0000
# 3 -2.0127 62.6207 169.3893 0.0000 0.0000 0.0000
# 4 0.0000 0.0000 0.0000 17.8157 0.0000 0.0000
# 5 0.0000 0.0000 0.0000 0.0000 7.7038 0.0000
# 6 0.0000 0.0000 0.0000 0.0000 0.0000 4.4936
#
#
#
# Elastic Compliance Matrix: (Units=1/GPa)
#
#
# Indices 1 2 3 4 5 6 
#
# 1 0.016508 0.001360 -0.000307 0.000000 0.000000 0.000000
# 2 0.001360 0.014925 -0.005501 0.000000 0.000000 0.000000
# 3 -0.000307 -0.005501 0.007934 0.000000 0.000000 0.000000
# 4 0.000000 0.000000 0.000000 0.056130 0.000000 0.000000
# 5 0.000000 0.000000 0.000000 0.000000 0.129807 0.000000
# 6 0.000000 0.000000 0.000000 0.000000 0.000000 0.222538
#
#
# Mechanical properties :
#
#
# Convention : Reuss Voigt Hill
#
# Bulk Modulus (GPa) = 32.81857 47.74561 40.28209
# Shear Modulus (GPa) = 10.70906 23.78955 17.24930
#
# Velocity S-wave (km/s) = 2.38939 3.56126 3.03247
# Velocity P-wave (km/s) = 5.01082 6.50877 5.80829
#
# Compressibility (1/GPa) = 0.03047055
#
# Stress axis : x y z
#
# Youngs Moduli (GPa) = 60.57765 67.00046 126.04404
#
# Poissons Ratio (x) = -0.09112 0.03865
# Poissons Ratio (y) = -0.08239 0.69343
# Poissons Ratio (z) = 0.01857 0.36860
#
# Static dielectric constant tensor:
#      x y z
#    x 1.761850 0.000000 0.000000 
#    y 0.000000 1.634650 0.000000 
#    z 0.000000 0.000000 1.678400 
# 
# From -- ./inp_files/32162.got.cif
#   From: 2010.05.17/outbox.cif.g08.bks.cpg/sg47_17_cif.got.tgz:32162.got - 2010.06.03 20:15:42.
