data_PCOD9381635
_publ_section_title
;
Structure prediction by ZEFSAII (Michael W. Deem and Ramdas Pophale) SiO2 
 PCOD9381635
Probable space group: P M M M
;
_chemical_formula_sum "Si O2"
_cell_formula_units_Z 64
_cell_length_a 7.344280
_cell_length_b 20.970226
_cell_length_c 20.768977
_cell_angle_alpha 90.000000
_cell_angle_beta 90.000000
_cell_angle_gamma 90.000000
_cell_volume 3198.655307
_symmetry_space_group_name_H-M "P M M M"
_symmetry_group_IT_number 47
_symmetry_cell_setting 'orthorhombic'
loop_
_space_group_symop_operation_xyz
x,y,z
-x,-y,z
x,-y,-z
-x,y,-z
-x,-y,-z
x,y,-z
-x,y,z
x,-y,z
loop_
_atom_site_type_symbol
_atom_site_label
_atom_site_fract_x
_atom_site_fract_y
_atom_site_fract_z
Si Si1 0.279378 0.748566 0.791627
Si Si2 0.719704 0.753146 0.931169
Si Si3 0.711516 0.684114 0.663435
Si Si4 0.722098 0.573241 0.427045
Si Si5 0.222246 0.930698 0.648687
Si Si6 0.779599 0.195410 0.426203
Si Si7 0.213633 0.095056 0.930222
Si Si8 0.786715 0.100113 0.790238
O O1 0.500000 0.748041 0.789947
O O2 0.219455 0.725958 0.862607
O O3 0.210907 0.707621 0.731565
O O4 0.226613 0.822921 0.785528
O O5 0.500000 0.750873 0.931192
O O6 0.772428 0.827847 0.930541
O O7 0.782775 0.726277 0.000000
O O8 0.500000 0.669006 0.675783
O O9 0.788563 0.623469 0.625586
O O10 0.720358 0.744340 0.615649
O O11 0.777943 0.590766 0.500000
O O12 0.500000 0.574892 0.426965
O O13 0.775173 0.500000 0.414991
O O14 0.281749 0.870012 0.607615
O O15 0.285883 0.925281 0.722731
O O16 0.000000 0.928146 0.650070
O O17 0.273648 0.000000 0.622371
O O18 0.719332 0.199834 0.500000
O O19 0.000000 0.195290 0.425945
O O20 0.289486 0.077922 0.859617
O O21 0.000000 0.078001 0.930421
O O22 0.289070 0.074063 0.000000
O O23 0.000000 0.083181 0.792052
#
# Coordination Sequence:
#
# PCOD9381635 Si02
#       8
#     8   8   8   8   8   8   8   8
#     4   9  16  24  37  59  83 104 129 163 200 237
#     4   8  13  21  32  48  74 105 131 155 187 228
#     4  10  18  28  45  67  89 110 133 166 206 244
#     4   8  14  25  41  61  84 110 139 166 193 232
#     4   9  17  29  44  60  77 101 136 173 205 241
#     4  10  20  32  46  64  83 104 134 171 209 249
#     4   8  13  20  32  52  74  95 122 156 193 233
#     4   9  15  25  41  56  74 102 132 162 199 242
#
# _framework density 20.008407999999999
#
# number of rings (size 3 to 8) (size 9 to 14) (size 15 to 20)
#    0.000    3.125    1.250    0.750    0.000    1.000 
#    0.000    1.250    0.000    2.250    0.000    5.250 
#    0.000    0.500    0.000   27.250    0.000    9.500 
#
# Total GULP energy -356835.197238 kJ/mol
# GULP energy per Si atom -5575.549957 kJ/mol
# Density = 1.996287 g / cm^3
# Si number density = 20.008408 Si / 1000 Ang^3
#
#
#
# Elastic Constant Matrix: (Units=GPa)
#
#
# Indices 1 2 3 4 5 6 
#
# 1 78.7028 -3.6155 2.0430 0.0000 0.0000 0.0000
# 2 -3.6155 86.1400 68.0688 0.0000 0.0000 0.0000
# 3 2.0430 68.0688 182.5968 0.0000 0.0000 0.0000
# 4 0.0000 0.0000 0.0000 94.3810 0.0000 0.0000
# 5 0.0000 0.0000 0.0000 0.0000 2.3714 0.0000
# 6 0.0000 0.0000 0.0000 0.0000 0.0000 23.3655
#
#
#
# Elastic Compliance Matrix: (Units=1/GPa)
#
#
# Indices 1 2 3 4 5 6 
#
# 1 0.012761 0.000919 -0.000485 0.000000 0.000000 0.000000
# 2 0.000919 0.016523 -0.006170 0.000000 0.000000 0.000000
# 3 -0.000485 -0.006170 0.007782 0.000000 0.000000 0.000000
# 4 0.000000 0.000000 0.000000 0.010595 0.000000 0.000000
# 5 0.000000 0.000000 0.000000 0.000000 0.421693 0.000000
# 6 0.000000 0.000000 0.000000 0.000000 0.000000 0.042798
#
#
# Mechanical properties :
#
#
# Convention : Reuss Voigt Hill
#
# Bulk Modulus (GPa) = 39.07191 53.38135 46.22663
# Shear Modulus (GPa) = 9.39575 42.75313 26.07444
#
# Velocity S-wave (km/s) = 2.16935 4.62752 3.61387
# Velocity P-wave (km/s) = 5.08379 7.43568 6.36923
#
# Compressibility (1/GPa) = 0.02559383
#
# Stress axis : x y z
#
# Youngs Moduli (GPa) = 78.36459 60.52172 128.50252
#
# Poissons Ratio (x) = -0.05563 0.06238
# Poissons Ratio (y) = -0.07203 0.79283
# Poissons Ratio (z) = 0.03804 0.37340
#
# Static dielectric constant tensor:
#      x y z
#    x 1.821690 0.000000 0.000000 
#    y 0.000000 1.661460 0.000000 
#    z 0.000000 0.000000 1.761650 
# 
# From -- ./inp_files/11823.got.cif
#   From: 2010.05.17/outbox.cif.g08.bks.cpg/sg47_6_cif.got.tgz:11823.got - 2010.06.03 20:15:42.
