data_PCOD9381232
_publ_section_title
;
Structure prediction by ZEFSAII (Michael W. Deem and Ramdas Pophale) SiO2 
 PCOD9381232
Probable space group: P M M M
;
_chemical_formula_sum "Si O2"
_cell_formula_units_Z 52
_cell_length_a 12.562237
_cell_length_b 7.395555
_cell_length_c 24.813059
_cell_angle_alpha 90.000000
_cell_angle_beta 90.000000
_cell_angle_gamma 90.000000
_cell_volume 2305.250166
_symmetry_space_group_name_H-M "P M M M"
_symmetry_group_IT_number 47
_symmetry_cell_setting 'orthorhombic'
loop_
_space_group_symop_operation_xyz
x,y,z
-x,-y,z
x,-y,-z
-x,y,-z
-x,-y,-z
x,y,-z
-x,y,z
x,-y,z
loop_
_atom_site_type_symbol
_atom_site_label
_atom_site_fract_x
_atom_site_fract_y
_atom_site_fract_z
Si Si1 0.759499 0.278890 0.249253
Si Si2 0.205278 0.718101 0.061212
Si Si3 0.000000 0.754409 0.749372
Si Si4 0.620975 0.720143 0.646604
Si Si5 0.000000 0.292717 0.621175
Si Si6 0.000000 0.794351 0.866068
Si Si7 0.621802 0.279987 0.144283
Si Si8 0.210359 0.721177 0.438116
O O1 0.776916 0.500000 0.249793
O O2 0.691341 0.230546 0.301650
O O3 0.690879 0.231832 0.196703
O O4 0.875225 0.190209 0.249430
O O5 0.208222 0.500000 0.059265
O O6 0.103286 0.765711 0.097254
O O7 0.311595 0.778676 0.092046
O O8 0.196078 0.784108 0.000000
O O9 0.000000 0.699573 0.685796
O O10 0.000000 0.680747 0.811359
O O11 0.500000 0.783664 0.650051
O O12 0.617839 0.500000 0.646871
O O13 0.683550 0.777552 0.593229
O O14 0.108032 0.215666 0.596135
O O15 0.000000 0.500000 0.602430
O O16 0.000000 0.000000 0.845749
O O17 0.500000 0.217392 0.146345
O O18 0.618587 0.500000 0.143806
O O19 0.204310 0.778056 0.500000
O O20 0.211134 0.500000 0.437628
#
# Coordination Sequence:
#
# PCOD9381232 Si02
#       8
#     8   8   4   8   4   4   8   8
#     4  10  17  26  43  69  98 127 166 219 269 312
#     4  10  21  37  59  86 113 144 183 223 259 307
#     4  12  20  30  50  70  88 123 169 215 265 317
#     4   9  16  24  34  53  86 128 171 211 254 311
#     4  10  17  26  41  64  91 120 161 214 267 313
#     4  12  26  41  57  80 112 145 177 221 279 329
#     4   9  17  29  48  77 111 141 170 214 269 313
#     4   9  16  24  34  52  85 130 172 207 250 309
#
# _framework density 22.557203999999999
#
# number of rings (size 3 to 8) (size 9 to 14) (size 15 to 20)
#    0.000    2.154    3.077    1.846    0.000    5.846 
#    0.000    3.077    0.000    0.462    0.000    1.077 
#    0.000    1.231    0.000    0.000    0.000    1.846 
#
# Total GULP energy -290078.001133 kJ/mol
# GULP energy per Si atom -5578.423099 kJ/mol
# Density = 2.250586 g / cm^3
# Si number density = 22.557204 Si / 1000 Ang^3
#
#
#
# Elastic Constant Matrix: (Units=GPa)
#
#
# Indices 1 2 3 4 5 6 
#
# 1 252.0254 17.2522 111.8170 0.0000 0.0000 0.0000
# 2 17.2522 87.5164 15.7961 0.0000 0.0000 0.0000
# 3 111.8170 15.7961 201.3235 0.0000 0.0000 0.0000
# 4 0.0000 0.0000 0.0000 -21.1357 0.0000 0.0000
# 5 0.0000 0.0000 0.0000 0.0000 21.3047 0.0000
# 6 0.0000 0.0000 0.0000 0.0000 0.0000 -10.3624
#
#
#
# Elastic Compliance Matrix: (Units=1/GPa)
#
#
# Indices 1 2 3 4 5 6 
#
# 1 0.005289 -0.000520 -0.002897 0.000000 0.000000 0.000000
# 2 -0.000520 0.011642 -0.000625 0.000000 0.000000 0.000000
# 3 -0.002897 -0.000625 0.006625 0.000000 0.000000 0.000000
# 4 0.000000 0.000000 0.000000 -0.047313 0.000000 0.000000
# 5 0.000000 0.000000 0.000000 0.000000 0.046938 0.000000
# 6 0.000000 0.000000 0.000000 0.000000 0.000000 -0.096503
#
#
# Mechanical properties :
#
#
# Convention : Reuss Voigt Hill
#
# Bulk Modulus (GPa) = 64.62843 92.28845 78.45844
# Shear Modulus (GPa) = -83.21752 24.36131 -29.42811
#
# Velocity S-wave (km/s) = -6.08045 3.28987 -3.61584
# Velocity P-wave (km/s) = 4.53682 7.44533 4.17434
#
# Compressibility (1/GPa) = 0.01547307
#
# Stress axis : x y z
#
# Youngs Moduli (GPa) = 189.08784 85.89850 150.94540
#
# Poissons Ratio (x) = 0.04464 0.43722
# Poissons Ratio (y) = 0.09827 0.09430
# Poissons Ratio (z) = 0.54770 0.05367
#
# Static dielectric constant tensor:
#      x y z
#    x 1.774560 0.000000 0.000000 
#    y 0.000000 2.051880 0.000000 
#    z 0.000000 0.000000 1.778750 
# 
# From -- ./inp_files/33681.got.cif
#   From: 2010.05.17/outbox.cif.g08.bks.cpg/sg47_17_cif.got.tgz:33681.got - 2010.06.03 20:15:42.
