data_PCOD9381948
_publ_section_title
;
Structure prediction by ZEFSAII (Michael W. Deem and Ramdas Pophale) SiO2 
 PCOD9381948
Probable space group: P M M M
;
_chemical_formula_sum "Si O2"
_cell_formula_units_Z 64
_cell_length_a 14.769118
_cell_length_b 32.951614
_cell_length_c 7.493337
_cell_angle_alpha 90.000000
_cell_angle_beta 90.000000
_cell_angle_gamma 90.000000
_cell_volume 3646.754409
_symmetry_space_group_name_H-M "P M M M"
_symmetry_group_IT_number 47
_symmetry_cell_setting 'orthorhombic'
loop_
_space_group_symop_operation_xyz
x,y,z
-x,-y,z
x,-y,-z
-x,y,-z
-x,-y,-z
x,y,-z
-x,y,z
x,-y,z
loop_
_atom_site_type_symbol
_atom_site_label
_atom_site_fract_x
_atom_site_fract_y
_atom_site_fract_z
Si Si1 0.717927 0.794786 0.790583
Si Si2 0.608577 0.456277 0.284634
Si Si3 0.396649 0.279939 0.787882
Si Si4 0.100377 0.833324 0.782218
Si Si5 0.604697 0.369026 0.285215
Si Si6 0.297018 0.956180 0.291077
Si Si7 0.100486 0.927806 0.215627
Si Si8 0.604772 0.875180 0.716331
O O1 0.665441 0.756035 0.714103
O O2 0.815938 0.806904 0.715668
O O3 0.655712 0.834691 0.776572
O O4 0.732577 0.786238 0.000000
O O5 0.619205 0.456944 0.500000
O O6 0.500000 0.455704 0.251760
O O7 0.643001 0.500000 0.217079
O O8 0.643967 0.412339 0.221710
O O9 0.500000 0.278633 0.715404
O O10 0.356908 0.325124 0.762708
O O11 0.404153 0.273491 0.000000
O O12 0.111294 0.880559 0.730270
O O13 0.000000 0.819901 0.727610
O O14 0.102325 0.833367 0.000000
O O15 0.603075 0.370829 0.500000
O O16 0.500000 0.367638 0.222140
O O17 0.321397 0.957051 0.500000
O O18 0.188722 0.951201 0.278502
O O19 0.344209 0.915715 0.217568
O O20 0.323096 0.000000 0.213479
O O21 0.000000 0.941557 0.273575
O O22 0.101149 0.929314 0.000000
O O23 0.607821 0.874959 0.500000
O O24 0.500000 0.875103 0.770948
#
# Coordination Sequence:
#
# PCOD9381948 Si02
#       8
#     8   8   8   8   8   8   8   8
#     4  10  18  30  49  67  83 105 133 164 198 238
#     4   7   9  14  26  44  63  84 118 165 206 233
#     4   9  17  26  35  52  78 105 131 159 193 230
#     4   8  14  26  46  69  87 102 124 157 195 232
#     4   8  13  21  33  48  67  95 130 165 200 233
#     4  10  21  35  49  66  88 112 136 161 193 235
#     4   9  17  31  51  72  91 110 132 159 193 232
#     4  10  21  35  49  65  84 106 134 168 201 230
#
# _framework density 17.549852999999999
#
# number of rings (size 3 to 8) (size 9 to 14) (size 15 to 20)
#    0.000    3.125    1.250    2.250    0.000    2.250 
#    0.000    3.750    0.000    0.750    0.000    4.375 
#    0.000    0.000    0.000    0.000    0.000    0.625 
#
# Total GULP energy -356482.476986 kJ/mol
# GULP energy per Si atom -5570.038703 kJ/mol
# Density = 1.750991 g / cm^3
# Si number density = 17.549853 Si / 1000 Ang^3
#
#
#
# Elastic Constant Matrix: (Units=GPa)
#
#
# Indices 1 2 3 4 5 6 
#
# 1 70.6875 49.9123 -4.7677 0.0000 0.0000 0.0000
# 2 49.9123 159.7385 -3.6730 0.0000 0.0000 0.0000
# 3 -4.7677 -3.6730 45.2575 0.0000 0.0000 0.0000
# 4 0.0000 0.0000 0.0000 15.4886 0.0000 0.0000
# 5 0.0000 0.0000 0.0000 0.0000 8.0185 0.0000
# 6 0.0000 0.0000 0.0000 0.0000 0.0000 27.4118
#
#
#
# Elastic Compliance Matrix: (Units=1/GPa)
#
#
# Indices 1 2 3 4 5 6 
#
# 1 0.018248 -0.005668 0.001462 0.000000 0.000000 0.000000
# 2 -0.005668 0.008033 0.000055 0.000000 0.000000 0.000000
# 3 0.001462 0.000055 0.022254 0.000000 0.000000 0.000000
# 4 0.000000 0.000000 0.000000 0.064564 0.000000 0.000000
# 5 0.000000 0.000000 0.000000 0.000000 0.124711 0.000000
# 6 0.000000 0.000000 0.000000 0.000000 0.000000 0.036481
#
#
# Mechanical properties :
#
#
# Convention : Reuss Voigt Hill
#
# Bulk Modulus (GPa) = 24.85554 39.84741 32.35148
# Shear Modulus (GPa) = 16.89175 25.79792 21.34483
#
# Velocity S-wave (km/s) = 3.10579 3.83819 3.49125
# Velocity P-wave (km/s) = 5.20142 6.51128 5.89286
#
# Compressibility (1/GPa) = 0.04023247
#
# Stress axis : x y z
#
# Youngs Moduli (GPa) = 54.80167 124.49337 44.93520
#
# Poissons Ratio (x) = 0.70564 -0.06571
# Poissons Ratio (y) = 0.31062 -0.00246
# Poissons Ratio (z) = -0.08014 -0.00682
#
# Static dielectric constant tensor:
#      x y z
#    x 1.583330 0.000000 0.000000 
#    y 0.000000 1.649410 0.000000 
#    z 0.000000 0.000000 1.674510 
# 
# From -- ./inp_files/8284.got.cif
#   From: 2010.05.17/outbox.cif.g08.bks.cpg/sg47_5_cif.got.tgz:8284.got - 2010.06.03 20:15:42.
