data_PCOD9381715
_publ_section_title
;
Structure prediction by ZEFSAII (Michael W. Deem and Ramdas Pophale) SiO2 
 PCOD9381715
Probable space group: P M M M
;
_chemical_formula_sum "Si O2"
_cell_formula_units_Z 40
_cell_length_a 18.821995
_cell_length_b 19.368891
_cell_length_c 7.789935
_cell_angle_alpha 90.000000
_cell_angle_beta 90.000000
_cell_angle_gamma 90.000000
_cell_volume 2839.907814
_symmetry_space_group_name_H-M "P M M M"
_symmetry_group_IT_number 47
_symmetry_cell_setting 'orthorhombic'
loop_
_space_group_symop_operation_xyz
x,y,z
-x,-y,z
x,-y,-z
-x,y,-z
-x,-y,-z
x,y,-z
-x,y,z
x,-y,z
loop_
_atom_site_type_symbol
_atom_site_label
_atom_site_fract_x
_atom_site_fract_y
_atom_site_fract_z
Si Si1 0.500000 0.420955 0.711002
Si Si2 0.923487 0.419137 0.706749
Si Si3 0.586054 0.078552 0.000000
Si Si4 0.232322 0.579195 0.202373
Si Si5 0.366983 0.332292 0.703008
Si Si6 0.585627 0.816220 0.297518
O O1 0.500000 0.500000 0.766921
O O2 0.500000 0.421689 0.500000
O O3 0.430049 0.380763 0.771074
O O4 0.923111 0.416843 0.500000
O O5 0.923614 0.500000 0.758618
O O6 0.847339 0.392683 0.766698
O O7 0.000000 0.389666 0.764964
O O8 0.605309 0.121489 0.829190
O O9 0.500000 0.075616 0.000000
O O10 0.612690 0.000000 0.000000
O O11 0.237474 0.500000 0.273656
O O12 0.292499 0.629734 0.271613
O O13 0.243153 0.574361 0.000000
O O14 0.379882 0.326503 0.500000
O O15 0.375990 0.253916 0.764596
O O16 0.600835 0.829526 0.500000
O O17 0.500000 0.804645 0.285359
#
# Coordination Sequence:
#
# PCOD9381715 Si02
#       6
#     4   8   4   8   8   8
#     4   9  16  26  41  57  71  96 140 187 222 250
#     4   8  14  26  43  58  71  93 128 169 213 257
#     4   9  18  30  46  68  86 104 131 166 211 255
#     4  10  20  29  37  55  81 106 136 177 219 255
#     4  10  18  29  43  57  75 105 142 177 216 254
#     4   9  17  30  46  63  83 109 140 172 210 257
#
# _framework density 14.084965
#
# number of rings (size 3 to 8) (size 9 to 14) (size 15 to 20)
#    0.000    2.800    1.000    1.800    1.400    2.800 
#    0.000    4.500    0.000    1.800    0.000    0.000 
#    0.000    0.000    0.000    0.000    0.000    2.000 
#
# Total GULP energy -222682.244622 kJ/mol
# GULP energy per Si atom -5567.056116 kJ/mol
# Density = 1.405291 g / cm^3
# Si number density = 14.084965 Si / 1000 Ang^3
#
#
#
# Elastic Constant Matrix: (Units=GPa)
#
#
# Indices 1 2 3 4 5 6 
#
# 1 75.2113 42.4923 4.7234 0.0000 0.0000 0.0000
# 2 42.4923 105.3984 32.2618 0.0000 0.0000 0.0000
# 3 4.7234 32.2618 36.8111 0.0000 0.0000 0.0000
# 4 0.0000 0.0000 0.0000 14.6960 0.0000 0.0000
# 5 0.0000 0.0000 0.0000 0.0000 -11.9360 0.0000
# 6 0.0000 0.0000 0.0000 0.0000 0.0000 2.1037
#
#
#
# Elastic Compliance Matrix: (Units=1/GPa)
#
#
# Indices 1 2 3 4 5 6 
#
# 1 0.018007 -0.008955 0.005538 0.000000 0.000000 0.000000
# 2 -0.008955 0.017419 -0.014118 0.000000 0.000000 0.000000
# 3 0.005538 -0.014118 0.038828 0.000000 0.000000 0.000000
# 4 0.000000 0.000000 0.000000 0.068046 0.000000 0.000000
# 5 0.000000 0.000000 0.000000 0.000000 -0.083780 0.000000
# 6 0.000000 0.000000 0.000000 0.000000 0.000000 0.475363
#
#
# Mechanical properties :
#
#
# Convention : Reuss Voigt Hill
#
# Bulk Modulus (GPa) = 25.51996 41.81954 33.66975
# Shear Modulus (GPa) = 8.59085 10.16895 9.37990
#
# Velocity S-wave (km/s) = 2.47236 2.68987 2.58340
# Velocity P-wave (km/s) = 5.12913 6.27715 5.73195
#
# Compressibility (1/GPa) = 0.03918502
#
# Stress axis : x y z
#
# Youngs Moduli (GPa) = 55.53294 57.40760 25.75462
#
# Poissons Ratio (x) = 0.51407 -0.14262
# Poissons Ratio (y) = 0.49729 0.36359
# Poissons Ratio (z) = -0.30751 0.81045
#
# Static dielectric constant tensor:
#      x y z
#    x 1.472590 0.000000 0.000000 
#    y 0.000000 1.455390 0.000000 
#    z 0.000000 0.000000 1.503920 
# 
# From -- ./inp_files/9334.got.cif
#   From: 2010.05.17/outbox.cif.g08.bks.cpg/sg47_5_cif.got.tgz:9334.got - 2010.06.03 20:15:42.
