data_PCOD9381149
_publ_section_title
;
Structure prediction by ZEFSAII (Michael W. Deem and Ramdas Pophale) SiO2 
 PCOD9381149
Probable space group: I M A 2
;
_chemical_formula_sum "Si O2"
_cell_formula_units_Z 32
_cell_length_a 15.000000
_cell_length_b 9.000000
_cell_length_c 24.000000
_cell_angle_alpha 90.000000
_cell_angle_beta 90.000000
_cell_angle_gamma 90.000000
_cell_volume 3240.000000
_symmetry_space_group_name_H-M "I M A 2"
_symmetry_group_IT_number 46
_symmetry_cell_setting 'orthorhombic'
loop_
_space_group_symop_operation_xyz
x,y,z
-x,-y,z
1/2-x,y,z
1/2+x,-y,z
1/2+x,1/2+y,1/2+z
1/2-x,1/2-y,1/2+z
-x,1/2+y,1/2+z
x,1/2-y,1/2+z
loop_
_atom_site_type_symbol
_atom_site_label
_atom_site_fract_x
_atom_site_fract_y
_atom_site_fract_z
Si Si1 0.642970 0.413183 0.686560
Si Si2 0.355468 0.114081 0.291026
Si Si3 0.146412 0.852073 0.760934
Si Si4 0.087279 0.412541 0.336425
Si Si5 0.906364 0.415750 0.555221
Si Si6 0.346804 0.368721 0.457825
Si Si7 0.850804 0.163613 0.373179
Si Si8 0.021741 0.670750 0.979430
O O1 0.750000 0.411885 0.693059
O O2 0.615900 0.543720 0.730996
O O3 0.607565 0.259673 0.714802
O O4 0.625785 0.421381 0.619967
O O5 0.250000 0.161677 0.286681
O O6 0.416229 0.242614 0.316873
O O7 0.358104 0.988970 0.338813
O O8 0.250000 0.867769 0.747023
O O9 0.139381 0.778354 0.822303
O O10 0.111590 0.012602 0.776843
O O11 0.146309 0.420689 0.392973
O O12 0.000000 0.500000 0.354763
O O13 0.853961 0.503541 0.505629
O O14 0.925990 0.253037 0.529659
O O15 0.000000 0.500000 0.557180
O O16 0.250000 0.295161 0.464274
O O17 0.430045 0.260062 0.468150
O O18 0.750000 0.177467 0.395560
O O19 0.919918 0.178849 0.422987
O O20 0.000000 0.500000 0.991769
#
# Coordination Sequence:
#
# PCOD9381149 Si02
#       8
#     8   8   8   8   8   8   8   8
#     4   9  19  38  61  82 106 145 197 240 279 342
#     4   9  19  36  59  86 118 157 196 235 289 359
#     4   9  18  33  53  80 113 143 179 229 281 337
#     4  12  22  33  53  86 120 148 187 238 297 353
#     4  10  22  40  60  82 111 151 199 244 290 351
#     4  11  23  40  61  85 119 162 203 246 297 356
#     4   9  18  34  58  87 118 154 191 232 290 358
#     4  11  23  38  58  88 122 152 195 250 302 362
#
# _framework density 9.8765429999999999
#
# number of rings (size 3 to 8) (size 9 to 14) (size 15 to 20)
#    0.000    2.000    0.000    6.375    0.000    4.500 
#    0.000    5.625    0.000    1.500    0.000    0.000 
#    0.000    0.000    0.000    0.000    0.000    0.000 
#
# Total GULP energy -178316.684235 kJ/mol
# GULP energy per Si atom -5572.396382 kJ/mol
# Density = 0.985406 g / cm^3
# Si number density = 9.876543 Si / 1000 Ang^3
#
#
#
# Elastic Constant Matrix: (Units=GPa)
#
#
# Indices 1 2 3 4 5 6 
#
# 1 83.3913 26.8594 24.3799 0.0000 0.0000 0.0000
# 2 26.8594 64.8961 23.6137 0.0000 0.0000 0.0000
# 3 24.3799 23.6137 133.9322 0.0000 0.0000 0.0000
# 4 0.0000 0.0000 0.0000 19.0033 0.0000 0.0000
# 5 0.0000 0.0000 0.0000 0.0000 34.0240 0.0000
# 6 0.0000 0.0000 0.0000 0.0000 0.0000 19.0852
#
#
#
# Elastic Compliance Matrix: (Units=1/GPa)
#
#
# Indices 1 2 3 4 5 6 
#
# 1 0.014170 -0.005264 -0.001651 0.000000 0.000000 0.000000
# 2 -0.005264 0.018421 -0.002290 0.000000 0.000000 0.000000
# 3 -0.001651 -0.002290 0.008171 0.000000 0.000000 0.000000
# 4 0.000000 0.000000 0.000000 0.052623 0.000000 0.000000
# 5 0.000000 0.000000 0.000000 0.000000 0.029391 0.000000
# 6 0.000000 0.000000 0.000000 0.000000 0.000000 0.052397
#
#
# Mechanical properties :
#
#
# Convention : Reuss Voigt Hill
#
# Bulk Modulus (GPa) = 44.73857 47.99175 46.36516
# Shear Modulus (GPa) = 24.87168 28.24694 26.55931
#
# Velocity S-wave (km/s) = 3.55227 3.78564 3.67081
# Velocity P-wave (km/s) = 6.28672 6.59217 6.44126
#
# Compressibility (1/GPa) = 0.02235208
#
# Stress axis : x y z
#
# Youngs Moduli (GPa) = 70.57252 54.28599 122.38792
#
# Poissons Ratio (x) = 0.28575 0.20210
# Poissons Ratio (y) = 0.37148 0.28022
# Poissons Ratio (z) = 0.11654 0.12430
#
# Static dielectric constant tensor:
#      x y z
#    x 1.777410 0.000000 0.000000 
#    y 0.000000 1.790790 0.000000 
#    z 0.000000 0.000000 1.655590 
# 
# From -- ./inp_files/23713.got.cif
#   From: 2010.05.17/outbox.ucp.g08.bks.cvg/sg46_12_cif.got.tgz:23713.got - 2010.06.11 16:34:52.
