data_PCOD9381597
_publ_section_title
;
Structure prediction by ZEFSAII (Michael W. Deem and Ramdas Pophale) SiO2 
 PCOD9381597
Probable space group: P M M M
;
_chemical_formula_sum "Si O2"
_cell_formula_units_Z 44
_cell_length_a 23.880620
_cell_length_b 9.535940
_cell_length_c 14.523123
_cell_angle_alpha 90.000000
_cell_angle_beta 90.000000
_cell_angle_gamma 90.000000
_cell_volume 3307.265978
_symmetry_space_group_name_H-M "P M M M"
_symmetry_group_IT_number 47
_symmetry_cell_setting 'orthorhombic'
loop_
_space_group_symop_operation_xyz
x,y,z
-x,-y,z
x,-y,-z
-x,y,-z
-x,-y,-z
x,y,-z
-x,y,z
x,-y,z
loop_
_atom_site_type_symbol
_atom_site_label
_atom_site_fract_x
_atom_site_fract_y
_atom_site_fract_z
Si Si1 0.830354 0.839029 0.887929
Si Si2 0.391394 0.331400 0.223191
Si Si3 0.566303 0.832788 0.606433
Si Si4 0.500000 0.670342 0.105126
Si Si5 0.062895 0.662589 0.111960
Si Si6 0.280014 0.666721 0.108565
O O1 0.886637 0.760529 0.856129
O O2 0.774593 0.753743 0.862993
O O3 0.828359 0.000000 0.857545
O O4 0.831915 0.838840 0.000000
O O5 0.394195 0.500000 0.235748
O O6 0.398558 0.253566 0.319824
O O7 0.444236 0.288338 0.159788
O O8 0.334119 0.299398 0.169540
O O9 0.579866 0.799970 0.500000
O O10 0.500000 0.801718 0.619770
O O11 0.573368 0.000000 0.619261
O O12 0.500000 0.500000 0.102045
O O13 0.500000 0.720796 0.000000
O O14 0.072037 0.500000 0.137945
O O15 0.000000 0.704665 0.140886
O O16 0.063193 0.665966 0.000000
O O17 0.268712 0.500000 0.116453
O O18 0.291619 0.694224 0.000000
#
# Coordination Sequence:
#
# PCOD9381597 Si02
#       6
#     8   8   8   4   8   8
#     4   9  16  24  34  49  69  95 128 164 197 226
#     4  10  18  28  44  64  79  97 128 164 198 231
#     4   9  18  32  47  61  79 102 123 148 192 246
#     4   9  16  26  40  59  82 102 123 157 198 235
#     4   8  13  21  33  48  66  90 121 158 199 237
#     4   9  17  28  40  54  75 104 134 161 193 235
#
# _framework density 13.304040000000001
#
# number of rings (size 3 to 8) (size 9 to 14) (size 15 to 20)
#    0.000    3.000    0.909    2.182    0.000    5.818 
#    0.000    2.727    0.000    2.182    0.000    0.000 
#    0.000    0.000    0.000    0.000    0.000    0.909 
#
# Total GULP energy -244958.919790 kJ/mol
# GULP energy per Si atom -5567.248177 kJ/mol
# Density = 1.327376 g / cm^3
# Si number density = 13.304040 Si / 1000 Ang^3
#
#
#
# Elastic Constant Matrix: (Units=GPa)
#
#
# Indices 1 2 3 4 5 6 
#
# 1 133.0087 70.8427 47.0971 0.0000 0.0000 0.0000
# 2 70.8427 56.0830 36.6516 0.0000 0.0000 0.0000
# 3 47.0971 36.6516 59.2363 0.0000 0.0000 0.0000
# 4 0.0000 0.0000 0.0000 14.6259 0.0000 0.0000
# 5 0.0000 0.0000 0.0000 0.0000 2.6071 0.0000
# 6 0.0000 0.0000 0.0000 0.0000 0.0000 14.4535
#
#
#
# Elastic Compliance Matrix: (Units=1/GPa)
#
#
# Indices 1 2 3 4 5 6 
#
# 1 0.022987 -0.028696 -0.000521 0.000000 0.000000 0.000000
# 2 -0.028696 0.065758 -0.017872 0.000000 0.000000 0.000000
# 3 -0.000521 -0.017872 0.028354 0.000000 0.000000 0.000000
# 4 0.000000 0.000000 0.000000 0.068372 0.000000 0.000000
# 5 0.000000 0.000000 0.000000 0.000000 0.383563 0.000000
# 6 0.000000 0.000000 0.000000 0.000000 0.000000 0.069187
#
#
# Mechanical properties :
#
#
# Convention : Reuss Voigt Hill
#
# Bulk Modulus (GPa) = 43.62711 61.94567 52.78639
# Shear Modulus (GPa) = 6.75641 12.58641 9.67141
#
# Velocity S-wave (km/s) = 2.25599 3.07914 2.69913
# Velocity P-wave (km/s) = 6.29679 7.70092 7.03398
#
# Compressibility (1/GPa) = 0.02292153
#
# Stress axis : x y z
#
# Youngs Moduli (GPa) = 43.50368 15.20727 35.26884
#
# Poissons Ratio (x) = 0.43638 0.01837
# Poissons Ratio (y) = 1.24837 0.63032
# Poissons Ratio (z) = 0.02266 0.27178
#
# Static dielectric constant tensor:
#      x y z
#    x 1.434210 0.000000 0.000000 
#    y 0.000000 1.440760 0.000000 
#    z 0.000000 0.000000 1.404900 
# 
# From -- ./inp_files/25375.got.cif
#   From: 2010.05.17/outbox.cif.g08.bks.cpg/sg47_13_cif.got.tgz:25375.got - 2010.06.03 20:15:42.
