data_PCOD9381470
_publ_section_title
;
Structure prediction by ZEFSAII (Michael W. Deem and Ramdas Pophale) SiO2 
 PCOD9381470
Probable space group: P M M M
;
_chemical_formula_sum "Si O2"
_cell_formula_units_Z 40
_cell_length_a 24.127531
_cell_length_b 12.957284
_cell_length_c 7.875104
_cell_angle_alpha 90.000000
_cell_angle_beta 90.000000
_cell_angle_gamma 90.000000
_cell_volume 2461.972275
_symmetry_space_group_name_H-M "P M M M"
_symmetry_group_IT_number 47
_symmetry_cell_setting 'orthorhombic'
loop_
_space_group_symop_operation_xyz
x,y,z
-x,-y,z
x,-y,-z
-x,y,-z
-x,-y,-z
x,y,-z
-x,y,z
x,-y,z
loop_
_atom_site_type_symbol
_atom_site_label
_atom_site_fract_x
_atom_site_fract_y
_atom_site_fract_z
Si Si1 0.213449 0.758837 0.690079
Si Si2 0.938862 0.737742 0.000000
Si Si3 0.559947 0.121771 0.704549
Si Si4 0.100390 0.121397 0.303423
Si Si5 0.824008 0.622114 0.000000
Si Si6 0.319335 0.119625 0.200180
O O1 0.207646 0.716052 0.500000
O O2 0.164805 0.844242 0.711835
O O3 0.272436 0.813681 0.710787
O O4 0.203415 0.674481 0.834708
O O5 0.931253 0.810057 0.165760
O O6 0.888464 0.657033 0.000000
O O7 0.000000 0.691165 0.000000
O O8 0.561681 0.128124 0.500000
O O9 0.500000 0.165063 0.760881
O O10 0.618312 0.161573 0.772981
O O11 0.559235 0.000000 0.750295
O O12 0.083717 0.140390 0.500000
O O13 0.094245 0.000000 0.268953
O O14 0.818438 0.500000 0.000000
O O15 0.317913 0.000000 0.260849
O O16 0.307243 0.119195 0.000000
#
# Coordination Sequence:
#
# PCOD9381470 Si02
#       6
#     8   4   8   8   4   8
#     4  10  19  33  52  73  98 127 161 201 245 292
#     4  10  21  35  52  75  99 127 161 195 231 278
#     4   8  14  24  36  53  85 132 178 209 232 265
#     4   9  18  31  48  72 103 137 165 191 227 272
#     4  10  22  40  57  74  95 118 152 202 253 300
#     4  10  18  26  41  68 101 135 168 201 237 281
#
# _framework density 16.247138
#
# number of rings (size 3 to 8) (size 9 to 14) (size 15 to 20)
#    0.000    2.600    1.000    2.100    0.000    4.200 
#    0.000    3.000    0.000    0.000    0.000    5.600 
#    0.000    1.600    0.000    4.200    0.000    0.200 
#
# Total GULP energy -222905.009863 kJ/mol
# GULP energy per Si atom -5572.625247 kJ/mol
# Density = 1.621016 g / cm^3
# Si number density = 16.247138 Si / 1000 Ang^3
#
#
#
# Elastic Constant Matrix: (Units=GPa)
#
#
# Indices 1 2 3 4 5 6 
#
# 1 103.2191 20.3564 28.0471 0.0000 0.0000 0.0000
# 2 20.3564 58.0970 27.6068 0.0000 0.0000 0.0000
# 3 28.0471 27.6068 69.9013 0.0000 0.0000 0.0000
# 4 0.0000 0.0000 0.0000 7.6938 0.0000 0.0000
# 5 0.0000 0.0000 0.0000 0.0000 17.3198 0.0000
# 6 0.0000 0.0000 0.0000 0.0000 0.0000 5.7145
#
#
#
# Elastic Compliance Matrix: (Units=1/GPa)
#
#
# Indices 1 2 3 4 5 6 
#
# 1 0.011094 -0.002181 -0.003590 0.000000 0.000000 0.000000
# 2 -0.002181 0.021618 -0.007663 0.000000 0.000000 0.000000
# 3 -0.003590 -0.007663 0.018772 0.000000 0.000000 0.000000
# 4 0.000000 0.000000 0.000000 0.129974 0.000000 0.000000
# 5 0.000000 0.000000 0.000000 0.000000 0.057737 0.000000
# 6 0.000000 0.000000 0.000000 0.000000 0.000000 0.174993
#
#
# Mechanical properties :
#
#
# Convention : Reuss Voigt Hill
#
# Bulk Modulus (GPa) = 40.62237 42.58199 41.60218
# Shear Modulus (GPa) = 11.12937 16.49277 13.81107
#
# Velocity S-wave (km/s) = 2.62010 3.18955 2.91875
# Velocity P-wave (km/s) = 5.84896 6.31111 6.08442
#
# Compressibility (1/GPa) = 0.02461698
#
# Stress axis : x y z
#
# Youngs Moduli (GPa) = 90.14099 46.25763 53.26948
#
# Poissons Ratio (x) = 0.10090 0.19122
# Poissons Ratio (y) = 0.19663 0.40818
# Poissons Ratio (z) = 0.32358 0.35445
#
# Static dielectric constant tensor:
#      x y z
#    x 1.579280 0.000000 0.000000 
#    y 0.000000 1.488160 0.000000 
#    z 0.000000 0.000000 1.572680 
# 
# From -- ./inp_files/10693.got.cif
#   From: 2010.05.17/outbox.cif.g08.bks.cpg/sg47_6_cif.got.tgz:10693.got - 2010.06.03 20:15:42.
