data_PCOD9381244
_publ_section_title
;
Structure prediction by ZEFSAII (Michael W. Deem and Ramdas Pophale) SiO2 
 PCOD9381244
Probable space group: P M M M
;
_chemical_formula_sum "Si O2"
_cell_formula_units_Z 48
_cell_length_a 24.119029
_cell_length_b 7.339240
_cell_length_c 13.446935
_cell_angle_alpha 90.000000
_cell_angle_beta 90.000000
_cell_angle_gamma 90.000000
_cell_volume 2380.313803
_symmetry_space_group_name_H-M "P M M M"
_symmetry_group_IT_number 47
_symmetry_cell_setting 'orthorhombic'
loop_
_space_group_symop_operation_xyz
x,y,z
-x,-y,z
x,-y,-z
-x,y,-z
-x,-y,-z
x,y,-z
-x,y,z
x,-y,z
loop_
_atom_site_type_symbol
_atom_site_label
_atom_site_fract_x
_atom_site_fract_y
_atom_site_fract_z
Si Si1 0.436302 0.722457 0.806749
Si Si2 0.761061 0.723160 0.000000
Si Si3 0.062066 0.218949 0.886531
Si Si4 0.757012 0.277897 0.388744
Si Si5 0.371261 0.278391 0.388203
Si Si6 0.367206 0.722006 0.000000
Si Si7 0.821883 0.713871 0.198419
O O1 0.500000 0.779181 0.816868
O O2 0.435837 0.500000 0.806661
O O3 0.409595 0.781848 0.702395
O O4 0.399450 0.779845 0.900741
O O5 0.696878 0.777541 0.000000
O O6 0.792467 0.787147 0.900926
O O7 0.762665 0.500000 0.000000
O O8 0.112384 0.269575 0.815588
O O9 0.000000 0.280783 0.859132
O O10 0.060772 0.000000 0.889682
O O11 0.073670 0.282211 0.000000
O O12 0.772681 0.218591 0.500000
O O13 0.758058 0.500000 0.390021
O O14 0.692874 0.226394 0.370745
O O15 0.796309 0.212704 0.300274
O O16 0.387291 0.220314 0.500000
O O17 0.372571 0.500000 0.388418
O O18 0.367371 0.500000 0.000000
O O19 0.808590 0.500000 0.199307
#
# Coordination Sequence:
#
# PCOD9381244 Si02
#       7
#     8   4   8   8   8   4   8
#     4   9  15  20  26  37  55  87 132 172 200 234
#     4   9  16  23  34  57  81  98 122 169 224 254
#     4   9  18  32  47  63  88 120 144 162 197 252
#     4   8  14  24  38  56  79 107 136 169 213 259
#     4   8  13  21  31  43  62  90 125 166 209 246
#     4   9  15  22  29  38  62  95 122 155 204 254
#     4  10  17  26  43  67  89 106 137 182 214 239
#
# _framework density 20.165409
#
# number of rings (size 3 to 8) (size 9 to 14) (size 15 to 20)
#    0.000    3.167    0.833    2.750    0.000    5.667 
#    0.000    2.500    0.000    1.000    0.000    3.500 
#    0.000    0.000    0.000    0.000    0.000   34.167 
#
# Total GULP energy -267888.808575 kJ/mol
# GULP energy per Si atom -5581.016845 kJ/mol
# Density = 2.011951 g / cm^3
# Si number density = 20.165409 Si / 1000 Ang^3
#
#
#
# Elastic Constant Matrix: (Units=GPa)
#
#
# Indices 1 2 3 4 5 6 
#
# 1 141.2095 -3.7870 99.4094 0.0000 0.0000 0.0000
# 2 -3.7870 74.9273 5.6870 0.0000 0.0000 0.0000
# 3 99.4094 5.6870 149.7930 0.0000 0.0000 0.0000
# 4 0.0000 0.0000 0.0000 -13.2738 0.0000 0.0000
# 5 0.0000 0.0000 0.0000 0.0000 12.9612 0.0000
# 6 0.0000 0.0000 0.0000 0.0000 0.0000 61.6139
#
#
#
# Elastic Compliance Matrix: (Units=1/GPa)
#
#
# Indices 1 2 3 4 5 6 
#
# 1 0.013428 0.001359 -0.008963 0.000000 0.000000 0.000000
# 2 0.001359 0.013522 -0.001415 0.000000 0.000000 0.000000
# 3 -0.008963 -0.001415 0.012678 0.000000 0.000000 0.000000
# 4 0.000000 0.000000 0.000000 -0.075336 0.000000 0.000000
# 5 0.000000 0.000000 0.000000 0.000000 0.077153 0.000000
# 6 0.000000 0.000000 0.000000 0.000000 0.000000 0.016230
#
#
# Mechanical properties :
#
#
# Convention : Reuss Voigt Hill
#
# Bulk Modulus (GPa) = 46.31855 63.17206 54.74530
# Shear Modulus (GPa) = 60.30627 29.90163 45.10395
#
# Velocity S-wave (km/s) = 5.47455 3.85491 4.73451
# Velocity P-wave (km/s) = 7.93600 7.15603 7.55609
#
# Compressibility (1/GPa) = 0.02158962
#
# Stress axis : x y z
#
# Youngs Moduli (GPa) = 74.47179 73.95150 78.87786
#
# Poissons Ratio (x) = -0.10050 0.70698
# Poissons Ratio (y) = -0.10120 0.11163
# Poissons Ratio (z) = 0.66749 0.10466
#
# Static dielectric constant tensor:
#      x y z
#    x 1.674380 0.000000 0.000000 
#    y 0.000000 1.802560 0.000000 
#    z 0.000000 0.000000 1.693730 
# 
# From -- ./inp_files/19115.got.cif
#   From: 2010.05.17/outbox.cif.g08.bks.cpg/sg47_10_cif.got.tgz:19115.got - 2010.06.03 20:15:42.
