data_PCOD9381086
_publ_section_title
;
Structure prediction by ZEFSAII (Michael W. Deem and Ramdas Pophale) SiO2 
 PCOD9381086
Probable space group: I M A 2
;
_chemical_formula_sum "Si O2"
_cell_formula_units_Z 32
_cell_length_a 9.000000
_cell_length_b 15.000000
_cell_length_c 30.000000
_cell_angle_alpha 90.000000
_cell_angle_beta 90.000000
_cell_angle_gamma 90.000000
_cell_volume 4050.000000
_symmetry_space_group_name_H-M "I M A 2"
_symmetry_group_IT_number 46
_symmetry_cell_setting 'orthorhombic'
loop_
_space_group_symop_operation_xyz
x,y,z
-x,-y,z
1/2-x,y,z
1/2+x,-y,z
1/2+x,1/2+y,1/2+z
1/2-x,1/2-y,1/2+z
-x,1/2+y,1/2+z
x,1/2-y,1/2+z
loop_
_atom_site_type_symbol
_atom_site_label
_atom_site_fract_x
_atom_site_fract_y
_atom_site_fract_z
Si Si1 0.429917 0.714829 0.534730
Si Si2 0.571451 0.403926 0.891585
Si Si3 0.929205 0.097734 0.121974
Si Si4 0.929376 0.098126 0.226181
Si Si5 0.070048 0.773145 0.309899
Si Si6 0.928598 0.902484 0.955743
Si Si7 0.429065 0.098727 0.851364
Si Si8 0.571141 0.403051 0.994717
O O1 0.250000 0.708868 0.531102
O O2 0.470948 0.667929 0.582350
O O3 0.502412 0.661477 0.493356
O O4 0.469656 0.819490 0.526617
O O5 0.500000 0.500000 0.882240
O O6 0.750000 0.411954 0.890327
O O7 0.529642 0.334414 0.852915
O O8 0.530757 0.379693 0.942910
O O9 0.750000 0.089593 0.120429
O O10 0.967562 0.121855 0.174031
O O11 0.000000 0.000000 0.113103
O O12 0.750000 0.089531 0.228372
O O13 0.970700 0.171648 0.264362
O O14 0.000000 0.000000 0.235211
O O15 0.250000 0.762379 0.309300
O O16 0.995664 0.676729 0.319765
O O17 0.750000 0.906212 0.960602
O O18 0.961083 0.877695 0.903794
O O19 0.000000 0.000000 0.962476
O O20 0.250000 0.093739 0.846452
O O21 0.500000 0.000000 0.843485
O O22 0.500000 0.500000 0.004869
O O23 0.750000 0.412589 0.996398
#
# Coordination Sequence:
#
# PCOD9381086 Si02
#       8
#     8   8   8   8   8   8   8   8
#     4  10  19  31  49  70  94 127 164 200 239 284
#     4   9  17  28  43  65  93 122 152 187 228 276
#     4   9  18  32  49  71  98 126 156 192 237 286
#     4   9  18  32  50  73 100 128 157 193 238 285
#     4  10  19  31  49  71  95 125 159 194 235 283
#     4  10  20  32  47  70  99 128 158 194 236 283
#     4  10  21  35  50  69  95 127 161 198 238 280
#     4   9  18  31  45  63  89 121 155 192 232 273
#
# _framework density 7.9012349999999998
#
# number of rings (size 3 to 8) (size 9 to 14) (size 15 to 20)
#    0.000    2.500    0.000    2.250    0.000    5.500 
#    0.000    2.500    0.000    0.750    0.000    1.750 
#    0.000    0.000    0.000    0.000    0.000    0.000 
#
# Total GULP energy -178335.967709 kJ/mol
# GULP energy per Si atom -5572.998991 kJ/mol
# Density = 0.788325 g / cm^3
# Si number density = 7.901235 Si / 1000 Ang^3
#
#
#
# Elastic Constant Matrix: (Units=GPa)
#
#
# Indices 1 2 3 4 5 6 
#
# 1 31.6353 34.5776 32.5527 0.0000 0.0000 0.0000
# 2 34.5776 137.2238 87.5977 0.0000 0.0000 0.0000
# 3 32.5527 87.5977 121.4586 0.0000 0.0000 0.0000
# 4 0.0000 0.0000 0.0000 36.3639 0.0000 0.0000
# 5 0.0000 0.0000 0.0000 0.0000 22.3809 0.0000
# 6 0.0000 0.0000 0.0000 0.0000 0.0000 32.9798
#
#
#
# Elastic Compliance Matrix: (Units=1/GPa)
#
#
# Indices 1 2 3 4 5 6 
#
# 1 0.047066 -0.007056 -0.007526 0.000000 0.000000 0.000000
# 2 -0.007056 0.014563 -0.008612 0.000000 0.000000 0.000000
# 3 -0.007526 -0.008612 0.016461 0.000000 0.000000 0.000000
# 4 0.000000 0.000000 0.000000 0.027500 0.000000 0.000000
# 5 0.000000 0.000000 0.000000 0.000000 0.044681 0.000000
# 6 0.000000 0.000000 0.000000 0.000000 0.000000 0.030322
#
#
# Mechanical properties :
#
#
# Convention : Reuss Voigt Hill
#
# Bulk Modulus (GPa) = 31.54217 66.64152 49.09185
# Shear Modulus (GPa) = 21.04853 27.38424 24.21639
#
# Velocity S-wave (km/s) = 3.65359 4.16734 3.91889
# Velocity P-wave (km/s) = 6.14832 8.08819 7.18403
#
# Compressibility (1/GPa) = 0.03170359
#
# Stress axis : x y z
#
# Youngs Moduli (GPa) = 21.24675 68.66905 60.74889
#
# Poissons Ratio (x) = 0.48450 0.45718
# Poissons Ratio (y) = 0.14991 0.52316
# Poissons Ratio (z) = 0.15990 0.59136
#
# Static dielectric constant tensor:
#      x y z
#    x 1.530740 0.000000 0.000000 
#    y 0.000000 1.520120 0.000000 
#    z 0.000000 0.000000 1.541210 
# 
# From -- ./inp_files/25207.got.cif
#   From: 2010.05.17/outbox.ucp.g08.bks.cvg/sg46_13_cif.got.tgz:25207.got - 2010.06.11 16:34:52.
