data_PCOD9381088
_publ_section_title
;
Structure prediction by ZEFSAII (Michael W. Deem and Ramdas Pophale) SiO2 
 PCOD9381088
Probable space group: I M A 2
;
_chemical_formula_sum "Si O2"
_cell_formula_units_Z 28
_cell_length_a 9.000000
_cell_length_b 15.000000
_cell_length_c 21.000000
_cell_angle_alpha 90.000000
_cell_angle_beta 90.000000
_cell_angle_gamma 90.000000
_cell_volume 2835.000000
_symmetry_space_group_name_H-M "I M A 2"
_symmetry_group_IT_number 46
_symmetry_cell_setting 'orthorhombic'
loop_
_space_group_symop_operation_xyz
x,y,z
-x,-y,z
1/2-x,y,z
1/2+x,-y,z
1/2+x,1/2+y,1/2+z
1/2-x,1/2-y,1/2+z
-x,1/2+y,1/2+z
x,1/2-y,1/2+z
loop_
_atom_site_type_symbol
_atom_site_label
_atom_site_fract_x
_atom_site_fract_y
_atom_site_fract_z
Si Si1 0.072128 0.273716 0.211950
Si Si2 0.073425 0.316273 0.352287
Si Si3 0.579856 0.086821 0.507305
Si Si4 0.427754 0.250611 0.567014
Si Si5 0.082214 0.914836 0.227161
Si Si6 0.069760 0.598129 0.479700
Si Si7 0.088469 0.637637 0.866730
O O1 0.250000 0.275600 0.214911
O O2 0.024596 0.327255 0.276848
O O3 0.030919 0.288435 0.137605
O O4 0.011061 0.173943 0.218395
O O5 0.250000 0.334758 0.357045
O O6 0.988998 0.366723 0.410008
O O7 0.038715 0.211728 0.364024
O O8 0.750000 0.097184 0.529940
O O9 0.480049 0.171776 0.521505
O O10 0.585383 0.082534 0.430916
O O11 0.500000 0.000000 0.534108
O O12 0.250000 0.265861 0.566252
O O13 0.509458 0.337106 0.536687
O O14 0.250000 0.905874 0.202769
O O15 0.089499 0.921287 0.303754
O O16 0.000000 0.000000 0.199478
O O17 0.250000 0.597286 0.480139
O O18 0.000000 0.500000 0.488662
O O19 0.250000 0.687005 0.866389
#
# Coordination Sequence:
#
# PCOD9381088 Si02
#       7
#     8   8   8   8   8   8   8
#     4   9  21  39  60  84 116 158 202 249 308 373
#     4  10  19  36  62  90 119 156 199 249 307 364
#     4  11  22  36  57  86 120 156 197 242 296 358
#     4  11  23  42  64  90 124 163 207 258 315 377
#     4  10  19  31  50  78 113 151 192 236 288 350
#     4  12  25  42  65  95 128 167 216 268 321 380
#     4   9  18  32  52  81 116 151 187 232 285 346
#
# _framework density 9.8765429999999999
#
# number of rings (size 3 to 8) (size 9 to 14) (size 15 to 20)
#    0.000    1.714    1.429    3.429    0.000    3.429 
#    0.000    0.714    0.000    0.000    0.000    0.000 
#    0.000    0.000    0.000    0.000    0.000    0.000 
#
# Total GULP energy -155914.505433 kJ/mol
# GULP energy per Si atom -5568.375194 kJ/mol
# Density = 0.985406 g / cm^3
# Si number density = 9.876543 Si / 1000 Ang^3
#
#
#
# Elastic Constant Matrix: (Units=GPa)
#
#
# Indices 1 2 3 4 5 6 
#
# 1 46.3223 17.1745 29.4822 0.0000 0.0000 0.0000
# 2 17.1745 55.9000 -11.4810 0.0000 0.0000 0.0000
# 3 29.4822 -11.4810 67.5398 0.0000 0.0000 0.0000
# 4 0.0000 0.0000 0.0000 4.6595 0.0000 0.0000
# 5 0.0000 0.0000 0.0000 0.0000 15.9140 0.0000
# 6 0.0000 0.0000 0.0000 0.0000 0.0000 25.0930
#
#
#
# Elastic Compliance Matrix: (Units=1/GPa)
#
#
# Indices 1 2 3 4 5 6 
#
# 1 0.041103 -0.016904 -0.020816 0.000000 0.000000 0.000000
# 2 -0.016904 0.025488 0.011711 0.000000 0.000000 0.000000
# 3 -0.020816 0.011711 0.025883 0.000000 0.000000 0.000000
# 4 0.000000 0.000000 0.000000 0.214616 0.000000 0.000000
# 5 0.000000 0.000000 0.000000 0.000000 0.062838 0.000000
# 6 0.000000 0.000000 0.000000 0.000000 0.000000 0.039852
#
#
# Mechanical properties :
#
#
# Convention : Reuss Voigt Hill
#
# Bulk Modulus (GPa) = 24.71673 26.67929 25.69801
# Shear Modulus (GPa) = 10.52007 18.10571 14.31289
#
# Velocity S-wave (km/s) = 2.31027 3.03083 2.69474
# Velocity P-wave (km/s) = 4.43356 5.07776 4.76655
#
# Compressibility (1/GPa) = 0.04045843
#
# Stress axis : x y z
#
# Youngs Moduli (GPa) = 24.32886 39.23441 38.63496
#
# Poissons Ratio (x) = 0.66321 0.80422
# Poissons Ratio (y) = 0.41125 -0.45247
# Poissons Ratio (z) = 0.50642 -0.45949
#
# Static dielectric constant tensor:
#      x y z
#    x 1.714140 0.000000 0.000000 
#    y 0.000000 1.678860 0.000000 
#    z 0.000000 0.000000 1.773620 
# 
# From -- ./inp_files/21084.got.cif
#   From: 2010.05.17/outbox.ucp.g08.bks.cvg/sg46_11_cif.got.tgz:21084.got - 2010.06.11 16:34:52.
